MODEL 1
REMARK VINA RESULT:    -5.487      0.000      0.000
REMARK INTER + INTRA:         -10.400
REMARK INTER:                  -9.657
REMARK INTRA:                  -0.743
REMARK UNBOUND:                -0.743
REMARK SMILES CCCCCCCCCCCCCCC(=O)[O-]
REMARK SMILES IDX 9 1 10 2 11 3 12 4 13 5 14 6 15 7 16 8 17 9 8 10 7 11 6 12
REMARK SMILES IDX 5 13 4 14 3 15 2 16 1 17
REMARK H PARENT
REMARK Flexibility Score: inf
ROOT
ATOM      1  C   UNL     1      41.200  66.088  25.501  1.00  0.00     0.000 C 
ENDROOT
BRANCH   1   2
ATOM      2  C   UNL     1      41.440  65.428  24.134  1.00  0.00     0.000 C 
BRANCH   2   3
ATOM      3  C   UNL     1      41.744  63.926  24.245  1.00  0.00     0.000 C 
BRANCH   3   4
ATOM      4  C   UNL     1      42.269  63.530  25.635  1.00  0.00     0.000 C 
BRANCH   4   5
ATOM      5  C   UNL     1      42.736  62.066  25.695  1.00  0.00     0.006 C 
BRANCH   5   6
ATOM      6  C   UNL     1      43.919  61.860  26.649  1.00  0.00     0.053 C 
BRANCH   6   7
ATOM      7  C   UNL     1      45.212  62.077  25.929  1.00  0.00     0.041 C 
ATOM      8  O   UNL     1      45.446  61.472  24.850  1.00  0.00    -0.550 OA
ATOM      9  O   UNL     1      46.182  62.910  26.475  1.00  0.00    -0.550 OA
ENDBRANCH   6   7
ENDBRANCH   5   6
ENDBRANCH   4   5
ENDBRANCH   3   4
ENDBRANCH   2   3
ENDBRANCH   1   2
BRANCH   1  10
ATOM     10  C   UNL     1      40.061  67.113  25.423  1.00  0.00     0.000 C 
BRANCH  10  11
ATOM     11  C   UNL     1      39.059  66.741  24.324  1.00  0.00    -0.000 C 
BRANCH  11  12
ATOM     12  C   UNL     1      37.784  67.586  24.434  1.00  0.00    -0.000 C 
BRANCH  12  13
ATOM     13  C   UNL     1      37.083  67.352  25.778  1.00  0.00    -0.000 C 
BRANCH  13  14
ATOM     14  C   UNL     1      35.564  67.544  25.649  1.00  0.00    -0.000 C 
BRANCH  14  15
ATOM     15  C   UNL     1      34.774  66.617  26.596  1.00  0.00    -0.000 C 
BRANCH  15  16
ATOM     16  C   UNL     1      34.698  65.159  26.110  1.00  0.00    -0.003 C 
ATOM     17  C   UNL     1      34.920  64.143  27.228  1.00  0.00     0.004 C 
ENDBRANCH  15  16
ENDBRANCH  14  15
ENDBRANCH  13  14
ENDBRANCH  12  13
ENDBRANCH  11  12
ENDBRANCH  10  11
ENDBRANCH   1  10
TORSDOF 13
ENDMDL
MODEL 2
REMARK VINA RESULT:    -5.486      3.961      8.381
REMARK INTER + INTRA:         -10.398
REMARK INTER:                  -9.637
REMARK INTRA:                  -0.761
REMARK UNBOUND:                -0.743
REMARK SMILES CCCCCCCCCCCCCCC(=O)[O-]
REMARK SMILES IDX 9 1 10 2 11 3 12 4 13 5 14 6 15 7 16 8 17 9 8 10 7 11 6 12
REMARK SMILES IDX 5 13 4 14 3 15 2 16 1 17
REMARK H PARENT
REMARK Flexibility Score: inf
ROOT
ATOM      1  C   UNL     1      40.256  66.968  25.488  1.00  0.00     0.000 C 
ENDROOT
BRANCH   1   2
ATOM      2  C   UNL     1      39.369  66.684  24.266  1.00  0.00     0.000 C 
BRANCH   2   3
ATOM      3  C   UNL     1      38.046  67.465  24.299  1.00  0.00     0.000 C 
BRANCH   3   4
ATOM      4  C   UNL     1      37.273  67.264  25.614  1.00  0.00     0.000 C 
BRANCH   4   5
ATOM      5  C   UNL     1      35.768  67.541  25.462  1.00  0.00     0.006 C 
BRANCH   5   6
ATOM      6  C   UNL     1      34.935  66.918  26.589  1.00  0.00     0.053 C 
BRANCH   6   7
ATOM      7  C   UNL     1      34.733  65.456  26.340  1.00  0.00     0.041 C 
ATOM      8  O   UNL     1      34.254  65.060  25.246  1.00  0.00    -0.550 OA
ATOM      9  O   UNL     1      35.029  64.534  27.337  1.00  0.00    -0.550 OA
ENDBRANCH   6   7
ENDBRANCH   5   6
ENDBRANCH   4   5
ENDBRANCH   3   4
ENDBRANCH   2   3
ENDBRANCH   1   2
BRANCH   1  10
ATOM     10  C   UNL     1      41.349  65.902  25.631  1.00  0.00     0.000 C 
BRANCH  10  11
ATOM     11  C   UNL     1      41.602  65.189  24.297  1.00  0.00    -0.000 C 
BRANCH  11  12
ATOM     12  C   UNL     1      41.686  63.670  24.494  1.00  0.00    -0.000 C 
BRANCH  12  13
ATOM     13  C   UNL     1      42.414  63.323  25.798  1.00  0.00    -0.000 C 
BRANCH  13  14
ATOM     14  C   UNL     1      42.924  61.874  25.776  1.00  0.00    -0.000 C 
BRANCH  14  15
ATOM     15  C   UNL     1      44.303  61.728  26.451  1.00  0.00    -0.000 C 
BRANCH  15  16
ATOM     16  C   UNL     1      45.468  62.259  25.598  1.00  0.00    -0.003 C 
ATOM     17  C   UNL     1      46.502  63.032  26.411  1.00  0.00     0.004 C 
ENDBRANCH  15  16
ENDBRANCH  14  15
ENDBRANCH  13  14
ENDBRANCH  12  13
ENDBRANCH  11  12
ENDBRANCH  10  11
ENDBRANCH   1  10
TORSDOF 13
ENDMDL
MODEL 3
REMARK VINA RESULT:    -5.398      0.885      1.781
REMARK INTER + INTRA:         -10.243
REMARK INTER:                  -9.524
REMARK INTRA:                  -0.719
REMARK UNBOUND:                -0.743
REMARK SMILES CCCCCCCCCCCCCCC(=O)[O-]
REMARK SMILES IDX 9 1 10 2 11 3 12 4 13 5 14 6 15 7 16 8 17 9 8 10 7 11 6 12
REMARK SMILES IDX 5 13 4 14 3 15 2 16 1 17
REMARK H PARENT
REMARK Flexibility Score: inf
ROOT
ATOM      1  C   UNL     1      41.672  65.268  24.264  1.00  0.00     0.000 C 
ENDROOT
BRANCH   1   2
ATOM      2  C   UNL     1      41.728  63.745  24.462  1.00  0.00     0.000 C 
BRANCH   2   3
ATOM      3  C   UNL     1      42.308  63.345  25.828  1.00  0.00     0.000 C 
BRANCH   3   4
ATOM      4  C   UNL     1      42.931  61.939  25.816  1.00  0.00     0.000 C 
BRANCH   4   5
ATOM      5  C   UNL     1      44.342  61.914  26.430  1.00  0.00     0.006 C 
BRANCH   5   6
ATOM      6  C   UNL     1      45.444  62.136  25.387  1.00  0.00     0.053 C 
BRANCH   6   7
ATOM      7  C   UNL     1      46.556  62.950  25.970  1.00  0.00     0.041 C 
ATOM      8  O   UNL     1      47.526  63.305  25.251  1.00  0.00    -0.550 OA
ATOM      9  O   UNL     1      46.547  63.274  27.322  1.00  0.00    -0.550 OA
ENDBRANCH   6   7
ENDBRANCH   5   6
ENDBRANCH   4   5
ENDBRANCH   3   4
ENDBRANCH   2   3
ENDBRANCH   1   2
BRANCH   1  10
ATOM     10  C   UNL     1      41.276  65.976  25.565  1.00  0.00     0.000 C 
BRANCH  10  11
ATOM     11  C   UNL     1      40.224  67.061  25.304  1.00  0.00    -0.000 C 
BRANCH  11  12
ATOM     12  C   UNL     1      39.236  66.618  24.218  1.00  0.00    -0.000 C 
BRANCH  12  13
ATOM     13  C   UNL     1      37.933  67.422  24.299  1.00  0.00    -0.000 C 
BRANCH  13  14
ATOM     14  C   UNL     1      37.225  67.193  25.643  1.00  0.00    -0.000 C 
BRANCH  14  15
ATOM     15  C   UNL     1      35.808  67.803  25.670  1.00  0.00    -0.000 C 
BRANCH  15  16
ATOM     16  C   UNL     1      34.795  66.977  26.482  1.00  0.00    -0.003 C 
ATOM     17  C   UNL     1      34.857  65.483  26.172  1.00  0.00     0.004 C 
ENDBRANCH  15  16
ENDBRANCH  14  15
ENDBRANCH  13  14
ENDBRANCH  12  13
ENDBRANCH  11  12
ENDBRANCH  10  11
ENDBRANCH   1  10
TORSDOF 13
ENDMDL
MODEL 4
REMARK VINA RESULT:    -5.301      5.453      7.086
REMARK INTER + INTRA:         -10.072
REMARK INTER:                  -9.417
REMARK INTRA:                  -0.655
REMARK UNBOUND:                -0.743
REMARK SMILES CCCCCCCCCCCCCCC(=O)[O-]
REMARK SMILES IDX 9 1 10 2 11 3 12 4 13 5 14 6 15 7 16 8 17 9 8 10 7 11 6 12
REMARK SMILES IDX 5 13 4 14 3 15 2 16 1 17
REMARK H PARENT
REMARK Flexibility Score: inf
ROOT
ATOM      1  C   UNL     1      41.836  67.905  24.127  1.00  0.00     0.000 C 
ENDROOT
BRANCH   1   2
ATOM      2  C   UNL     1      42.820  69.041  23.807  1.00  0.00     0.000 C 
BRANCH   2   3
ATOM      3  C   UNL     1      43.228  69.841  25.053  1.00  0.00     0.000 C 
BRANCH   3   4
ATOM      4  C   UNL     1      44.249  70.948  24.737  1.00  0.00     0.000 C 
BRANCH   4   5
ATOM      5  C   UNL     1      43.782  72.334  25.212  1.00  0.00     0.006 C 
BRANCH   5   6
ATOM      6  C   UNL     1      42.831  73.012  24.218  1.00  0.00     0.053 C 
BRANCH   6   7
ATOM      7  C   UNL     1      41.676  73.630  24.940  1.00  0.00     0.041 C 
ATOM      8  O   UNL     1      40.776  74.232  24.297  1.00  0.00    -0.550 OA
ATOM      9  O   UNL     1      41.617  73.585  26.328  1.00  0.00    -0.550 OA
ENDBRANCH   6   7
ENDBRANCH   5   6
ENDBRANCH   4   5
ENDBRANCH   3   4
ENDBRANCH   2   3
ENDBRANCH   1   2
BRANCH   1  10
ATOM     10  C   UNL     1      41.353  67.219  22.843  1.00  0.00     0.000 C 
BRANCH  10  11
ATOM     11  C   UNL     1      40.048  66.451  23.086  1.00  0.00    -0.000 C 
BRANCH  11  12
ATOM     12  C   UNL     1      39.453  66.799  24.455  1.00  0.00    -0.000 C 
BRANCH  12  13
ATOM     13  C   UNL     1      37.966  67.155  24.335  1.00  0.00    -0.000 C 
BRANCH  13  14
ATOM     14  C   UNL     1      37.359  67.464  25.713  1.00  0.00    -0.000 C 
BRANCH  14  15
ATOM     15  C   UNL     1      35.845  67.749  25.635  1.00  0.00    -0.000 C 
BRANCH  15  16
ATOM     16  C   UNL     1      35.003  66.878  26.583  1.00  0.00    -0.003 C 
ATOM     17  C   UNL     1      34.675  65.505  26.002  1.00  0.00     0.004 C 
ENDBRANCH  15  16
ENDBRANCH  14  15
ENDBRANCH  13  14
ENDBRANCH  12  13
ENDBRANCH  11  12
ENDBRANCH  10  11
ENDBRANCH   1  10
TORSDOF 13
ENDMDL
MODEL 5
REMARK VINA RESULT:    -5.246      5.038      6.389
REMARK INTER + INTRA:          -9.976
REMARK INTER:                  -9.381
REMARK INTRA:                  -0.595
REMARK UNBOUND:                -0.743
REMARK SMILES CCCCCCCCCCCCCCC(=O)[O-]
REMARK SMILES IDX 9 1 10 2 11 3 12 4 13 5 14 6 15 7 16 8 17 9 8 10 7 11 6 12
REMARK SMILES IDX 5 13 4 14 3 15 2 16 1 17
REMARK H PARENT
REMARK Flexibility Score: inf
ROOT
ATOM      1  C   UNL     1      41.294  67.198  23.130  1.00  0.00     0.000 C 
ENDROOT
BRANCH   1   2
ATOM      2  C   UNL     1      41.821  68.080  24.273  1.00  0.00     0.000 C 
BRANCH   2   3
ATOM      3  C   UNL     1      42.949  69.022  23.824  1.00  0.00     0.000 C 
BRANCH   3   4
ATOM      4  C   UNL     1      43.508  69.867  24.981  1.00  0.00     0.000 C 
BRANCH   4   5
ATOM      5  C   UNL     1      44.350  71.057  24.490  1.00  0.00     0.006 C 
BRANCH   5   6
ATOM      6  C   UNL     1      44.079  72.341  25.283  1.00  0.00     0.053 C 
BRANCH   6   7
ATOM      7  C   UNL     1      42.907  73.072  24.706  1.00  0.00     0.041 C 
ATOM      8  O   UNL     1      42.901  73.400  23.491  1.00  0.00    -0.550 OA
ATOM      9  O   UNL     1      41.843  73.434  25.523  1.00  0.00    -0.550 OA
ENDBRANCH   6   7
ENDBRANCH   5   6
ENDBRANCH   4   5
ENDBRANCH   3   4
ENDBRANCH   2   3
ENDBRANCH   1   2
BRANCH   1  10
ATOM     10  C   UNL     1      40.186  66.260  23.626  1.00  0.00     0.000 C 
BRANCH  10  11
ATOM     11  C   UNL     1      39.466  66.853  24.843  1.00  0.00    -0.000 C 
BRANCH  11  12
ATOM     12  C   UNL     1      38.053  67.320  24.471  1.00  0.00    -0.000 C 
BRANCH  12  13
ATOM     13  C   UNL     1      37.205  67.562  25.725  1.00  0.00    -0.000 C 
BRANCH  13  14
ATOM     14  C   UNL     1      35.706  67.446  25.409  1.00  0.00    -0.000 C 
BRANCH  14  15
ATOM     15  C   UNL     1      34.931  66.695  26.511  1.00  0.00    -0.000 C 
BRANCH  15  16
ATOM     16  C   UNL     1      34.632  65.226  26.164  1.00  0.00    -0.003 C 
ATOM     17  C   UNL     1      34.931  64.267  27.313  1.00  0.00     0.004 C 
ENDBRANCH  15  16
ENDBRANCH  14  15
ENDBRANCH  13  14
ENDBRANCH  12  13
ENDBRANCH  11  12
ENDBRANCH  10  11
ENDBRANCH   1  10
TORSDOF 13
ENDMDL
MODEL 6
REMARK VINA RESULT:    -5.234      5.277      8.510
REMARK INTER + INTRA:          -9.955
REMARK INTER:                  -9.332
REMARK INTRA:                  -0.622
REMARK UNBOUND:                -0.743
REMARK SMILES CCCCCCCCCCCCCCC(=O)[O-]
REMARK SMILES IDX 9 1 10 2 11 3 12 4 13 5 14 6 15 7 16 8 17 9 8 10 7 11 6 12
REMARK SMILES IDX 5 13 4 14 3 15 2 16 1 17
REMARK H PARENT
REMARK Flexibility Score: inf
ROOT
ATOM      1  C   UNL     1      40.044  66.345  23.609  1.00  0.00     0.000 C 
ENDROOT
BRANCH   1   2
ATOM      2  C   UNL     1      39.332  67.020  24.792  1.00  0.00     0.000 C 
BRANCH   2   3
ATOM      3  C   UNL     1      37.810  67.102  24.600  1.00  0.00     0.000 C 
BRANCH   3   4
ATOM      4  C   UNL     1      37.092  67.695  25.824  1.00  0.00     0.000 C 
BRANCH   4   5
ATOM      5  C   UNL     1      35.561  67.678  25.675  1.00  0.00     0.006 C 
BRANCH   5   6
ATOM      6  C   UNL     1      34.869  66.847  26.763  1.00  0.00     0.053 C 
BRANCH   6   7
ATOM      7  C   UNL     1      34.623  65.454  26.277  1.00  0.00     0.041 C 
ATOM      8  O   UNL     1      34.068  65.260  25.164  1.00  0.00    -0.550 OA
ATOM      9  O   UNL     1      34.962  64.368  27.075  1.00  0.00    -0.550 OA
ENDBRANCH   6   7
ENDBRANCH   5   6
ENDBRANCH   4   5
ENDBRANCH   3   4
ENDBRANCH   2   3
ENDBRANCH   1   2
BRANCH   1  10
ATOM     10  C   UNL     1      41.315  67.111  23.224  1.00  0.00     0.000 C 
BRANCH  10  11
ATOM     11  C   UNL     1      41.776  68.025  24.366  1.00  0.00    -0.000 C 
BRANCH  11  12
ATOM     12  C   UNL     1      42.868  68.990  23.890  1.00  0.00    -0.000 C 
BRANCH  12  13
ATOM     13  C   UNL     1      43.389  69.847  25.050  1.00  0.00    -0.000 C 
BRANCH  13  14
ATOM     14  C   UNL     1      44.287  70.984  24.538  1.00  0.00    -0.000 C 
BRANCH  14  15
ATOM     15  C   UNL     1      43.899  72.352  25.136  1.00  0.00    -0.000 C 
BRANCH  15  16
ATOM     16  C   UNL     1      42.697  73.012  24.439  1.00  0.00    -0.003 C 
ATOM     17  C   UNL     1      41.660  73.555  25.419  1.00  0.00     0.004 C 
ENDBRANCH  15  16
ENDBRANCH  14  15
ENDBRANCH  13  14
ENDBRANCH  12  13
ENDBRANCH  11  12
ENDBRANCH  10  11
ENDBRANCH   1  10
TORSDOF 13
ENDMDL
MODEL 7
REMARK VINA RESULT:    -5.195      3.650      5.877
REMARK INTER + INTRA:          -9.886
REMARK INTER:                  -9.290
REMARK INTRA:                  -0.596
REMARK UNBOUND:                -0.743
REMARK SMILES CCCCCCCCCCCCCCC(=O)[O-]
REMARK SMILES IDX 9 1 10 2 11 3 12 4 13 5 14 6 15 7 16 8 17 9 8 10 7 11 6 12
REMARK SMILES IDX 5 13 4 14 3 15 2 16 1 17
REMARK H PARENT
REMARK Flexibility Score: inf
ROOT
ATOM      1  C   UNL     1      40.413  66.541  23.699  1.00  0.00     0.000 C 
ENDROOT
BRANCH   1   2
ATOM      2  C   UNL     1      40.961  65.793  24.924  1.00  0.00     0.000 C 
BRANCH   2   3
ATOM      3  C   UNL     1      41.725  64.515  24.547  1.00  0.00     0.000 C 
BRANCH   3   4
ATOM      4  C   UNL     1      42.138  63.688  25.776  1.00  0.00     0.000 C 
BRANCH   4   5
ATOM      5  C   UNL     1      42.697  62.306  25.397  1.00  0.00     0.006 C 
BRANCH   5   6
ATOM      6  C   UNL     1      43.730  61.788  26.406  1.00  0.00     0.053 C 
BRANCH   6   7
ATOM      7  C   UNL     1      45.116  61.986  25.879  1.00  0.00     0.041 C 
ATOM      8  O   UNL     1      45.499  61.364  24.853  1.00  0.00    -0.550 OA
ATOM      9  O   UNL     1      46.004  62.820  26.549  1.00  0.00    -0.550 OA
ENDBRANCH   6   7
ENDBRANCH   5   6
ENDBRANCH   4   5
ENDBRANCH   3   4
ENDBRANCH   2   3
ENDBRANCH   1   2
BRANCH   1  10
ATOM     10  C   UNL     1      41.406  67.606  23.218  1.00  0.00     0.000 C 
BRANCH  10  11
ATOM     11  C   UNL     1      42.234  68.156  24.385  1.00  0.00    -0.000 C 
BRANCH  11  12
ATOM     12  C   UNL     1      43.168  69.279  23.915  1.00  0.00    -0.000 C 
BRANCH  12  13
ATOM     13  C   UNL     1      43.643  70.131  25.098  1.00  0.00    -0.000 C 
BRANCH  13  14
ATOM     14  C   UNL     1      44.358  71.401  24.611  1.00  0.00    -0.000 C 
BRANCH  14  15
ATOM     15  C   UNL     1      43.727  72.686  25.186  1.00  0.00    -0.000 C 
BRANCH  15  16
ATOM     16  C   UNL     1      42.470  73.148  24.431  1.00  0.00    -0.003 C 
ATOM     17  C   UNL     1      41.440  73.819  25.336  1.00  0.00     0.004 C 
ENDBRANCH  15  16
ENDBRANCH  14  15
ENDBRANCH  13  14
ENDBRANCH  12  13
ENDBRANCH  11  12
ENDBRANCH  10  11
ENDBRANCH   1  10
TORSDOF 13
ENDMDL
MODEL 8
REMARK VINA RESULT:    -5.181      5.578      8.711
REMARK INTER + INTRA:          -9.862
REMARK INTER:                  -9.305
REMARK INTRA:                  -0.557
REMARK UNBOUND:                -0.743
REMARK SMILES CCCCCCCCCCCCCCC(=O)[O-]
REMARK SMILES IDX 9 1 10 2 11 3 12 4 13 5 14 6 15 7 16 8 17 9 8 10 7 11 6 12
REMARK SMILES IDX 5 13 4 14 3 15 2 16 1 17
REMARK H PARENT
REMARK Flexibility Score: inf
ROOT
ATOM      1  C   UNL     1      41.996  68.064  24.405  1.00  0.00     0.000 C 
ENDROOT
BRANCH   1   2
ATOM      2  C   UNL     1      43.000  69.131  23.942  1.00  0.00     0.000 C 
BRANCH   2   3
ATOM      3  C   UNL     1      43.624  69.906  25.113  1.00  0.00     0.000 C 
BRANCH   3   4
ATOM      4  C   UNL     1      44.297  71.214  24.663  1.00  0.00     0.000 C 
BRANCH   4   5
ATOM      5  C   UNL     1      43.577  72.463  25.199  1.00  0.00     0.006 C 
BRANCH   5   6
ATOM      6  C   UNL     1      42.693  73.135  24.141  1.00  0.00     0.053 C 
BRANCH   6   7
ATOM      7  C   UNL     1      41.474  73.725  24.778  1.00  0.00     0.041 C 
ATOM      8  O   UNL     1      41.351  73.723  26.031  1.00  0.00    -0.550 OA
ATOM      9  O   UNL     1      40.451  74.233  23.986  1.00  0.00    -0.550 OA
ENDBRANCH   6   7
ENDBRANCH   5   6
ENDBRANCH   4   5
ENDBRANCH   3   4
ENDBRANCH   2   3
ENDBRANCH   1   2
BRANCH   1  10
ATOM     10  C   UNL     1      41.233  67.474  23.212  1.00  0.00     0.000 C 
BRANCH  10  11
ATOM     11  C   UNL     1      40.779  66.039  23.503  1.00  0.00    -0.000 C 
BRANCH  11  12
ATOM     12  C   UNL     1      41.511  65.468  24.724  1.00  0.00    -0.000 C 
BRANCH  12  13
ATOM     13  C   UNL     1      41.799  63.973  24.544  1.00  0.00    -0.000 C 
BRANCH  13  14
ATOM     14  C   UNL     1      42.243  63.334  25.869  1.00  0.00    -0.000 C 
BRANCH  14  15
ATOM     15  C   UNL     1      42.866  61.937  25.665  1.00  0.00    -0.000 C 
BRANCH  15  16
ATOM     16  C   UNL     1      44.177  61.726  26.442  1.00  0.00    -0.003 C 
ATOM     17  C   UNL     1      45.418  62.098  25.635  1.00  0.00     0.004 C 
ENDBRANCH  15  16
ENDBRANCH  14  15
ENDBRANCH  13  14
ENDBRANCH  12  13
ENDBRANCH  11  12
ENDBRANCH  10  11
ENDBRANCH   1  10
TORSDOF 13
ENDMDL
MODEL 9
REMARK VINA RESULT:    -5.160      3.810      5.779
REMARK INTER + INTRA:          -9.824
REMARK INTER:                  -9.208
REMARK INTRA:                  -0.616
REMARK UNBOUND:                -0.743
REMARK SMILES CCCCCCCCCCCCCCC(=O)[O-]
REMARK SMILES IDX 9 1 10 2 11 3 12 4 13 5 14 6 15 7 16 8 17 9 8 10 7 11 6 12
REMARK SMILES IDX 5 13 4 14 3 15 2 16 1 17
REMARK H PARENT
REMARK Flexibility Score: inf
ROOT
ATOM      1  C   UNL     1      41.368  65.301  24.574  1.00  0.00     0.000 C 
ENDROOT
BRANCH   1   2
ATOM      2  C   UNL     1      41.745  63.812  24.591  1.00  0.00     0.000 C 
BRANCH   2   3
ATOM      3  C   UNL     1      42.487  63.401  25.872  1.00  0.00     0.000 C 
BRANCH   3   4
ATOM      4  C   UNL     1      43.072  61.981  25.787  1.00  0.00     0.000 C 
BRANCH   4   5
ATOM      5  C   UNL     1      44.473  61.882  26.412  1.00  0.00     0.006 C 
BRANCH   5   6
ATOM      6  C   UNL     1      45.591  62.207  25.414  1.00  0.00     0.053 C 
BRANCH   6   7
ATOM      7  C   UNL     1      46.657  63.024  26.073  1.00  0.00     0.041 C 
ATOM      8  O   UNL     1      47.680  63.372  25.427  1.00  0.00    -0.550 OA
ATOM      9  O   UNL     1      46.545  63.361  27.417  1.00  0.00    -0.550 OA
ENDBRANCH   6   7
ENDBRANCH   5   6
ENDBRANCH   4   5
ENDBRANCH   3   4
ENDBRANCH   2   3
ENDBRANCH   1   2
BRANCH   1  10
ATOM     10  C   UNL     1      40.972  65.752  23.163  1.00  0.00     0.000 C 
BRANCH  10  11
ATOM     11  C   UNL     1      41.206  67.256  22.978  1.00  0.00    -0.000 C 
BRANCH  11  12
ATOM     12  C   UNL     1      41.819  67.875  24.240  1.00  0.00    -0.000 C 
BRANCH  12  13
ATOM     13  C   UNL     1      42.998  68.790  23.888  1.00  0.00    -0.000 C 
BRANCH  13  14
ATOM     14  C   UNL     1      43.185  69.883  24.951  1.00  0.00    -0.000 C 
BRANCH  14  15
ATOM     15  C   UNL     1      44.317  70.867  24.587  1.00  0.00    -0.000 C 
BRANCH  15  16
ATOM     16  C   UNL     1      44.092  72.292  25.121  1.00  0.00    -0.003 C 
ATOM     17  C   UNL     1      42.818  72.939  24.582  1.00  0.00     0.004 C 
ENDBRANCH  15  16
ENDBRANCH  14  15
ENDBRANCH  13  14
ENDBRANCH  12  13
ENDBRANCH  11  12
ENDBRANCH  10  11
ENDBRANCH   1  10
TORSDOF 13
ENDMDL
