MODEL 1
REMARK VINA RESULT:    11.320      0.000      0.000
REMARK INTER + INTRA:          37.151
REMARK INTER:                  26.872
REMARK INTRA:                  10.279
REMARK UNBOUND:                10.279
REMARK SMILES O=C(OC[C@H]1O[C@H](OC(=O)c2cc(O)c(O)c(O)c2)[C@H](OC(=O)c2cc(O)c(O)c(O)c2)[C@@H](OC(=O)c2cc(O)c(O)c(O)c2)[C@H]1OC(=O)c1cc(O)c(O)c(O)c1)c1cc(O)c(O)c(O)c1
REMARK SMILES IDX 5 1 46 2 33 3 20 4 7 5 6 6 4 7 3 8 2 9 1 10 59 11 60 12
REMARK SMILES IDX 61 13 67 14 63 15 65 16 62 17 64 19 66 21 47 23 48 24 49 25
REMARK SMILES IDX 50 26 58 27 51 28 56 29 52 30 54 31 57 32 53 34 55 36 34 38
REMARK SMILES IDX 35 39 36 40 37 41 45 42 38 43 43 44 39 45 41 46 44 47 40 49
REMARK SMILES IDX 42 51 8 53 9 54 10 55 11 56 19 57 12 58 17 59 13 60 15 61
REMARK SMILES IDX 18 62 14 64 16 66 21 68 22 69 23 70 24 71 32 72 25 73 30 74
REMARK SMILES IDX 26 75 28 76 31 77 27 79 29 81
REMARK H PARENT 62 18 64 20 66 22 57 33 53 35 55 37 44 48 40 50 42 52 18 63
REMARK H PARENT 14 65 16 67 31 78 27 80 29 82
REMARK Flexibility Score: inf
ROOT
ATOM      1  C   UNL     1       8.553  -1.044  14.651  1.00  0.00     0.205 C 
ATOM      2  C   UNL     1       9.770  -1.714  15.313  1.00  0.00     0.254 C 
ATOM      3  C   UNL     1       9.525  -1.720  16.826  1.00  0.00     0.267 C 
ATOM      4  C   UNL     1       8.204  -2.451  17.133  1.00  0.00     0.290 C 
ATOM      5  C   UNL     1       7.064  -1.840  16.286  1.00  0.00     0.357 C 
ATOM      6  O   UNL     1       7.380  -1.807  14.900  1.00  0.00    -0.329 OA
ENDROOT
BRANCH   1   7
ATOM      7  C   UNL     1       8.733  -0.875  13.131  1.00  0.00     0.269 C 
BRANCH   7   8
ATOM      8  O   UNL     1       8.216   0.390  12.730  1.00  0.00    -0.459 OA
BRANCH   8   9
ATOM      9  C   UNL     1       8.511   0.960  11.483  1.00  0.00     0.338 C 
ATOM     10  O   UNL     1       9.213   0.320  10.649  1.00  0.00    -0.246 OA
BRANCH   9  11
ATOM     11  C   UNL     1       8.030   2.319  11.161  1.00  0.00     0.067 A 
ATOM     12  C   UNL     1       8.275   3.382  12.040  1.00  0.00     0.066 A 
ATOM     13  C   UNL     1       7.782   4.662  11.775  1.00  0.00     0.162 A 
ATOM     14  C   UNL     1       7.283   2.553   9.988  1.00  0.00     0.066 A 
ATOM     15  C   UNL     1       7.002   4.887  10.616  1.00  0.00     0.200 A 
ATOM     16  C   UNL     1       6.763   3.825   9.725  1.00  0.00     0.162 A 
BRANCH  13  17
ATOM     17  O   UNL     1       8.100   5.678  12.677  1.00  0.00    -0.504 OA
ATOM     18  H   UNL     1       8.468   5.510  13.598  1.00  0.00     0.293 HD
ENDBRANCH  13  17
BRANCH  15  19
ATOM     19  O   UNL     1       6.449   6.139  10.327  1.00  0.00    -0.502 OA
ATOM     20  H   UNL     1       5.464   6.311  10.196  1.00  0.00     0.293 HD
ENDBRANCH  15  19
BRANCH  16  21
ATOM     21  O   UNL     1       6.006   4.011   8.568  1.00  0.00    -0.504 OA
ATOM     22  H   UNL     1       6.145   4.806   7.957  1.00  0.00     0.293 HD
ENDBRANCH  16  21
ENDBRANCH   9  11
ENDBRANCH   8   9
ENDBRANCH   7   8
ENDBRANCH   1   7
BRANCH   2  23
ATOM     23  O   UNL     1       9.902  -3.062  14.859  1.00  0.00    -0.452 OA
BRANCH  23  24
ATOM     24  C   UNL     1       9.545  -3.500  13.576  1.00  0.00     0.338 C 
ATOM     25  O   UNL     1       8.621  -4.342  13.437  1.00  0.00    -0.246 OA
BRANCH  24  26
ATOM     26  C   UNL     1      10.248  -2.950  12.397  1.00  0.00     0.067 A 
ATOM     27  C   UNL     1      10.585  -1.585  12.330  1.00  0.00     0.066 A 
ATOM     28  C   UNL     1      10.540  -3.779  11.301  1.00  0.00     0.066 A 
ATOM     29  C   UNL     1      11.191  -1.054  11.178  1.00  0.00     0.162 A 
ATOM     30  C   UNL     1      11.152  -3.257  10.157  1.00  0.00     0.162 A 
ATOM     31  C   UNL     1      11.478  -1.894  10.090  1.00  0.00     0.200 A 
BRANCH  29  32
ATOM     32  O   UNL     1      11.501   0.301  11.111  1.00  0.00    -0.504 OA
ATOM     33  H   UNL     1      10.843   0.977  10.739  1.00  0.00     0.293 HD
ENDBRANCH  29  32
BRANCH  30  34
ATOM     34  O   UNL     1      11.423  -4.112   9.091  1.00  0.00    -0.504 OA
ATOM     35  H   UNL     1      10.730  -4.758   8.728  1.00  0.00     0.293 HD
ENDBRANCH  30  34
BRANCH  31  36
ATOM     36  O   UNL     1      12.077  -1.394   8.935  1.00  0.00    -0.502 OA
ATOM     37  H   UNL     1      11.661  -0.651   8.388  1.00  0.00     0.293 HD
ENDBRANCH  31  36
ENDBRANCH  24  26
ENDBRANCH  23  24
ENDBRANCH   2  23
BRANCH   3  38
ATOM     38  O   UNL     1      10.622  -2.328  17.506  1.00  0.00    -0.450 OA
BRANCH  38  39
ATOM     39  C   UNL     1      10.990  -1.976  18.812  1.00  0.00     0.338 C 
ATOM     40  O   UNL     1      10.105  -1.810  19.695  1.00  0.00    -0.246 OA
BRANCH  39  41
ATOM     41  C   UNL     1      12.419  -1.818  19.165  1.00  0.00     0.067 A 
ATOM     42  C   UNL     1      13.009  -0.543  19.186  1.00  0.00     0.066 A 
ATOM     43  C   UNL     1      13.199  -2.941  19.487  1.00  0.00     0.066 A 
ATOM     44  C   UNL     1      14.357  -0.389  19.518  1.00  0.00     0.162 A 
ATOM     45  C   UNL     1      14.551  -2.801  19.817  1.00  0.00     0.162 A 
ATOM     46  C   UNL     1      15.143  -1.511  19.824  1.00  0.00     0.200 A 
BRANCH  44  47
ATOM     47  O   UNL     1      14.922   0.888  19.546  1.00  0.00    -0.504 OA
ATOM     48  H   UNL     1      15.415   1.271  18.743  1.00  0.00     0.293 HD
ENDBRANCH  44  47
BRANCH  45  49
ATOM     49  O   UNL     1      15.263  -3.960  20.125  1.00  0.00    -0.504 OA
ATOM     50  H   UNL     1      15.533  -4.227  21.060  1.00  0.00     0.293 HD
ENDBRANCH  45  49
BRANCH  46  51
ATOM     51  O   UNL     1      16.493  -1.300  20.121  1.00  0.00    -0.502 OA
ATOM     52  H   UNL     1      16.968  -1.726  20.909  1.00  0.00     0.293 HD
ENDBRANCH  46  51
ENDBRANCH  39  41
ENDBRANCH  38  39
ENDBRANCH   3  38
BRANCH   5  53
ATOM     53  O   UNL     1       6.732  -0.537  16.764  1.00  0.00    -0.428 OA
BRANCH  53  54
ATOM     54  C   UNL     1       6.593  -0.228  18.121  1.00  0.00     0.340 C 
ATOM     55  O   UNL     1       5.891  -0.949  18.875  1.00  0.00    -0.246 OA
BRANCH  54  56
ATOM     56  C   UNL     1       7.285   0.951  18.667  1.00  0.00     0.067 A 
ATOM     57  C   UNL     1       8.672   0.944  18.860  1.00  0.00     0.066 A 
ATOM     58  C   UNL     1       6.555   2.102  18.986  1.00  0.00     0.066 A 
ATOM     59  C   UNL     1       9.340   2.080  19.335  1.00  0.00     0.162 A 
ATOM     60  C   UNL     1       7.196   3.235  19.488  1.00  0.00     0.162 A 
ATOM     61  C   UNL     1       8.596   3.245  19.653  1.00  0.00     0.200 A 
BRANCH  59  62
ATOM     62  O   UNL     1      10.730   2.003  19.466  1.00  0.00    -0.504 OA
ATOM     63  H   UNL     1      11.221   1.194  19.830  1.00  0.00     0.293 HD
ENDBRANCH  59  62
BRANCH  60  64
ATOM     64  O   UNL     1       6.419   4.344  19.825  1.00  0.00    -0.504 OA
ATOM     65  H   UNL     1       5.408   4.340  19.731  1.00  0.00     0.293 HD
ENDBRANCH  60  64
BRANCH  61  66
ATOM     66  O   UNL     1       9.209   4.416  20.124  1.00  0.00    -0.502 OA
ATOM     67  H   UNL     1       9.418   4.594  21.097  1.00  0.00     0.293 HD
ENDBRANCH  61  66
ENDBRANCH  54  56
ENDBRANCH  53  54
ENDBRANCH   5  53
BRANCH   4  68
ATOM     68  O   UNL     1       7.866  -2.298  18.510  1.00  0.00    -0.448 OA
BRANCH  68  69
ATOM     69  C   UNL     1       7.033  -3.170  19.217  1.00  0.00     0.339 C 
ATOM     70  O   UNL     1       5.915  -2.773  19.648  1.00  0.00    -0.246 OA
BRANCH  69  71
ATOM     71  C   UNL     1       7.478  -4.557  19.469  1.00  0.00     0.067 A 
ATOM     72  C   UNL     1       6.561  -5.615  19.490  1.00  0.00     0.066 A 
ATOM     73  C   UNL     1       8.837  -4.834  19.685  1.00  0.00     0.066 A 
ATOM     74  C   UNL     1       6.989  -6.933  19.707  1.00  0.00     0.162 A 
ATOM     75  C   UNL     1       9.276  -6.144  19.899  1.00  0.00     0.162 A 
ATOM     76  C   UNL     1       8.353  -7.200  19.910  1.00  0.00     0.200 A 
BRANCH  74  77
ATOM     77  O   UNL     1       6.067  -7.980  19.712  1.00  0.00    -0.504 OA
ATOM     78  H   UNL     1       6.025  -8.654  18.954  1.00  0.00     0.293 HD
ENDBRANCH  74  77
BRANCH  75  79
ATOM     79  O   UNL     1      10.638  -6.379  20.097  1.00  0.00    -0.504 OA
ATOM     80  H   UNL     1      11.024  -6.586  21.008  1.00  0.00     0.293 HD
ENDBRANCH  75  79
BRANCH  76  81
ATOM     81  O   UNL     1       8.799  -8.506  20.124  1.00  0.00    -0.502 OA
ATOM     82  H   UNL     1       9.545  -8.920  19.585  1.00  0.00     0.293 HD
ENDBRANCH  76  81
ENDBRANCH  69  71
ENDBRANCH  68  69
ENDBRANCH   4  68
TORSDOF 31
ENDMDL
MODEL 2
REMARK VINA RESULT:    12.069      1.529      8.734
REMARK INTER + INTRA:          38.928
REMARK INTER:                  37.294
REMARK INTRA:                   1.634
REMARK UNBOUND:                10.279
REMARK SMILES O=C(OC[C@H]1O[C@H](OC(=O)c2cc(O)c(O)c(O)c2)[C@H](OC(=O)c2cc(O)c(O)c(O)c2)[C@@H](OC(=O)c2cc(O)c(O)c(O)c2)[C@H]1OC(=O)c1cc(O)c(O)c(O)c1)c1cc(O)c(O)c(O)c1
REMARK SMILES IDX 5 1 46 2 33 3 20 4 7 5 6 6 4 7 3 8 2 9 1 10 59 11 60 12
REMARK SMILES IDX 61 13 67 14 63 15 65 16 62 17 64 19 66 21 47 23 48 24 49 25
REMARK SMILES IDX 50 26 58 27 51 28 56 29 52 30 54 31 57 32 53 34 55 36 34 38
REMARK SMILES IDX 35 39 36 40 37 41 45 42 38 43 43 44 39 45 41 46 44 47 40 49
REMARK SMILES IDX 42 51 8 53 9 54 10 55 11 56 19 57 12 58 17 59 13 60 15 61
REMARK SMILES IDX 18 62 14 64 16 66 21 68 22 69 23 70 24 71 32 72 25 73 30 74
REMARK SMILES IDX 26 75 28 76 31 77 27 79 29 81
REMARK H PARENT 62 18 64 20 66 22 57 33 53 35 55 37 44 48 40 50 42 52 18 63
REMARK H PARENT 14 65 16 67 31 78 27 80 29 82
REMARK Flexibility Score: inf
ROOT
ATOM      1  C   UNL     1       8.909  -0.484  15.432  1.00  0.00     0.205 C 
ATOM      2  C   UNL     1       9.076  -1.992  15.691  1.00  0.00     0.254 C 
ATOM      3  C   UNL     1       9.003  -2.703  14.336  1.00  0.00     0.267 C 
ATOM      4  C   UNL     1      10.085  -2.139  13.397  1.00  0.00     0.290 C 
ATOM      5  C   UNL     1       9.967  -0.598  13.337  1.00  0.00     0.357 C 
ATOM      6  O   UNL     1       9.980  -0.005  14.630  1.00  0.00    -0.329 OA
ENDROOT
BRANCH   1   7
ATOM      7  C   UNL     1       8.850   0.331  16.737  1.00  0.00     0.269 C 
BRANCH   7   8
ATOM      8  O   UNL     1      10.157   0.788  17.069  1.00  0.00    -0.459 OA
BRANCH   8   9
ATOM      9  C   UNL     1      10.377   1.853  17.954  1.00  0.00     0.338 C 
ATOM     10  O   UNL     1      11.559   2.199  18.243  1.00  0.00    -0.246 OA
BRANCH   9  11
ATOM     11  C   UNL     1       9.230   2.548  18.573  1.00  0.00     0.067 A 
ATOM     12  C   UNL     1       8.106   1.822  18.991  1.00  0.00     0.066 A 
ATOM     13  C   UNL     1       6.992   2.470  19.530  1.00  0.00     0.162 A 
ATOM     14  C   UNL     1       9.233   3.951  18.710  1.00  0.00     0.066 A 
ATOM     15  C   UNL     1       6.982   3.881  19.632  1.00  0.00     0.200 A 
ATOM     16  C   UNL     1       8.113   4.612  19.224  1.00  0.00     0.162 A 
BRANCH  13  17
ATOM     17  O   UNL     1       5.928   1.676  19.960  1.00  0.00    -0.504 OA
ATOM     18  H   UNL     1       6.041   0.759  20.357  1.00  0.00     0.293 HD
ENDBRANCH  13  17
BRANCH  15  19
ATOM     19  O   UNL     1       5.876   4.581  20.124  1.00  0.00    -0.502 OA
ATOM     20  H   UNL     1       5.454   5.375  19.668  1.00  0.00     0.293 HD
ENDBRANCH  15  19
BRANCH  16  21
ATOM     21  O   UNL     1       8.143   6.004  19.319  1.00  0.00    -0.504 OA
ATOM     22  H   UNL     1       9.009   6.527  19.267  1.00  0.00     0.293 HD
ENDBRANCH  16  21
ENDBRANCH   9  11
ENDBRANCH   8   9
ENDBRANCH   7   8
ENDBRANCH   1   7
BRANCH   2  23
ATOM     23  O   UNL     1      10.348  -2.255  16.285  1.00  0.00    -0.452 OA
BRANCH  23  24
ATOM     24  C   UNL     1      10.535  -2.590  17.633  1.00  0.00     0.338 C 
ATOM     25  O   UNL     1       9.635  -3.212  18.254  1.00  0.00    -0.246 OA
BRANCH  24  26
ATOM     26  C   UNL     1      11.800  -2.223  18.307  1.00  0.00     0.067 A 
ATOM     27  C   UNL     1      12.270  -0.897  18.287  1.00  0.00     0.066 A 
ATOM     28  C   UNL     1      12.579  -3.213  18.929  1.00  0.00     0.066 A 
ATOM     29  C   UNL     1      13.506  -0.568  18.869  1.00  0.00     0.162 A 
ATOM     30  C   UNL     1      13.805  -2.888  19.518  1.00  0.00     0.162 A 
ATOM     31  C   UNL     1      14.274  -1.567  19.489  1.00  0.00     0.200 A 
BRANCH  29  32
ATOM     32  O   UNL     1      13.974   0.743  18.826  1.00  0.00    -0.504 OA
ATOM     33  H   UNL     1      14.656   1.039  18.138  1.00  0.00     0.293 HD
ENDBRANCH  29  32
BRANCH  30  34
ATOM     34  O   UNL     1      14.548  -3.899  20.124  1.00  0.00    -0.504 OA
ATOM     35  H   UNL     1      14.766  -4.768  19.646  1.00  0.00     0.293 HD
ENDBRANCH  30  34
BRANCH  31  36
ATOM     36  O   UNL     1      15.504  -1.268  20.072  1.00  0.00    -0.502 OA
ATOM     37  H   UNL     1      16.320  -1.852  19.944  1.00  0.00     0.293 HD
ENDBRANCH  31  36
ENDBRANCH  24  26
ENDBRANCH  23  24
ENDBRANCH   2  23
BRANCH   3  38
ATOM     38  O   UNL     1       9.148  -4.113  14.504  1.00  0.00    -0.450 OA
BRANCH  38  39
ATOM     39  C   UNL     1       8.215  -4.890  15.204  1.00  0.00     0.338 C 
ATOM     40  O   UNL     1       7.900  -6.034  14.777  1.00  0.00    -0.246 OA
BRANCH  39  41
ATOM     41  C   UNL     1       7.612  -4.381  16.455  1.00  0.00     0.067 A 
ATOM     42  C   UNL     1       7.625  -5.166  17.621  1.00  0.00     0.066 A 
ATOM     43  C   UNL     1       7.024  -3.106  16.493  1.00  0.00     0.066 A 
ATOM     44  C   UNL     1       7.056  -4.689  18.805  1.00  0.00     0.162 A 
ATOM     45  C   UNL     1       6.447  -2.619  17.670  1.00  0.00     0.162 A 
ATOM     46  C   UNL     1       6.453  -3.422  18.841  1.00  0.00     0.200 A 
BRANCH  44  47
ATOM     47  O   UNL     1       7.090  -5.479  19.956  1.00  0.00    -0.504 OA
ATOM     48  H   UNL     1       7.420  -5.111  20.845  1.00  0.00     0.293 HD
ENDBRANCH  44  47
BRANCH  45  49
ATOM     49  O   UNL     1       5.882  -1.344  17.633  1.00  0.00    -0.504 OA
ATOM     50  H   UNL     1       5.124  -1.079  17.020  1.00  0.00     0.293 HD
ENDBRANCH  45  49
BRANCH  46  51
ATOM     51  O   UNL     1       5.875  -3.009  20.044  1.00  0.00    -0.502 OA
ATOM     52  H   UNL     1       5.011  -2.482  20.101  1.00  0.00     0.293 HD
ENDBRANCH  46  51
ENDBRANCH  39  41
ENDBRANCH  38  39
ENDBRANCH   3  38
BRANCH   5  53
ATOM     53  O   UNL     1       8.800  -0.215  12.612  1.00  0.00    -0.428 OA
BRANCH  53  54
ATOM     54  C   UNL     1       8.841   0.368  11.341  1.00  0.00     0.340 C 
ATOM     55  O   UNL     1       9.318  -0.260  10.362  1.00  0.00    -0.246 OA
BRANCH  54  56
ATOM     56  C   UNL     1       8.313   1.729  11.155  1.00  0.00     0.067 A 
ATOM     57  C   UNL     1       8.725   2.779  11.985  1.00  0.00     0.066 A 
ATOM     58  C   UNL     1       7.397   1.987  10.128  1.00  0.00     0.066 A 
ATOM     59  C   UNL     1       8.261   4.085  11.782  1.00  0.00     0.162 A 
ATOM     60  C   UNL     1       6.899   3.275   9.925  1.00  0.00     0.162 A 
ATOM     61  C   UNL     1       7.336   4.342  10.737  1.00  0.00     0.200 A 
BRANCH  59  62
ATOM     62  O   UNL     1       8.747   5.082  12.632  1.00  0.00    -0.504 OA
ATOM     63  H   UNL     1       9.718   5.374  12.666  1.00  0.00     0.293 HD
ENDBRANCH  59  62
BRANCH  60  64
ATOM     64  O   UNL     1       5.961   3.473   8.911  1.00  0.00    -0.504 OA
ATOM     65  H   UNL     1       4.987   3.213   9.023  1.00  0.00     0.293 HD
ENDBRANCH  60  64
BRANCH  61  66
ATOM     66  O   UNL     1       6.841   5.629  10.479  1.00  0.00    -0.502 OA
ATOM     67  H   UNL     1       7.402   6.469  10.511  1.00  0.00     0.293 HD
ENDBRANCH  61  66
ENDBRANCH  54  56
ENDBRANCH  53  54
ENDBRANCH   5  53
BRANCH   4  68
ATOM     68  O   UNL     1       9.906  -2.649  12.077  1.00  0.00    -0.448 OA
BRANCH  68  69
ATOM     69  C   UNL     1      10.885  -3.350  11.366  1.00  0.00     0.339 C 
ATOM     70  O   UNL     1      11.422  -4.378  11.866  1.00  0.00    -0.246 OA
BRANCH  69  71
ATOM     71  C   UNL     1      11.297  -2.870  10.031  1.00  0.00     0.067 A 
ATOM     72  C   UNL     1      11.338  -3.740   8.933  1.00  0.00     0.066 A 
ATOM     73  C   UNL     1      11.649  -1.524   9.842  1.00  0.00     0.066 A 
ATOM     74  C   UNL     1      11.709  -3.275   7.662  1.00  0.00     0.162 A 
ATOM     75  C   UNL     1      12.017  -1.050   8.579  1.00  0.00     0.162 A 
ATOM     76  C   UNL     1      12.047  -1.924   7.483  1.00  0.00     0.200 A 
BRANCH  74  77
ATOM     77  O   UNL     1      11.732  -4.149   6.575  1.00  0.00    -0.504 OA
ATOM     78  H   UNL     1      12.089  -3.861   5.670  1.00  0.00     0.293 HD
ENDBRANCH  74  77
BRANCH  75  79
ATOM     79  O   UNL     1      12.347   0.299   8.432  1.00  0.00    -0.504 OA
ATOM     80  H   UNL     1      12.379   0.936   9.216  1.00  0.00     0.293 HD
ENDBRANCH  75  79
BRANCH  76  81
ATOM     81  O   UNL     1      12.415  -1.442   6.225  1.00  0.00    -0.502 OA
ATOM     82  H   UNL     1      11.844  -0.795   5.703  1.00  0.00     0.293 HD
ENDBRANCH  76  81
ENDBRANCH  69  71
ENDBRANCH  68  69
ENDBRANCH   4  68
TORSDOF 31
ENDMDL
