MODEL 1
REMARK VINA RESULT:    -4.818      0.000      0.000
REMARK INTER + INTRA:          -9.897
REMARK INTER:                  -7.352
REMARK INTRA:                  -2.545
REMARK UNBOUND:                -2.545
REMARK SMILES CC(=O)CCC=C(C)CCC=C(C)CCC=C(C)C
REMARK SMILES IDX 10 1 11 2 12 3 13 4 14 5 15 6 16 7 18 8 17 9 19 10 9 11 7 12
REMARK SMILES IDX 6 13 8 14 5 15 4 16 2 17 3 18 1 19
REMARK H PARENT
REMARK Flexibility Score: inf
ROOT
ATOM      1  C   UNL     1     -13.637  16.121 -31.949  1.00  0.00     0.032 C 
ENDROOT
BRANCH   1   2
ATOM      2  C   UNL     1     -12.268  15.550 -32.237  1.00  0.00    -0.028 C 
ATOM      3  C   UNL     1     -11.416  15.034 -31.319  1.00  0.00    -0.077 C 
ATOM      4  C   UNL     1     -10.079  14.533 -31.804  1.00  0.00     0.039 C 
BRANCH   3   5
ATOM      5  C   UNL     1     -11.720  14.950 -29.833  1.00  0.00     0.034 C 
BRANCH   5   6
ATOM      6  C   UNL     1     -11.712  13.496 -29.340  1.00  0.00     0.032 C 
BRANCH   6   7
ATOM      7  C   UNL     1     -12.699  13.300 -28.215  1.00  0.00    -0.028 C 
ATOM      8  C   UNL     1     -13.077  10.876 -28.728  1.00  0.00     0.039 C 
ATOM      9  C   UNL     1     -13.327  12.136 -27.935  1.00  0.00    -0.080 C 
ATOM     10  C   UNL     1     -14.294  12.104 -26.779  1.00  0.00     0.039 C 
ENDBRANCH   6   7
ENDBRANCH   5   6
ENDBRANCH   3   5
ENDBRANCH   1   2
BRANCH   1  11
ATOM     11  C   UNL     1     -14.764  15.183 -32.402  1.00  0.00     0.034 C 
BRANCH  11  12
ATOM     12  C   UNL     1     -15.166  14.215 -31.307  1.00  0.00    -0.077 C 
ATOM     13  C   UNL     1     -15.900  14.668 -30.266  1.00  0.00    -0.028 C 
ATOM     14  C   UNL     1     -14.754  12.765 -31.421  1.00  0.00     0.039 C 
BRANCH  13  15
ATOM     15  C   UNL     1     -16.343  13.823 -29.096  1.00  0.00     0.035 C 
BRANCH  15  16
ATOM     16  C   UNL     1     -17.861  13.594 -29.090  1.00  0.00     0.079 C 
BRANCH  16  17
ATOM     17  C   UNL     1     -18.206  12.129 -29.054  1.00  0.00     0.130 C 
ATOM     18  O   UNL     1     -19.376  11.779 -29.013  1.00  0.00    -0.300 OA
ATOM     19  C   UNL     1     -17.122  11.094 -29.031  1.00  0.00     0.087 C 
ENDBRANCH  16  17
ENDBRANCH  15  16
ENDBRANCH  13  15
ENDBRANCH  11  12
ENDBRANCH   1  11
TORSDOF 9
ENDMDL
MODEL 2
REMARK VINA RESULT:    -4.757      2.520      6.257
REMARK INTER + INTRA:          -9.806
REMARK INTER:                  -7.018
REMARK INTRA:                  -2.787
REMARK UNBOUND:                -2.545
REMARK SMILES CC(=O)CCC=C(C)CCC=C(C)CCC=C(C)C
REMARK SMILES IDX 10 1 11 2 12 3 13 4 14 5 15 6 16 7 18 8 17 9 19 10 9 11 7 12
REMARK SMILES IDX 6 13 8 14 5 15 4 16 2 17 3 18 1 19
REMARK H PARENT
REMARK Flexibility Score: inf
ROOT
ATOM      1  C   UNL     1     -13.340  11.791 -27.674  1.00  0.00     0.032 C 
ENDROOT
BRANCH   1   2
ATOM      2  C   UNL     1     -14.834  11.609 -27.547  1.00  0.00    -0.028 C 
ATOM      3  C   UNL     1     -15.738  11.757 -28.544  1.00  0.00    -0.077 C 
ATOM      4  C   UNL     1     -17.195  11.555 -28.210  1.00  0.00     0.039 C 
BRANCH   3   5
ATOM      5  C   UNL     1     -15.372  12.133 -29.970  1.00  0.00     0.034 C 
BRANCH   5   6
ATOM      6  C   UNL     1     -16.128  13.389 -30.430  1.00  0.00     0.032 C 
BRANCH   6   7
ATOM      7  C   UNL     1     -15.286  14.627 -30.241  1.00  0.00    -0.028 C 
ATOM      8  C   UNL     1     -14.974  15.009 -32.699  1.00  0.00     0.039 C 
ATOM      9  C   UNL     1     -14.753  15.358 -31.246  1.00  0.00    -0.080 C 
ATOM     10  C   UNL     1     -13.927  16.567 -30.893  1.00  0.00     0.039 C 
ENDBRANCH   6   7
ENDBRANCH   5   6
ENDBRANCH   3   5
ENDBRANCH   1   2
BRANCH   1  11
ATOM     11  C   UNL     1     -12.891  13.203 -27.277  1.00  0.00     0.034 C 
BRANCH  11  12
ATOM     12  C   UNL     1     -12.172  13.906 -28.411  1.00  0.00    -0.077 C 
ATOM     13  C   UNL     1     -11.896  13.217 -29.542  1.00  0.00    -0.028 C 
ATOM     14  C   UNL     1     -11.804  15.364 -28.257  1.00  0.00     0.039 C 
BRANCH  13  15
ATOM     15  C   UNL     1     -11.161  13.782 -30.734  1.00  0.00     0.035 C 
BRANCH  15  16
ATOM     16  C   UNL     1     -11.601  13.123 -32.049  1.00  0.00     0.079 C 
BRANCH  16  17
ATOM     17  C   UNL     1     -11.490  14.071 -33.214  1.00  0.00     0.130 C 
ATOM     18  O   UNL     1     -11.681  13.665 -34.351  1.00  0.00    -0.300 OA
ATOM     19  C   UNL     1     -11.107  15.504 -32.994  1.00  0.00     0.087 C 
ENDBRANCH  16  17
ENDBRANCH  15  16
ENDBRANCH  13  15
ENDBRANCH  11  12
ENDBRANCH   1  11
TORSDOF 9
ENDMDL
MODEL 3
REMARK VINA RESULT:    -4.738      2.318      5.423
REMARK INTER + INTRA:          -9.776
REMARK INTER:                  -7.019
REMARK INTRA:                  -2.757
REMARK UNBOUND:                -2.545
REMARK SMILES CC(=O)CCC=C(C)CCC=C(C)CCC=C(C)C
REMARK SMILES IDX 10 1 11 2 12 3 13 4 14 5 15 6 16 7 18 8 17 9 19 10 9 11 7 12
REMARK SMILES IDX 6 13 8 14 5 15 4 16 2 17 3 18 1 19
REMARK H PARENT
REMARK Flexibility Score: inf
ROOT
ATOM      1  C   UNL     1     -16.926  13.096 -29.494  1.00  0.00     0.032 C 
ENDROOT
BRANCH   1   2
ATOM      2  C   UNL     1     -16.762  12.413 -28.157  1.00  0.00    -0.028 C 
ATOM      3  C   UNL     1     -15.819  11.492 -27.848  1.00  0.00    -0.077 C 
ATOM      4  C   UNL     1     -15.835  10.906 -26.458  1.00  0.00     0.039 C 
BRANCH   3   5
ATOM      5  C   UNL     1     -14.763  11.000 -28.824  1.00  0.00     0.034 C 
BRANCH   5   6
ATOM      6  C   UNL     1     -13.346  11.218 -28.274  1.00  0.00     0.032 C 
BRANCH   6   7
ATOM      7  C   UNL     1     -13.006  12.687 -28.220  1.00  0.00    -0.028 C 
ATOM      8  C   UNL     1     -11.625  12.630 -30.312  1.00  0.00     0.039 C 
ATOM      9  C   UNL     1     -12.229  13.333 -29.119  1.00  0.00    -0.080 C 
ATOM     10  C   UNL     1     -11.976  14.805 -28.920  1.00  0.00     0.039 C 
ENDBRANCH   6   7
ENDBRANCH   5   6
ENDBRANCH   3   5
ENDBRANCH   1   2
BRANCH   1  11
ATOM     11  C   UNL     1     -16.059  14.357 -29.613  1.00  0.00     0.034 C 
BRANCH  11  12
ATOM     12  C   UNL     1     -15.295  14.395 -30.922  1.00  0.00    -0.077 C 
ATOM     13  C   UNL     1     -14.755  15.564 -31.333  1.00  0.00    -0.028 C 
ATOM     14  C   UNL     1     -15.139  13.120 -31.719  1.00  0.00     0.039 C 
BRANCH  13  15
ATOM     15  C   UNL     1     -13.997  15.751 -32.626  1.00  0.00     0.035 C 
BRANCH  15  16
ATOM     16  C   UNL     1     -12.477  15.729 -32.413  1.00  0.00     0.079 C 
BRANCH  16  17
ATOM     17  C   UNL     1     -11.797  14.747 -33.330  1.00  0.00     0.130 C 
ATOM     18  O   UNL     1     -12.453  13.884 -33.893  1.00  0.00    -0.300 OA
ATOM     19  C   UNL     1     -10.312  14.797 -33.529  1.00  0.00     0.087 C 
ENDBRANCH  16  17
ENDBRANCH  15  16
ENDBRANCH  13  15
ENDBRANCH  11  12
ENDBRANCH   1  11
TORSDOF 9
ENDMDL
MODEL 4
REMARK VINA RESULT:    -4.706      1.224      3.496
REMARK INTER + INTRA:          -9.727
REMARK INTER:                  -7.168
REMARK INTRA:                  -2.560
REMARK UNBOUND:                -2.545
REMARK SMILES CC(=O)CCC=C(C)CCC=C(C)CCC=C(C)C
REMARK SMILES IDX 10 1 11 2 12 3 13 4 14 5 15 6 16 7 18 8 17 9 19 10 9 11 7 12
REMARK SMILES IDX 6 13 8 14 5 15 4 16 2 17 3 18 1 19
REMARK H PARENT
REMARK Flexibility Score: inf
ROOT
ATOM      1  C   UNL     1     -11.790  12.419 -29.128  1.00  0.00     0.032 C 
ENDROOT
BRANCH   1   2
ATOM      2  C   UNL     1     -11.075  13.170 -30.226  1.00  0.00    -0.028 C 
ATOM      3  C   UNL     1     -11.178  14.497 -30.475  1.00  0.00    -0.077 C 
ATOM      4  C   UNL     1     -10.399  15.058 -31.639  1.00  0.00     0.039 C 
BRANCH   3   5
ATOM      5  C   UNL     1     -12.046  15.446 -29.665  1.00  0.00     0.034 C 
BRANCH   5   6
ATOM      6  C   UNL     1     -13.160  16.059 -30.526  1.00  0.00     0.032 C 
BRANCH   6   7
ATOM      7  C   UNL     1     -14.322  15.107 -30.665  1.00  0.00    -0.028 C 
ATOM      8  C   UNL     1     -13.852  14.600 -33.075  1.00  0.00     0.039 C 
ATOM      9  C   UNL     1     -14.652  14.454 -31.802  1.00  0.00    -0.080 C 
ATOM     10  C   UNL     1     -15.851  13.541 -31.782  1.00  0.00     0.039 C 
ENDBRANCH   6   7
ENDBRANCH   5   6
ENDBRANCH   3   5
ENDBRANCH   1   2
BRANCH   1  11
ATOM     11  C   UNL     1     -12.984  11.614 -29.657  1.00  0.00     0.034 C 
BRANCH  11  12
ATOM     12  C   UNL     1     -14.227  11.831 -28.817  1.00  0.00    -0.077 C 
ATOM     13  C   UNL     1     -15.372  11.199 -29.161  1.00  0.00    -0.028 C 
ATOM     14  C   UNL     1     -14.146  12.730 -27.604  1.00  0.00     0.039 C 
BRANCH  13  15
ATOM     15  C   UNL     1     -16.687  11.348 -28.434  1.00  0.00     0.035 C 
BRANCH  15  16
ATOM     16  C   UNL     1     -17.886  11.029 -29.337  1.00  0.00     0.079 C 
BRANCH  16  17
ATOM     17  C   UNL     1     -18.897  12.146 -29.340  1.00  0.00     0.130 C 
ATOM     18  O   UNL     1     -20.090  11.888 -29.301  1.00  0.00    -0.300 OA
ATOM     19  C   UNL     1     -18.450  13.574 -29.428  1.00  0.00     0.087 C 
ENDBRANCH  16  17
ENDBRANCH  15  16
ENDBRANCH  13  15
ENDBRANCH  11  12
ENDBRANCH   1  11
TORSDOF 9
ENDMDL
MODEL 5
REMARK VINA RESULT:    -4.674      1.357      3.760
REMARK INTER + INTRA:          -9.678
REMARK INTER:                  -6.954
REMARK INTRA:                  -2.723
REMARK UNBOUND:                -2.545
REMARK SMILES CC(=O)CCC=C(C)CCC=C(C)CCC=C(C)C
REMARK SMILES IDX 10 1 11 2 12 3 13 4 14 5 15 6 16 7 18 8 17 9 19 10 9 11 7 12
REMARK SMILES IDX 6 13 8 14 5 15 4 16 2 17 3 18 1 19
REMARK H PARENT
REMARK Flexibility Score: inf
ROOT
ATOM      1  C   UNL     1     -10.716  13.913 -30.126  1.00  0.00     0.032 C 
ENDROOT
BRANCH   1   2
ATOM      2  C   UNL     1     -10.414  14.875 -31.251  1.00  0.00    -0.028 C 
ATOM      3  C   UNL     1     -11.041  14.913 -32.450  1.00  0.00    -0.077 C 
ATOM      4  C   UNL     1     -10.577  15.938 -33.455  1.00  0.00     0.039 C 
BRANCH   3   5
ATOM      5  C   UNL     1     -12.166  13.972 -32.849  1.00  0.00     0.034 C 
BRANCH   5   6
ATOM      6  C   UNL     1     -13.468  14.739 -33.120  1.00  0.00     0.032 C 
BRANCH   6   7
ATOM      7  C   UNL     1     -14.468  14.517 -32.012  1.00  0.00    -0.028 C 
ATOM      8  C   UNL     1     -13.915  16.663 -30.839  1.00  0.00     0.039 C 
ATOM      9  C   UNL     1     -14.673  15.363 -30.977  1.00  0.00    -0.080 C 
ATOM     10  C   UNL     1     -15.706  14.994 -29.944  1.00  0.00     0.039 C 
ENDBRANCH   6   7
ENDBRANCH   5   6
ENDBRANCH   3   5
ENDBRANCH   1   2
BRANCH   1  11
ATOM     11  C   UNL     1     -11.694  14.505 -29.102  1.00  0.00     0.034 C 
BRANCH  11  12
ATOM     12  C   UNL     1     -12.509  13.428 -28.414  1.00  0.00    -0.077 C 
ATOM     13  C   UNL     1     -13.142  12.500 -29.167  1.00  0.00    -0.028 C 
ATOM     14  C   UNL     1     -12.572  13.407 -26.904  1.00  0.00     0.039 C 
BRANCH  13  15
ATOM     15  C   UNL     1     -14.009  11.393 -28.616  1.00  0.00     0.035 C 
BRANCH  15  16
ATOM     16  C   UNL     1     -15.396  11.364 -29.273  1.00  0.00     0.079 C 
BRANCH  16  17
ATOM     17  C   UNL     1     -16.477  11.804 -28.321  1.00  0.00     0.130 C 
ATOM     18  O   UNL     1     -17.633  11.884 -28.706  1.00  0.00    -0.300 OA
ATOM     19  C   UNL     1     -16.137  12.183 -26.910  1.00  0.00     0.087 C 
ENDBRANCH  16  17
ENDBRANCH  15  16
ENDBRANCH  13  15
ENDBRANCH  11  12
ENDBRANCH   1  11
TORSDOF 9
ENDMDL
MODEL 6
REMARK VINA RESULT:    -4.667      2.391      5.352
REMARK INTER + INTRA:          -9.668
REMARK INTER:                  -7.498
REMARK INTRA:                  -2.170
REMARK UNBOUND:                -2.545
REMARK SMILES CC(=O)CCC=C(C)CCC=C(C)CCC=C(C)C
REMARK SMILES IDX 10 1 11 2 12 3 13 4 14 5 15 6 16 7 18 8 17 9 19 10 9 11 7 12
REMARK SMILES IDX 6 13 8 14 5 15 4 16 2 17 3 18 1 19
REMARK H PARENT
REMARK Flexibility Score: inf
ROOT
ATOM      1  C   UNL     1     -15.919  14.599 -32.330  1.00  0.00     0.032 C 
ENDROOT
BRANCH   1   2
ATOM      2  C   UNL     1     -15.387  13.271 -31.846  1.00  0.00    -0.028 C 
ATOM      3  C   UNL     1     -15.184  12.921 -30.554  1.00  0.00    -0.077 C 
ATOM      4  C   UNL     1     -14.620  11.550 -30.275  1.00  0.00     0.039 C 
BRANCH   3   5
ATOM      5  C   UNL     1     -15.469  13.835 -29.374  1.00  0.00     0.034 C 
BRANCH   5   6
ATOM      6  C   UNL     1     -16.432  13.177 -28.375  1.00  0.00     0.032 C 
BRANCH   6   7
ATOM      7  C   UNL     1     -17.863  13.305 -28.836  1.00  0.00    -0.028 C 
ATOM      8  C   UNL     1     -18.081  10.878 -29.424  1.00  0.00     0.039 C 
ATOM      9  C   UNL     1     -18.612  12.288 -29.318  1.00  0.00    -0.080 C 
ATOM     10  C   UNL     1     -20.027  12.580 -29.746  1.00  0.00     0.039 C 
ENDBRANCH   6   7
ENDBRANCH   5   6
ENDBRANCH   3   5
ENDBRANCH   1   2
BRANCH   1  11
ATOM     11  C   UNL     1     -14.882  15.375 -33.153  1.00  0.00     0.034 C 
BRANCH  11  12
ATOM     12  C   UNL     1     -13.577  15.544 -32.401  1.00  0.00    -0.077 C 
ATOM     13  C   UNL     1     -12.451  14.992 -32.907  1.00  0.00    -0.028 C 
ATOM     14  C   UNL     1     -13.566  16.344 -31.119  1.00  0.00     0.039 C 
BRANCH  13  15
ATOM     15  C   UNL     1     -11.093  15.058 -32.250  1.00  0.00     0.035 C 
BRANCH  15  16
ATOM     16  C   UNL     1     -10.420  13.679 -32.176  1.00  0.00     0.079 C 
BRANCH  16  17
ATOM     17  C   UNL     1     -11.077  12.790 -31.154  1.00  0.00     0.130 C 
ATOM     18  O   UNL     1     -11.334  11.628 -31.431  1.00  0.00    -0.300 OA
ATOM     19  C   UNL     1     -11.455  13.331 -29.807  1.00  0.00     0.087 C 
ENDBRANCH  16  17
ENDBRANCH  15  16
ENDBRANCH  13  15
ENDBRANCH  11  12
ENDBRANCH   1  11
TORSDOF 9
ENDMDL
MODEL 7
REMARK VINA RESULT:    -4.497      1.529      2.229
REMARK INTER + INTRA:          -9.408
REMARK INTER:                  -7.172
REMARK INTRA:                  -2.236
REMARK UNBOUND:                -2.545
REMARK SMILES CC(=O)CCC=C(C)CCC=C(C)CCC=C(C)C
REMARK SMILES IDX 10 1 11 2 12 3 13 4 14 5 15 6 16 7 18 8 17 9 19 10 9 11 7 12
REMARK SMILES IDX 6 13 8 14 5 15 4 16 2 17 3 18 1 19
REMARK H PARENT
REMARK Flexibility Score: inf
ROOT
ATOM      1  C   UNL     1     -14.021  15.666 -31.621  1.00  0.00     0.032 C 
ENDROOT
BRANCH   1   2
ATOM      2  C   UNL     1     -12.797  16.021 -32.430  1.00  0.00    -0.028 C 
ATOM      3  C   UNL     1     -11.762  15.193 -32.707  1.00  0.00    -0.077 C 
ATOM      4  C   UNL     1     -10.614  15.746 -33.515  1.00  0.00     0.039 C 
BRANCH   3   5
ATOM      5  C   UNL     1     -11.680  13.751 -32.235  1.00  0.00     0.034 C 
BRANCH   5   6
ATOM      6  C   UNL     1     -10.710  13.603 -31.054  1.00  0.00     0.032 C 
BRANCH   6   7
ATOM      7  C   UNL     1     -11.421  13.082 -29.830  1.00  0.00    -0.028 C 
ATOM      8  C   UNL     1     -11.771  15.360 -28.842  1.00  0.00     0.039 C 
ATOM      9  C   UNL     1     -11.893  13.854 -28.825  1.00  0.00    -0.080 C 
ATOM     10  C   UNL     1     -12.576  13.180 -27.663  1.00  0.00     0.039 C 
ENDBRANCH   6   7
ENDBRANCH   5   6
ENDBRANCH   3   5
ENDBRANCH   1   2
BRANCH   1  11
ATOM     11  C   UNL     1     -15.052  14.881 -32.443  1.00  0.00     0.034 C 
BRANCH  11  12
ATOM     12  C   UNL     1     -15.710  13.787 -31.626  1.00  0.00    -0.077 C 
ATOM     13  C   UNL     1     -14.932  12.944 -30.909  1.00  0.00    -0.028 C 
ATOM     14  C   UNL     1     -17.218  13.682 -31.617  1.00  0.00     0.039 C 
BRANCH  13  15
ATOM     15  C   UNL     1     -15.451  11.795 -30.077  1.00  0.00     0.035 C 
BRANCH  15  16
ATOM     16  C   UNL     1     -15.780  12.224 -28.640  1.00  0.00     0.079 C 
BRANCH  16  17
ATOM     17  C   UNL     1     -16.994  11.510 -28.107  1.00  0.00     0.130 C 
ATOM     18  O   UNL     1     -16.991  11.070 -26.968  1.00  0.00    -0.300 OA
ATOM     19  C   UNL     1     -18.196  11.302 -28.979  1.00  0.00     0.087 C 
ENDBRANCH  16  17
ENDBRANCH  15  16
ENDBRANCH  13  15
ENDBRANCH  11  12
ENDBRANCH   1  11
TORSDOF 9
ENDMDL
MODEL 8
REMARK VINA RESULT:    -4.494      2.514      5.373
REMARK INTER + INTRA:          -9.404
REMARK INTER:                  -7.166
REMARK INTRA:                  -2.238
REMARK UNBOUND:                -2.545
REMARK SMILES CC(=O)CCC=C(C)CCC=C(C)CCC=C(C)C
REMARK SMILES IDX 10 1 11 2 12 3 13 4 14 5 15 6 16 7 18 8 17 9 19 10 9 11 7 12
REMARK SMILES IDX 6 13 8 14 5 15 4 16 2 17 3 18 1 19
REMARK H PARENT
REMARK Flexibility Score: inf
ROOT
ATOM      1  C   UNL     1     -15.639  13.458 -31.262  1.00  0.00     0.032 C 
ENDROOT
BRANCH   1   2
ATOM      2  C   UNL     1     -17.087  13.126 -30.990  1.00  0.00    -0.028 C 
ATOM      3  C   UNL     1     -17.696  13.169 -29.781  1.00  0.00    -0.077 C 
ATOM      4  C   UNL     1     -19.151  12.777 -29.712  1.00  0.00     0.039 C 
BRANCH   3   5
ATOM      5  C   UNL     1     -16.996  13.567 -28.493  1.00  0.00     0.034 C 
BRANCH   5   6
ATOM      6  C   UNL     1     -16.626  12.337 -27.653  1.00  0.00     0.032 C 
BRANCH   6   7
ATOM      7  C   UNL     1     -15.199  12.418 -27.170  1.00  0.00    -0.028 C 
ATOM      8  C   UNL     1     -14.304  10.968 -29.009  1.00  0.00     0.039 C 
ATOM      9  C   UNL     1     -14.149  11.803 -27.760  1.00  0.00    -0.080 C 
ATOM     10  C   UNL     1     -12.782  11.977 -27.150  1.00  0.00     0.039 C 
ENDBRANCH   6   7
ENDBRANCH   5   6
ENDBRANCH   3   5
ENDBRANCH   1   2
BRANCH   1  11
ATOM     11  C   UNL     1     -15.413  14.965 -31.446  1.00  0.00     0.034 C 
BRANCH  11  12
ATOM     12  C   UNL     1     -14.132  15.428 -30.781  1.00  0.00    -0.077 C 
ATOM     13  C   UNL     1     -13.377  14.529 -30.110  1.00  0.00    -0.028 C 
ATOM     14  C   UNL     1     -13.722  16.878 -30.906  1.00  0.00     0.039 C 
BRANCH  13  15
ATOM     15  C   UNL     1     -12.097  14.858 -29.379  1.00  0.00     0.035 C 
BRANCH  15  16
ATOM     16  C   UNL     1     -10.883  14.877 -30.319  1.00  0.00     0.079 C 
BRANCH  16  17
ATOM     17  C   UNL     1     -10.652  13.535 -30.963  1.00  0.00     0.130 C 
ATOM     18  O   UNL     1     -10.661  13.434 -32.180  1.00  0.00    -0.300 OA
ATOM     19  C   UNL     1     -10.450  12.313 -30.118  1.00  0.00     0.087 C 
ENDBRANCH  16  17
ENDBRANCH  15  16
ENDBRANCH  13  15
ENDBRANCH  11  12
ENDBRANCH   1  11
TORSDOF 9
ENDMDL
MODEL 9
REMARK VINA RESULT:    -4.489      2.393      6.257
REMARK INTER + INTRA:          -9.396
REMARK INTER:                  -7.076
REMARK INTRA:                  -2.320
REMARK UNBOUND:                -2.545
REMARK SMILES CC(=O)CCC=C(C)CCC=C(C)CCC=C(C)C
REMARK SMILES IDX 10 1 11 2 12 3 13 4 14 5 15 6 16 7 18 8 17 9 19 10 9 11 7 12
REMARK SMILES IDX 6 13 8 14 5 15 4 16 2 17 3 18 1 19
REMARK H PARENT
REMARK Flexibility Score: inf
ROOT
ATOM      1  C   UNL     1     -16.061  11.335 -27.478  1.00  0.00     0.032 C 
ENDROOT
BRANCH   1   2
ATOM      2  C   UNL     1     -17.265  12.051 -28.041  1.00  0.00    -0.028 C 
ATOM      3  C   UNL     1     -17.380  12.541 -29.299  1.00  0.00    -0.077 C 
ATOM      4  C   UNL     1     -18.660  13.248 -29.665  1.00  0.00     0.039 C 
BRANCH   3   5
ATOM      5  C   UNL     1     -16.288  12.438 -30.351  1.00  0.00     0.034 C 
BRANCH   5   6
ATOM      6  C   UNL     1     -16.280  13.667 -31.271  1.00  0.00     0.032 C 
BRANCH   6   7
ATOM      7  C   UNL     1     -15.436  14.774 -30.689  1.00  0.00    -0.028 C 
ATOM      8  C   UNL     1     -14.348  15.341 -32.875  1.00  0.00     0.039 C 
ATOM      9  C   UNL     1     -14.559  15.526 -31.391  1.00  0.00    -0.080 C 
ATOM     10  C   UNL     1     -13.784  16.592 -30.660  1.00  0.00     0.039 C 
ENDBRANCH   6   7
ENDBRANCH   5   6
ENDBRANCH   3   5
ENDBRANCH   1   2
BRANCH   1  11
ATOM     11  C   UNL     1     -15.106  12.290 -26.750  1.00  0.00     0.034 C 
BRANCH  11  12
ATOM     12  C   UNL     1     -13.720  12.280 -27.365  1.00  0.00    -0.077 C 
ATOM     13  C   UNL     1     -13.458  13.102 -28.406  1.00  0.00    -0.028 C 
ATOM     14  C   UNL     1     -12.665  11.368 -26.783  1.00  0.00     0.039 C 
BRANCH  13  15
ATOM     15  C   UNL     1     -12.135  13.173 -29.131  1.00  0.00     0.035 C 
BRANCH  15  16
ATOM     16  C   UNL     1     -12.236  12.649 -30.570  1.00  0.00     0.079 C 
BRANCH  16  17
ATOM     17  C   UNL     1     -11.403  13.465 -31.523  1.00  0.00     0.130 C 
ATOM     18  O   UNL     1     -11.327  13.140 -32.698  1.00  0.00    -0.300 OA
ATOM     19  C   UNL     1     -10.632  14.653 -31.031  1.00  0.00     0.087 C 
ENDBRANCH  16  17
ENDBRANCH  15  16
ENDBRANCH  13  15
ENDBRANCH  11  12
ENDBRANCH   1  11
TORSDOF 9
ENDMDL
