MODEL 1
REMARK VINA RESULT:    -5.816      0.000      0.000
REMARK INTER + INTRA:          -5.986
REMARK INTER:                  -5.986
REMARK INTRA:                   0.000
REMARK UNBOUND:                 0.000
REMARK SMILES O=c1ccc2cc(O)ccc2o1
REMARK SMILES IDX 9 1 10 2 11 3 5 4 4 5 3 6 2 7 1 8 12 9 6 10 7 11 8 12
REMARK H PARENT 8 13
REMARK Flexibility Score: inf
ROOT
ATOM      1  C   UNL     1      52.649  76.027  23.384  1.00  0.00     0.050 A 
ATOM      2  C   UNL     1      52.319  76.357  24.702  1.00  0.00     0.052 A 
ATOM      3  C   UNL     1      51.009  76.724  25.026  1.00  0.00     0.138 A 
ATOM      4  C   UNL     1      50.021  76.759  24.017  1.00  0.00     0.021 A 
ATOM      5  C   UNL     1      48.720  77.131  24.370  1.00  0.00     0.019 A 
ATOM      6  C   UNL     1      48.437  77.451  25.698  1.00  0.00     0.094 A 
ATOM      7  C   UNL     1      49.467  77.393  26.644  1.00  0.00     0.336 A 
ATOM      8  O   UNL     1      49.230  77.680  27.847  1.00  0.00    -0.246 OA
ATOM      9  O   UNL     1      50.696  77.038  26.281  1.00  0.00    -0.423 OA
ATOM     10  C   UNL     1      50.357  76.428  22.696  1.00  0.00     0.058 A 
ATOM     11  C   UNL     1      51.673  76.061  22.380  1.00  0.00     0.116 A 
ENDROOT
BRANCH  11  12
ATOM     12  O   UNL     1      52.022  75.729  21.073  1.00  0.00    -0.508 OA
ATOM     13  H   UNL     1      51.498  76.079  20.280  1.00  0.00     0.293 HD
ENDBRANCH  11  12
TORSDOF 1
ENDMDL
MODEL 2
REMARK VINA RESULT:    -5.522      0.859      1.036
REMARK INTER + INTRA:          -5.684
REMARK INTER:                  -5.684
REMARK INTRA:                   0.000
REMARK UNBOUND:                 0.000
REMARK SMILES O=c1ccc2cc(O)ccc2o1
REMARK SMILES IDX 9 1 10 2 11 3 5 4 4 5 3 6 2 7 1 8 12 9 6 10 7 11 8 12
REMARK H PARENT 8 13
REMARK Flexibility Score: inf
ROOT
ATOM      1  C   UNL     1      51.705  76.291  22.949  1.00  0.00     0.050 A 
ATOM      2  C   UNL     1      51.873  76.445  24.329  1.00  0.00     0.052 A 
ATOM      3  C   UNL     1      50.785  76.802  25.131  1.00  0.00     0.138 A 
ATOM      4  C   UNL     1      49.516  77.004  24.544  1.00  0.00     0.021 A 
ATOM      5  C   UNL     1      48.447  77.361  25.371  1.00  0.00     0.019 A 
ATOM      6  C   UNL     1      48.661  77.503  26.742  1.00  0.00     0.094 A 
ATOM      7  C   UNL     1      49.945  77.285  27.254  1.00  0.00     0.336 A 
ATOM      8  O   UNL     1      50.157  77.410  28.489  1.00  0.00    -0.246 OA
ATOM      9  O   UNL     1      50.945  76.948  26.445  1.00  0.00    -0.423 OA
ATOM     10  C   UNL     1      49.354  76.849  23.159  1.00  0.00     0.058 A 
ATOM     11  C   UNL     1      50.450  76.491  22.361  1.00  0.00     0.116 A 
ENDROOT
BRANCH  11  12
ATOM     12  O   UNL     1      50.304  76.333  20.985  1.00  0.00    -0.508 OA
ATOM     13  H   UNL     1      50.492  77.092  20.342  1.00  0.00     0.293 HD
ENDBRANCH  11  12
TORSDOF 1
ENDMDL
MODEL 3
REMARK VINA RESULT:    -5.159      2.148      2.689
REMARK INTER + INTRA:          -5.310
REMARK INTER:                  -5.310
REMARK INTRA:                   0.000
REMARK UNBOUND:                 0.000
REMARK SMILES O=c1ccc2cc(O)ccc2o1
REMARK SMILES IDX 9 1 10 2 11 3 5 4 4 5 3 6 2 7 1 8 12 9 6 10 7 11 8 12
REMARK H PARENT 8 13
REMARK Flexibility Score: inf
ROOT
ATOM      1  C   UNL     1      52.292  75.951  22.505  1.00  0.00     0.050 A 
ATOM      2  C   UNL     1      50.989  76.372  22.220  1.00  0.00     0.052 A 
ATOM      3  C   UNL     1      50.129  76.741  23.260  1.00  0.00     0.138 A 
ATOM      4  C   UNL     1      50.582  76.690  24.596  1.00  0.00     0.021 A 
ATOM      5  C   UNL     1      49.700  77.064  25.615  1.00  0.00     0.019 A 
ATOM      6  C   UNL     1      48.409  77.477  25.283  1.00  0.00     0.094 A 
ATOM      7  C   UNL     1      48.031  77.504  23.937  1.00  0.00     0.336 A 
ATOM      8  O   UNL     1      46.870  77.873  23.619  1.00  0.00    -0.246 OA
ATOM      9  O   UNL     1      48.889  77.142  22.988  1.00  0.00    -0.423 OA
ATOM     10  C   UNL     1      51.890  76.266  24.876  1.00  0.00     0.058 A 
ATOM     11  C   UNL     1      52.746  75.898  23.828  1.00  0.00     0.116 A 
ENDROOT
BRANCH  11  12
ATOM     12  O   UNL     1      54.047  75.476  24.091  1.00  0.00    -0.508 OA
ATOM     13  H   UNL     1      54.288  74.493  24.127  1.00  0.00     0.293 HD
ENDBRANCH  11  12
TORSDOF 1
ENDMDL
MODEL 4
REMARK VINA RESULT:    -5.135      1.122      2.096
REMARK INTER + INTRA:          -5.285
REMARK INTER:                  -5.285
REMARK INTRA:                   0.000
REMARK UNBOUND:                 0.000
REMARK SMILES O=c1ccc2cc(O)ccc2o1
REMARK SMILES IDX 9 1 10 2 11 3 5 4 4 5 3 6 2 7 1 8 12 9 6 10 7 11 8 12
REMARK H PARENT 8 13
REMARK Flexibility Score: inf
ROOT
ATOM      1  C   UNL     1      49.978  76.639  21.721  1.00  0.00     0.050 A 
ATOM      2  C   UNL     1      49.082  77.061  22.709  1.00  0.00     0.052 A 
ATOM      3  C   UNL     1      49.477  77.080  24.050  1.00  0.00     0.138 A 
ATOM      4  C   UNL     1      50.784  76.676  24.403  1.00  0.00     0.021 A 
ATOM      5  C   UNL     1      51.150  76.705  25.752  1.00  0.00     0.019 A 
ATOM      6  C   UNL     1      50.223  77.133  26.703  1.00  0.00     0.094 A 
ATOM      7  C   UNL     1      48.947  77.520  26.280  1.00  0.00     0.336 A 
ATOM      8  O   UNL     1      48.097  77.908  27.124  1.00  0.00    -0.246 OA
ATOM      9  O   UNL     1      48.624  77.482  24.990  1.00  0.00    -0.423 OA
ATOM     10  C   UNL     1      51.678  76.253  23.408  1.00  0.00     0.058 A 
ATOM     11  C   UNL     1      51.274  76.237  22.065  1.00  0.00     0.116 A 
ENDROOT
BRANCH  11  12
ATOM     12  O   UNL     1      52.151  75.821  21.066  1.00  0.00    -0.508 OA
ATOM     13  H   UNL     1      52.973  75.267  21.279  1.00  0.00     0.293 HD
ENDBRANCH  11  12
TORSDOF 1
ENDMDL
MODEL 5
REMARK VINA RESULT:    -5.048      1.907      4.202
REMARK INTER + INTRA:          -5.196
REMARK INTER:                  -5.196
REMARK INTRA:                   0.000
REMARK UNBOUND:                 0.000
REMARK SMILES O=c1ccc2cc(O)ccc2o1
REMARK SMILES IDX 9 1 10 2 11 3 5 4 4 5 3 6 2 7 1 8 12 9 6 10 7 11 8 12
REMARK H PARENT 8 13
REMARK Flexibility Score: inf
ROOT
ATOM      1  C   UNL     1      51.793  76.246  24.359  1.00  0.00     0.050 A 
ATOM      2  C   UNL     1      51.578  76.413  22.987  1.00  0.00     0.052 A 
ATOM      3  C   UNL     1      50.343  76.876  22.523  1.00  0.00     0.138 A 
ATOM      4  C   UNL     1      49.315  77.175  23.444  1.00  0.00     0.021 A 
ATOM      5  C   UNL     1      48.090  77.636  22.950  1.00  0.00     0.019 A 
ATOM      6  C   UNL     1      47.921  77.787  21.574  1.00  0.00     0.094 A 
ATOM      7  C   UNL     1      48.985  77.471  20.721  1.00  0.00     0.336 A 
ATOM      8  O   UNL     1      48.850  77.601  19.476  1.00  0.00    -0.246 OA
ATOM      9  O   UNL     1      50.139  77.035  21.217  1.00  0.00    -0.423 OA
ATOM     10  C   UNL     1      49.536  77.006  24.819  1.00  0.00     0.058 A 
ATOM     11  C   UNL     1      50.778  76.541  25.277  1.00  0.00     0.116 A 
ENDROOT
BRANCH  11  12
ATOM     12  O   UNL     1      51.011  76.368  26.638  1.00  0.00    -0.508 OA
ATOM     13  H   UNL     1      51.782  76.829  27.107  1.00  0.00     0.293 HD
ENDBRANCH  11  12
TORSDOF 1
ENDMDL
MODEL 6
REMARK VINA RESULT:    -5.002      2.246      3.085
REMARK INTER + INTRA:          -5.148
REMARK INTER:                  -5.148
REMARK INTRA:                   0.000
REMARK UNBOUND:                 0.000
REMARK SMILES O=c1ccc2cc(O)ccc2o1
REMARK SMILES IDX 9 1 10 2 11 3 5 4 4 5 3 6 2 7 1 8 12 9 6 10 7 11 8 12
REMARK H PARENT 8 13
REMARK Flexibility Score: inf
ROOT
ATOM      1  C   UNL     1      51.959  76.219  25.148  1.00  0.00     0.050 A 
ATOM      2  C   UNL     1      50.646  76.700  25.133  1.00  0.00     0.052 A 
ATOM      3  C   UNL     1      50.000  76.936  23.916  1.00  0.00     0.138 A 
ATOM      4  C   UNL     1      50.678  76.686  22.702  1.00  0.00     0.021 A 
ATOM      5  C   UNL     1      50.007  76.932  21.500  1.00  0.00     0.019 A 
ATOM      6  C   UNL     1      48.697  77.411  21.534  1.00  0.00     0.094 A 
ATOM      7  C   UNL     1      48.089  77.635  22.774  1.00  0.00     0.336 A 
ATOM      8  O   UNL     1      46.908  78.068  22.824  1.00  0.00    -0.246 OA
ATOM      9  O   UNL     1      48.750  77.393  23.902  1.00  0.00    -0.423 OA
ATOM     10  C   UNL     1      51.995  76.204  22.723  1.00  0.00     0.058 A 
ATOM     11  C   UNL     1      52.636  75.970  23.948  1.00  0.00     0.116 A 
ENDROOT
BRANCH  11  12
ATOM     12  O   UNL     1      53.943  75.491  23.984  1.00  0.00    -0.508 OA
ATOM     13  H   UNL     1      54.738  76.113  23.892  1.00  0.00     0.293 HD
ENDBRANCH  11  12
TORSDOF 1
ENDMDL
MODEL 7
REMARK VINA RESULT:    -4.927      1.920      4.105
REMARK INTER + INTRA:          -5.071
REMARK INTER:                  -5.071
REMARK INTRA:                   0.000
REMARK UNBOUND:                 0.000
REMARK SMILES O=c1ccc2cc(O)ccc2o1
REMARK SMILES IDX 9 1 10 2 11 3 5 4 4 5 3 6 2 7 1 8 12 9 6 10 7 11 8 12
REMARK H PARENT 8 13
REMARK Flexibility Score: inf
ROOT
ATOM      1  C   UNL     1      48.131  77.591  25.468  1.00  0.00     0.050 A 
ATOM      2  C   UNL     1      49.443  77.159  25.684  1.00  0.00     0.052 A 
ATOM      3  C   UNL     1      50.254  76.812  24.598  1.00  0.00     0.138 A 
ATOM      4  C   UNL     1      49.743  76.901  23.284  1.00  0.00     0.021 A 
ATOM      5  C   UNL     1      50.576  76.547  22.219  1.00  0.00     0.019 A 
ATOM      6  C   UNL     1      51.879  76.121  22.482  1.00  0.00     0.094 A 
ATOM      7  C   UNL     1      52.316  76.058  23.809  1.00  0.00     0.336 A 
ATOM      8  O   UNL     1      53.488  75.676  24.065  1.00  0.00    -0.246 OA
ATOM      9  O   UNL     1      51.503  76.400  24.804  1.00  0.00    -0.423 OA
ATOM     10  C   UNL     1      48.426  77.335  23.074  1.00  0.00     0.058 A 
ATOM     11  C   UNL     1      47.619  77.682  24.168  1.00  0.00     0.116 A 
ENDROOT
BRANCH  11  12
ATOM     12  O   UNL     1      46.310  78.115  23.974  1.00  0.00    -0.508 OA
ATOM     13  H   UNL     1      45.844  78.010  23.081  1.00  0.00     0.293 HD
ENDBRANCH  11  12
TORSDOF 1
ENDMDL
MODEL 8
REMARK VINA RESULT:    -4.925      0.919      4.774
REMARK INTER + INTRA:          -5.069
REMARK INTER:                  -5.069
REMARK INTRA:                   0.000
REMARK UNBOUND:                 0.000
REMARK SMILES O=c1ccc2cc(O)ccc2o1
REMARK SMILES IDX 9 1 10 2 11 3 5 4 4 5 3 6 2 7 1 8 12 9 6 10 7 11 8 12
REMARK H PARENT 8 13
REMARK Flexibility Score: inf
ROOT
ATOM      1  C   UNL     1      48.132  77.512  25.238  1.00  0.00     0.050 A 
ATOM      2  C   UNL     1      48.589  77.202  23.954  1.00  0.00     0.052 A 
ATOM      3  C   UNL     1      49.909  76.783  23.762  1.00  0.00     0.138 A 
ATOM      4  C   UNL     1      50.778  76.673  24.870  1.00  0.00     0.021 A 
ATOM      5  C   UNL     1      52.093  76.252  24.648  1.00  0.00     0.019 A 
ATOM      6  C   UNL     1      52.505  75.953  23.349  1.00  0.00     0.094 A 
ATOM      7  C   UNL     1      51.589  76.084  22.300  1.00  0.00     0.336 A 
ATOM      8  O   UNL     1      51.943  75.820  21.122  1.00  0.00    -0.246 OA
ATOM      9  O   UNL     1      50.344  76.487  22.539  1.00  0.00    -0.423 OA
ATOM     10  C   UNL     1      50.314  76.986  26.157  1.00  0.00     0.058 A 
ATOM     11  C   UNL     1      48.988  77.405  26.341  1.00  0.00     0.116 A 
ENDROOT
BRANCH  11  12
ATOM     12  O   UNL     1      48.514  77.719  27.612  1.00  0.00    -0.508 OA
ATOM     13  H   UNL     1      47.562  78.033  27.760  1.00  0.00     0.293 HD
ENDBRANCH  11  12
TORSDOF 1
ENDMDL
