MODEL 1
REMARK VINA RESULT:    -0.358      0.000      0.000
REMARK INTER + INTRA:          -0.703
REMARK INTER:                  -0.431
REMARK INTRA:                  -0.272
REMARK UNBOUND:                -0.272
REMARK SMILES O=c1c(O)c(-c2ccc(O)c(O)c2)oc2cc(O)cc(O)c12
REMARK SMILES IDX 5 1 3 2 2 3 1 4 22 5 20 6 19 7 17 8 16 9 15 10 14 11 6 12
REMARK SMILES IDX 7 13 8 14 9 15 13 16 11 17 10 18 12 20 4 22 21 24 18 26
REMARK H PARENT 10 19 12 21 4 23 21 25 18 27
REMARK Flexibility Score: inf
ROOT
ATOM      1  C   UNL     1      13.173  -9.917 -28.080  1.00  0.00     0.180 A 
ATOM      2  C   UNL     1      13.852 -10.686 -27.119  1.00  0.00     0.208 A 
ATOM      3  C   UNL     1      13.396 -11.984 -26.840  1.00  0.00     0.238 A 
ATOM      4  O   UNL     1      14.039 -12.687 -26.018  1.00  0.00    -0.285 OA
ATOM      5  C   UNL     1      12.258 -12.491 -27.514  1.00  0.00     0.111 A 
ATOM      6  C   UNL     1      11.685 -13.777 -27.280  1.00  0.00     0.134 A 
ATOM      7  C   UNL     1      10.639 -14.224 -28.097  1.00  0.00     0.093 A 
ATOM      8  C   UNL     1      10.103 -13.410 -29.093  1.00  0.00     0.123 A 
ATOM      9  C   UNL     1      10.616 -12.128 -29.290  1.00  0.00     0.094 A 
ATOM     10  C   UNL     1      11.684 -11.666 -28.515  1.00  0.00     0.146 A 
ATOM     11  O   UNL     1      12.150 -10.444 -28.742  1.00  0.00    -0.452 OA
ENDROOT
BRANCH   1  12
ATOM     12  C   UNL     1      13.580  -8.531 -28.410  1.00  0.00     0.025 A 
ATOM     13  C   UNL     1      12.846  -7.424 -27.952  1.00  0.00     0.016 A 
ATOM     14  C   UNL     1      13.235  -6.126 -28.296  1.00  0.00     0.051 A 
ATOM     15  C   UNL     1      14.352  -5.917 -29.115  1.00  0.00     0.157 A 
ATOM     16  C   UNL     1      14.687  -8.317 -29.248  1.00  0.00     0.062 A 
ATOM     17  C   UNL     1      15.079  -7.018 -29.595  1.00  0.00     0.158 A 
BRANCH  15  18
ATOM     18  O   UNL     1      14.739  -4.621 -29.455  1.00  0.00    -0.504 OA
ATOM     19  H   UNL     1      14.212  -4.067 -30.121  1.00  0.00     0.293 HD
ENDBRANCH  15  18
BRANCH  17  20
ATOM     20  O   UNL     1      16.193  -6.845 -30.417  1.00  0.00    -0.504 OA
ATOM     21  H   UNL     1      16.109  -6.531 -31.377  1.00  0.00     0.293 HD
ENDBRANCH  17  20
ENDBRANCH   1  12
BRANCH   2  22
ATOM     22  O   UNL     1      14.985 -10.174 -26.482  1.00  0.00    -0.502 OA
ATOM     23  H   UNL     1      15.017  -9.998 -25.484  1.00  0.00     0.293 HD
ENDBRANCH   2  22
BRANCH   6  24
ATOM     24  O   UNL     1      12.084 -14.634 -26.250  1.00  0.00    -0.507 OA
ATOM     25  H   UNL     1      13.036 -14.756 -25.941  1.00  0.00     0.293 HD
ENDBRANCH   6  24
BRANCH   8  26
ATOM     26  O   UNL     1       9.052 -13.883 -29.876  1.00  0.00    -0.508 OA
ATOM     27  H   UNL     1       8.216 -13.330 -30.030  1.00  0.00     0.293 HD
ENDBRANCH   8  26
TORSDOF 6
ENDMDL
MODEL 2
REMARK VINA RESULT:     0.446      1.830      2.923
REMARK INTER + INTRA:           0.265
REMARK INTER:                   0.358
REMARK INTRA:                  -0.093
REMARK UNBOUND:                -0.272
REMARK SMILES O=c1c(O)c(-c2ccc(O)c(O)c2)oc2cc(O)cc(O)c12
REMARK SMILES IDX 5 1 3 2 2 3 1 4 22 5 20 6 19 7 17 8 16 9 15 10 14 11 6 12
REMARK SMILES IDX 7 13 8 14 9 15 13 16 11 17 10 18 12 20 4 22 21 24 18 26
REMARK H PARENT 10 19 12 21 4 23 21 25 18 27
REMARK Flexibility Score: inf
ROOT
ATOM      1  C   UNL     1      12.425  -9.910 -27.806  1.00  0.00     0.180 A 
ATOM      2  C   UNL     1      12.026 -10.883 -28.740  1.00  0.00     0.208 A 
ATOM      3  C   UNL     1      11.461 -12.081 -28.274  1.00  0.00     0.238 A 
ATOM      4  O   UNL     1      11.058 -12.925 -29.116  1.00  0.00    -0.285 OA
ATOM      5  C   UNL     1      11.315 -12.297 -26.883  1.00  0.00     0.111 A 
ATOM      6  C   UNL     1      10.792 -13.490 -26.299  1.00  0.00     0.134 A 
ATOM      7  C   UNL     1      10.571 -13.543 -24.917  1.00  0.00     0.093 A 
ATOM      8  C   UNL     1      10.915 -12.474 -24.091  1.00  0.00     0.123 A 
ATOM      9  C   UNL     1      11.482 -11.325 -24.644  1.00  0.00     0.094 A 
ATOM     10  C   UNL     1      11.681 -11.228 -26.024  1.00  0.00     0.146 A 
ATOM     11  O   UNL     1      12.214 -10.115 -26.511  1.00  0.00    -0.452 OA
ENDROOT
BRANCH   1  12
ATOM     12  C   UNL     1      13.051  -8.632 -28.219  1.00  0.00     0.025 A 
ATOM     13  C   UNL     1      12.450  -7.395 -27.930  1.00  0.00     0.016 A 
ATOM     14  C   UNL     1      13.048  -6.204 -28.351  1.00  0.00     0.051 A 
ATOM     15  C   UNL     1      14.245  -6.232 -29.079  1.00  0.00     0.157 A 
ATOM     16  C   UNL     1      14.240  -8.656 -28.967  1.00  0.00     0.062 A 
ATOM     17  C   UNL     1      14.842  -7.465 -29.390  1.00  0.00     0.158 A 
BRANCH  15  18
ATOM     18  O   UNL     1      14.840  -5.042 -29.496  1.00  0.00    -0.504 OA
ATOM     19  H   UNL     1      15.810  -5.006 -29.786  1.00  0.00     0.293 HD
ENDBRANCH  15  18
BRANCH  17  20
ATOM     20  O   UNL     1      16.030  -7.528 -30.118  1.00  0.00    -0.504 OA
ATOM     21  H   UNL     1      16.633  -8.341 -30.094  1.00  0.00     0.293 HD
ENDBRANCH  17  20
ENDBRANCH   1  12
BRANCH   2  22
ATOM     22  O   UNL     1      12.160 -10.639 -30.109  1.00  0.00    -0.502 OA
ATOM     23  H   UNL     1      11.775  -9.815 -30.556  1.00  0.00     0.293 HD
ENDBRANCH   2  22
BRANCH   6  24
ATOM     24  O   UNL     1      10.501 -14.650 -27.023  1.00  0.00    -0.507 OA
ATOM     25  H   UNL     1       9.690 -15.231 -26.877  1.00  0.00     0.293 HD
ENDBRANCH   6  24
BRANCH   8  26
ATOM     26  O   UNL     1      10.696 -12.568 -22.719  1.00  0.00    -0.508 OA
ATOM     27  H   UNL     1       9.859 -12.999 -22.344  1.00  0.00     0.293 HD
ENDBRANCH   8  26
TORSDOF 6
ENDMDL
MODEL 3
REMARK VINA RESULT:     1.001      1.935      2.870
REMARK INTER + INTRA:           0.934
REMARK INTER:                   0.516
REMARK INTRA:                   0.417
REMARK UNBOUND:                -0.272
REMARK SMILES O=c1c(O)c(-c2ccc(O)c(O)c2)oc2cc(O)cc(O)c12
REMARK SMILES IDX 5 1 3 2 2 3 1 4 22 5 20 6 19 7 17 8 16 9 15 10 14 11 6 12
REMARK SMILES IDX 7 13 8 14 9 15 13 16 11 17 10 18 12 20 4 22 21 24 18 26
REMARK H PARENT 10 19 12 21 4 23 21 25 18 27
REMARK Flexibility Score: inf
ROOT
ATOM      1  C   UNL     1      13.233  -9.759 -27.515  1.00  0.00     0.180 A 
ATOM      2  C   UNL     1      11.983  -9.996 -26.918  1.00  0.00     0.208 A 
ATOM      3  C   UNL     1      11.709 -11.271 -26.395  1.00  0.00     0.238 A 
ATOM      4  O   UNL     1      10.609 -11.462 -25.814  1.00  0.00    -0.285 OA
ATOM      5  C   UNL     1      12.682 -12.295 -26.490  1.00  0.00     0.111 A 
ATOM      6  C   UNL     1      12.496 -13.634 -26.031  1.00  0.00     0.134 A 
ATOM      7  C   UNL     1      13.573 -14.528 -26.058  1.00  0.00     0.093 A 
ATOM      8  C   UNL     1      14.807 -14.154 -26.587  1.00  0.00     0.123 A 
ATOM      9  C   UNL     1      14.983 -12.866 -27.093  1.00  0.00     0.094 A 
ATOM     10  C   UNL     1      13.937 -11.939 -27.047  1.00  0.00     0.146 A 
ATOM     11  O   UNL     1      14.149 -10.721 -27.530  1.00  0.00    -0.452 OA
ENDROOT
BRANCH   1  12
ATOM     12  C   UNL     1      13.586  -8.449 -28.110  1.00  0.00     0.025 A 
ATOM     13  C   UNL     1      12.838  -7.293 -27.829  1.00  0.00     0.016 A 
ATOM     14  C   UNL     1      13.175  -6.073 -28.422  1.00  0.00     0.051 A 
ATOM     15  C   UNL     1      14.252  -5.993 -29.313  1.00  0.00     0.157 A 
ATOM     16  C   UNL     1      14.652  -8.369 -29.021  1.00  0.00     0.062 A 
ATOM     17  C   UNL     1      14.992  -7.147 -29.616  1.00  0.00     0.158 A 
BRANCH  15  18
ATOM     18  O   UNL     1      14.587  -4.773 -29.901  1.00  0.00    -0.504 OA
ATOM     19  H   UNL     1      15.485  -4.334 -29.737  1.00  0.00     0.293 HD
ENDBRANCH  15  18
BRANCH  17  20
ATOM     20  O   UNL     1      16.066  -7.104 -30.504  1.00  0.00    -0.504 OA
ATOM     21  H   UNL     1      16.014  -6.611 -31.388  1.00  0.00     0.293 HD
ENDBRANCH  17  20
ENDBRANCH   1  12
BRANCH   2  22
ATOM     22  O   UNL     1      11.046  -8.965 -26.815  1.00  0.00    -0.502 OA
ATOM     23  H   UNL     1      10.710  -8.621 -25.923  1.00  0.00     0.293 HD
ENDBRANCH   2  22
BRANCH   6  24
ATOM     24  O   UNL     1      11.277 -14.138 -25.569  1.00  0.00    -0.507 OA
ATOM     25  H   UNL     1      11.154 -14.644 -24.706  1.00  0.00     0.293 HD
ENDBRANCH   6  24
BRANCH   8  26
ATOM     26  O   UNL     1      15.852 -15.075 -26.612  1.00  0.00    -0.508 OA
ATOM     27  H   UNL     1      16.056 -15.622 -27.441  1.00  0.00     0.293 HD
ENDBRANCH   8  26
TORSDOF 6
ENDMDL
MODEL 4
REMARK VINA RESULT:     1.184      1.999      3.318
REMARK INTER + INTRA:           1.154
REMARK INTER:                   1.367
REMARK INTRA:                  -0.213
REMARK UNBOUND:                -0.272
REMARK SMILES O=c1c(O)c(-c2ccc(O)c(O)c2)oc2cc(O)cc(O)c12
REMARK SMILES IDX 5 1 3 2 2 3 1 4 22 5 20 6 19 7 17 8 16 9 15 10 14 11 6 12
REMARK SMILES IDX 7 13 8 14 9 15 13 16 11 17 10 18 12 20 4 22 21 24 18 26
REMARK H PARENT 10 19 12 21 4 23 21 25 18 27
REMARK Flexibility Score: inf
ROOT
ATOM      1  C   UNL     1      12.487  -9.922 -27.818  1.00  0.00     0.180 A 
ATOM      2  C   UNL     1      12.014 -10.928 -28.679  1.00  0.00     0.208 A 
ATOM      3  C   UNL     1      11.399 -12.063 -28.127  1.00  0.00     0.238 A 
ATOM      4  O   UNL     1      10.931 -12.935 -28.905  1.00  0.00    -0.285 OA
ATOM      5  C   UNL     1      11.279 -12.186 -26.722  1.00  0.00     0.111 A 
ATOM      6  C   UNL     1      10.710 -13.312 -26.053  1.00  0.00     0.134 A 
ATOM      7  C   UNL     1      10.524 -13.268 -24.666  1.00  0.00     0.093 A 
ATOM      8  C   UNL     1      10.944 -12.171 -23.916  1.00  0.00     0.123 A 
ATOM      9  C   UNL     1      11.556 -11.090 -24.553  1.00  0.00     0.094 A 
ATOM     10  C   UNL     1      11.723 -11.088 -25.940  1.00  0.00     0.146 A 
ATOM     11  O   UNL     1      12.300 -10.036 -26.508  1.00  0.00    -0.452 OA
ENDROOT
BRANCH   1  12
ATOM     12  C   UNL     1      13.168  -8.708 -28.324  1.00  0.00     0.025 A 
ATOM     13  C   UNL     1      14.425  -8.781 -28.948  1.00  0.00     0.016 A 
ATOM     14  C   UNL     1      15.059  -7.619 -29.396  1.00  0.00     0.051 A 
ATOM     15  C   UNL     1      14.456  -6.368 -29.213  1.00  0.00     0.157 A 
ATOM     16  C   UNL     1      12.576  -7.450 -28.124  1.00  0.00     0.062 A 
ATOM     17  C   UNL     1      13.210  -6.284 -28.572  1.00  0.00     0.158 A 
BRANCH  15  18
ATOM     18  O   UNL     1      15.091  -5.211 -29.663  1.00  0.00    -0.504 OA
ATOM     19  H   UNL     1      15.848  -5.248 -30.335  1.00  0.00     0.293 HD
ENDBRANCH  15  18
BRANCH  17  20
ATOM     20  O   UNL     1      12.584  -5.054 -28.368  1.00  0.00    -0.504 OA
ATOM     21  H   UNL     1      11.693  -4.827 -28.792  1.00  0.00     0.293 HD
ENDBRANCH  17  20
ENDBRANCH   1  12
BRANCH   2  22
ATOM     22  O   UNL     1      12.124 -10.776 -30.063  1.00  0.00    -0.502 OA
ATOM     23  H   UNL     1      11.391 -10.359 -30.626  1.00  0.00     0.293 HD
ENDBRANCH   2  22
BRANCH   6  24
ATOM     24  O   UNL     1      10.340 -14.497 -26.696  1.00  0.00    -0.507 OA
ATOM     25  H   UNL     1       9.895 -14.546 -27.600  1.00  0.00     0.293 HD
ENDBRANCH   6  24
BRANCH   8  26
ATOM     26  O   UNL     1      10.757 -12.169 -22.536  1.00  0.00    -0.508 OA
ATOM     27  H   UNL     1      11.450 -11.778 -21.908  1.00  0.00     0.293 HD
ENDBRANCH   8  26
TORSDOF 6
ENDMDL
