MODEL 1
REMARK VINA RESULT:    -3.472      0.000      0.000
REMARK INTER + INTRA:          -8.552
REMARK INTER:                  -6.313
REMARK INTRA:                  -2.238
REMARK UNBOUND:                -2.238
REMARK SMILES CCCCCCCCCCCCCC[C@H](C)C(=O)[O-]
REMARK SMILES IDX 9 1 10 2 11 3 12 4 13 5 14 6 15 7 16 8 17 9 18 10 19 11 8 12
REMARK SMILES IDX 7 13 6 14 5 15 4 16 3 17 2 18 1 19
REMARK H PARENT
REMARK Flexibility Score: inf
ROOT
ATOM      1  C   UNL     1     -97.244 -43.052  -9.951  1.00  0.00     0.000 C 
ENDROOT
BRANCH   1   2
ATOM      2  C   UNL     1     -96.391 -43.919  -9.009  1.00  0.00     0.000 C 
BRANCH   2   3
ATOM      3  C   UNL     1     -97.057 -45.265  -8.682  1.00  0.00     0.000 C 
BRANCH   3   4
ATOM      4  C   UNL     1     -96.122 -46.458  -8.933  1.00  0.00     0.000 C 
BRANCH   4   5
ATOM      5  C   UNL     1     -94.881 -46.026  -9.724  1.00  0.00     0.001 C 
BRANCH   5   6
ATOM      6  C   UNL     1     -93.993 -47.235 -10.060  1.00  0.00     0.009 C 
BRANCH   6   7
ATOM      7  C   UNL     1     -94.001 -47.560 -11.568  1.00  0.00     0.032 C 
ATOM      8  C   UNL     1     -94.377 -46.321 -12.387  1.00  0.00     0.014 C 
BRANCH   7   9
ATOM      9  C   UNL     1     -94.944 -48.690 -11.884  1.00  0.00     0.044 C 
ATOM     10  O   UNL     1     -95.274 -48.935 -13.075  1.00  0.00    -0.550 OA
ATOM     11  O   UNL     1     -95.456 -49.473 -10.857  1.00  0.00    -0.550 OA
ENDBRANCH   7   9
ENDBRANCH   6   7
ENDBRANCH   5   6
ENDBRANCH   4   5
ENDBRANCH   3   4
ENDBRANCH   2   3
ENDBRANCH   1   2
BRANCH   1  12
ATOM     12  C   UNL     1     -97.244 -43.596 -11.396  1.00  0.00     0.000 C 
BRANCH  12  13
ATOM     13  C   UNL     1     -98.640 -43.633 -12.041  1.00  0.00    -0.000 C 
BRANCH  13  14
ATOM     14  C   UNL     1     -99.101 -45.060 -12.382  1.00  0.00    -0.000 C 
BRANCH  14  15
ATOM     15  C   UNL     1     -98.007 -46.117 -12.147  1.00  0.00    -0.000 C 
BRANCH  15  16
ATOM     16  C   UNL     1     -98.514 -47.560 -11.948  1.00  0.00    -0.000 C 
BRANCH  16  17
ATOM     17  C   UNL     1     -98.734 -48.360 -13.243  1.00  0.00    -0.000 C 
BRANCH  17  18
ATOM     18  C   UNL     1    -100.196 -48.343 -13.713  1.00  0.00    -0.003 C 
ATOM     19  C   UNL     1    -100.939 -49.591 -13.244  1.00  0.00     0.004 C 
ENDBRANCH  17  18
ENDBRANCH  16  17
ENDBRANCH  15  16
ENDBRANCH  14  15
ENDBRANCH  13  14
ENDBRANCH  12  13
ENDBRANCH   1  12
TORSDOF 14
ENDMDL
MODEL 2
REMARK VINA RESULT:    -3.438      1.341      2.068
REMARK INTER + INTRA:          -8.490
REMARK INTER:                  -6.550
REMARK INTRA:                  -1.940
REMARK UNBOUND:                -2.238
REMARK SMILES CCCCCCCCCCCCCC[C@H](C)C(=O)[O-]
REMARK SMILES IDX 9 1 10 2 11 3 12 4 13 5 14 6 15 7 16 8 17 9 18 10 19 11 8 12
REMARK SMILES IDX 7 13 6 14 5 15 4 16 3 17 2 18 1 19
REMARK H PARENT
REMARK Flexibility Score: inf
ROOT
ATOM      1  C   UNL     1     -97.332 -43.455 -11.467  1.00  0.00     0.000 C 
ENDROOT
BRANCH   1   2
ATOM      2  C   UNL     1     -97.332 -43.015  -9.992  1.00  0.00     0.000 C 
BRANCH   2   3
ATOM      3  C   UNL     1     -96.312 -43.792  -9.145  1.00  0.00     0.000 C 
BRANCH   3   4
ATOM      4  C   UNL     1     -96.633 -45.293  -9.071  1.00  0.00     0.000 C 
BRANCH   4   5
ATOM      5  C   UNL     1     -95.413 -46.092  -8.594  1.00  0.00     0.001 C 
BRANCH   5   6
ATOM      6  C   UNL     1     -94.360 -46.206  -9.708  1.00  0.00     0.009 C 
BRANCH   6   7
ATOM      7  C   UNL     1     -94.962 -46.738 -11.025  1.00  0.00     0.032 C 
ATOM      8  C   UNL     1     -95.404 -48.197 -10.866  1.00  0.00     0.014 C 
BRANCH   7   9
ATOM      9  C   UNL     1     -93.987 -46.618 -12.165  1.00  0.00     0.044 C 
ATOM     10  O   UNL     1     -92.997 -47.394 -12.246  1.00  0.00    -0.550 OA
ATOM     11  O   UNL     1     -94.178 -45.648 -13.141  1.00  0.00    -0.550 OA
ENDBRANCH   7   9
ENDBRANCH   6   7
ENDBRANCH   5   6
ENDBRANCH   4   5
ENDBRANCH   3   4
ENDBRANCH   2   3
ENDBRANCH   1   2
BRANCH   1  12
ATOM     12  C   UNL     1     -98.749 -43.421 -12.079  1.00  0.00     0.000 C 
BRANCH  12  13
ATOM     13  C   UNL     1     -99.317 -44.815 -12.398  1.00  0.00    -0.000 C 
BRANCH  13  14
ATOM     14  C   UNL     1     -98.278 -45.935 -12.228  1.00  0.00    -0.000 C 
BRANCH  14  15
ATOM     15  C   UNL     1     -98.915 -47.305 -11.929  1.00  0.00    -0.000 C 
BRANCH  15  16
ATOM     16  C   UNL     1     -98.901 -48.309 -13.099  1.00  0.00    -0.000 C 
BRANCH  16  17
ATOM     17  C   UNL     1    -100.266 -48.558 -13.763  1.00  0.00    -0.000 C 
BRANCH  17  18
ATOM     18  C   UNL     1    -101.419 -47.845 -13.041  1.00  0.00    -0.003 C 
ATOM     19  C   UNL     1    -102.089 -46.820 -13.951  1.00  0.00     0.004 C 
ENDBRANCH  17  18
ENDBRANCH  16  17
ENDBRANCH  15  16
ENDBRANCH  14  15
ENDBRANCH  13  14
ENDBRANCH  12  13
ENDBRANCH   1  12
TORSDOF 14
ENDMDL
MODEL 3
REMARK VINA RESULT:    -3.379      1.941      5.083
REMARK INTER + INTRA:          -8.383
REMARK INTER:                  -6.176
REMARK INTRA:                  -2.207
REMARK UNBOUND:                -2.238
REMARK SMILES CCCCCCCCCCCCCC[C@H](C)C(=O)[O-]
REMARK SMILES IDX 9 1 10 2 11 3 12 4 13 5 14 6 15 7 16 8 17 9 18 10 19 11 8 12
REMARK SMILES IDX 7 13 6 14 5 15 4 16 3 17 2 18 1 19
REMARK H PARENT
REMARK Flexibility Score: inf
ROOT
ATOM      1  C   UNL     1     -97.036 -43.691 -11.411  1.00  0.00     0.000 C 
ENDROOT
BRANCH   1   2
ATOM      2  C   UNL     1     -98.448 -43.622 -12.021  1.00  0.00     0.000 C 
BRANCH   2   3
ATOM      3  C   UNL     1     -99.013 -45.011 -12.357  1.00  0.00     0.000 C 
BRANCH   3   4
ATOM      4  C   UNL     1     -98.030 -46.142 -12.015  1.00  0.00     0.000 C 
BRANCH   4   5
ATOM      5  C   UNL     1     -98.756 -47.491 -11.923  1.00  0.00     0.001 C 
BRANCH   5   6
ATOM      6  C   UNL     1     -98.811 -48.181 -13.296  1.00  0.00     0.009 C 
BRANCH   6   7
ATOM      7  C   UNL     1    -100.210 -48.755 -13.602  1.00  0.00     0.032 C 
ATOM      8  C   UNL     1    -101.237 -47.626 -13.744  1.00  0.00     0.014 C 
BRANCH   7   9
ATOM      9  C   UNL     1    -100.655 -49.723 -12.539  1.00  0.00     0.044 C 
ATOM     10  O   UNL     1    -101.672 -49.480 -11.836  1.00  0.00    -0.550 OA
ATOM     11  O   UNL     1     -99.943 -50.898 -12.331  1.00  0.00    -0.550 OA
ENDBRANCH   7   9
ENDBRANCH   6   7
ENDBRANCH   5   6
ENDBRANCH   4   5
ENDBRANCH   3   4
ENDBRANCH   2   3
ENDBRANCH   1   2
BRANCH   1  12
ATOM     12  C   UNL     1     -96.968 -42.998 -10.034  1.00  0.00     0.000 C 
BRANCH  12  13
ATOM     13  C   UNL     1     -96.880 -43.981  -8.853  1.00  0.00    -0.000 C 
BRANCH  13  14
ATOM     14  C   UNL     1     -95.729 -44.990  -9.002  1.00  0.00    -0.000 C 
BRANCH  14  15
ATOM     15  C   UNL     1     -96.173 -46.445  -8.765  1.00  0.00    -0.000 C 
BRANCH  15  16
ATOM     16  C   UNL     1     -95.559 -47.487  -9.722  1.00  0.00    -0.000 C 
BRANCH  16  17
ATOM     17  C   UNL     1     -94.305 -47.019 -10.481  1.00  0.00    -0.000 C 
BRANCH  17  18
ATOM     18  C   UNL     1     -94.412 -47.234 -11.998  1.00  0.00    -0.003 C 
ATOM     19  C   UNL     1     -94.284 -45.913 -12.750  1.00  0.00     0.004 C 
ENDBRANCH  17  18
ENDBRANCH  16  17
ENDBRANCH  15  16
ENDBRANCH  14  15
ENDBRANCH  13  14
ENDBRANCH  12  13
ENDBRANCH   1  12
TORSDOF 14
ENDMDL
MODEL 4
REMARK VINA RESULT:    -3.347      1.749      4.611
REMARK INTER + INTRA:          -8.324
REMARK INTER:                  -5.710
REMARK INTRA:                  -2.614
REMARK UNBOUND:                -2.238
REMARK SMILES CCCCCCCCCCCCCC[C@H](C)C(=O)[O-]
REMARK SMILES IDX 9 1 10 2 11 3 12 4 13 5 14 6 15 7 16 8 17 9 18 10 19 11 8 12
REMARK SMILES IDX 7 13 6 14 5 15 4 16 3 17 2 18 1 19
REMARK H PARENT
REMARK Flexibility Score: inf
ROOT
ATOM      1  C   UNL     1     -98.166 -43.881  -9.306  1.00  0.00     0.000 C 
ENDROOT
BRANCH   1   2
ATOM      2  C   UNL     1     -97.271 -43.209 -10.363  1.00  0.00     0.000 C 
BRANCH   2   3
ATOM      3  C   UNL     1     -97.644 -43.618 -11.797  1.00  0.00     0.000 C 
BRANCH   3   4
ATOM      4  C   UNL     1     -99.164 -43.702 -12.006  1.00  0.00     0.000 C 
BRANCH   4   5
ATOM      5  C   UNL     1     -99.565 -45.065 -12.584  1.00  0.00     0.001 C 
BRANCH   5   6
ATOM      6  C   UNL     1     -98.554 -46.151 -12.183  1.00  0.00     0.009 C 
BRANCH   6   7
ATOM      7  C   UNL     1     -99.204 -47.268 -11.340  1.00  0.00     0.032 C 
ATOM      8  C   UNL     1     -98.232 -47.770 -10.266  1.00  0.00     0.014 C 
BRANCH   7   9
ATOM      9  C   UNL     1     -99.655 -48.417 -12.200  1.00  0.00     0.044 C 
ATOM     10  O   UNL     1    -100.438 -49.292 -11.742  1.00  0.00    -0.550 OA
ATOM     11  O   UNL     1     -99.210 -48.517 -13.512  1.00  0.00    -0.550 OA
ENDBRANCH   7   9
ENDBRANCH   6   7
ENDBRANCH   5   6
ENDBRANCH   4   5
ENDBRANCH   3   4
ENDBRANCH   2   3
ENDBRANCH   1   2
BRANCH   1  12
ATOM     12  C   UNL     1     -97.346 -44.730  -8.311  1.00  0.00     0.000 C 
BRANCH  12  13
ATOM     13  C   UNL     1     -95.847 -44.804  -8.652  1.00  0.00    -0.000 C 
BRANCH  13  14
ATOM     14  C   UNL     1     -95.292 -46.237  -8.593  1.00  0.00    -0.000 C 
BRANCH  14  15
ATOM     15  C   UNL     1     -94.424 -46.595  -9.812  1.00  0.00    -0.000 C 
BRANCH  15  16
ATOM     16  C   UNL     1     -95.034 -46.240 -11.184  1.00  0.00    -0.000 C 
BRANCH  16  17
ATOM     17  C   UNL     1     -94.331 -46.873 -12.397  1.00  0.00    -0.000 C 
BRANCH  17  18
ATOM     18  C   UNL     1     -94.362 -48.409 -12.369  1.00  0.00    -0.003 C 
ATOM     19  C   UNL     1     -95.723 -48.938 -12.810  1.00  0.00     0.004 C 
ENDBRANCH  17  18
ENDBRANCH  16  17
ENDBRANCH  15  16
ENDBRANCH  14  15
ENDBRANCH  13  14
ENDBRANCH  12  13
ENDBRANCH   1  12
TORSDOF 14
ENDMDL
MODEL 5
REMARK VINA RESULT:    -3.327      1.924      4.695
REMARK INTER + INTRA:          -8.289
REMARK INTER:                  -5.836
REMARK INTRA:                  -2.452
REMARK UNBOUND:                -2.238
REMARK SMILES CCCCCCCCCCCCCC[C@H](C)C(=O)[O-]
REMARK SMILES IDX 9 1 10 2 11 3 12 4 13 5 14 6 15 7 16 8 17 9 18 10 19 11 8 12
REMARK SMILES IDX 7 13 6 14 5 15 4 16 3 17 2 18 1 19
REMARK H PARENT
REMARK Flexibility Score: inf
ROOT
ATOM      1  C   UNL     1     -96.995 -42.955 -10.211  1.00  0.00     0.000 C 
ENDROOT
BRANCH   1   2
ATOM      2  C   UNL     1     -97.307 -43.520 -11.608  1.00  0.00     0.000 C 
BRANCH   2   3
ATOM      3  C   UNL     1     -98.780 -43.335 -12.004  1.00  0.00     0.000 C 
BRANCH   3   4
ATOM      4  C   UNL     1     -99.466 -44.667 -12.347  1.00  0.00     0.000 C 
BRANCH   4   5
ATOM      5  C   UNL     1     -98.480 -45.837 -12.238  1.00  0.00     0.001 C 
BRANCH   5   6
ATOM      6  C   UNL     1     -98.989 -46.897 -11.248  1.00  0.00     0.009 C 
BRANCH   6   7
ATOM      7  C   UNL     1     -98.863 -48.327 -11.811  1.00  0.00     0.032 C 
ATOM      8  C   UNL     1     -97.590 -48.466 -12.653  1.00  0.00     0.014 C 
BRANCH   7   9
ATOM      9  C   UNL     1    -100.066 -48.704 -12.633  1.00  0.00     0.044 C 
ATOM     10  O   UNL     1    -100.067 -48.535 -13.882  1.00  0.00    -0.550 OA
ATOM     11  O   UNL     1    -101.185 -49.247 -12.015  1.00  0.00    -0.550 OA
ENDBRANCH   7   9
ENDBRANCH   6   7
ENDBRANCH   5   6
ENDBRANCH   4   5
ENDBRANCH   3   4
ENDBRANCH   2   3
ENDBRANCH   1   2
BRANCH   1  12
ATOM     12  C   UNL     1     -98.085 -43.325  -9.182  1.00  0.00     0.000 C 
BRANCH  12  13
ATOM     13  C   UNL     1     -97.841 -44.674  -8.483  1.00  0.00    -0.000 C 
BRANCH  13  14
ATOM     14  C   UNL     1     -96.348 -45.015  -8.350  1.00  0.00    -0.000 C 
BRANCH  14  15
ATOM     15  C   UNL     1     -95.954 -46.295  -9.108  1.00  0.00    -0.000 C 
BRANCH  15  16
ATOM     16  C   UNL     1     -94.695 -46.178  -9.992  1.00  0.00    -0.000 C 
BRANCH  16  17
ATOM     17  C   UNL     1     -94.942 -46.316 -11.504  1.00  0.00    -0.000 C 
BRANCH  17  18
ATOM     18  C   UNL     1     -93.743 -46.916 -12.252  1.00  0.00    -0.003 C 
ATOM     19  C   UNL     1     -93.861 -48.434 -12.354  1.00  0.00     0.004 C 
ENDBRANCH  17  18
ENDBRANCH  16  17
ENDBRANCH  15  16
ENDBRANCH  14  15
ENDBRANCH  13  14
ENDBRANCH  12  13
ENDBRANCH   1  12
TORSDOF 14
ENDMDL
MODEL 6
REMARK VINA RESULT:    -3.308      1.303      2.082
REMARK INTER + INTRA:          -8.254
REMARK INTER:                  -5.301
REMARK INTRA:                  -2.953
REMARK UNBOUND:                -2.238
REMARK SMILES CCCCCCCCCCCCCC[C@H](C)C(=O)[O-]
REMARK SMILES IDX 9 1 10 2 11 3 12 4 13 5 14 6 15 7 16 8 17 9 18 10 19 11 8 12
REMARK SMILES IDX 7 13 6 14 5 15 4 16 3 17 2 18 1 19
REMARK H PARENT
REMARK Flexibility Score: inf
ROOT
ATOM      1  C   UNL     1     -97.258 -43.206 -10.013  1.00  0.00     0.000 C 
ENDROOT
BRANCH   1   2
ATOM      2  C   UNL     1     -96.164 -43.841  -9.136  1.00  0.00     0.000 C 
BRANCH   2   3
ATOM      3  C   UNL     1     -96.651 -45.103  -8.408  1.00  0.00     0.000 C 
BRANCH   3   4
ATOM      4  C   UNL     1     -95.761 -46.324  -8.694  1.00  0.00     0.000 C 
BRANCH   4   5
ATOM      5  C   UNL     1     -94.633 -45.965  -9.669  1.00  0.00     0.001 C 
BRANCH   5   6
ATOM      6  C   UNL     1     -93.824 -47.212 -10.059  1.00  0.00     0.009 C 
BRANCH   6   7
ATOM      7  C   UNL     1     -93.983 -47.565 -11.552  1.00  0.00     0.032 C 
ATOM      8  C   UNL     1     -94.366 -46.322 -12.363  1.00  0.00     0.014 C 
BRANCH   7   9
ATOM      9  C   UNL     1     -95.008 -48.648 -11.758  1.00  0.00     0.044 C 
ATOM     10  O   UNL     1     -95.430 -49.325 -10.782  1.00  0.00    -0.550 OA
ATOM     11  O   UNL     1     -95.498 -48.905 -13.032  1.00  0.00    -0.550 OA
ENDBRANCH   7   9
ENDBRANCH   6   7
ENDBRANCH   5   6
ENDBRANCH   4   5
ENDBRANCH   3   4
ENDBRANCH   2   3
ENDBRANCH   1   2
BRANCH   1  12
ATOM     12  C   UNL     1     -97.321 -43.849 -11.414  1.00  0.00     0.000 C 
BRANCH  12  13
ATOM     13  C   UNL     1     -98.744 -43.928 -11.994  1.00  0.00    -0.000 C 
BRANCH  13  14
ATOM     14  C   UNL     1     -99.131 -45.349 -12.434  1.00  0.00    -0.000 C 
BRANCH  14  15
ATOM     15  C   UNL     1     -98.033 -46.388 -12.142  1.00  0.00    -0.000 C 
BRANCH  15  16
ATOM     16  C   UNL     1     -98.395 -47.450 -11.084  1.00  0.00    -0.000 C 
BRANCH  16  17
ATOM     17  C   UNL     1     -99.817 -47.341 -10.507  1.00  0.00    -0.000 C 
BRANCH  17  18
ATOM     18  C   UNL     1     -99.831 -46.904  -9.035  1.00  0.00    -0.003 C 
ATOM     19  C   UNL     1    -100.333 -45.470  -8.893  1.00  0.00     0.004 C 
ENDBRANCH  17  18
ENDBRANCH  16  17
ENDBRANCH  15  16
ENDBRANCH  14  15
ENDBRANCH  13  14
ENDBRANCH  12  13
ENDBRANCH   1  12
TORSDOF 14
ENDMDL
MODEL 7
REMARK VINA RESULT:    -3.288      2.555      5.558
REMARK INTER + INTRA:          -8.218
REMARK INTER:                  -6.216
REMARK INTRA:                  -2.002
REMARK UNBOUND:                -2.238
REMARK SMILES CCCCCCCCCCCCCC[C@H](C)C(=O)[O-]
REMARK SMILES IDX 9 1 10 2 11 3 12 4 13 5 14 6 15 7 16 8 17 9 18 10 19 11 8 12
REMARK SMILES IDX 7 13 6 14 5 15 4 16 3 17 2 18 1 19
REMARK H PARENT
REMARK Flexibility Score: inf
ROOT
ATOM      1  C   UNL     1     -98.648 -43.479 -11.953  1.00  0.00     0.000 C 
ENDROOT
BRANCH   1   2
ATOM      2  C   UNL     1     -99.229 -44.843 -12.367  1.00  0.00     0.000 C 
BRANCH   2   3
ATOM      3  C   UNL     1     -98.173 -45.959 -12.366  1.00  0.00     0.000 C 
BRANCH   3   4
ATOM      4  C   UNL     1     -98.744 -47.307 -11.898  1.00  0.00     0.000 C 
BRANCH   4   5
ATOM      5  C   UNL     1     -98.696 -48.345 -13.026  1.00  0.00     0.001 C 
BRANCH   5   6
ATOM      6  C   UNL     1    -100.059 -48.457 -13.729  1.00  0.00     0.009 C 
BRANCH   6   7
ATOM      7  C   UNL     1    -101.026 -49.395 -12.977  1.00  0.00     0.032 C 
ATOM      8  C   UNL     1    -100.267 -50.584 -12.377  1.00  0.00     0.014 C 
BRANCH   7   9
ATOM      9  C   UNL     1    -102.126 -49.890 -13.877  1.00  0.00     0.044 C 
ATOM     10  O   UNL     1    -102.116 -51.073 -14.311  1.00  0.00    -0.550 OA
ATOM     11  O   UNL     1    -103.166 -49.040 -14.231  1.00  0.00    -0.550 OA
ENDBRANCH   7   9
ENDBRANCH   6   7
ENDBRANCH   5   6
ENDBRANCH   4   5
ENDBRANCH   3   4
ENDBRANCH   2   3
ENDBRANCH   1   2
BRANCH   1  12
ATOM     12  C   UNL     1     -97.230 -43.613 -11.357  1.00  0.00     0.000 C 
BRANCH  12  13
ATOM     13  C   UNL     1     -97.166 -43.317  -9.848  1.00  0.00    -0.000 C 
BRANCH  13  14
ATOM     14  C   UNL     1     -96.249 -44.291  -9.089  1.00  0.00    -0.000 C 
BRANCH  14  15
ATOM     15  C   UNL     1     -96.791 -45.732  -9.067  1.00  0.00    -0.000 C 
BRANCH  15  16
ATOM     16  C   UNL     1     -95.833 -46.805  -9.624  1.00  0.00    -0.000 C 
BRANCH  16  17
ATOM     17  C   UNL     1     -94.587 -46.261 -10.342  1.00  0.00    -0.000 C 
BRANCH  17  18
ATOM     18  C   UNL     1     -94.611 -46.520 -11.856  1.00  0.00    -0.003 C 
ATOM     19  C   UNL     1     -95.026 -47.956 -12.162  1.00  0.00     0.004 C 
ENDBRANCH  17  18
ENDBRANCH  16  17
ENDBRANCH  15  16
ENDBRANCH  14  15
ENDBRANCH  13  14
ENDBRANCH  12  13
ENDBRANCH   1  12
TORSDOF 14
ENDMDL
MODEL 8
REMARK VINA RESULT:    -3.211      1.813      3.296
REMARK INTER + INTRA:          -8.078
REMARK INTER:                  -5.705
REMARK INTRA:                  -2.373
REMARK UNBOUND:                -2.238
REMARK SMILES CCCCCCCCCCCCCC[C@H](C)C(=O)[O-]
REMARK SMILES IDX 9 1 10 2 11 3 12 4 13 5 14 6 15 7 16 8 17 9 18 10 19 11 8 12
REMARK SMILES IDX 7 13 6 14 5 15 4 16 3 17 2 18 1 19
REMARK H PARENT
REMARK Flexibility Score: inf
ROOT
ATOM      1  C   UNL     1     -99.913 -44.984 -12.390  1.00  0.00     0.000 C 
ENDROOT
BRANCH   1   2
ATOM      2  C   UNL     1     -99.434 -43.565 -12.038  1.00  0.00     0.000 C 
BRANCH   2   3
ATOM      3  C   UNL     1     -97.902 -43.447 -12.021  1.00  0.00     0.000 C 
BRANCH   3   4
ATOM      4  C   UNL     1     -97.313 -43.675 -10.619  1.00  0.00     0.000 C 
BRANCH   4   5
ATOM      5  C   UNL     1     -96.487 -44.967 -10.575  1.00  0.00     0.001 C 
BRANCH   5   6
ATOM      6  C   UNL     1     -96.138 -45.446 -11.994  1.00  0.00     0.009 C 
BRANCH   6   7
ATOM      7  C   UNL     1     -95.468 -46.836 -11.990  1.00  0.00     0.032 C 
ATOM      8  C   UNL     1     -95.611 -47.501 -10.617  1.00  0.00     0.014 C 
BRANCH   7   9
ATOM      9  C   UNL     1     -94.014 -46.748 -12.368  1.00  0.00     0.044 C 
ATOM     10  O   UNL     1     -93.580 -45.762 -13.022  1.00  0.00    -0.550 OA
ATOM     11  O   UNL     1     -93.138 -47.758 -11.992  1.00  0.00    -0.550 OA
ENDBRANCH   7   9
ENDBRANCH   6   7
ENDBRANCH   5   6
ENDBRANCH   4   5
ENDBRANCH   3   4
ENDBRANCH   2   3
ENDBRANCH   1   2
BRANCH   1  12
ATOM     12  C   UNL     1    -100.188 -45.830 -11.129  1.00  0.00     0.000 C 
BRANCH  12  13
ATOM     13  C   UNL     1     -99.411 -47.158 -11.095  1.00  0.00    -0.000 C 
BRANCH  13  14
ATOM     14  C   UNL     1     -98.949 -47.614 -12.489  1.00  0.00    -0.000 C 
BRANCH  14  15
ATOM     15  C   UNL     1     -99.688 -48.870 -12.985  1.00  0.00    -0.000 C 
BRANCH  15  16
ATOM     16  C   UNL     1    -100.883 -48.605 -13.924  1.00  0.00    -0.000 C 
BRANCH  16  17
ATOM     17  C   UNL     1    -102.269 -48.851 -13.304  1.00  0.00    -0.000 C 
BRANCH  17  18
ATOM     18  C   UNL     1    -103.278 -47.743 -13.642  1.00  0.00    -0.003 C 
ATOM     19  C   UNL     1    -102.603 -46.590 -14.379  1.00  0.00     0.004 C 
ENDBRANCH  17  18
ENDBRANCH  16  17
ENDBRANCH  15  16
ENDBRANCH  14  15
ENDBRANCH  13  14
ENDBRANCH  12  13
ENDBRANCH   1  12
TORSDOF 14
ENDMDL
MODEL 9
REMARK VINA RESULT:    -3.185      1.428      4.136
REMARK INTER + INTRA:          -8.030
REMARK INTER:                  -5.588
REMARK INTRA:                  -2.442
REMARK UNBOUND:                -2.238
REMARK SMILES CCCCCCCCCCCCCC[C@H](C)C(=O)[O-]
REMARK SMILES IDX 9 1 10 2 11 3 12 4 13 5 14 6 15 7 16 8 17 9 18 10 19 11 8 12
REMARK SMILES IDX 7 13 6 14 5 15 4 16 3 17 2 18 1 19
REMARK H PARENT
REMARK Flexibility Score: inf
ROOT
ATOM      1  C   UNL     1     -99.506 -46.127 -11.718  1.00  0.00     0.000 C 
ENDROOT
BRANCH   1   2
ATOM      2  C   UNL     1     -99.850 -47.212 -12.754  1.00  0.00     0.000 C 
BRANCH   2   3
ATOM      3  C   UNL     1     -98.657 -48.128 -13.067  1.00  0.00     0.000 C 
BRANCH   3   4
ATOM      4  C   UNL     1     -97.703 -48.277 -11.871  1.00  0.00     0.000 C 
BRANCH   4   5
ATOM      5  C   UNL     1     -96.590 -49.287 -12.179  1.00  0.00     0.001 C 
BRANCH   5   6
ATOM      6  C   UNL     1     -95.260 -48.571 -12.463  1.00  0.00     0.009 C 
BRANCH   6   7
ATOM      7  C   UNL     1     -95.021 -47.385 -11.506  1.00  0.00     0.032 C 
ATOM      8  C   UNL     1     -94.574 -46.143 -12.285  1.00  0.00     0.014 C 
BRANCH   7   9
ATOM      9  C   UNL     1     -94.003 -47.723 -10.451  1.00  0.00     0.044 C 
ATOM     10  O   UNL     1     -93.376 -48.816 -10.492  1.00  0.00    -0.550 OA
ATOM     11  O   UNL     1     -93.745 -46.825  -9.423  1.00  0.00    -0.550 OA
ENDBRANCH   7   9
ENDBRANCH   6   7
ENDBRANCH   5   6
ENDBRANCH   4   5
ENDBRANCH   3   4
ENDBRANCH   2   3
ENDBRANCH   1   2
BRANCH   1  12
ATOM     12  C   UNL     1     -99.016 -44.825 -12.386  1.00  0.00     0.000 C 
BRANCH  12  13
ATOM     13  C   UNL     1     -97.745 -44.242 -11.743  1.00  0.00    -0.000 C 
BRANCH  13  14
ATOM     14  C   UNL     1     -98.053 -43.218 -10.638  1.00  0.00    -0.000 C 
BRANCH  14  15
ATOM     15  C   UNL     1     -96.885 -43.030  -9.652  1.00  0.00    -0.000 C 
BRANCH  15  16
ATOM     16  C   UNL     1     -96.158 -44.326  -9.236  1.00  0.00    -0.000 C 
BRANCH  16  17
ATOM     17  C   UNL     1     -96.857 -45.143  -8.135  1.00  0.00    -0.000 C 
BRANCH  17  18
ATOM     18  C   UNL     1     -97.208 -46.569  -8.584  1.00  0.00    -0.003 C 
ATOM     19  C   UNL     1     -98.670 -46.893  -8.292  1.00  0.00     0.004 C 
ENDBRANCH  17  18
ENDBRANCH  16  17
ENDBRANCH  15  16
ENDBRANCH  14  15
ENDBRANCH  13  14
ENDBRANCH  12  13
ENDBRANCH   1  12
TORSDOF 14
ENDMDL
