MODEL 1
REMARK VINA RESULT:    -6.350      0.000      0.000
REMARK INTER + INTRA:          -7.769
REMARK INTER:                  -7.464
REMARK INTRA:                  -0.306
REMARK UNBOUND:                -0.306
REMARK SMILES O=c1cc(-c2ccc(O)c(O)c2)oc2cc(O)cc(O)c12
REMARK SMILES IDX 4 1 3 2 2 3 1 4 21 5 19 6 18 7 16 8 15 9 14 10 13 11 5 12
REMARK SMILES IDX 6 13 7 14 8 15 12 16 10 17 9 18 11 20 20 22 17 24
REMARK H PARENT 9 19 11 21 20 23 17 25
REMARK Flexibility Score: inf
ROOT
ATOM      1  C   UNL     1      17.698  -3.189 -16.051  1.00  0.00     0.138 A 
ATOM      2  C   UNL     1      17.508  -4.566 -15.867  1.00  0.00     0.100 A 
ATOM      3  C   UNL     1      16.674  -5.017 -14.844  1.00  0.00     0.197 A 
ATOM      4  O   UNL     1      16.573  -6.259 -14.664  1.00  0.00    -0.289 OA
ATOM      5  C   UNL     1      16.001  -4.084 -14.021  1.00  0.00     0.107 A 
ATOM      6  C   UNL     1      15.095  -4.427 -12.974  1.00  0.00     0.134 A 
ATOM      7  C   UNL     1      14.578  -3.420 -12.150  1.00  0.00     0.093 A 
ATOM      8  C   UNL     1      14.886  -2.078 -12.371  1.00  0.00     0.123 A 
ATOM      9  C   UNL     1      15.729  -1.726 -13.427  1.00  0.00     0.094 A 
ATOM     10  C   UNL     1      16.288  -2.710 -14.245  1.00  0.00     0.146 A 
ATOM     11  O   UNL     1      17.097  -2.334 -15.230  1.00  0.00    -0.456 OA
ENDROOT
BRANCH   1  12
ATOM     12  C   UNL     1      18.573  -2.655 -17.124  1.00  0.00     0.021 A 
ATOM     13  C   UNL     1      18.732  -3.384 -18.314  1.00  0.00     0.016 A 
ATOM     14  C   UNL     1      19.556  -2.908 -19.336  1.00  0.00     0.051 A 
ATOM     15  C   UNL     1      20.244  -1.700 -19.185  1.00  0.00     0.157 A 
ATOM     16  C   UNL     1      19.280  -1.445 -16.971  1.00  0.00     0.062 A 
ATOM     17  C   UNL     1      20.109  -0.966 -17.996  1.00  0.00     0.158 A 
BRANCH  15  18
ATOM     18  O   UNL     1      21.058  -1.249 -20.223  1.00  0.00    -0.504 OA
ATOM     19  H   UNL     1      20.793  -1.347 -21.196  1.00  0.00     0.293 HD
ENDBRANCH  15  18
BRANCH  17  20
ATOM     20  O   UNL     1      20.801   0.232 -17.834  1.00  0.00    -0.504 OA
ATOM     21  H   UNL     1      21.813   0.271 -17.870  1.00  0.00     0.293 HD
ENDBRANCH  17  20
ENDBRANCH   1  12
BRANCH   6  22
ATOM     22  O   UNL     1      14.653  -5.729 -12.720  1.00  0.00    -0.507 OA
ATOM     23  H   UNL     1      15.148  -6.568 -12.982  1.00  0.00     0.293 HD
ENDBRANCH   6  22
BRANCH   8  24
ATOM     24  O   UNL     1      14.341  -1.101 -11.541  1.00  0.00    -0.508 OA
ATOM     25  H   UNL     1      14.924  -0.414 -11.079  1.00  0.00     0.293 HD
ENDBRANCH   8  24
TORSDOF 5
ENDMDL
MODEL 2
REMARK VINA RESULT:    -6.133      2.230      2.765
REMARK INTER + INTRA:          -7.514
REMARK INTER:                  -7.236
REMARK INTRA:                  -0.278
REMARK UNBOUND:                -0.306
REMARK SMILES O=c1cc(-c2ccc(O)c(O)c2)oc2cc(O)cc(O)c12
REMARK SMILES IDX 4 1 3 2 2 3 1 4 21 5 19 6 18 7 16 8 15 9 14 10 13 11 5 12
REMARK SMILES IDX 6 13 7 14 8 15 12 16 10 17 9 18 11 20 20 22 17 24
REMARK H PARENT 9 19 11 21 20 23 17 25
REMARK Flexibility Score: inf
ROOT
ATOM      1  C   UNL     1      18.027  -2.353 -14.066  1.00  0.00     0.138 A 
ATOM      2  C   UNL     1      18.805  -2.353 -12.900  1.00  0.00     0.100 A 
ATOM      3  C   UNL     1      18.263  -2.840 -11.710  1.00  0.00     0.197 A 
ATOM      4  O   UNL     1      18.963  -2.770 -10.666  1.00  0.00    -0.289 OA
ATOM      5  C   UNL     1      16.948  -3.360 -11.696  1.00  0.00     0.107 A 
ATOM      6  C   UNL     1      16.307  -3.921 -10.551  1.00  0.00     0.134 A 
ATOM      7  C   UNL     1      14.961  -4.298 -10.629  1.00  0.00     0.093 A 
ATOM      8  C   UNL     1      14.249  -4.191 -11.823  1.00  0.00     0.123 A 
ATOM      9  C   UNL     1      14.882  -3.693 -12.964  1.00  0.00     0.094 A 
ATOM     10  C   UNL     1      16.214  -3.277 -12.910  1.00  0.00     0.146 A 
ATOM     11  O   UNL     1      16.775  -2.796 -14.014  1.00  0.00    -0.456 OA
ENDROOT
BRANCH   1  12
ATOM     12  C   UNL     1      18.553  -1.846 -15.359  1.00  0.00     0.021 A 
ATOM     13  C   UNL     1      18.322  -2.581 -16.534  1.00  0.00     0.016 A 
ATOM     14  C   UNL     1      18.813  -2.131 -17.762  1.00  0.00     0.051 A 
ATOM     15  C   UNL     1      19.551  -0.946 -17.838  1.00  0.00     0.157 A 
ATOM     16  C   UNL     1      19.308  -0.660 -15.438  1.00  0.00     0.062 A 
ATOM     17  C   UNL     1      19.803  -0.208 -16.671  1.00  0.00     0.158 A 
BRANCH  15  18
ATOM     18  O   UNL     1      20.026  -0.521 -19.077  1.00  0.00    -0.504 OA
ATOM     19  H   UNL     1      19.778   0.380 -19.468  1.00  0.00     0.293 HD
ENDBRANCH  15  18
BRANCH  17  20
ATOM     20  O   UNL     1      20.547   0.969 -16.737  1.00  0.00    -0.504 OA
ATOM     21  H   UNL     1      20.866   1.347 -17.622  1.00  0.00     0.293 HD
ENDBRANCH  17  20
ENDBRANCH   1  12
BRANCH   6  22
ATOM     22  O   UNL     1      16.950  -4.152  -9.331  1.00  0.00    -0.507 OA
ATOM     23  H   UNL     1      17.084  -5.060  -8.912  1.00  0.00     0.293 HD
ENDBRANCH   6  22
BRANCH   8  24
ATOM     24  O   UNL     1      12.915  -4.590 -11.867  1.00  0.00    -0.508 OA
ATOM     25  H   UNL     1      12.304  -4.311 -12.626  1.00  0.00     0.293 HD
ENDBRANCH   8  24
TORSDOF 5
ENDMDL
MODEL 3
REMARK VINA RESULT:    -6.080      2.921      3.872
REMARK INTER + INTRA:          -7.452
REMARK INTER:                  -7.183
REMARK INTRA:                  -0.269
REMARK UNBOUND:                -0.306
REMARK SMILES O=c1cc(-c2ccc(O)c(O)c2)oc2cc(O)cc(O)c12
REMARK SMILES IDX 4 1 3 2 2 3 1 4 21 5 19 6 18 7 16 8 15 9 14 10 13 11 5 12
REMARK SMILES IDX 6 13 7 14 8 15 12 16 10 17 9 18 11 20 20 22 17 24
REMARK H PARENT 9 19 11 21 20 23 17 25
REMARK Flexibility Score: inf
ROOT
ATOM      1  C   UNL     1      17.614  -4.817 -16.138  1.00  0.00     0.138 A 
ATOM      2  C   UNL     1      18.166  -5.179 -14.901  1.00  0.00     0.100 A 
ATOM      3  C   UNL     1      17.644  -6.271 -14.207  1.00  0.00     0.197 A 
ATOM      4  O   UNL     1      18.118  -6.533 -13.070  1.00  0.00    -0.289 OA
ATOM      5  C   UNL     1      16.587  -7.024 -14.769  1.00  0.00     0.107 A 
ATOM      6  C   UNL     1      16.004  -8.180 -14.171  1.00  0.00     0.134 A 
ATOM      7  C   UNL     1      14.886  -8.776 -14.766  1.00  0.00     0.093 A 
ATOM      8  C   UNL     1      14.365  -8.294 -15.967  1.00  0.00     0.123 A 
ATOM      9  C   UNL     1      14.961  -7.196 -16.589  1.00  0.00     0.094 A 
ATOM     10  C   UNL     1      16.057  -6.559 -16.003  1.00  0.00     0.146 A 
ATOM     11  O   UNL     1      16.586  -5.508 -16.619  1.00  0.00    -0.456 OA
ENDROOT
BRANCH   1  12
ATOM     12  C   UNL     1      18.131  -3.665 -16.919  1.00  0.00     0.021 A 
ATOM     13  C   UNL     1      18.575  -3.867 -18.237  1.00  0.00     0.016 A 
ATOM     14  C   UNL     1      19.072  -2.801 -18.990  1.00  0.00     0.051 A 
ATOM     15  C   UNL     1      19.145  -1.518 -18.440  1.00  0.00     0.157 A 
ATOM     16  C   UNL     1      18.218  -2.373 -16.364  1.00  0.00     0.062 A 
ATOM     17  C   UNL     1      18.719  -1.302 -17.120  1.00  0.00     0.158 A 
BRANCH  15  18
ATOM     18  O   UNL     1      19.644  -0.474 -19.217  1.00  0.00    -0.504 OA
ATOM     19  H   UNL     1      20.548  -0.054 -19.038  1.00  0.00     0.293 HD
ENDBRANCH  15  18
BRANCH  17  20
ATOM     20  O   UNL     1      18.799  -0.028 -16.561  1.00  0.00    -0.504 OA
ATOM     21  H   UNL     1      18.511   0.797 -17.075  1.00  0.00     0.293 HD
ENDBRANCH  17  20
ENDBRANCH   1  12
BRANCH   6  22
ATOM     22  O   UNL     1      16.498  -8.796 -13.017  1.00  0.00    -0.507 OA
ATOM     23  H   UNL     1      17.340  -8.523 -12.532  1.00  0.00     0.293 HD
ENDBRANCH   6  22
BRANCH   8  24
ATOM     24  O   UNL     1      13.260  -8.921 -16.538  1.00  0.00    -0.508 OA
ATOM     25  H   UNL     1      12.397  -9.046 -16.022  1.00  0.00     0.293 HD
ENDBRANCH   8  24
TORSDOF 5
ENDMDL
MODEL 4
REMARK VINA RESULT:    -6.079      5.800     11.085
REMARK INTER + INTRA:          -7.451
REMARK INTER:                  -7.142
REMARK INTRA:                  -0.308
REMARK UNBOUND:                -0.306
REMARK SMILES O=c1cc(-c2ccc(O)c(O)c2)oc2cc(O)cc(O)c12
REMARK SMILES IDX 4 1 3 2 2 3 1 4 21 5 19 6 18 7 16 8 15 9 14 10 13 11 5 12
REMARK SMILES IDX 6 13 7 14 8 15 12 16 10 17 9 18 11 20 20 22 17 24
REMARK H PARENT 9 19 11 21 20 23 17 25
REMARK Flexibility Score: inf
ROOT
ATOM      1  C   UNL     1      11.384  -6.852  -9.682  1.00  0.00     0.138 A 
ATOM      2  C   UNL     1      11.375  -7.733 -10.773  1.00  0.00     0.100 A 
ATOM      3  C   UNL     1      12.361  -7.626 -11.753  1.00  0.00     0.197 A 
ATOM      4  O   UNL     1      12.291  -8.389 -12.752  1.00  0.00    -0.289 OA
ATOM      5  C   UNL     1      13.380  -6.653 -11.624  1.00  0.00     0.107 A 
ATOM      6  C   UNL     1      14.459  -6.479 -12.541  1.00  0.00     0.134 A 
ATOM      7  C   UNL     1      15.343  -5.406 -12.371  1.00  0.00     0.093 A 
ATOM      8  C   UNL     1      15.224  -4.537 -11.287  1.00  0.00     0.123 A 
ATOM      9  C   UNL     1      14.203  -4.730 -10.354  1.00  0.00     0.094 A 
ATOM     10  C   UNL     1      13.285  -5.770 -10.514  1.00  0.00     0.146 A 
ATOM     11  O   UNL     1      12.320  -5.911  -9.612  1.00  0.00    -0.456 OA
ENDROOT
BRANCH   1  12
ATOM     12  C   UNL     1      10.359  -6.922  -8.610  1.00  0.00     0.021 A 
ATOM     13  C   UNL     1       9.712  -8.141  -8.351  1.00  0.00     0.016 A 
ATOM     14  C   UNL     1       8.739  -8.232  -7.353  1.00  0.00     0.051 A 
ATOM     15  C   UNL     1       8.387  -7.106  -6.603  1.00  0.00     0.157 A 
ATOM     16  C   UNL     1       9.991  -5.786  -7.861  1.00  0.00     0.062 A 
ATOM     17  C   UNL     1       9.013  -5.876  -6.859  1.00  0.00     0.158 A 
BRANCH  15  18
ATOM     18  O   UNL     1       7.413  -7.228  -5.613  1.00  0.00    -0.504 OA
ATOM     19  H   UNL     1       6.429  -7.317  -5.834  1.00  0.00     0.293 HD
ENDBRANCH  15  18
BRANCH  17  20
ATOM     20  O   UNL     1       8.659  -4.747  -6.124  1.00  0.00    -0.504 OA
ATOM     21  H   UNL     1       7.690  -4.475  -6.000  1.00  0.00     0.293 HD
ENDBRANCH  17  20
ENDBRANCH   1  12
BRANCH   6  22
ATOM     22  O   UNL     1      14.722  -7.340 -13.611  1.00  0.00    -0.507 OA
ATOM     23  H   UNL     1      14.211  -7.353 -14.481  1.00  0.00     0.293 HD
ENDBRANCH   6  22
BRANCH   8  24
ATOM     24  O   UNL     1      16.130  -3.490 -11.142  1.00  0.00    -0.508 OA
ATOM     25  H   UNL     1      16.192  -2.959 -10.281  1.00  0.00     0.293 HD
ENDBRANCH   8  24
TORSDOF 5
ENDMDL
MODEL 5
REMARK VINA RESULT:    -6.055      1.241      2.788
REMARK INTER + INTRA:          -7.423
REMARK INTER:                  -7.137
REMARK INTRA:                  -0.287
REMARK UNBOUND:                -0.306
REMARK SMILES O=c1cc(-c2ccc(O)c(O)c2)oc2cc(O)cc(O)c12
REMARK SMILES IDX 4 1 3 2 2 3 1 4 21 5 19 6 18 7 16 8 15 9 14 10 13 11 5 12
REMARK SMILES IDX 6 13 7 14 8 15 12 16 10 17 9 18 11 20 20 22 17 24
REMARK H PARENT 9 19 11 21 20 23 17 25
REMARK Flexibility Score: inf
ROOT
ATOM      1  C   UNL     1      17.398  -2.520 -15.271  1.00  0.00     0.138 A 
ATOM      2  C   UNL     1      16.734  -1.632 -14.412  1.00  0.00     0.100 A 
ATOM      3  C   UNL     1      15.905  -2.134 -13.409  1.00  0.00     0.197 A 
ATOM      4  O   UNL     1      15.273  -1.312 -12.694  1.00  0.00    -0.289 OA
ATOM      5  C   UNL     1      15.766  -3.532 -13.244  1.00  0.00     0.107 A 
ATOM      6  C   UNL     1      14.980  -4.158 -12.231  1.00  0.00     0.134 A 
ATOM      7  C   UNL     1      14.825  -5.549 -12.238  1.00  0.00     0.093 A 
ATOM      8  C   UNL     1      15.473  -6.343 -13.183  1.00  0.00     0.123 A 
ATOM      9  C   UNL     1      16.288  -5.745 -14.147  1.00  0.00     0.094 A 
ATOM     10  C   UNL     1      16.435  -4.358 -14.188  1.00  0.00     0.146 A 
ATOM     11  O   UNL     1      17.208  -3.827 -15.129  1.00  0.00    -0.456 OA
ENDROOT
BRANCH   1  12
ATOM     12  C   UNL     1      18.293  -2.040 -16.354  1.00  0.00     0.021 A 
ATOM     13  C   UNL     1      18.397  -2.781 -17.543  1.00  0.00     0.016 A 
ATOM     14  C   UNL     1      19.237  -2.356 -18.575  1.00  0.00     0.051 A 
ATOM     15  C   UNL     1      19.996  -1.190 -18.434  1.00  0.00     0.157 A 
ATOM     16  C   UNL     1      19.070  -0.873 -16.212  1.00  0.00     0.062 A 
ATOM     17  C   UNL     1      19.915  -0.446 -17.247  1.00  0.00     0.158 A 
BRANCH  15  18
ATOM     18  O   UNL     1      20.824  -0.790 -19.482  1.00  0.00    -0.504 OA
ATOM     19  H   UNL     1      20.901   0.179 -19.766  1.00  0.00     0.293 HD
ENDBRANCH  15  18
BRANCH  17  20
ATOM     20  O   UNL     1      20.678   0.711 -17.096  1.00  0.00    -0.504 OA
ATOM     21  H   UNL     1      21.690   0.688 -17.125  1.00  0.00     0.293 HD
ENDBRANCH  17  20
ENDBRANCH   1  12
BRANCH   6  22
ATOM     22  O   UNL     1      14.358  -3.466 -11.187  1.00  0.00    -0.507 OA
ATOM     23  H   UNL     1      14.515  -3.640 -10.205  1.00  0.00     0.293 HD
ENDBRANCH   6  22
BRANCH   8  24
ATOM     24  O   UNL     1      15.308  -7.726 -13.151  1.00  0.00    -0.508 OA
ATOM     25  H   UNL     1      14.721  -8.204 -13.824  1.00  0.00     0.293 HD
ENDBRANCH   8  24
TORSDOF 5
ENDMDL
MODEL 6
REMARK VINA RESULT:    -6.003      2.519      2.842
REMARK INTER + INTRA:          -7.362
REMARK INTER:                  -7.069
REMARK INTRA:                  -0.293
REMARK UNBOUND:                -0.306
REMARK SMILES O=c1cc(-c2ccc(O)c(O)c2)oc2cc(O)cc(O)c12
REMARK SMILES IDX 4 1 3 2 2 3 1 4 21 5 19 6 18 7 16 8 15 9 14 10 13 11 5 12
REMARK SMILES IDX 6 13 7 14 8 15 12 16 10 17 9 18 11 20 20 22 17 24
REMARK H PARENT 9 19 11 21 20 23 17 25
REMARK Flexibility Score: inf
ROOT
ATOM      1  C   UNL     1      17.803  -2.178 -14.401  1.00  0.00     0.138 A 
ATOM      2  C   UNL     1      16.465  -2.600 -14.393  1.00  0.00     0.100 A 
ATOM      3  C   UNL     1      15.876  -3.001 -13.194  1.00  0.00     0.197 A 
ATOM      4  O   UNL     1      14.694  -3.434 -13.229  1.00  0.00    -0.289 OA
ATOM      5  C   UNL     1      16.619  -2.948 -11.991  1.00  0.00     0.107 A 
ATOM      6  C   UNL     1      16.110  -3.293 -10.704  1.00  0.00     0.134 A 
ATOM      7  C   UNL     1      16.973  -3.313  -9.603  1.00  0.00     0.093 A 
ATOM      8  C   UNL     1      18.312  -2.943  -9.728  1.00  0.00     0.123 A 
ATOM      9  C   UNL     1      18.808  -2.552 -10.973  1.00  0.00     0.094 A 
ATOM     10  C   UNL     1      17.981  -2.555 -12.097  1.00  0.00     0.146 A 
ATOM     11  O   UNL     1      18.495  -2.190 -13.267  1.00  0.00    -0.456 OA
ENDROOT
BRANCH   1  12
ATOM     12  C   UNL     1      18.479  -1.741 -15.648  1.00  0.00     0.021 A 
ATOM     13  C   UNL     1      18.322  -2.496 -16.821  1.00  0.00     0.016 A 
ATOM     14  C   UNL     1      18.954  -2.111 -18.006  1.00  0.00     0.051 A 
ATOM     15  C   UNL     1      19.762  -0.971 -18.038  1.00  0.00     0.157 A 
ATOM     16  C   UNL     1      19.305  -0.600 -15.681  1.00  0.00     0.062 A 
ATOM     17  C   UNL     1      19.942  -0.213 -16.870  1.00  0.00     0.158 A 
BRANCH  15  18
ATOM     18  O   UNL     1      20.378  -0.610 -19.235  1.00  0.00    -0.504 OA
ATOM     19  H   UNL     1      19.870  -0.569 -20.111  1.00  0.00     0.293 HD
ENDBRANCH  15  18
BRANCH  17  20
ATOM     20  O   UNL     1      20.755   0.919 -16.892  1.00  0.00    -0.504 OA
ATOM     21  H   UNL     1      20.385   1.844 -16.705  1.00  0.00     0.293 HD
ENDBRANCH  17  20
ENDBRANCH   1  12
BRANCH   6  22
ATOM     22  O   UNL     1      14.768  -3.596 -10.451  1.00  0.00    -0.507 OA
ATOM     23  H   UNL     1      14.270  -4.382 -10.841  1.00  0.00     0.293 HD
ENDBRANCH   6  22
BRANCH   8  24
ATOM     24  O   UNL     1      19.138  -2.960  -8.606  1.00  0.00    -0.508 OA
ATOM     25  H   UNL     1      19.827  -2.235  -8.446  1.00  0.00     0.293 HD
ENDBRANCH   8  24
TORSDOF 5
ENDMDL
MODEL 7
REMARK VINA RESULT:    -5.984     10.713     13.058
REMARK INTER + INTRA:          -7.339
REMARK INTER:                  -7.046
REMARK INTRA:                  -0.293
REMARK UNBOUND:                -0.306
REMARK SMILES O=c1cc(-c2ccc(O)c(O)c2)oc2cc(O)cc(O)c12
REMARK SMILES IDX 4 1 3 2 2 3 1 4 21 5 19 6 18 7 16 8 15 9 14 10 13 11 5 12
REMARK SMILES IDX 6 13 7 14 8 15 12 16 10 17 9 18 11 20 20 22 17 24
REMARK H PARENT 9 19 11 21 20 23 17 25
REMARK Flexibility Score: inf
ROOT
ATOM      1  C   UNL     1       8.420   3.384 -16.702  1.00  0.00     0.138 A 
ATOM      2  C   UNL     1       8.815   4.664 -16.288  1.00  0.00     0.100 A 
ATOM      3  C   UNL     1       9.577   5.460 -17.143  1.00  0.00     0.197 A 
ATOM      4  O   UNL     1       9.970   6.579 -16.720  1.00  0.00    -0.289 OA
ATOM      5  C   UNL     1       9.917   4.986 -18.432  1.00  0.00     0.107 A 
ATOM      6  C   UNL     1      10.655   5.725 -19.403  1.00  0.00     0.134 A 
ATOM      7  C   UNL     1      11.032   5.108 -20.601  1.00  0.00     0.093 A 
ATOM      8  C   UNL     1      10.648   3.798 -20.890  1.00  0.00     0.123 A 
ATOM      9  C   UNL     1       9.880   3.083 -19.970  1.00  0.00     0.094 A 
ATOM     10  C   UNL     1       9.518   3.660 -18.751  1.00  0.00     0.146 A 
ATOM     11  O   UNL     1       8.799   2.940 -17.896  1.00  0.00    -0.456 OA
ENDROOT
BRANCH   1  12
ATOM     12  C   UNL     1       7.608   2.495 -15.833  1.00  0.00     0.021 A 
ATOM     13  C   UNL     1       6.914   1.416 -16.404  1.00  0.00     0.016 A 
ATOM     14  C   UNL     1       6.137   0.570 -15.610  1.00  0.00     0.051 A 
ATOM     15  C   UNL     1       6.031   0.791 -14.234  1.00  0.00     0.157 A 
ATOM     16  C   UNL     1       7.487   2.723 -14.447  1.00  0.00     0.062 A 
ATOM     17  C   UNL     1       6.706   1.874 -13.649  1.00  0.00     0.158 A 
BRANCH  15  18
ATOM     18  O   UNL     1       5.250  -0.072 -13.467  1.00  0.00    -0.504 OA
ATOM     19  H   UNL     1       4.283  -0.268 -13.694  1.00  0.00     0.293 HD
ENDBRANCH  15  18
BRANCH  17  20
ATOM     20  O   UNL     1       6.595   2.107 -12.279  1.00  0.00    -0.504 OA
ATOM     21  H   UNL     1       6.924   1.434 -11.597  1.00  0.00     0.293 HD
ENDBRANCH  17  20
ENDBRANCH   1  12
BRANCH   6  22
ATOM     22  O   UNL     1      11.016   7.068 -19.253  1.00  0.00    -0.507 OA
ATOM     23  H   UNL     1      10.905   7.605 -18.406  1.00  0.00     0.293 HD
ENDBRANCH   6  22
BRANCH   8  24
ATOM     24  O   UNL     1      11.028   3.221 -22.100  1.00  0.00    -0.508 OA
ATOM     25  H   UNL     1      10.377   2.680 -22.656  1.00  0.00     0.293 HD
ENDBRANCH   8  24
TORSDOF 5
ENDMDL
MODEL 8
REMARK VINA RESULT:    -5.976      9.254     11.241
REMARK INTER + INTRA:          -7.330
REMARK INTER:                  -7.061
REMARK INTRA:                  -0.269
REMARK UNBOUND:                -0.306
REMARK SMILES O=c1cc(-c2ccc(O)c(O)c2)oc2cc(O)cc(O)c12
REMARK SMILES IDX 4 1 3 2 2 3 1 4 21 5 19 6 18 7 16 8 15 9 14 10 13 11 5 12
REMARK SMILES IDX 6 13 7 14 8 15 12 16 10 17 9 18 11 20 20 22 17 24
REMARK H PARENT 9 19 11 21 20 23 17 25
REMARK Flexibility Score: inf
ROOT
ATOM      1  C   UNL     1      12.082   4.433 -18.094  1.00  0.00     0.138 A 
ATOM      2  C   UNL     1      12.403   4.059 -16.782  1.00  0.00     0.100 A 
ATOM      3  C   UNL     1      13.537   4.594 -16.170  1.00  0.00     0.197 A 
ATOM      4  O   UNL     1      13.835   4.191 -15.015  1.00  0.00    -0.289 OA
ATOM      5  C   UNL     1      14.336   5.533 -16.865  1.00  0.00     0.107 A 
ATOM      6  C   UNL     1      15.491   6.173 -16.327  1.00  0.00     0.134 A 
ATOM      7  C   UNL     1      16.269   6.998 -17.149  1.00  0.00     0.093 A 
ATOM      8  C   UNL     1      15.902   7.252 -18.470  1.00  0.00     0.123 A 
ATOM      9  C   UNL     1      14.744   6.672 -18.991  1.00  0.00     0.094 A 
ATOM     10  C   UNL     1      13.966   5.818 -18.207  1.00  0.00     0.146 A 
ATOM     11  O   UNL     1      12.879   5.275 -18.744  1.00  0.00    -0.456 OA
ENDROOT
BRANCH   1  12
ATOM     12  C   UNL     1      10.887   3.896 -18.792  1.00  0.00     0.021 A 
ATOM     13  C   UNL     1      11.048   3.200 -20.002  1.00  0.00     0.016 A 
ATOM     14  C   UNL     1       9.939   2.691 -20.683  1.00  0.00     0.051 A 
ATOM     15  C   UNL     1       8.651   2.876 -20.174  1.00  0.00     0.157 A 
ATOM     16  C   UNL     1       9.585   4.091 -18.290  1.00  0.00     0.062 A 
ATOM     17  C   UNL     1       8.471   3.582 -18.974  1.00  0.00     0.158 A 
BRANCH  15  18
ATOM     18  O   UNL     1       7.564   2.355 -20.874  1.00  0.00    -0.504 OA
ATOM     19  H   UNL     1       6.950   1.657 -20.473  1.00  0.00     0.293 HD
ENDBRANCH  15  18
BRANCH  17  20
ATOM     20  O   UNL     1       7.188   3.780 -18.467  1.00  0.00    -0.504 OA
ATOM     21  H   UNL     1       6.812   3.195 -17.729  1.00  0.00     0.293 HD
ENDBRANCH  17  20
ENDBRANCH   1  12
BRANCH   6  22
ATOM     22  O   UNL     1      15.900   6.057 -14.995  1.00  0.00    -0.507 OA
ATOM     23  H   UNL     1      15.446   5.484 -14.300  1.00  0.00     0.293 HD
ENDBRANCH   6  22
BRANCH   8  24
ATOM     24  O   UNL     1      16.692   8.090 -19.255  1.00  0.00    -0.508 OA
ATOM     25  H   UNL     1      16.453   8.293 -20.218  1.00  0.00     0.293 HD
ENDBRANCH   8  24
TORSDOF 5
ENDMDL
MODEL 9
REMARK VINA RESULT:    -5.893      5.579      8.923
REMARK INTER + INTRA:          -7.232
REMARK INTER:                  -6.926
REMARK INTRA:                  -0.306
REMARK UNBOUND:                -0.306
REMARK SMILES O=c1cc(-c2ccc(O)c(O)c2)oc2cc(O)cc(O)c12
REMARK SMILES IDX 4 1 3 2 2 3 1 4 21 5 19 6 18 7 16 8 15 9 14 10 13 11 5 12
REMARK SMILES IDX 6 13 7 14 8 15 12 16 10 17 9 18 11 20 20 22 17 24
REMARK H PARENT 9 19 11 21 20 23 17 25
REMARK Flexibility Score: inf
ROOT
ATOM      1  C   UNL     1      12.045  -6.214 -10.632  1.00  0.00     0.138 A 
ATOM      2  C   UNL     1      11.647  -6.118  -9.291  1.00  0.00     0.100 A 
ATOM      3  C   UNL     1      10.357  -6.505  -8.926  1.00  0.00     0.197 A 
ATOM      4  O   UNL     1      10.007  -6.348  -7.727  1.00  0.00    -0.289 OA
ATOM      5  C   UNL     1       9.474  -7.023  -9.902  1.00  0.00     0.107 A 
ATOM      6  C   UNL     1       8.151  -7.487  -9.638  1.00  0.00     0.134 A 
ATOM      7  C   UNL     1       7.328  -7.870 -10.704  1.00  0.00     0.093 A 
ATOM      8  C   UNL     1       7.797  -7.862 -12.017  1.00  0.00     0.123 A 
ATOM      9  C   UNL     1       9.108  -7.461 -12.282  1.00  0.00     0.094 A 
ATOM     10  C   UNL     1       9.943  -7.041 -11.244  1.00  0.00     0.146 A 
ATOM     11  O   UNL     1      11.179  -6.653 -11.539  1.00  0.00    -0.456 OA
ENDROOT
BRANCH   1  12
ATOM     12  C   UNL     1      13.405  -5.817 -11.076  1.00  0.00     0.021 A 
ATOM     13  C   UNL     1      14.084  -4.795 -10.392  1.00  0.00     0.016 A 
ATOM     14  C   UNL     1      15.361  -4.396 -10.794  1.00  0.00     0.051 A 
ATOM     15  C   UNL     1      15.979  -5.003 -11.891  1.00  0.00     0.157 A 
ATOM     16  C   UNL     1      14.026  -6.416 -12.190  1.00  0.00     0.062 A 
ATOM     17  C   UNL     1      15.308  -6.016 -12.595  1.00  0.00     0.158 A 
BRANCH  15  18
ATOM     18  O   UNL     1      17.255  -4.586 -12.268  1.00  0.00    -0.504 OA
ATOM     19  H   UNL     1      17.493  -4.386 -13.232  1.00  0.00     0.293 HD
ENDBRANCH  15  18
BRANCH  17  20
ATOM     20  O   UNL     1      15.914  -6.617 -13.697  1.00  0.00    -0.504 OA
ATOM     21  H   UNL     1      15.406  -7.254 -14.301  1.00  0.00     0.293 HD
ENDBRANCH  17  20
ENDBRANCH   1  12
BRANCH   6  22
ATOM     22  O   UNL     1       7.610  -7.616  -8.355  1.00  0.00    -0.507 OA
ATOM     23  H   UNL     1       7.696  -6.930  -7.621  1.00  0.00     0.293 HD
ENDBRANCH   6  22
BRANCH   8  24
ATOM     24  O   UNL     1       6.955  -8.264 -13.051  1.00  0.00    -0.508 OA
ATOM     25  H   UNL     1       7.265  -8.267 -14.016  1.00  0.00     0.293 HD
ENDBRANCH   8  24
TORSDOF 5
ENDMDL
