MODEL 1
REMARK VINA RESULT:    -4.600      0.000      0.000
REMARK INTER + INTRA:          -4.920
REMARK INTER:                  -5.676
REMARK INTRA:                   0.756
REMARK UNBOUND:                 0.756
REMARK SMILES CC1=CC=CC(C)(C)CC1=O
REMARK SMILES IDX 1 1 2 2 3 3 10 4 11 5 9 6 4 8 5 9 6 10 7 11 8 12
REMARK H PARENT
REMARK Flexibility Score: 80.00
ROOT
ATOM      1  C   UNL     1      -7.522  33.653  20.433  1.00  0.00     0.048 C 
ATOM      2  C   UNL     1      -7.658  33.537  21.932  1.00  0.00    -0.008 C 
ATOM      3  C   UNL     1      -7.767  34.682  22.641  1.00  0.00     0.007 C 
ENDROOT
BRANCH   2   4
ATOM      4  C   UNL     1      -7.737  32.168  22.502  1.00  0.00     0.159 C 
ATOM      5  O   UNL     1      -7.889  31.191  21.717  1.00  0.00    -0.295 OA
BRANCH   4   6
ATOM      6  C   UNL     1      -7.631  31.875  23.966  1.00  0.00     0.091 CG0
ATOM      7  G   UNL     1      -8.725  32.570  24.807  1.00  0.00     0.000 G0
ENDBRANCH   4   6
ENDBRANCH   2   4
BRANCH   3   8
ATOM      8  C   UNL     1      -7.938  34.886  24.098  1.00  0.00    -0.003 C 
ATOM      9  C   UNL     1      -8.349  34.018  25.031  1.00  0.00    -0.020 C 
BRANCH   9  10
ATOM     10  C   UNL     1      -8.721  32.571  24.806  1.00  0.00    -0.010 CG0
ATOM     11  C   UNL     1      -8.779  31.867  26.181  1.00  0.00     0.016 C 
ATOM     12  C   UNL     1     -10.125  32.480  24.166  1.00  0.00     0.016 C 
ATOM     13  G   UNL     1      -7.632  31.879  23.957  1.00  0.00     0.000 G0
ENDBRANCH   9  10
ENDBRANCH   3   8
TORSDOF 0
ENDMDL
MODEL 2
REMARK VINA RESULT:    -4.558      1.831      3.318
REMARK INTER + INTRA:          -4.868
REMARK INTER:                  -5.628
REMARK INTRA:                   0.760
REMARK UNBOUND:                 0.756
REMARK SMILES CC1=CC=CC(C)(C)CC1=O
REMARK SMILES IDX 1 1 2 2 3 3 10 4 11 5 9 6 4 8 5 9 6 10 7 11 8 12
REMARK H PARENT
REMARK Flexibility Score: 80.00
ROOT
ATOM      1  C   UNL     1      -7.765  35.414  25.205  1.00  0.00     0.048 C 
ATOM      2  C   UNL     1      -8.138  34.622  23.975  1.00  0.00    -0.008 C 
ATOM      3  C   UNL     1      -7.550  34.963  22.808  1.00  0.00     0.007 C 
ENDROOT
BRANCH   2   4
ATOM      4  C   UNL     1      -9.067  33.479  24.163  1.00  0.00     0.159 C 
ATOM      5  O   UNL     1      -9.357  33.117  25.337  1.00  0.00    -0.295 OA
BRANCH   4   6
ATOM      6  C   UNL     1      -9.697  32.731  23.028  1.00  0.00     0.091 CG0
ATOM      7  G   UNL     1      -8.665  32.098  22.069  1.00  0.00     0.000 G0
ENDBRANCH   4   6
ENDBRANCH   2   4
BRANCH   3   8
ATOM      8  C   UNL     1      -7.691  34.365  21.461  1.00  0.00    -0.003 C 
ATOM      9  C   UNL     1      -8.152  33.155  21.118  1.00  0.00    -0.020 C 
BRANCH   9  10
ATOM     10  C   UNL     1      -8.679  32.097  22.058  1.00  0.00    -0.010 CG0
ATOM     11  C   UNL     1      -9.418  31.029  21.220  1.00  0.00     0.016 C 
ATOM     12  C   UNL     1      -7.504  31.403  22.784  1.00  0.00     0.016 C 
ATOM     13  G   UNL     1      -9.695  32.727  23.036  1.00  0.00     0.000 G0
ENDBRANCH   9  10
ENDBRANCH   3   8
TORSDOF 0
ENDMDL
MODEL 3
REMARK VINA RESULT:    -4.411      1.885      3.048
REMARK INTER + INTRA:          -4.687
REMARK INTER:                  -5.443
REMARK INTRA:                   0.756
REMARK UNBOUND:                 0.756
REMARK SMILES CC1=CC=CC(C)(C)CC1=O
REMARK SMILES IDX 1 1 2 2 3 3 10 4 11 5 9 6 4 8 5 9 6 10 7 11 8 12
REMARK H PARENT
REMARK Flexibility Score: 80.00
ROOT
ATOM      1  C   UNL     1      -8.613  28.658  22.362  1.00  0.00     0.048 C 
ATOM      2  C   UNL     1      -8.539  30.166  22.348  1.00  0.00    -0.008 C 
ATOM      3  C   UNL     1      -9.147  30.813  21.330  1.00  0.00     0.007 C 
ENDROOT
BRANCH   2   4
ATOM      4  C   UNL     1      -7.866  30.822  23.497  1.00  0.00     0.159 C 
ATOM      5  O   UNL     1      -7.575  30.125  24.509  1.00  0.00    -0.295 OA
BRANCH   4   6
ATOM      6  C   UNL     1      -7.497  32.272  23.521  1.00  0.00     0.091 CG0
ATOM      7  G   UNL     1      -8.709  33.212  23.337  1.00  0.00     0.000 G0
ENDBRANCH   4   6
ENDBRANCH   2   4
BRANCH   3   8
ATOM      8  C   UNL     1      -9.268  32.264  21.062  1.00  0.00    -0.003 C 
ATOM      9  C   UNL     1      -9.095  33.295  21.899  1.00  0.00    -0.020 C 
BRANCH   9  10
ATOM     10  C   UNL     1      -8.698  33.212  23.354  1.00  0.00    -0.010 CG0
ATOM     11  C   UNL     1      -8.264  34.620  23.819  1.00  0.00     0.016 C 
ATOM     12  C   UNL     1      -9.912  32.781  24.209  1.00  0.00     0.016 C 
ATOM     13  G   UNL     1      -7.492  32.260  23.511  1.00  0.00     0.000 G0
ENDBRANCH   9  10
ENDBRANCH   3   8
TORSDOF 0
ENDMDL
MODEL 4
REMARK VINA RESULT:    -4.371      1.878      3.895
REMARK INTER + INTRA:          -4.636
REMARK INTER:                  -5.392
REMARK INTRA:                   0.756
REMARK UNBOUND:                 0.756
REMARK SMILES CC1=CC=CC(C)(C)CC1=O
REMARK SMILES IDX 1 1 2 2 3 3 10 4 11 5 9 6 4 8 5 9 6 10 7 11 8 12
REMARK H PARENT
REMARK Flexibility Score: 80.00
ROOT
ATOM      1  C   UNL     1      -8.813  30.162  25.964  1.00  0.00     0.048 C 
ATOM      2  C   UNL     1      -8.309  30.883  24.737  1.00  0.00    -0.008 C 
ATOM      3  C   UNL     1      -7.847  30.131  23.715  1.00  0.00     0.007 C 
ENDROOT
BRANCH   2   4
ATOM      4  C   UNL     1      -8.432  32.363  24.723  1.00  0.00     0.159 C 
ATOM      5  O   UNL     1      -9.113  32.925  25.625  1.00  0.00    -0.295 OA
BRANCH   4   6
ATOM      6  C   UNL     1      -7.777  33.237  23.699  1.00  0.00     0.091 CG0
ATOM      7  G   UNL     1      -8.224  32.923  22.255  1.00  0.00     0.000 G0
ENDBRANCH   4   6
ENDBRANCH   2   4
BRANCH   3   8
ATOM      8  C   UNL     1      -7.322  30.543  22.393  1.00  0.00    -0.003 C 
ATOM      9  C   UNL     1      -7.476  31.706  21.747  1.00  0.00    -0.020 C 
BRANCH   9  10
ATOM     10  C   UNL     1      -8.226  32.917  22.249  1.00  0.00    -0.010 CG0
ATOM     11  C   UNL     1      -7.846  34.124  21.361  1.00  0.00     0.016 C 
ATOM     12  C   UNL     1      -9.749  32.689  22.115  1.00  0.00     0.016 C 
ATOM     13  G   UNL     1      -7.796  33.233  23.699  1.00  0.00     0.000 G0
ENDBRANCH   9  10
ENDBRANCH   3   8
TORSDOF 0
ENDMDL
MODEL 5
REMARK VINA RESULT:    -4.304      1.683      3.000
REMARK INTER + INTRA:          -4.554
REMARK INTER:                  -5.299
REMARK INTRA:                   0.745
REMARK UNBOUND:                 0.756
REMARK SMILES CC1=CC=CC(C)(C)CC1=O
REMARK SMILES IDX 1 1 2 2 3 3 10 4 11 5 9 6 4 8 5 9 6 10 7 11 8 12
REMARK H PARENT
REMARK Flexibility Score: 80.00
ROOT
ATOM      1  C   UNL     1      -8.198  35.722  25.204  1.00  0.00     0.048 C 
ATOM      2  C   UNL     1      -8.222  34.255  24.850  1.00  0.00    -0.008 C 
ATOM      3  C   UNL     1      -8.664  33.391  25.790  1.00  0.00     0.007 C 
ENDROOT
BRANCH   2   4
ATOM      4  C   UNL     1      -7.827  33.885  23.467  1.00  0.00     0.159 C 
ATOM      5  O   UNL     1      -7.686  34.801  22.610  1.00  0.00    -0.295 OA
BRANCH   4   6
ATOM      6  C   UNL     1      -7.571  32.476  23.029  1.00  0.00     0.091 CG0
ATOM      7  G   UNL     1      -8.788  31.546  23.226  1.00  0.00     0.000 G0
ENDBRANCH   4   6
ENDBRANCH   2   4
BRANCH   3   8
ATOM      8  C   UNL     1      -8.826  31.920  25.729  1.00  0.00    -0.003 C 
ATOM      9  C   UNL     1      -8.894  31.121  24.657  1.00  0.00    -0.020 C 
BRANCH   9  10
ATOM     10  C   UNL     1      -8.791  31.549  23.212  1.00  0.00    -0.010 CG0
ATOM     11  C   UNL     1      -8.546  30.289  22.350  1.00  0.00     0.016 C 
ATOM     12  C   UNL     1     -10.122  32.188  22.754  1.00  0.00     0.016 C 
ATOM     13  G   UNL     1      -7.583  32.496  23.034  1.00  0.00     0.000 G0
ENDBRANCH   9  10
ENDBRANCH   3   8
TORSDOF 0
ENDMDL
MODEL 6
REMARK VINA RESULT:    -3.630      2.034      4.058
REMARK INTER + INTRA:          -3.723
REMARK INTER:                  -4.752
REMARK INTRA:                   1.029
REMARK UNBOUND:                 0.756
REMARK SMILES CC1=CC=CC(C)(C)CC1=O
REMARK SMILES IDX 1 1 2 2 3 3 10 4 11 5 9 6 4 8 5 9 6 10 7 11 8 12
REMARK H PARENT
REMARK Flexibility Score: 80.00
ROOT
ATOM      1  C   UNL     1      -8.561  31.921  26.911  1.00  0.00     0.048 C 
ATOM      2  C   UNL     1      -8.754  31.659  25.437  1.00  0.00    -0.008 C 
ATOM      3  C   UNL     1      -8.463  30.422  24.977  1.00  0.00     0.007 C 
ENDROOT
BRANCH   2   4
ATOM      4  C   UNL     1      -9.322  32.762  24.621  1.00  0.00     0.159 C 
ATOM      5  O   UNL     1      -9.319  33.932  25.095  1.00  0.00    -0.295 OA
BRANCH   4   6
ATOM      6  C   UNL     1      -9.892  32.569  23.250  1.00  0.00     0.091 CG0
ATOM      7  G   UNL     1      -8.870  31.998  22.241  1.00  0.00     0.000 G0
ENDBRANCH   4   6
ENDBRANCH   2   4
BRANCH   3   8
ATOM      8  C   UNL     1      -8.575  29.865  23.610  1.00  0.00    -0.003 C 
ATOM      9  C   UNL     1      -8.761  30.505  22.448  1.00  0.00    -0.020 C 
BRANCH   9  10
ATOM     10  C   UNL     1      -8.877  31.999  22.257  1.00  0.00    -0.010 CG0
ATOM     11  C   UNL     1      -7.495  32.632  22.540  1.00  0.00     0.016 C 
ATOM     12  C   UNL     1      -9.255  32.317  20.793  1.00  0.00     0.016 C 
ATOM     13  G   UNL     1      -9.887  32.578  23.273  1.00  0.00     0.000 G0
ENDBRANCH   9  10
ENDBRANCH   3   8
TORSDOF 0
ENDMDL
MODEL 7
REMARK VINA RESULT:    -3.176      1.649      2.674
REMARK INTER + INTRA:          -3.162
REMARK INTER:                  -4.132
REMARK INTRA:                   0.970
REMARK UNBOUND:                 0.756
REMARK SMILES CC1=CC=CC(C)(C)CC1=O
REMARK SMILES IDX 1 1 2 2 3 3 10 4 11 5 9 6 4 8 5 9 6 10 7 11 8 12
REMARK H PARENT
REMARK Flexibility Score: 80.00
ROOT
ATOM      1  C   UNL     1      -7.259  33.353  23.123  1.00  0.00     0.048 C 
ATOM      2  C   UNL     1      -8.011  32.881  24.345  1.00  0.00    -0.008 C 
ATOM      3  C   UNL     1      -8.003  33.681  25.433  1.00  0.00     0.007 C 
ENDROOT
BRANCH   2   4
ATOM      4  C   UNL     1      -8.765  31.607  24.226  1.00  0.00     0.159 C 
ATOM      5  O   UNL     1      -8.531  30.852  23.241  1.00  0.00    -0.295 OA
BRANCH   4   6
ATOM      6  C   UNL     1      -9.786  31.155  25.223  1.00  0.00     0.091 CG0
ATOM      7  G   UNL     1      -9.229  31.046  26.659  1.00  0.00     0.000 G0
ENDBRANCH   4   6
ENDBRANCH   2   4
BRANCH   3   8
ATOM      8  C   UNL     1      -8.660  33.505  26.748  1.00  0.00    -0.003 C 
ATOM      9  C   UNL     1      -9.202  32.403  27.281  1.00  0.00    -0.020 C 
BRANCH   9  10
ATOM     10  C   UNL     1      -9.244  31.030  26.652  1.00  0.00    -0.010 CG0
ATOM     11  C   UNL     1      -7.807  30.462  26.632  1.00  0.00     0.016 C 
ATOM     12  C   UNL     1     -10.119  30.084  27.506  1.00  0.00     0.016 C 
ATOM     13  G   UNL     1      -9.737  31.141  25.192  1.00  0.00     0.000 G0
ENDBRANCH   9  10
ENDBRANCH   3   8
TORSDOF 0
ENDMDL
MODEL 8
REMARK VINA RESULT:    -2.966     16.771     17.891
REMARK INTER + INTRA:          -2.903
REMARK INTER:                  -3.964
REMARK INTRA:                   1.061
REMARK UNBOUND:                 0.756
REMARK SMILES CC1=CC=CC(C)(C)CC1=O
REMARK SMILES IDX 1 1 2 2 3 3 10 4 11 5 9 6 4 8 5 9 6 10 7 11 8 12
REMARK H PARENT
REMARK Flexibility Score: 80.00
ROOT
ATOM      1  C   UNL     1      -0.975  48.093  21.238  1.00  0.00     0.048 C 
ATOM      2  C   UNL     1       0.446  47.614  21.065  1.00  0.00    -0.008 C 
ATOM      3  C   UNL     1       1.384  48.125  21.891  1.00  0.00     0.007 C 
ENDROOT
BRANCH   2   4
ATOM      4  C   UNL     1       0.685  46.559  20.048  1.00  0.00     0.159 C 
ATOM      5  O   UNL     1      -0.203  46.340  19.178  1.00  0.00    -0.295 OA
BRANCH   4   6
ATOM      6  C   UNL     1       1.938  45.741  19.985  1.00  0.00     0.091 CG0
ATOM      7  G   UNL     1       3.211  46.591  19.782  1.00  0.00     0.000 G0
ENDBRANCH   4   6
ENDBRANCH   2   4
BRANCH   3   8
ATOM      8  C   UNL     1       2.833  47.834  21.981  1.00  0.00    -0.003 C 
ATOM      9  C   UNL     1       3.619  47.179  21.116  1.00  0.00    -0.020 C 
BRANCH   9  10
ATOM     10  C   UNL     1       3.197  46.590  19.791  1.00  0.00    -0.010 CG0
ATOM     11  C   UNL     1       2.854  47.752  18.832  1.00  0.00     0.016 C 
ATOM     12  C   UNL     1       4.366  45.791  19.172  1.00  0.00     0.016 C 
ATOM     13  G   UNL     1       1.926  45.733  19.982  1.00  0.00     0.000 G0
ENDBRANCH   9  10
ENDBRANCH   3   8
TORSDOF 0
ENDMDL
MODEL 9
REMARK VINA RESULT:    -2.254     16.461     17.650
REMARK INTER + INTRA:          -2.025
REMARK INTER:                  -3.077
REMARK INTRA:                   1.052
REMARK UNBOUND:                 0.756
REMARK SMILES CC1=CC=CC(C)(C)CC1=O
REMARK SMILES IDX 1 1 2 2 3 3 10 4 11 5 9 6 4 8 5 9 6 10 7 11 8 12
REMARK H PARENT
REMARK Flexibility Score: 80.00
ROOT
ATOM      1  C   UNL     1       4.894  44.589  18.999  1.00  0.00     0.048 C 
ATOM      2  C   UNL     1       3.740  45.545  19.186  1.00  0.00    -0.008 C 
ATOM      3  C   UNL     1       3.750  46.686  18.464  1.00  0.00     0.007 C 
ENDROOT
BRANCH   2   4
ATOM      4  C   UNL     1       2.647  45.117  20.095  1.00  0.00     0.159 C 
ATOM      5  O   UNL     1       2.858  44.161  20.892  1.00  0.00    -0.295 OA
BRANCH   4   6
ATOM      6  C   UNL     1       1.299  45.768  20.131  1.00  0.00     0.091 CG0
ATOM      7  G   UNL     1       1.360  47.274  20.469  1.00  0.00     0.000 G0
ENDBRANCH   4   6
ENDBRANCH   2   4
BRANCH   3   8
ATOM      8  C   UNL     1       2.761  47.787  18.412  1.00  0.00    -0.003 C 
ATOM      9  C   UNL     1       1.740  48.046  19.240  1.00  0.00    -0.020 C 
BRANCH   9  10
ATOM     10  C   UNL     1       1.368  47.262  20.476  1.00  0.00    -0.010 CG0
ATOM     11  C   UNL     1       2.475  47.472  21.535  1.00  0.00     0.016 C 
ATOM     12  C   UNL     1       0.042  47.798  21.062  1.00  0.00     0.016 C 
ATOM     13  G   UNL     1       1.305  45.756  20.139  1.00  0.00     0.000 G0
ENDBRANCH   9  10
ENDBRANCH   3   8
TORSDOF 0
ENDMDL
