MODEL 1
REMARK VINA RESULT:    -2.800      0.000      0.000
REMARK INTER + INTRA:          -3.936
REMARK INTER:                  -3.782
REMARK INTRA:                  -0.154
REMARK UNBOUND:                -0.154
REMARK SMILES CCCCCCCC(=O)[O-]
REMARK SMILES IDX 5 1 6 2 7 3 8 4 9 5 10 6 4 7 3 8 2 9 1 10
REMARK H PARENT
REMARK Flexibility Score: inf
ROOT
ATOM      1  C   UNL     1       7.016 -28.834 -17.549  1.00  0.00     0.000 C 
ENDROOT
BRANCH   1   2
ATOM      2  C   UNL     1       8.119 -29.212 -16.542  1.00  0.00     0.006 C 
BRANCH   2   3
ATOM      3  C   UNL     1       9.178 -30.178 -17.096  1.00  0.00     0.053 C 
BRANCH   3   4
ATOM      4  C   UNL     1       9.413 -31.339 -16.179  1.00  0.00     0.041 C 
ATOM      5  O   UNL     1       9.655 -31.144 -14.958  1.00  0.00    -0.550 OA
ATOM      6  O   UNL     1       9.397 -32.635 -16.680  1.00  0.00    -0.550 OA
ENDBRANCH   3   4
ENDBRANCH   2   3
ENDBRANCH   1   2
BRANCH   1   7
ATOM      7  C   UNL     1       7.405 -29.147 -19.001  1.00  0.00     0.000 C 
BRANCH   7   8
ATOM      8  C   UNL     1       6.476 -28.420 -19.986  1.00  0.00    -0.000 C 
BRANCH   8   9
ATOM      9  C   UNL     1       6.740 -28.812 -21.447  1.00  0.00    -0.003 C 
ATOM     10  C   UNL     1       5.875 -28.031 -22.436  1.00  0.00     0.004 C 
ENDBRANCH   8   9
ENDBRANCH   7   8
ENDBRANCH   1   7
TORSDOF 6
ENDMDL
MODEL 2
REMARK VINA RESULT:    -2.180      1.094      1.659
REMARK INTER + INTRA:          -3.098
REMARK INTER:                  -2.994
REMARK INTRA:                  -0.105
REMARK UNBOUND:                -0.154
REMARK SMILES CCCCCCCC(=O)[O-]
REMARK SMILES IDX 5 1 6 2 7 3 8 4 9 5 10 6 4 7 3 8 2 9 1 10
REMARK H PARENT
REMARK Flexibility Score: inf
ROOT
ATOM      1  C   UNL     1       8.658 -29.862 -18.236  1.00  0.00     0.000 C 
ENDROOT
BRANCH   1   2
ATOM      2  C   UNL     1       9.729 -30.044 -17.143  1.00  0.00     0.006 C 
BRANCH   2   3
ATOM      3  C   UNL     1       9.254 -30.845 -15.920  1.00  0.00     0.053 C 
BRANCH   3   4
ATOM      4  C   UNL     1       9.269 -32.322 -16.176  1.00  0.00     0.041 C 
ATOM      5  O   UNL     1       9.596 -32.765 -17.308  1.00  0.00    -0.550 OA
ATOM      6  O   UNL     1       8.891 -33.204 -15.172  1.00  0.00    -0.550 OA
ENDBRANCH   3   4
ENDBRANCH   2   3
ENDBRANCH   1   2
BRANCH   1   7
ATOM      7  C   UNL     1       7.485 -28.982 -17.779  1.00  0.00     0.000 C 
BRANCH   7   8
ATOM      8  C   UNL     1       6.609 -28.573 -18.973  1.00  0.00    -0.000 C 
BRANCH   8   9
ATOM      9  C   UNL     1       7.009 -29.288 -20.272  1.00  0.00    -0.003 C 
ATOM     10  C   UNL     1       6.565 -28.532 -21.524  1.00  0.00     0.004 C 
ENDBRANCH   8   9
ENDBRANCH   7   8
ENDBRANCH   1   7
TORSDOF 6
ENDMDL
MODEL 3
REMARK VINA RESULT:    -2.148      1.284      1.699
REMARK INTER + INTRA:          -3.056
REMARK INTER:                  -2.971
REMARK INTRA:                  -0.084
REMARK UNBOUND:                -0.154
REMARK SMILES CCCCCCCC(=O)[O-]
REMARK SMILES IDX 5 1 6 2 7 3 8 4 9 5 10 6 4 7 3 8 2 9 1 10
REMARK H PARENT
REMARK Flexibility Score: inf
ROOT
ATOM      1  C   UNL     1       8.511 -29.780 -18.879  1.00  0.00     0.000 C 
ENDROOT
BRANCH   1   2
ATOM      2  C   UNL     1       9.616 -29.828 -17.805  1.00  0.00     0.006 C 
BRANCH   2   3
ATOM      3  C   UNL     1       9.386 -30.879 -16.708  1.00  0.00     0.053 C 
BRANCH   3   4
ATOM      4  C   UNL     1       8.959 -30.255 -15.414  1.00  0.00     0.041 C 
ATOM      5  O   UNL     1       9.416 -30.686 -14.322  1.00  0.00    -0.550 OA
ATOM      6  O   UNL     1       8.033 -29.220 -15.414  1.00  0.00    -0.550 OA
ENDBRANCH   3   4
ENDBRANCH   2   3
ENDBRANCH   1   2
BRANCH   1   7
ATOM      7  C   UNL     1       7.306 -28.929 -18.454  1.00  0.00     0.000 C 
BRANCH   7   8
ATOM      8  C   UNL     1       6.414 -28.601 -19.661  1.00  0.00    -0.000 C 
BRANCH   8   9
ATOM      9  C   UNL     1       7.046 -29.023 -20.995  1.00  0.00    -0.003 C 
ATOM     10  C   UNL     1       6.470 -28.263 -22.190  1.00  0.00     0.004 C 
ENDBRANCH   8   9
ENDBRANCH   7   8
ENDBRANCH   1   7
TORSDOF 6
ENDMDL
MODEL 4
REMARK VINA RESULT:    -2.082      3.003      5.496
REMARK INTER + INTRA:          -2.967
REMARK INTER:                  -2.723
REMARK INTRA:                  -0.243
REMARK UNBOUND:                -0.154
REMARK SMILES CCCCCCCC(=O)[O-]
REMARK SMILES IDX 5 1 6 2 7 3 8 4 9 5 10 6 4 7 3 8 2 9 1 10
REMARK H PARENT
REMARK Flexibility Score: inf
ROOT
ATOM      1  C   UNL     1       7.022 -28.766 -17.032  1.00  0.00     0.000 C 
ENDROOT
BRANCH   1   2
ATOM      2  C   UNL     1       7.411 -29.037 -18.498  1.00  0.00     0.006 C 
BRANCH   2   3
ATOM      3  C   UNL     1       6.361 -28.584 -19.525  1.00  0.00     0.053 C 
BRANCH   3   4
ATOM      4  C   UNL     1       6.790 -28.873 -20.931  1.00  0.00     0.041 C 
ATOM      5  O   UNL     1       6.182 -28.346 -21.900  1.00  0.00    -0.550 OA
ATOM      6  O   UNL     1       7.840 -29.751 -21.171  1.00  0.00    -0.550 OA
ENDBRANCH   3   4
ENDBRANCH   2   3
ENDBRANCH   1   2
BRANCH   1   7
ATOM      7  C   UNL     1       8.146 -29.115 -16.045  1.00  0.00     0.000 C 
BRANCH   7   8
ATOM      8  C   UNL     1       9.180 -30.044 -16.699  1.00  0.00    -0.000 C 
BRANCH   8   9
ATOM      9  C   UNL     1       9.647 -31.165 -15.758  1.00  0.00    -0.003 C 
ATOM     10  C   UNL     1       9.209 -32.552 -16.227  1.00  0.00     0.004 C 
ENDBRANCH   8   9
ENDBRANCH   7   8
ENDBRANCH   1   7
TORSDOF 6
ENDMDL
