MODEL 1
REMARK VINA RESULT:    -2.657      0.000      0.000
REMARK INTER + INTRA:          -3.417
REMARK INTER:                  -3.201
REMARK INTRA:                  -0.217
REMARK UNBOUND:                -0.217
REMARK SMILES OCC(O)CO
REMARK SMILES IDX 3 1 5 2 6 3 2 5 1 6 4 8
REMARK H PARENT 6 4 1 7 4 9
REMARK Flexibility Score: inf
ROOT
ATOM      1  C   UNL     1      -2.219   1.764   7.077  1.00  0.00     0.165 C 
ENDROOT
BRANCH   1   2
ATOM      2  C   UNL     1      -1.173   2.198   8.119  1.00  0.00     0.190 C 
BRANCH   2   3
ATOM      3  O   UNL     1       0.069   2.440   7.513  1.00  0.00    -0.394 OA
ATOM      4  H   UNL     1      -0.091   2.457   6.534  1.00  0.00     0.210 HD
ENDBRANCH   2   3
ENDBRANCH   1   2
BRANCH   1   5
ATOM      5  C   UNL     1      -1.758   0.537   6.280  1.00  0.00     0.190 C 
BRANCH   5   6
ATOM      6  O   UNL     1      -1.052   0.932   5.137  1.00  0.00    -0.394 OA
ATOM      7  H   UNL     1      -0.955   1.918   5.200  1.00  0.00     0.210 HD
ENDBRANCH   5   6
ENDBRANCH   1   5
BRANCH   1   8
ATOM      8  O   UNL     1      -2.472   2.820   6.188  1.00  0.00    -0.388 OA
ATOM      9  H   UNL     1      -3.108   2.478   5.507  1.00  0.00     0.211 HD
ENDBRANCH   1   8
TORSDOF 5
ENDMDL
MODEL 2
REMARK VINA RESULT:    -2.550      0.767      2.309
REMARK INTER + INTRA:          -3.288
REMARK INTER:                  -3.065
REMARK INTRA:                  -0.224
REMARK UNBOUND:                -0.217
REMARK SMILES OCC(O)CO
REMARK SMILES IDX 3 1 5 2 6 3 2 5 1 6 4 8
REMARK H PARENT 6 4 1 7 4 9
REMARK Flexibility Score: inf
ROOT
ATOM      1  C   UNL     1      -1.727   0.771   6.738  1.00  0.00     0.165 C 
ENDROOT
BRANCH   1   2
ATOM      2  C   UNL     1      -2.713   1.908   7.060  1.00  0.00     0.190 C 
BRANCH   2   3
ATOM      3  O   UNL     1      -2.581   2.961   6.144  1.00  0.00    -0.394 OA
ATOM      4  H   UNL     1      -2.598   2.555   5.239  1.00  0.00     0.210 HD
ENDBRANCH   2   3
ENDBRANCH   1   2
BRANCH   1   5
ATOM      5  C   UNL     1      -0.373   0.976   7.429  1.00  0.00     0.190 C 
BRANCH   5   6
ATOM      6  O   UNL     1      -0.032   2.335   7.443  1.00  0.00    -0.394 OA
ATOM      7  H   UNL     1      -0.125   2.652   6.507  1.00  0.00     0.210 HD
ENDBRANCH   5   6
ENDBRANCH   1   5
BRANCH   1   8
ATOM      8  O   UNL     1      -1.528   0.691   5.351  1.00  0.00    -0.388 OA
ATOM      9  H   UNL     1      -0.788   0.046   5.203  1.00  0.00     0.211 HD
ENDBRANCH   1   8
TORSDOF 5
ENDMDL
MODEL 3
REMARK VINA RESULT:    -2.533     10.830     11.221
REMARK INTER + INTRA:          -3.268
REMARK INTER:                  -3.059
REMARK INTRA:                  -0.209
REMARK UNBOUND:                -0.217
REMARK SMILES OCC(O)CO
REMARK SMILES IDX 3 1 5 2 6 3 2 5 1 6 4 8
REMARK H PARENT 6 4 1 7 4 9
REMARK Flexibility Score: inf
ROOT
ATOM      1  C   UNL     1       1.641   2.562  -4.603  1.00  0.00     0.165 C 
ENDROOT
BRANCH   1   2
ATOM      2  C   UNL     1       0.199   2.036  -4.493  1.00  0.00     0.190 C 
BRANCH   2   3
ATOM      3  O   UNL     1      -0.483   2.656  -3.436  1.00  0.00    -0.394 OA
ATOM      4  H   UNL     1      -0.059   2.337  -2.598  1.00  0.00     0.210 HD
ENDBRANCH   2   3
ENDBRANCH   1   2
BRANCH   1   5
ATOM      5  C   UNL     1       2.615   1.746  -3.743  1.00  0.00     0.190 C 
BRANCH   5   6
ATOM      6  O   UNL     1       1.919   0.796  -2.983  1.00  0.00    -0.394 OA
ATOM      7  H   UNL     1       0.954   0.977  -3.132  1.00  0.00     0.210 HD
ENDBRANCH   5   6
ENDBRANCH   1   5
BRANCH   1   8
ATOM      8  O   UNL     1       1.690   3.906  -4.202  1.00  0.00    -0.388 OA
ATOM      9  H   UNL     1       1.189   3.970  -3.347  1.00  0.00     0.211 HD
ENDBRANCH   1   8
TORSDOF 5
ENDMDL
MODEL 4
REMARK VINA RESULT:    -2.529     11.994     13.017
REMARK INTER + INTRA:          -3.263
REMARK INTER:                  -3.039
REMARK INTRA:                  -0.223
REMARK UNBOUND:                -0.217
REMARK SMILES OCC(O)CO
REMARK SMILES IDX 3 1 5 2 6 3 2 5 1 6 4 8
REMARK H PARENT 6 4 1 7 4 9
REMARK Flexibility Score: inf
ROOT
ATOM      1  C   UNL     1      -1.729   2.699  -5.310  1.00  0.00     0.165 C 
ENDROOT
BRANCH   1   2
ATOM      2  C   UNL     1      -3.008   2.869  -6.150  1.00  0.00     0.190 C 
BRANCH   2   3
ATOM      3  O   UNL     1      -3.438   1.638  -6.665  1.00  0.00    -0.394 OA
ATOM      4  H   UNL     1      -3.985   1.841  -7.467  1.00  0.00     0.210 HD
ENDBRANCH   2   3
ENDBRANCH   1   2
BRANCH   1   5
ATOM      5  C   UNL     1      -0.462   2.831  -6.165  1.00  0.00     0.190 C 
BRANCH   5   6
ATOM      6  O   UNL     1      -0.612   2.138  -7.373  1.00  0.00    -0.394 OA
ATOM      7  H   UNL     1      -0.142   2.678  -8.061  1.00  0.00     0.210 HD
ENDBRANCH   5   6
ENDBRANCH   1   5
BRANCH   1   8
ATOM      8  O   UNL     1      -1.733   1.441  -4.686  1.00  0.00    -0.388 OA
ATOM      9  H   UNL     1      -0.818   1.068  -4.785  1.00  0.00     0.211 HD
ENDBRANCH   1   8
TORSDOF 5
ENDMDL
MODEL 5
REMARK VINA RESULT:    -2.494      1.808      2.773
REMARK INTER + INTRA:          -3.221
REMARK INTER:                  -3.215
REMARK INTRA:                  -0.006
REMARK UNBOUND:                -0.217
REMARK SMILES OCC(O)CO
REMARK SMILES IDX 3 1 5 2 6 3 2 5 1 6 4 8
REMARK H PARENT 6 4 1 7 4 9
REMARK Flexibility Score: inf
ROOT
ATOM      1  C   UNL     1      -0.059   2.282   7.934  1.00  0.00     0.165 C 
ENDROOT
BRANCH   1   2
ATOM      2  C   UNL     1       0.623   3.324   8.838  1.00  0.00     0.190 C 
BRANCH   2   3
ATOM      3  O   UNL     1       1.422   4.196   8.086  1.00  0.00    -0.394 OA
ATOM      4  H   UNL     1       1.845   4.822   8.730  1.00  0.00     0.210 HD
ENDBRANCH   2   3
ENDBRANCH   1   2
BRANCH   1   5
ATOM      5  C   UNL     1      -1.578   2.247   8.147  1.00  0.00     0.190 C 
BRANCH   5   6
ATOM      6  O   UNL     1      -2.245   2.659   6.986  1.00  0.00    -0.394 OA
ATOM      7  H   UNL     1      -2.034   1.982   6.291  1.00  0.00     0.210 HD
ENDBRANCH   5   6
ENDBRANCH   1   5
BRANCH   1   8
ATOM      8  O   UNL     1       0.471   1.008   8.191  1.00  0.00    -0.388 OA
ATOM      9  H   UNL     1       1.198   1.128   8.856  1.00  0.00     0.211 HD
ENDBRANCH   1   8
TORSDOF 5
ENDMDL
MODEL 6
REMARK VINA RESULT:    -2.492     11.412     12.378
REMARK INTER + INTRA:          -3.218
REMARK INTER:                  -2.995
REMARK INTRA:                  -0.223
REMARK UNBOUND:                -0.217
REMARK SMILES OCC(O)CO
REMARK SMILES IDX 3 1 5 2 6 3 2 5 1 6 4 8
REMARK H PARENT 6 4 1 7 4 9
REMARK Flexibility Score: inf
ROOT
ATOM      1  C   UNL     1      -0.986   2.347  -4.778  1.00  0.00     0.165 C 
ENDROOT
BRANCH   1   2
ATOM      2  C   UNL     1       0.179   2.549  -5.764  1.00  0.00     0.190 C 
BRANCH   2   3
ATOM      3  O   UNL     1      -0.199   2.197  -7.068  1.00  0.00    -0.394 OA
ATOM      4  H   UNL     1       0.635   2.155  -7.603  1.00  0.00     0.210 HD
ENDBRANCH   2   3
ENDBRANCH   1   2
BRANCH   1   5
ATOM      5  C   UNL     1      -2.305   2.902  -5.331  1.00  0.00     0.190 C 
BRANCH   5   6
ATOM      6  O   UNL     1      -2.971   1.924  -6.081  1.00  0.00    -0.394 OA
ATOM      7  H   UNL     1      -2.263   1.387  -6.525  1.00  0.00     0.210 HD
ENDBRANCH   5   6
ENDBRANCH   1   5
BRANCH   1   8
ATOM      8  O   UNL     1      -0.695   2.982  -3.561  1.00  0.00    -0.388 OA
ATOM      9  H   UNL     1      -0.703   3.959  -3.736  1.00  0.00     0.211 HD
ENDBRANCH   1   8
TORSDOF 5
ENDMDL
MODEL 7
REMARK VINA RESULT:    -2.490      0.678      2.440
REMARK INTER + INTRA:          -3.216
REMARK INTER:                  -3.005
REMARK INTRA:                  -0.211
REMARK UNBOUND:                -0.217
REMARK SMILES OCC(O)CO
REMARK SMILES IDX 3 1 5 2 6 3 2 5 1 6 4 8
REMARK H PARENT 6 4 1 7 4 9
REMARK Flexibility Score: inf
ROOT
ATOM      1  C   UNL     1      -1.188   1.452   7.483  1.00  0.00     0.165 C 
ENDROOT
BRANCH   1   2
ATOM      2  C   UNL     1      -0.678   0.450   6.432  1.00  0.00     0.190 C 
BRANCH   2   3
ATOM      3  O   UNL     1      -1.375   0.590   5.223  1.00  0.00    -0.394 OA
ATOM      4  H   UNL     1      -1.503  -0.324   4.861  1.00  0.00     0.210 HD
ENDBRANCH   2   3
ENDBRANCH   1   2
BRANCH   1   5
ATOM      5  C   UNL     1      -2.601   1.952   7.158  1.00  0.00     0.190 C 
BRANCH   5   6
ATOM      6  O   UNL     1      -2.554   2.952   6.178  1.00  0.00    -0.394 OA
ATOM      7  H   UNL     1      -2.554   2.482   5.304  1.00  0.00     0.210 HD
ENDBRANCH   5   6
ENDBRANCH   1   5
BRANCH   1   8
ATOM      8  O   UNL     1      -0.317   2.551   7.555  1.00  0.00    -0.388 OA
ATOM      9  H   UNL     1      -0.624   3.112   8.314  1.00  0.00     0.211 HD
ENDBRANCH   1   8
TORSDOF 5
ENDMDL
MODEL 8
REMARK VINA RESULT:    -2.461     12.463     13.389
REMARK INTER + INTRA:          -3.181
REMARK INTER:                  -2.959
REMARK INTRA:                  -0.222
REMARK UNBOUND:                -0.217
REMARK SMILES OCC(O)CO
REMARK SMILES IDX 3 1 5 2 6 3 2 5 1 6 4 8
REMARK H PARENT 6 4 1 7 4 9
REMARK Flexibility Score: inf
ROOT
ATOM      1  C   UNL     1      -1.897   2.994  -6.843  1.00  0.00     0.165 C 
ENDROOT
BRANCH   1   2
ATOM      2  C   UNL     1      -2.239   2.884  -5.346  1.00  0.00     0.190 C 
BRANCH   2   3
ATOM      3  O   UNL     1      -1.838   1.644  -4.829  1.00  0.00    -0.394 OA
ATOM      4  H   UNL     1      -2.647   1.070  -4.808  1.00  0.00     0.210 HD
ENDBRANCH   2   3
ENDBRANCH   1   2
BRANCH   1   5
ATOM      5  C   UNL     1      -3.053   2.517  -7.731  1.00  0.00     0.190 C 
BRANCH   5   6
ATOM      6  O   UNL     1      -3.685   1.406  -7.156  1.00  0.00    -0.394 OA
ATOM      7  H   UNL     1      -2.960   0.780  -6.898  1.00  0.00     0.210 HD
ENDBRANCH   5   6
ENDBRANCH   1   5
BRANCH   1   8
ATOM      8  O   UNL     1      -0.754   2.231  -7.127  1.00  0.00    -0.388 OA
ATOM      9  H   UNL     1      -0.120   2.828  -7.605  1.00  0.00     0.211 HD
ENDBRANCH   1   8
TORSDOF 5
ENDMDL
MODEL 9
REMARK VINA RESULT:    -2.432     11.286     12.203
REMARK INTER + INTRA:          -3.146
REMARK INTER:                  -2.923
REMARK INTRA:                  -0.223
REMARK UNBOUND:                -0.217
REMARK SMILES OCC(O)CO
REMARK SMILES IDX 3 1 5 2 6 3 2 5 1 6 4 8
REMARK H PARENT 6 4 1 7 4 9
REMARK Flexibility Score: inf
ROOT
ATOM      1  C   UNL     1      -0.511   2.903  -5.825  1.00  0.00     0.165 C 
ENDROOT
BRANCH   1   2
ATOM      2  C   UNL     1       0.311   2.281  -4.683  1.00  0.00     0.190 C 
BRANCH   2   3
ATOM      3  O   UNL     1      -0.356   2.411  -3.455  1.00  0.00    -0.394 OA
ATOM      4  H   UNL     1      -0.149   1.593  -2.933  1.00  0.00     0.210 HD
ENDBRANCH   2   3
ENDBRANCH   1   2
BRANCH   1   5
ATOM      5  C   UNL     1      -2.011   2.927  -5.504  1.00  0.00     0.190 C 
BRANCH   5   6
ATOM      6  O   UNL     1      -2.497   1.623  -5.341  1.00  0.00    -0.394 OA
ATOM      7  H   UNL     1      -3.259   1.691  -4.707  1.00  0.00     0.210 HD
ENDBRANCH   5   6
ENDBRANCH   1   5
BRANCH   1   8
ATOM      8  O   UNL     1      -0.307   2.178  -7.009  1.00  0.00    -0.388 OA
ATOM      9  H   UNL     1      -0.992   1.460  -7.029  1.00  0.00     0.211 HD
ENDBRANCH   1   8
TORSDOF 5
ENDMDL
