MODEL 1
REMARK VINA RESULT:    -3.104      0.000      0.000
REMARK INTER + INTRA:          -4.303
REMARK INTER:                  -3.830
REMARK INTRA:                  -0.473
REMARK UNBOUND:                -0.473
REMARK SMILES C=CC[C@@H](C)C(=O)CC
REMARK SMILES IDX 4 1 5 2 6 3 7 4 8 5 9 6 3 7 2 8 1 9
REMARK H PARENT
REMARK Flexibility Score: inf
ROOT
ATOM      1  C   UNL     1      63.317  15.341  -0.015  1.00  0.00     0.057 C 
ATOM      2  C   UNL     1      62.743  16.409   0.923  1.00  0.00     0.016 C 
ENDROOT
BRANCH   1   3
ATOM      3  C   UNL     1      62.599  15.387  -1.350  1.00  0.00     0.135 C 
ATOM      4  O   UNL     1      61.616  16.102  -1.484  1.00  0.00    -0.299 OA
BRANCH   3   5
ATOM      5  C   UNL     1      63.066  14.554  -2.515  1.00  0.00     0.072 C 
ATOM      6  C   UNL     1      63.382  15.431  -3.722  1.00  0.00     0.012 C 
ENDBRANCH   3   5
ENDBRANCH   1   3
BRANCH   1   7
ATOM      7  C   UNL     1      64.837  15.535  -0.189  1.00  0.00     0.038 C 
BRANCH   7   8
ATOM      8  C   UNL     1      65.190  16.948  -0.577  1.00  0.00    -0.034 C 
ATOM      9  C   UNL     1      65.843  17.224  -1.709  1.00  0.00     0.004 C 
ENDBRANCH   7   8
ENDBRANCH   1   7
TORSDOF 4
ENDMDL
MODEL 2
REMARK VINA RESULT:    -2.991      1.412      3.090
REMARK INTER + INTRA:          -4.164
REMARK INTER:                  -3.683
REMARK INTRA:                  -0.481
REMARK UNBOUND:                -0.473
REMARK SMILES C=CC[C@@H](C)C(=O)CC
REMARK SMILES IDX 4 1 5 2 6 3 7 4 8 5 9 6 3 7 2 8 1 9
REMARK H PARENT
REMARK Flexibility Score: inf
ROOT
ATOM      1  C   UNL     1      62.590  16.169  -0.768  1.00  0.00     0.057 C 
ATOM      2  C   UNL     1      61.327  16.941  -0.369  1.00  0.00     0.016 C 
ENDROOT
BRANCH   1   3
ATOM      3  C   UNL     1      63.485  15.982   0.441  1.00  0.00     0.135 C 
ATOM      4  O   UNL     1      62.986  15.736   1.531  1.00  0.00    -0.299 OA
BRANCH   3   5
ATOM      5  C   UNL     1      64.982  16.108   0.331  1.00  0.00     0.072 C 
ATOM      6  C   UNL     1      65.372  16.936  -0.889  1.00  0.00     0.012 C 
ENDBRANCH   3   5
ENDBRANCH   1   3
BRANCH   1   7
ATOM      7  C   UNL     1      62.217  14.815  -1.404  1.00  0.00     0.038 C 
BRANCH   7   8
ATOM      8  C   UNL     1      63.089  14.482  -2.587  1.00  0.00    -0.034 C 
ATOM      9  C   UNL     1      63.359  15.380  -3.538  1.00  0.00     0.004 C 
ENDBRANCH   7   8
ENDBRANCH   1   7
TORSDOF 4
ENDMDL
MODEL 3
REMARK VINA RESULT:    -2.852      1.674      2.793
REMARK INTER + INTRA:          -3.992
REMARK INTER:                  -3.647
REMARK INTRA:                  -0.345
REMARK UNBOUND:                -0.473
REMARK SMILES C=CC[C@@H](C)C(=O)CC
REMARK SMILES IDX 4 1 5 2 6 3 7 4 8 5 9 6 3 7 2 8 1 9
REMARK H PARENT
REMARK Flexibility Score: inf
ROOT
ATOM      1  C   UNL     1      63.556  16.033  -0.615  1.00  0.00     0.057 C 
ATOM      2  C   UNL     1      64.966  16.083  -0.017  1.00  0.00     0.016 C 
ENDROOT
BRANCH   1   3
ATOM      3  C   UNL     1      63.211  14.609  -1.006  1.00  0.00     0.135 C 
ATOM      4  O   UNL     1      63.130  13.747  -0.141  1.00  0.00    -0.299 OA
BRANCH   3   5
ATOM      5  C   UNL     1      62.980  14.229  -2.445  1.00  0.00     0.072 C 
ATOM      6  C   UNL     1      63.359  15.374  -3.380  1.00  0.00     0.012 C 
ENDBRANCH   3   5
ENDBRANCH   1   3
BRANCH   1   7
ATOM      7  C   UNL     1      62.526  16.606   0.380  1.00  0.00     0.038 C 
BRANCH   7   8
ATOM      8  C   UNL     1      61.251  17.029  -0.302  1.00  0.00    -0.034 C 
ATOM      9  C   UNL     1      60.707  18.231  -0.094  1.00  0.00     0.004 C 
ENDBRANCH   7   8
ENDBRANCH   1   7
TORSDOF 4
ENDMDL
MODEL 4
REMARK VINA RESULT:    -2.797      1.489      3.912
REMARK INTER + INTRA:          -3.925
REMARK INTER:                  -3.578
REMARK INTRA:                  -0.347
REMARK UNBOUND:                -0.473
REMARK SMILES C=CC[C@@H](C)C(=O)CC
REMARK SMILES IDX 4 1 5 2 6 3 7 4 8 5 9 6 3 7 2 8 1 9
REMARK H PARENT
REMARK Flexibility Score: inf
ROOT
ATOM      1  C   UNL     1      63.557  14.738  -2.300  1.00  0.00     0.057 C 
ATOM      2  C   UNL     1      63.387  15.440  -3.652  1.00  0.00     0.016 C 
ENDROOT
BRANCH   1   3
ATOM      3  C   UNL     1      63.575  15.764  -1.185  1.00  0.00     0.135 C 
ATOM      4  O   UNL     1      62.520  16.195  -0.740  1.00  0.00    -0.299 OA
BRANCH   3   5
ATOM      5  C   UNL     1      64.874  16.279  -0.620  1.00  0.00     0.072 C 
ATOM      6  C   UNL     1      65.096  15.762   0.798  1.00  0.00     0.012 C 
ENDBRANCH   3   5
ENDBRANCH   1   3
BRANCH   1   7
ATOM      7  C   UNL     1      62.437  13.699  -2.087  1.00  0.00     0.038 C 
BRANCH   7   8
ATOM      8  C   UNL     1      62.846  12.612  -1.127  1.00  0.00    -0.034 C 
ATOM      9  C   UNL     1      62.409  12.588   0.136  1.00  0.00     0.004 C 
ENDBRANCH   7   8
ENDBRANCH   1   7
TORSDOF 4
ENDMDL
MODEL 5
REMARK VINA RESULT:    -2.757      1.710      2.924
REMARK INTER + INTRA:          -3.875
REMARK INTER:                  -3.421
REMARK INTRA:                  -0.454
REMARK UNBOUND:                -0.473
REMARK SMILES C=CC[C@@H](C)C(=O)CC
REMARK SMILES IDX 4 1 5 2 6 3 7 4 8 5 9 6 3 7 2 8 1 9
REMARK H PARENT
REMARK Flexibility Score: inf
ROOT
ATOM      1  C   UNL     1      63.196  15.466  -2.142  1.00  0.00     0.057 C 
ATOM      2  C   UNL     1      63.389  15.435  -3.662  1.00  0.00     0.016 C 
ENDROOT
BRANCH   1   3
ATOM      3  C   UNL     1      62.781  14.095  -1.646  1.00  0.00     0.135 C 
ATOM      4  O   UNL     1      63.527  13.139  -1.815  1.00  0.00    -0.299 OA
BRANCH   3   5
ATOM      5  C   UNL     1      61.457  13.881  -0.962  1.00  0.00     0.072 C 
ATOM      6  C   UNL     1      60.763  15.211  -0.686  1.00  0.00     0.012 C 
ENDBRANCH   3   5
ENDBRANCH   1   3
BRANCH   1   7
ATOM      7  C   UNL     1      64.484  15.948  -1.443  1.00  0.00     0.038 C 
BRANCH   7   8
ATOM      8  C   UNL     1      64.258  16.263   0.013  1.00  0.00    -0.034 C 
ATOM      9  C   UNL     1      64.937  15.642   0.981  1.00  0.00     0.004 C 
ENDBRANCH   7   8
ENDBRANCH   1   7
TORSDOF 4
ENDMDL
MODEL 6
REMARK VINA RESULT:    -2.680      2.065      3.798
REMARK INTER + INTRA:          -3.780
REMARK INTER:                  -3.642
REMARK INTRA:                  -0.138
REMARK UNBOUND:                -0.473
REMARK SMILES C=CC[C@@H](C)C(=O)CC
REMARK SMILES IDX 4 1 5 2 6 3 7 4 8 5 9 6 3 7 2 8 1 9
REMARK H PARENT
REMARK Flexibility Score: inf
ROOT
ATOM      1  C   UNL     1      61.537  16.056  -1.090  1.00  0.00     0.057 C 
ATOM      2  C   UNL     1      60.650  14.858  -0.734  1.00  0.00     0.016 C 
ENDROOT
BRANCH   1   3
ATOM      3  C   UNL     1      61.469  17.095   0.012  1.00  0.00     0.135 C 
ATOM      4  O   UNL     1      62.059  16.900   1.066  1.00  0.00    -0.299 OA
BRANCH   3   5
ATOM      5  C   UNL     1      60.672  18.362  -0.160  1.00  0.00     0.072 C 
ATOM      6  C   UNL     1      60.397  19.021   1.188  1.00  0.00     0.012 C 
ENDBRANCH   3   5
ENDBRANCH   1   3
BRANCH   1   7
ATOM      7  C   UNL     1      62.989  15.598  -1.339  1.00  0.00     0.038 C 
BRANCH   7   8
ATOM      8  C   UNL     1      63.138  14.862  -2.645  1.00  0.00    -0.034 C 
ATOM      9  C   UNL     1      63.481  15.492  -3.772  1.00  0.00     0.004 C 
ENDBRANCH   7   8
ENDBRANCH   1   7
TORSDOF 4
ENDMDL
MODEL 7
REMARK VINA RESULT:    -2.575      2.659      3.462
REMARK INTER + INTRA:          -3.650
REMARK INTER:                  -3.302
REMARK INTRA:                  -0.348
REMARK UNBOUND:                -0.473
REMARK SMILES C=CC[C@@H](C)C(=O)CC
REMARK SMILES IDX 4 1 5 2 6 3 7 4 8 5 9 6 3 7 2 8 1 9
REMARK H PARENT
REMARK Flexibility Score: inf
ROOT
ATOM      1  C   UNL     1      62.516  13.935  -0.583  1.00  0.00     0.057 C 
ATOM      2  C   UNL     1      61.196  14.712  -0.520  1.00  0.00     0.016 C 
ENDROOT
BRANCH   1   3
ATOM      3  C   UNL     1      62.259  12.518  -1.055  1.00  0.00     0.135 C 
ATOM      4  O   UNL     1      63.201  11.752  -1.212  1.00  0.00    -0.299 OA
BRANCH   3   5
ATOM      5  C   UNL     1      60.864  12.036  -1.353  1.00  0.00     0.072 C 
ATOM      6  C   UNL     1      60.794  11.378  -2.727  1.00  0.00     0.012 C 
ENDBRANCH   3   5
ENDBRANCH   1   3
BRANCH   1   7
ATOM      7  C   UNL     1      63.525  14.657  -1.498  1.00  0.00     0.038 C 
BRANCH   7   8
ATOM      8  C   UNL     1      63.013  14.802  -2.908  1.00  0.00    -0.034 C 
ATOM      9  C   UNL     1      63.640  15.562  -3.810  1.00  0.00     0.004 C 
ENDBRANCH   7   8
ENDBRANCH   1   7
TORSDOF 4
ENDMDL
MODEL 8
REMARK VINA RESULT:    -2.558      1.747      3.545
REMARK INTER + INTRA:          -3.630
REMARK INTER:                  -3.307
REMARK INTRA:                  -0.324
REMARK UNBOUND:                -0.473
REMARK SMILES C=CC[C@@H](C)C(=O)CC
REMARK SMILES IDX 4 1 5 2 6 3 7 4 8 5 9 6 3 7 2 8 1 9
REMARK H PARENT
REMARK Flexibility Score: inf
ROOT
ATOM      1  C   UNL     1      63.679  15.769  -0.596  1.00  0.00     0.057 C 
ATOM      2  C   UNL     1      64.925  16.663  -0.606  1.00  0.00     0.016 C 
ENDROOT
BRANCH   1   3
ATOM      3  C   UNL     1      62.583  16.421   0.223  1.00  0.00     0.135 C 
ATOM      4  O   UNL     1      62.801  16.736   1.386  1.00  0.00    -0.299 OA
BRANCH   3   5
ATOM      5  C   UNL     1      61.218  16.675  -0.362  1.00  0.00     0.072 C 
ATOM      6  C   UNL     1      60.777  18.114  -0.115  1.00  0.00     0.012 C 
ENDBRANCH   3   5
ENDBRANCH   1   3
BRANCH   1   7
ATOM      7  C   UNL     1      63.208  15.484  -2.036  1.00  0.00     0.038 C 
BRANCH   7   8
ATOM      8  C   UNL     1      63.082  14.007  -2.311  1.00  0.00    -0.034 C 
ATOM      9  C   UNL     1      62.026  13.302  -1.896  1.00  0.00     0.004 C 
ENDBRANCH   7   8
ENDBRANCH   1   7
TORSDOF 4
ENDMDL
MODEL 9
REMARK VINA RESULT:    -2.499      1.988      3.470
REMARK INTER + INTRA:          -3.556
REMARK INTER:                  -3.264
REMARK INTRA:                  -0.292
REMARK UNBOUND:                -0.473
REMARK SMILES C=CC[C@@H](C)C(=O)CC
REMARK SMILES IDX 4 1 5 2 6 3 7 4 8 5 9 6 3 7 2 8 1 9
REMARK H PARENT
REMARK Flexibility Score: inf
ROOT
ATOM      1  C   UNL     1      62.501  16.243  -0.344  1.00  0.00     0.057 C 
ATOM      2  C   UNL     1      62.621  15.669   1.072  1.00  0.00     0.016 C 
ENDROOT
BRANCH   1   3
ATOM      3  C   UNL     1      63.566  15.640  -1.238  1.00  0.00     0.135 C 
ATOM      4  O   UNL     1      64.747  15.875  -1.017  1.00  0.00    -0.299 OA
BRANCH   3   5
ATOM      5  C   UNL     1      63.198  14.767  -2.409  1.00  0.00     0.072 C 
ATOM      6  C   UNL     1      63.486  15.474  -3.730  1.00  0.00     0.012 C 
ENDBRANCH   3   5
ENDBRANCH   1   3
BRANCH   1   7
ATOM      7  C   UNL     1      61.088  15.995  -0.910  1.00  0.00     0.038 C 
BRANCH   7   8
ATOM      8  C   UNL     1      60.331  14.961  -0.117  1.00  0.00    -0.034 C 
ATOM      9  C   UNL     1      59.312  14.277  -0.644  1.00  0.00     0.004 C 
ENDBRANCH   7   8
ENDBRANCH   1   7
TORSDOF 4
ENDMDL
