MODEL 1
REMARK VINA RESULT:    -3.044      0.000      0.000
REMARK INTER + INTRA:          -4.260
REMARK INTER:                  -3.934
REMARK INTRA:                  -0.327
REMARK UNBOUND:                -0.327
REMARK SMILES CCCCCCC(=O)[O-]
REMARK SMILES IDX 5 1 6 2 7 3 8 4 9 5 4 6 3 7 2 8 1 9
REMARK H PARENT
REMARK Flexibility Score: inf
ROOT
ATOM      1  C   UNL     1       9.546  14.741  -0.302  1.00  0.00     0.006 C 
ENDROOT
BRANCH   1   2
ATOM      2  C   UNL     1       9.577  14.994   1.210  1.00  0.00     0.053 C 
BRANCH   2   3
ATOM      3  C   UNL     1      10.006  16.393   1.531  1.00  0.00     0.041 C 
ATOM      4  O   UNL     1      11.229  16.692   1.552  1.00  0.00    -0.550 OA
ATOM      5  O   UNL     1       9.056  17.357   1.841  1.00  0.00    -0.550 OA
ENDBRANCH   2   3
ENDBRANCH   1   2
BRANCH   1   6
ATOM      6  C   UNL     1      10.784  13.964  -0.785  1.00  0.00     0.000 C 
BRANCH   6   7
ATOM      7  C   UNL     1      11.222  12.875   0.208  1.00  0.00    -0.000 C 
BRANCH   7   8
ATOM      8  C   UNL     1      12.737  12.879   0.459  1.00  0.00    -0.003 C 
ATOM      9  C   UNL     1      13.052  13.239   1.908  1.00  0.00     0.004 C 
ENDBRANCH   7   8
ENDBRANCH   6   7
ENDBRANCH   1   6
TORSDOF 5
ENDMDL
MODEL 2
REMARK VINA RESULT:    -2.825      2.247      3.832
REMARK INTER + INTRA:          -3.977
REMARK INTER:                  -3.677
REMARK INTRA:                  -0.300
REMARK UNBOUND:                -0.327
REMARK SMILES CCCCCCC(=O)[O-]
REMARK SMILES IDX 5 1 6 2 7 3 8 4 9 5 4 6 3 7 2 8 1 9
REMARK H PARENT
REMARK Flexibility Score: inf
ROOT
ATOM      1  C   UNL     1      10.015  14.644   0.003  1.00  0.00     0.006 C 
ENDROOT
BRANCH   1   2
ATOM      2  C   UNL     1      10.614  13.247  -0.202  1.00  0.00     0.053 C 
BRANCH   2   3
ATOM      3  C   UNL     1      12.028  13.172   0.286  1.00  0.00     0.041 C 
ATOM      4  O   UNL     1      12.958  12.878  -0.511  1.00  0.00    -0.550 OA
ATOM      5  O   UNL     1      12.314  13.391   1.627  1.00  0.00    -0.550 OA
ENDBRANCH   2   3
ENDBRANCH   1   2
BRANCH   1   6
ATOM      6  C   UNL     1       9.211  14.743   1.312  1.00  0.00     0.000 C 
BRANCH   6   7
ATOM      7  C   UNL     1       9.537  16.016   2.110  1.00  0.00    -0.000 C 
BRANCH   7   8
ATOM      8  C   UNL     1      10.532  16.931   1.383  1.00  0.00    -0.003 C 
ATOM      9  C   UNL     1      11.864  16.994   2.125  1.00  0.00     0.004 C 
ENDBRANCH   7   8
ENDBRANCH   6   7
ENDBRANCH   1   6
TORSDOF 5
ENDMDL
MODEL 3
REMARK VINA RESULT:    -2.469      1.666      2.620
REMARK INTER + INTRA:          -3.517
REMARK INTER:                  -3.477
REMARK INTRA:                  -0.040
REMARK UNBOUND:                -0.327
REMARK SMILES CCCCCCC(=O)[O-]
REMARK SMILES IDX 5 1 6 2 7 3 8 4 9 5 4 6 3 7 2 8 1 9
REMARK H PARENT
REMARK Flexibility Score: inf
ROOT
ATOM      1  C   UNL     1      11.013  16.276   1.187  1.00  0.00     0.006 C 
ENDROOT
BRANCH   1   2
ATOM      2  C   UNL     1      10.095  17.071   2.125  1.00  0.00     0.053 C 
BRANCH   2   3
ATOM      3  C   UNL     1       8.687  16.561   2.087  1.00  0.00     0.041 C 
ATOM      4  O   UNL     1       7.721  17.369   2.064  1.00  0.00    -0.550 OA
ATOM      5  O   UNL     1       8.441  15.195   2.115  1.00  0.00    -0.550 OA
ENDBRANCH   2   3
ENDBRANCH   1   2
BRANCH   1   6
ATOM      6  C   UNL     1      11.784  15.172   1.931  1.00  0.00     0.000 C 
BRANCH   6   7
ATOM      7  C   UNL     1      11.438  13.764   1.421  1.00  0.00    -0.000 C 
BRANCH   7   8
ATOM      8  C   UNL     1      11.644  13.617  -0.094  1.00  0.00    -0.003 C 
ATOM      9  C   UNL     1      10.312  13.674  -0.837  1.00  0.00     0.004 C 
ENDBRANCH   7   8
ENDBRANCH   6   7
ENDBRANCH   1   6
TORSDOF 5
ENDMDL
MODEL 4
REMARK VINA RESULT:    -2.343      2.731      4.539
REMARK INTER + INTRA:          -3.355
REMARK INTER:                  -3.207
REMARK INTRA:                  -0.148
REMARK UNBOUND:                -0.327
REMARK SMILES CCCCCCC(=O)[O-]
REMARK SMILES IDX 5 1 6 2 7 3 8 4 9 5 4 6 3 7 2 8 1 9
REMARK H PARENT
REMARK Flexibility Score: inf
ROOT
ATOM      1  C   UNL     1      10.509  15.524   1.008  1.00  0.00     0.006 C 
ENDROOT
BRANCH   1   2
ATOM      2  C   UNL     1      11.160  14.140   1.118  1.00  0.00     0.053 C 
BRANCH   2   3
ATOM      3  C   UNL     1      11.506  13.580  -0.229  1.00  0.00     0.041 C 
ATOM      4  O   UNL     1      12.636  13.061  -0.427  1.00  0.00    -0.550 OA
ATOM      5  O   UNL     1      10.594  13.667  -1.272  1.00  0.00    -0.550 OA
ENDBRANCH   2   3
ENDBRANCH   1   2
BRANCH   1   6
ATOM      6  C   UNL     1       9.384  15.719   2.041  1.00  0.00     0.000 C 
BRANCH   6   7
ATOM      7  C   UNL     1       8.348  14.584   2.006  1.00  0.00    -0.000 C 
BRANCH   7   8
ATOM      8  C   UNL     1       6.906  15.098   2.125  1.00  0.00    -0.003 C 
ATOM      9  C   UNL     1       5.904  14.022   1.716  1.00  0.00     0.004 C 
ENDBRANCH   7   8
ENDBRANCH   6   7
ENDBRANCH   1   6
TORSDOF 5
ENDMDL
MODEL 5
REMARK VINA RESULT:    -2.110      2.343      4.429
REMARK INTER + INTRA:          -3.053
REMARK INTER:                  -2.886
REMARK INTRA:                  -0.167
REMARK UNBOUND:                -0.327
REMARK SMILES CCCCCCC(=O)[O-]
REMARK SMILES IDX 5 1 6 2 7 3 8 4 9 5 4 6 3 7 2 8 1 9
REMARK H PARENT
REMARK Flexibility Score: inf
ROOT
ATOM      1  C   UNL     1      10.454  14.773   1.955  1.00  0.00     0.006 C 
ENDROOT
BRANCH   1   2
ATOM      2  C   UNL     1      11.124  13.533   1.352  1.00  0.00     0.053 C 
BRANCH   2   3
ATOM      3  C   UNL     1      11.218  13.623  -0.141  1.00  0.00     0.041 C 
ATOM      4  O   UNL     1      12.315  13.405  -0.721  1.00  0.00    -0.550 OA
ATOM      5  O   UNL     1      10.105  13.984  -0.887  1.00  0.00    -0.550 OA
ENDBRANCH   2   3
ENDBRANCH   1   2
BRANCH   1   6
ATOM      6  C   UNL     1      11.096  16.080   1.455  1.00  0.00     0.000 C 
BRANCH   6   7
ATOM      7  C   UNL     1      10.105  17.255   1.434  1.00  0.00    -0.000 C 
BRANCH   7   8
ATOM      8  C   UNL     1       8.776  16.919   2.125  1.00  0.00    -0.003 C 
ATOM      9  C   UNL     1       7.696  17.932   1.759  1.00  0.00     0.004 C 
ENDBRANCH   7   8
ENDBRANCH   6   7
ENDBRANCH   1   6
TORSDOF 5
ENDMDL
MODEL 6
REMARK VINA RESULT:    -1.640      2.304      3.893
REMARK INTER + INTRA:          -2.446
REMARK INTER:                  -2.387
REMARK INTRA:                  -0.059
REMARK UNBOUND:                -0.327
REMARK SMILES CCCCCCC(=O)[O-]
REMARK SMILES IDX 5 1 6 2 7 3 8 4 9 5 4 6 3 7 2 8 1 9
REMARK H PARENT
REMARK Flexibility Score: inf
ROOT
ATOM      1  C   UNL     1      11.380  13.493   1.187  1.00  0.00     0.006 C 
ENDROOT
BRANCH   1   2
ATOM      2  C   UNL     1      11.866  13.806  -0.233  1.00  0.00     0.053 C 
BRANCH   2   3
ATOM      3  C   UNL     1      10.722  13.997  -1.182  1.00  0.00     0.041 C 
ATOM      4  O   UNL     1      10.927  14.021  -2.424  1.00  0.00    -0.550 OA
ATOM      5  O   UNL     1       9.437  14.184  -0.692  1.00  0.00    -0.550 OA
ENDBRANCH   2   3
ENDBRANCH   1   2
BRANCH   1   6
ATOM      6  C   UNL     1      11.276  14.759   2.057  1.00  0.00     0.000 C 
BRANCH   6   7
ATOM      7  C   UNL     1       9.844  15.313   2.125  1.00  0.00    -0.000 C 
BRANCH   7   8
ATOM      8  C   UNL     1       9.770  16.806   1.777  1.00  0.00    -0.003 C 
ATOM      9  C   UNL     1      11.141  17.346   1.381  1.00  0.00     0.004 C 
ENDBRANCH   7   8
ENDBRANCH   6   7
ENDBRANCH   1   6
TORSDOF 5
ENDMDL
MODEL 7
REMARK VINA RESULT:    -1.485      1.428      2.064
REMARK INTER + INTRA:          -2.245
REMARK INTER:                  -2.234
REMARK INTRA:                  -0.012
REMARK UNBOUND:                -0.327
REMARK SMILES CCCCCCC(=O)[O-]
REMARK SMILES IDX 5 1 6 2 7 3 8 4 9 5 4 6 3 7 2 8 1 9
REMARK H PARENT
REMARK Flexibility Score: inf
ROOT
ATOM      1  C   UNL     1       9.268  16.018   0.820  1.00  0.00     0.006 C 
ENDROOT
BRANCH   1   2
ATOM      2  C   UNL     1      10.031  15.748   2.123  1.00  0.00     0.053 C 
BRANCH   2   3
ATOM      3  C   UNL     1      11.421  16.303   2.078  1.00  0.00     0.041 C 
ATOM      4  O   UNL     1      11.604  17.545   1.971  1.00  0.00    -0.550 OA
ATOM      5  O   UNL     1      12.514  15.448   2.118  1.00  0.00    -0.550 OA
ENDBRANCH   2   3
ENDBRANCH   1   2
BRANCH   1   6
ATOM      6  C   UNL     1       9.262  14.794  -0.112  1.00  0.00     0.000 C 
BRANCH   6   7
ATOM      7  C   UNL     1      10.388  13.799   0.212  1.00  0.00    -0.000 C 
BRANCH   7   8
ATOM      8  C   UNL     1      11.521  13.830  -0.823  1.00  0.00    -0.003 C 
ATOM      9  C   UNL     1      12.658  12.895  -0.422  1.00  0.00     0.004 C 
ENDBRANCH   7   8
ENDBRANCH   6   7
ENDBRANCH   1   6
TORSDOF 5
ENDMDL
