MODEL 1
REMARK VINA RESULT:    -3.533      0.000      0.000
REMARK INTER + INTRA:          -4.535
REMARK INTER:                  -5.185
REMARK INTRA:                   0.651
REMARK UNBOUND:                 0.651
REMARK SMILES C=C1CC=CC(C)(C)CC=C(C)CCC1
REMARK SMILES IDX 2 1 1 2 15 3 14 4 13 5 11 6 12 7 10 8 3 10 4 11 5 12 6 13
REMARK SMILES IDX 7 14 8 15 9 16
REMARK H PARENT
REMARK Flexibility Score: 60.00
ROOT
ATOM      1  C   UNL     1     134.023 133.360 134.520  1.00  0.00    -0.074 C 
ATOM      2  C   UNL     1     134.134 134.338 133.606  1.00  0.00     0.008 C 
ENDROOT
BRANCH   1   3
ATOM      3  C   UNL     1     132.874 133.372 135.507  1.00  0.00     0.031 C 
BRANCH   3   4
ATOM      4  C   UNL     1     133.386 133.247 136.963  1.00  0.00     0.009 C 
BRANCH   4   5
ATOM      5  C   UNL     1     134.327 134.373 137.457  1.00  0.00     0.030 C 
BRANCH   5   6
ATOM      6  C   UNL     1     135.558 133.927 138.234  1.00  0.00    -0.077 C 
ATOM      7  C   UNL     1     135.387 133.498 139.671  1.00  0.00     0.039 C 
ATOM      8  C   UNL     1     136.809 133.888 137.714  1.00  0.00    -0.027 CG0
ATOM      9  G   UNL     1     137.190 134.233 136.287  1.00  0.00     0.000 G0
ENDBRANCH   5   6
ENDBRANCH   4   5
ENDBRANCH   3   4
ENDBRANCH   1   3
BRANCH   1  10
ATOM     10  C   UNL     1     134.999 132.201 134.525  1.00  0.00     0.057 C 
BRANCH  10  11
ATOM     11  C   UNL     1     136.211 132.519 133.688  1.00  0.00    -0.026 C 
ATOM     12  C   UNL     1     137.445 132.878 134.112  1.00  0.00    -0.024 C 
BRANCH  12  13
ATOM     13  C   UNL     1     137.957 133.104 135.544  1.00  0.00    -0.014 C 
ATOM     14  C   UNL     1     139.453 133.507 135.455  1.00  0.00     0.016 C 
ATOM     15  C   UNL     1     137.914 131.789 136.358  1.00  0.00     0.016 C 
BRANCH  13  16
ATOM     16  C   UNL     1     137.176 134.234 136.288  1.00  0.00     0.038 CG0
ATOM     17  G   UNL     1     136.831 133.877 137.721  1.00  0.00     0.000 G0
ENDBRANCH  13  16
ENDBRANCH  12  13
ENDBRANCH  10  11
ENDBRANCH   1  10
TORSDOF 0
ENDMDL
MODEL 2
REMARK VINA RESULT:    -3.367      2.352      4.267
REMARK INTER + INTRA:          -4.291
REMARK INTER:                  -4.736
REMARK INTRA:                   0.444
REMARK UNBOUND:                 0.651
REMARK SMILES C=C1CC=CC(C)(C)CC=C(C)CCC1
REMARK SMILES IDX 2 1 1 2 15 3 14 4 13 5 11 6 12 7 10 8 3 10 4 11 5 12 6 13
REMARK SMILES IDX 7 14 8 15 9 16
REMARK H PARENT
REMARK Flexibility Score: 60.00
ROOT
ATOM      1  C   UNL     1     138.524 132.756 135.555  1.00  0.00    -0.074 C 
ATOM      2  C   UNL     1     137.844 131.908 136.344  1.00  0.00     0.008 C 
ENDROOT
BRANCH   1   3
ATOM      3  C   UNL     1     138.203 132.839 134.076  1.00  0.00     0.031 C 
BRANCH   3   4
ATOM      4  C   UNL     1     136.696 133.106 133.845  1.00  0.00     0.009 C 
BRANCH   4   5
ATOM      5  C   UNL     1     136.250 134.589 133.883  1.00  0.00     0.030 C 
BRANCH   5   6
ATOM      6  C   UNL     1     136.115 135.214 135.265  1.00  0.00    -0.077 C 
ATOM      7  C   UNL     1     135.123 134.615 136.233  1.00  0.00     0.039 C 
ATOM      8  C   UNL     1     136.835 136.281 135.687  1.00  0.00    -0.027 CG0
ATOM      9  G   UNL     1     137.908 137.000 134.893  1.00  0.00     0.000 G0
ENDBRANCH   5   6
ENDBRANCH   4   5
ENDBRANCH   3   4
ENDBRANCH   1   3
BRANCH   1  10
ATOM     10  C   UNL     1     139.562 133.688 136.147  1.00  0.00     0.057 C 
BRANCH  10  11
ATOM     11  C   UNL     1     140.269 134.459 135.063  1.00  0.00    -0.026 C 
ATOM     12  C   UNL     1     140.197 135.785 134.801  1.00  0.00    -0.024 C 
BRANCH  12  13
ATOM     13  C   UNL     1     139.358 136.872 135.494  1.00  0.00    -0.014 C 
ATOM     14  C   UNL     1     140.099 138.224 135.321  1.00  0.00     0.016 C 
ATOM     15  C   UNL     1     139.277 136.617 137.018  1.00  0.00     0.016 C 
BRANCH  13  16
ATOM     16  C   UNL     1     137.925 137.002 134.883  1.00  0.00     0.038 CG0
ATOM     17  G   UNL     1     136.862 136.296 135.702  1.00  0.00     0.000 G0
ENDBRANCH  13  16
ENDBRANCH  12  13
ENDBRANCH  10  11
ENDBRANCH   1  10
TORSDOF 0
ENDMDL
MODEL 3
REMARK VINA RESULT:    -3.316      5.100      6.801
REMARK INTER + INTRA:          -4.216
REMARK INTER:                  -4.853
REMARK INTRA:                   0.637
REMARK UNBOUND:                 0.651
REMARK SMILES C=C1CC=CC(C)(C)CC=C(C)CCC1
REMARK SMILES IDX 2 1 1 2 15 3 14 4 13 5 11 6 12 7 10 8 3 10 4 11 5 12 6 13
REMARK SMILES IDX 7 14 8 15 9 16
REMARK H PARENT
REMARK Flexibility Score: 60.00
ROOT
ATOM      1  C   UNL     1     139.649 137.885 134.351  1.00  0.00    -0.074 C 
ATOM      2  C   UNL     1     140.026 136.661 133.946  1.00  0.00     0.008 C 
ENDROOT
BRANCH   1   3
ATOM      3  C   UNL     1     140.516 138.664 135.320  1.00  0.00     0.031 C 
BRANCH   3   4
ATOM      4  C   UNL     1     140.260 138.221 136.781  1.00  0.00     0.009 C 
BRANCH   4   5
ATOM      5  C   UNL     1     138.905 137.522 137.057  1.00  0.00     0.030 C 
BRANCH   5   6
ATOM      6  C   UNL     1     137.933 138.273 137.957  1.00  0.00    -0.077 C 
ATOM      7  C   UNL     1     138.375 138.628 139.357  1.00  0.00     0.039 C 
ATOM      8  C   UNL     1     136.688 138.649 137.581  1.00  0.00    -0.027 CG0
ATOM      9  G   UNL     1     136.068 138.431 136.213  1.00  0.00     0.000 G0
ENDBRANCH   5   6
ENDBRANCH   4   5
ENDBRANCH   3   4
ENDBRANCH   1   3
BRANCH   1  10
ATOM     10  C   UNL     1     138.397 138.526 133.788  1.00  0.00     0.057 C 
BRANCH  10  11
ATOM     11  C   UNL     1     138.214 139.916 134.340  1.00  0.00    -0.026 C 
ATOM     12  C   UNL     1     137.154 140.410 135.021  1.00  0.00    -0.024 C 
BRANCH  12  13
ATOM     13  C   UNL     1     135.829 139.724 135.393  1.00  0.00    -0.014 C 
ATOM     14  C   UNL     1     135.098 139.360 134.073  1.00  0.00     0.016 C 
ATOM     15  C   UNL     1     134.895 140.700 136.146  1.00  0.00     0.016 C 
BRANCH  13  16
ATOM     16  C   UNL     1     136.043 138.418 136.224  1.00  0.00     0.038 CG0
ATOM     17  G   UNL     1     136.681 138.671 137.577  1.00  0.00     0.000 G0
ENDBRANCH  13  16
ENDBRANCH  12  13
ENDBRANCH  10  11
ENDBRANCH   1  10
TORSDOF 0
ENDMDL
MODEL 4
REMARK VINA RESULT:    -3.220      2.162      3.564
REMARK INTER + INTRA:          -4.075
REMARK INTER:                  -4.635
REMARK INTRA:                   0.560
REMARK UNBOUND:                 0.651
REMARK SMILES C=C1CC=CC(C)(C)CC=C(C)CCC1
REMARK SMILES IDX 2 1 1 2 15 3 14 4 13 5 11 6 12 7 10 8 3 10 4 11 5 12 6 13
REMARK SMILES IDX 7 14 8 15 9 16
REMARK H PARENT
REMARK Flexibility Score: 60.00
ROOT
ATOM      1  C   UNL     1     132.455 136.163 135.363  1.00  0.00    -0.074 C 
ATOM      2  C   UNL     1     132.184 136.591 134.119  1.00  0.00     0.008 C 
ENDROOT
BRANCH   1   3
ATOM      3  C   UNL     1     131.803 134.901 135.890  1.00  0.00     0.031 C 
BRANCH   3   4
ATOM      4  C   UNL     1     132.459 133.637 135.283  1.00  0.00     0.009 C 
BRANCH   4   5
ATOM      5  C   UNL     1     133.528 132.934 136.156  1.00  0.00     0.030 C 
BRANCH   5   6
ATOM      6  C   UNL     1     134.950 132.943 135.612  1.00  0.00    -0.077 C 
ATOM      7  C   UNL     1     135.299 131.995 134.490  1.00  0.00     0.039 C 
ATOM      8  C   UNL     1     135.932 133.755 136.073  1.00  0.00    -0.027 CG0
ATOM      9  G   UNL     1     135.782 134.805 137.157  1.00  0.00     0.000 G0
ENDBRANCH   5   6
ENDBRANCH   4   5
ENDBRANCH   3   4
ENDBRANCH   1   3
BRANCH   1  10
ATOM     10  C   UNL     1     133.470 136.893 136.220  1.00  0.00     0.057 C 
BRANCH  10  11
ATOM     11  C   UNL     1     134.693 137.248 135.416  1.00  0.00    -0.026 C 
ATOM     12  C   UNL     1     135.982 136.922 135.671  1.00  0.00    -0.024 C 
BRANCH  12  13
ATOM     13  C   UNL     1     136.574 136.142 136.856  1.00  0.00    -0.014 C 
ATOM     14  C   UNL     1     136.508 137.060 138.106  1.00  0.00     0.016 C 
ATOM     15  C   UNL     1     138.073 135.839 136.624  1.00  0.00     0.016 C 
BRANCH  13  16
ATOM     16  C   UNL     1     135.789 134.825 137.159  1.00  0.00     0.038 CG0
ATOM     17  G   UNL     1     135.939 133.779 136.071  1.00  0.00     0.000 G0
ENDBRANCH  13  16
ENDBRANCH  12  13
ENDBRANCH  10  11
ENDBRANCH   1  10
TORSDOF 0
ENDMDL
MODEL 5
REMARK VINA RESULT:    -3.150      4.707      6.516
REMARK INTER + INTRA:          -3.973
REMARK INTER:                  -4.612
REMARK INTRA:                   0.639
REMARK UNBOUND:                 0.651
REMARK SMILES C=C1CC=CC(C)(C)CC=C(C)CCC1
REMARK SMILES IDX 2 1 1 2 15 3 14 4 13 5 11 6 12 7 10 8 3 10 4 11 5 12 6 13
REMARK SMILES IDX 7 14 8 15 9 16
REMARK H PARENT
REMARK Flexibility Score: 60.00
ROOT
ATOM      1  C   UNL     1     135.740 140.286 134.922  1.00  0.00    -0.074 C 
ATOM      2  C   UNL     1     135.179 139.913 133.760  1.00  0.00     0.008 C 
ENDROOT
BRANCH   1   3
ATOM      3  C   UNL     1     137.248 140.311 135.063  1.00  0.00     0.031 C 
BRANCH   3   4
ATOM      4  C   UNL     1     137.912 139.231 134.175  1.00  0.00     0.009 C 
BRANCH   4   5
ATOM      5  C   UNL     1     138.063 137.824 134.806  1.00  0.00     0.030 C 
BRANCH   5   6
ATOM      6  C   UNL     1     138.273 137.784 136.314  1.00  0.00    -0.077 C 
ATOM      7  C   UNL     1     139.653 138.066 136.858  1.00  0.00     0.039 C 
ATOM      8  C   UNL     1     137.292 137.512 137.208  1.00  0.00    -0.027 CG0
ATOM      9  G   UNL     1     135.836 137.247 136.877  1.00  0.00     0.000 G0
ENDBRANCH   5   6
ENDBRANCH   4   5
ENDBRANCH   3   4
ENDBRANCH   1   3
BRANCH   1  10
ATOM     10  C   UNL     1     134.874 140.755 136.075  1.00  0.00     0.057 C 
BRANCH  10  11
ATOM     11  C   UNL     1     133.716 139.816 136.290  1.00  0.00    -0.026 C 
ATOM     12  C   UNL     1     133.690 138.679 137.024  1.00  0.00    -0.024 C 
BRANCH  12  13
ATOM     13  C   UNL     1     134.824 137.999 137.809  1.00  0.00    -0.014 C 
ATOM     14  C   UNL     1     134.179 136.982 138.787  1.00  0.00     0.016 C 
ATOM     15  C   UNL     1     135.577 139.024 138.689  1.00  0.00     0.016 C 
BRANCH  13  16
ATOM     16  C   UNL     1     135.823 137.237 136.879  1.00  0.00     0.038 CG0
ATOM     17  G   UNL     1     137.276 137.521 137.207  1.00  0.00     0.000 G0
ENDBRANCH  13  16
ENDBRANCH  12  13
ENDBRANCH  10  11
ENDBRANCH   1  10
TORSDOF 0
ENDMDL
MODEL 6
REMARK VINA RESULT:    -3.114      3.985      5.819
REMARK INTER + INTRA:          -3.920
REMARK INTER:                  -4.408
REMARK INTRA:                   0.488
REMARK UNBOUND:                 0.651
REMARK SMILES C=C1CC=CC(C)(C)CC=C(C)CCC1
REMARK SMILES IDX 2 1 1 2 15 3 14 4 13 5 11 6 12 7 10 8 3 10 4 11 5 12 6 13
REMARK SMILES IDX 7 14 8 15 9 16
REMARK H PARENT
REMARK Flexibility Score: 60.00
ROOT
ATOM      1  C   UNL     1     134.273 139.825 135.831  1.00  0.00    -0.074 C 
ATOM      2  C   UNL     1     134.798 140.525 136.850  1.00  0.00     0.008 C 
ENDROOT
BRANCH   1   3
ATOM      3  C   UNL     1     134.851 139.964 134.437  1.00  0.00     0.031 C 
BRANCH   3   4
ATOM      4  C   UNL     1     136.375 139.691 134.433  1.00  0.00     0.009 C 
BRANCH   4   5
ATOM      5  C   UNL     1     136.806 138.220 134.213  1.00  0.00     0.030 C 
BRANCH   5   6
ATOM      6  C   UNL     1     136.722 137.307 135.429  1.00  0.00    -0.077 C 
ATOM      7  C   UNL     1     137.587 137.620 136.627  1.00  0.00     0.039 C 
ATOM      8  C   UNL     1     135.913 136.223 135.509  1.00  0.00    -0.027 CG0
ATOM      9  G   UNL     1     134.938 135.761 134.442  1.00  0.00     0.000 G0
ENDBRANCH   5   6
ENDBRANCH   4   5
ENDBRANCH   3   4
ENDBRANCH   1   3
BRANCH   1  10
ATOM     10  C   UNL     1     133.152 138.835 136.079  1.00  0.00     0.057 C 
BRANCH  10  11
ATOM     11  C   UNL     1     132.614 138.300 134.777  1.00  0.00    -0.026 C 
ATOM     12  C   UNL     1     132.719 137.044 134.286  1.00  0.00    -0.024 C 
BRANCH  12  13
ATOM     13  C   UNL     1     133.440 135.822 134.879  1.00  0.00    -0.014 C 
ATOM     14  C   UNL     1     132.706 134.550 134.378  1.00  0.00     0.016 C 
ATOM     15  C   UNL     1     133.321 135.807 136.422  1.00  0.00     0.016 C 
BRANCH  13  16
ATOM     16  C   UNL     1     134.939 135.741 134.445  1.00  0.00     0.038 CG0
ATOM     17  G   UNL     1     135.897 136.219 135.518  1.00  0.00     0.000 G0
ENDBRANCH  13  16
ENDBRANCH  12  13
ENDBRANCH  10  11
ENDBRANCH   1  10
TORSDOF 0
ENDMDL
MODEL 7
REMARK VINA RESULT:    -3.109      1.391      4.011
REMARK INTER + INTRA:          -3.912
REMARK INTER:                  -4.637
REMARK INTRA:                   0.725
REMARK UNBOUND:                 0.651
REMARK SMILES C=C1CC=CC(C)(C)CC=C(C)CCC1
REMARK SMILES IDX 2 1 1 2 15 3 14 4 13 5 11 6 12 7 10 8 3 10 4 11 5 12 6 13
REMARK SMILES IDX 7 14 8 15 9 16
REMARK H PARENT
REMARK Flexibility Score: 60.00
ROOT
ATOM      1  C   UNL     1     137.142 132.229 134.937  1.00  0.00    -0.074 C 
ATOM      2  C   UNL     1     137.901 132.666 133.920  1.00  0.00     0.008 C 
ENDROOT
BRANCH   1   3
ATOM      3  C   UNL     1     137.718 132.156 136.337  1.00  0.00     0.031 C 
BRANCH   3   4
ATOM      4  C   UNL     1     138.886 133.157 136.514  1.00  0.00     0.009 C 
BRANCH   4   5
ATOM      5  C   UNL     1     138.530 134.515 137.168  1.00  0.00     0.030 C 
BRANCH   5   6
ATOM      6  C   UNL     1     137.760 135.498 136.297  1.00  0.00    -0.077 C 
ATOM      7  C   UNL     1     138.538 136.517 135.500  1.00  0.00     0.039 C 
ATOM      8  C   UNL     1     136.410 135.517 136.189  1.00  0.00    -0.027 CG0
ATOM      9  G   UNL     1     135.449 134.558 136.865  1.00  0.00     0.000 G0
ENDBRANCH   5   6
ENDBRANCH   4   5
ENDBRANCH   3   4
ENDBRANCH   1   3
BRANCH   1  10
ATOM     10  C   UNL     1     135.685 131.877 134.711  1.00  0.00     0.057 C 
BRANCH  10  11
ATOM     11  C   UNL     1     134.960 133.013 134.037  1.00  0.00    -0.026 C 
ATOM     12  C   UNL     1     134.315 134.052 134.618  1.00  0.00    -0.024 C 
BRANCH  12  13
ATOM     13  C   UNL     1     134.100 134.353 136.111  1.00  0.00    -0.014 C 
ATOM     14  C   UNL     1     133.348 133.147 136.734  1.00  0.00     0.016 C 
ATOM     15  C   UNL     1     133.175 135.580 136.298  1.00  0.00     0.016 C 
BRANCH  13  16
ATOM     16  C   UNL     1     135.444 134.558 136.881  1.00  0.00     0.038 CG0
ATOM     17  G   UNL     1     136.394 135.509 136.178  1.00  0.00     0.000 G0
ENDBRANCH  13  16
ENDBRANCH  12  13
ENDBRANCH  10  11
ENDBRANCH   1  10
TORSDOF 0
ENDMDL
MODEL 8
REMARK VINA RESULT:    -3.096      3.158      4.769
REMARK INTER + INTRA:          -3.893
REMARK INTER:                  -4.394
REMARK INTRA:                   0.500
REMARK UNBOUND:                 0.651
REMARK SMILES C=C1CC=CC(C)(C)CC=C(C)CCC1
REMARK SMILES IDX 2 1 1 2 15 3 14 4 13 5 11 6 12 7 10 8 3 10 4 11 5 12 6 13
REMARK SMILES IDX 7 14 8 15 9 16
REMARK H PARENT
REMARK Flexibility Score: 60.00
ROOT
ATOM      1  C   UNL     1     138.510 133.186 136.096  1.00  0.00    -0.074 C 
ATOM      2  C   UNL     1     137.512 132.287 136.103  1.00  0.00     0.008 C 
ENDROOT
BRANCH   1   3
ATOM      3  C   UNL     1     139.429 133.310 137.295  1.00  0.00     0.031 C 
BRANCH   3   4
ATOM      4  C   UNL     1     138.758 134.118 138.432  1.00  0.00     0.009 C 
BRANCH   4   5
ATOM      5  C   UNL     1     137.887 135.321 137.995  1.00  0.00     0.030 C 
BRANCH   5   6
ATOM      6  C   UNL     1     138.544 136.693 138.079  1.00  0.00    -0.077 C 
ATOM      7  C   UNL     1     139.102 137.144 139.407  1.00  0.00     0.039 C 
ATOM      8  C   UNL     1     138.663 137.541 137.030  1.00  0.00    -0.027 CG0
ATOM      9  G   UNL     1     138.212 137.266 135.608  1.00  0.00     0.000 G0
ENDBRANCH   5   6
ENDBRANCH   4   5
ENDBRANCH   3   4
ENDBRANCH   1   3
BRANCH   1  10
ATOM     10  C   UNL     1     138.772 134.031 134.865  1.00  0.00     0.057 C 
BRANCH  10  11
ATOM     11  C   UNL     1     140.107 134.722 134.965  1.00  0.00    -0.026 C 
ATOM     12  C   UNL     1     140.370 136.046 134.864  1.00  0.00    -0.024 C 
BRANCH  12  13
ATOM     13  C   UNL     1     139.408 137.212 134.582  1.00  0.00    -0.014 C 
ATOM     14  C   UNL     1     138.830 137.014 133.155  1.00  0.00     0.016 C 
ATOM     15  C   UNL     1     140.168 138.559 134.555  1.00  0.00     0.016 C 
BRANCH  13  16
ATOM     16  C   UNL     1     138.224 137.271 135.599  1.00  0.00     0.038 CG0
ATOM     17  G   UNL     1     138.674 137.533 137.024  1.00  0.00     0.000 G0
ENDBRANCH  13  16
ENDBRANCH  12  13
ENDBRANCH  10  11
ENDBRANCH   1  10
TORSDOF 0
ENDMDL
MODEL 9
REMARK VINA RESULT:    -3.022      5.045      6.501
REMARK INTER + INTRA:          -3.785
REMARK INTER:                  -4.270
REMARK INTRA:                   0.485
REMARK UNBOUND:                 0.651
REMARK SMILES C=C1CC=CC(C)(C)CC=C(C)CCC1
REMARK SMILES IDX 2 1 1 2 15 3 14 4 13 5 11 6 12 7 10 8 3 10 4 11 5 12 6 13
REMARK SMILES IDX 7 14 8 15 9 16
REMARK H PARENT
REMARK Flexibility Score: 60.00
ROOT
ATOM      1  C   UNL     1     135.354 138.865 138.212  1.00  0.00    -0.074 C 
ATOM      2  C   UNL     1     134.942 139.443 139.352  1.00  0.00     0.008 C 
ENDROOT
BRANCH   1   3
ATOM      3  C   UNL     1     134.340 138.299 137.239  1.00  0.00     0.031 C 
BRANCH   3   4
ATOM      4  C   UNL     1     133.564 139.428 136.518  1.00  0.00     0.009 C 
BRANCH   4   5
ATOM      5  C   UNL     1     134.277 140.085 135.310  1.00  0.00     0.030 C 
BRANCH   5   6
ATOM      6  C   UNL     1     134.754 139.138 134.216  1.00  0.00    -0.077 C 
ATOM      7  C   UNL     1     133.732 138.284 133.506  1.00  0.00     0.039 C 
ATOM      8  C   UNL     1     136.048 139.013 133.835  1.00  0.00    -0.027 CG0
ATOM      9  G   UNL     1     137.219 139.804 134.385  1.00  0.00     0.000 G0
ENDBRANCH   5   6
ENDBRANCH   4   5
ENDBRANCH   3   4
ENDBRANCH   1   3
BRANCH   1  10
ATOM     10  C   UNL     1     136.827 138.842 137.853  1.00  0.00     0.057 C 
BRANCH  10  11
ATOM     11  C   UNL     1     137.139 137.674 136.954  1.00  0.00    -0.026 C 
ATOM     12  C   UNL     1     137.786 137.687 135.765  1.00  0.00    -0.024 C 
BRANCH  12  13
ATOM     13  C   UNL     1     138.348 138.880 134.974  1.00  0.00    -0.014 C 
ATOM     14  C   UNL     1     139.202 138.315 133.808  1.00  0.00     0.016 C 
ATOM     15  C   UNL     1     139.313 139.716 135.848  1.00  0.00     0.016 C 
BRANCH  13  16
ATOM     16  C   UNL     1     137.224 139.787 134.379  1.00  0.00     0.038 CG0
ATOM     17  G   UNL     1     136.044 139.000 133.842  1.00  0.00     0.000 G0
ENDBRANCH  13  16
ENDBRANCH  12  13
ENDBRANCH  10  11
ENDBRANCH   1  10
TORSDOF 0
ENDMDL
