MODEL 1
REMARK VINA RESULT:    -5.302      0.000      0.000
REMARK INTER + INTRA:          -5.979
REMARK INTER:                  -5.922
REMARK INTRA:                  -0.057
REMARK UNBOUND:                -0.057
REMARK SMILES COc1cc2ccc(=O)oc2c(O)c1O
REMARK SMILES IDX 3 1 14 2 12 3 11 4 5 5 4 6 6 7 7 8 8 9 9 10 10 11 2 12 1 13
REMARK SMILES IDX 15 14 13 16
REMARK H PARENT 15 15 13 17
REMARK Flexibility Score: inf
ROOT
ATOM      1  C   UNL     1     -33.963  11.085 -36.913  1.00  0.00     0.165 A 
ATOM      2  C   UNL     1     -32.907  10.150 -36.929  1.00  0.00     0.204 A 
ATOM      3  C   UNL     1     -32.253   9.799 -35.733  1.00  0.00     0.205 A 
ATOM      4  C   UNL     1     -32.650  10.379 -34.522  1.00  0.00     0.184 A 
ATOM      5  C   UNL     1     -33.705  11.314 -34.502  1.00  0.00     0.025 A 
ATOM      6  C   UNL     1     -34.356  11.665 -35.691  1.00  0.00     0.062 A 
ATOM      7  C   UNL     1     -34.076  11.875 -33.275  1.00  0.00     0.020 A 
ATOM      8  C   UNL     1     -33.400  11.497 -32.117  1.00  0.00     0.094 A 
ATOM      9  C   UNL     1     -32.363  10.563 -32.211  1.00  0.00     0.336 A 
ATOM     10  O   UNL     1     -31.740  10.208 -31.177  1.00  0.00    -0.246 OA
ATOM     11  O   UNL     1     -32.030  10.046 -33.391  1.00  0.00    -0.419 OA
ENDROOT
BRANCH   1  12
ATOM     12  O   UNL     1     -34.593  11.412 -38.125  1.00  0.00    -0.493 OA
ATOM     13  C   UNL     1     -35.741  10.752 -38.644  1.00  0.00     0.278 C 
ENDBRANCH   1  12
BRANCH   2  14
ATOM     14  O   UNL     1     -32.500   9.563 -38.127  1.00  0.00    -0.502 OA
ATOM     15  H   UNL     1     -32.858   9.859 -39.027  1.00  0.00     0.293 HD
ENDBRANCH   2  14
BRANCH   3  16
ATOM     16  O   UNL     1     -31.209   8.875 -35.734  1.00  0.00    -0.502 OA
ATOM     17  H   UNL     1     -30.609   8.735 -34.929  1.00  0.00     0.293 HD
ENDBRANCH   3  16
TORSDOF 3
ENDMDL
MODEL 2
REMARK VINA RESULT:    -5.076      1.464      2.652
REMARK INTER + INTRA:          -5.727
REMARK INTER:                  -5.660
REMARK INTRA:                  -0.067
REMARK UNBOUND:                -0.057
REMARK SMILES COc1cc2ccc(=O)oc2c(O)c1O
REMARK SMILES IDX 3 1 14 2 12 3 11 4 5 5 4 6 6 7 7 8 8 9 9 10 10 11 2 12 1 13
REMARK SMILES IDX 15 14 13 16
REMARK H PARENT 15 15 13 17
REMARK Flexibility Score: inf
ROOT
ATOM      1  C   UNL     1     -33.245   9.580 -36.781  1.00  0.00     0.165 A 
ATOM      2  C   UNL     1     -33.814  10.869 -36.721  1.00  0.00     0.204 A 
ATOM      3  C   UNL     1     -33.824  11.584 -35.510  1.00  0.00     0.205 A 
ATOM      4  C   UNL     1     -33.268  11.016 -34.357  1.00  0.00     0.184 A 
ATOM      5  C   UNL     1     -32.698   9.727 -34.412  1.00  0.00     0.025 A 
ATOM      6  C   UNL     1     -32.689   9.015 -35.618  1.00  0.00     0.062 A 
ATOM      7  C   UNL     1     -32.151   9.189 -33.243  1.00  0.00     0.020 A 
ATOM      8  C   UNL     1     -32.184   9.934 -32.065  1.00  0.00     0.094 A 
ATOM      9  C   UNL     1     -32.765  11.206 -32.084  1.00  0.00     0.336 A 
ATOM     10  O   UNL     1     -32.804  11.896 -31.032  1.00  0.00    -0.246 OA
ATOM     11  O   UNL     1     -33.278  11.694 -33.211  1.00  0.00    -0.419 OA
ENDROOT
BRANCH   1  12
ATOM     12  O   UNL     1     -33.253   8.894 -38.007  1.00  0.00    -0.493 OA
ATOM     13  C   UNL     1     -32.170   8.875 -38.930  1.00  0.00     0.278 C 
ENDBRANCH   1  12
BRANCH   2  14
ATOM     14  O   UNL     1     -34.372  11.449 -37.861  1.00  0.00    -0.502 OA
ATOM     15  H   UNL     1     -33.806  11.838 -38.606  1.00  0.00     0.293 HD
ENDBRANCH   2  14
BRANCH   3  16
ATOM     16  O   UNL     1     -34.382  12.860 -35.437  1.00  0.00    -0.502 OA
ATOM     17  H   UNL     1     -34.389  13.399 -34.579  1.00  0.00     0.293 HD
ENDBRANCH   3  16
TORSDOF 3
ENDMDL
MODEL 3
REMARK VINA RESULT:    -4.447      1.833      5.626
REMARK INTER + INTRA:          -5.024
REMARK INTER:                  -4.974
REMARK INTRA:                  -0.049
REMARK UNBOUND:                -0.057
REMARK SMILES COc1cc2ccc(=O)oc2c(O)c1O
REMARK SMILES IDX 3 1 14 2 12 3 11 4 5 5 4 6 6 7 7 8 8 9 9 10 10 11 2 12 1 13
REMARK SMILES IDX 15 14 13 16
REMARK H PARENT 15 15 13 17
REMARK Flexibility Score: inf
ROOT
ATOM      1  C   UNL     1     -32.617   9.990 -35.452  1.00  0.00     0.165 A 
ATOM      2  C   UNL     1     -33.155  11.289 -35.353  1.00  0.00     0.204 A 
ATOM      3  C   UNL     1     -34.030  11.771 -36.343  1.00  0.00     0.205 A 
ATOM      4  C   UNL     1     -34.369  10.960 -37.433  1.00  0.00     0.184 A 
ATOM      5  C   UNL     1     -33.832   9.660 -37.536  1.00  0.00     0.025 A 
ATOM      6  C   UNL     1     -32.961   9.180 -36.551  1.00  0.00     0.062 A 
ATOM      7  C   UNL     1     -34.192   8.876 -38.638  1.00  0.00     0.020 A 
ATOM      8  C   UNL     1     -35.061   9.396 -39.595  1.00  0.00     0.094 A 
ATOM      9  C   UNL     1     -35.555  10.693 -39.428  1.00  0.00     0.336 A 
ATOM     10  O   UNL     1     -36.342  11.182 -40.280  1.00  0.00    -0.246 OA
ATOM     11  O   UNL     1     -35.197  11.418 -38.371  1.00  0.00    -0.419 OA
ENDROOT
BRANCH   1  12
ATOM     12  O   UNL     1     -31.746   9.540 -34.446  1.00  0.00    -0.493 OA
ATOM     13  C   UNL     1     -32.158   8.875 -33.257  1.00  0.00     0.278 C 
ENDBRANCH   1  12
BRANCH   2  14
ATOM     14  O   UNL     1     -32.828  12.110 -34.273  1.00  0.00    -0.502 OA
ATOM     15  H   UNL     1     -31.947  12.033 -33.779  1.00  0.00     0.293 HD
ENDBRANCH   2  14
BRANCH   3  16
ATOM     16  O   UNL     1     -34.571  13.054 -36.258  1.00  0.00    -0.502 OA
ATOM     17  H   UNL     1     -35.267  13.303 -35.565  1.00  0.00     0.293 HD
ENDBRANCH   3  16
TORSDOF 3
ENDMDL
MODEL 4
REMARK VINA RESULT:    -4.034      1.478      5.086
REMARK INTER + INTRA:          -4.562
REMARK INTER:                  -4.511
REMARK INTRA:                  -0.052
REMARK UNBOUND:                -0.057
REMARK SMILES COc1cc2ccc(=O)oc2c(O)c1O
REMARK SMILES IDX 3 1 14 2 12 3 11 4 5 5 4 6 6 7 7 8 8 9 9 10 10 11 2 12 1 13
REMARK SMILES IDX 15 14 13 16
REMARK H PARENT 15 15 13 17
REMARK Flexibility Score: inf
ROOT
ATOM      1  C   UNL     1     -33.359  11.320 -35.264  1.00  0.00     0.165 A 
ATOM      2  C   UNL     1     -32.407  10.415 -35.775  1.00  0.00     0.204 A 
ATOM      3  C   UNL     1     -32.628   9.774 -37.008  1.00  0.00     0.205 A 
ATOM      4  C   UNL     1     -33.797  10.034 -37.732  1.00  0.00     0.184 A 
ATOM      5  C   UNL     1     -34.753  10.938 -37.224  1.00  0.00     0.025 A 
ATOM      6  C   UNL     1     -34.533  11.576 -35.998  1.00  0.00     0.062 A 
ATOM      7  C   UNL     1     -35.911  11.176 -37.973  1.00  0.00     0.020 A 
ATOM      8  C   UNL     1     -36.087  10.517 -39.189  1.00  0.00     0.094 A 
ATOM      9  C   UNL     1     -35.098   9.633 -39.631  1.00  0.00     0.336 A 
ATOM     10  O   UNL     1     -35.237   9.029 -40.726  1.00  0.00    -0.246 OA
ATOM     11  O   UNL     1     -34.006   9.426 -38.898  1.00  0.00    -0.419 OA
ENDROOT
BRANCH   1  12
ATOM     12  O   UNL     1     -33.106  11.942 -34.031  1.00  0.00    -0.493 OA
ATOM     13  C   UNL     1     -33.492  11.416 -32.766  1.00  0.00     0.278 C 
ENDBRANCH   1  12
BRANCH   2  14
ATOM     14  O   UNL     1     -31.235  10.144 -35.066  1.00  0.00    -0.502 OA
ATOM     15  H   UNL     1     -30.544  10.857 -34.868  1.00  0.00     0.293 HD
ENDBRANCH   2  14
BRANCH   3  16
ATOM     16  O   UNL     1     -31.694   8.876 -37.525  1.00  0.00    -0.502 OA
ATOM     17  H   UNL     1     -31.189   9.056 -38.385  1.00  0.00     0.293 HD
ENDBRANCH   3  16
TORSDOF 3
ENDMDL
MODEL 5
REMARK VINA RESULT:    -3.724     18.581     19.778
REMARK INTER + INTRA:          -4.217
REMARK INTER:                  -4.148
REMARK INTRA:                  -0.068
REMARK UNBOUND:                -0.057
REMARK SMILES COc1cc2ccc(=O)oc2c(O)c1O
REMARK SMILES IDX 3 1 14 2 12 3 11 4 5 5 4 6 6 7 7 8 8 9 9 10 10 11 2 12 1 13
REMARK SMILES IDX 15 14 13 16
REMARK H PARENT 15 15 13 17
REMARK Flexibility Score: inf
ROOT
ATOM      1  C   UNL     1     -23.643  25.668 -30.794  1.00  0.00     0.165 A 
ATOM      2  C   UNL     1     -23.151  26.972 -30.587  1.00  0.00     0.204 A 
ATOM      3  C   UNL     1     -22.933  27.830 -31.681  1.00  0.00     0.205 A 
ATOM      4  C   UNL     1     -23.205  27.388 -32.982  1.00  0.00     0.184 A 
ATOM      5  C   UNL     1     -23.697  26.083 -33.193  1.00  0.00     0.025 A 
ATOM      6  C   UNL     1     -23.913  25.229 -32.104  1.00  0.00     0.062 A 
ATOM      7  C   UNL     1     -23.958  25.673 -34.505  1.00  0.00     0.020 A 
ATOM      8  C   UNL     1     -23.726  26.556 -35.557  1.00  0.00     0.094 A 
ATOM      9  C   UNL     1     -23.238  27.835 -35.274  1.00  0.00     0.336 A 
ATOM     10  O   UNL     1     -23.022  28.648 -36.210  1.00  0.00    -0.246 OA
ATOM     11  O   UNL     1     -22.997  28.199 -34.017  1.00  0.00    -0.419 OA
ENDROOT
BRANCH   1  12
ATOM     12  O   UNL     1     -23.848  24.839 -29.679  1.00  0.00    -0.493 OA
ATOM     13  C   UNL     1     -22.922  23.863 -29.214  1.00  0.00     0.278 C 
ENDBRANCH   1  12
BRANCH   2  14
ATOM     14  O   UNL     1     -22.875  27.429 -29.297  1.00  0.00    -0.502 OA
ATOM     15  H   UNL     1     -22.262  28.216 -29.119  1.00  0.00     0.293 HD
ENDBRANCH   2  14
BRANCH   3  16
ATOM     16  O   UNL     1     -22.447  29.123 -31.492  1.00  0.00    -0.502 OA
ATOM     17  H   UNL     1     -21.957  29.630 -32.220  1.00  0.00     0.293 HD
ENDBRANCH   3  16
TORSDOF 3
ENDMDL
MODEL 6
REMARK VINA RESULT:    -3.546     18.021     19.106
REMARK INTER + INTRA:          -4.018
REMARK INTER:                  -3.949
REMARK INTRA:                  -0.069
REMARK UNBOUND:                -0.057
REMARK SMILES COc1cc2ccc(=O)oc2c(O)c1O
REMARK SMILES IDX 3 1 14 2 12 3 11 4 5 5 4 6 6 7 7 8 8 9 9 10 10 11 2 12 1 13
REMARK SMILES IDX 15 14 13 16
REMARK H PARENT 15 15 13 17
REMARK Flexibility Score: inf
ROOT
ATOM      1  C   UNL     1     -24.585  24.990 -31.418  1.00  0.00     0.165 A 
ATOM      2  C   UNL     1     -23.629  24.281 -30.664  1.00  0.00     0.204 A 
ATOM      3  C   UNL     1     -22.703  24.972 -29.861  1.00  0.00     0.205 A 
ATOM      4  C   UNL     1     -22.730  26.371 -29.809  1.00  0.00     0.184 A 
ATOM      5  C   UNL     1     -23.684  27.085 -30.563  1.00  0.00     0.025 A 
ATOM      6  C   UNL     1     -24.604  26.397 -31.363  1.00  0.00     0.062 A 
ATOM      7  C   UNL     1     -23.683  28.482 -30.489  1.00  0.00     0.020 A 
ATOM      8  C   UNL     1     -22.746  29.125 -29.681  1.00  0.00     0.094 A 
ATOM      9  C   UNL     1     -21.830  28.352 -28.961  1.00  0.00     0.336 A 
ATOM     10  O   UNL     1     -20.977  28.913 -28.224  1.00  0.00    -0.246 OA
ATOM     11  O   UNL     1     -21.853  27.025 -29.050  1.00  0.00    -0.419 OA
ENDROOT
BRANCH   1  12
ATOM     12  O   UNL     1     -25.493  24.268 -32.210  1.00  0.00    -0.493 OA
ATOM     13  C   UNL     1     -26.829  23.957 -31.829  1.00  0.00     0.278 C 
ENDBRANCH   1  12
BRANCH   2  14
ATOM     14  O   UNL     1     -23.589  22.886 -30.704  1.00  0.00    -0.502 OA
ATOM     15  H   UNL     1     -23.950  22.311 -29.952  1.00  0.00     0.293 HD
ENDBRANCH   2  14
BRANCH   3  16
ATOM     16  O   UNL     1     -21.753  24.283 -29.108  1.00  0.00    -0.502 OA
ATOM     17  H   UNL     1     -21.896  24.056 -28.131  1.00  0.00     0.293 HD
ENDBRANCH   3  16
TORSDOF 3
ENDMDL
