MODEL 1
REMARK VINA RESULT:    -4.595      0.000      0.000
REMARK INTER + INTRA:          -6.314
REMARK INTER:                  -6.206
REMARK INTRA:                  -0.107
REMARK UNBOUND:                -0.107
REMARK SMILES CCCCCCCC(=O)[O-]
REMARK SMILES IDX 5 1 6 2 7 3 8 4 9 5 10 6 4 7 3 8 2 9 1 10
REMARK H PARENT
REMARK Flexibility Score: inf
ROOT
ATOM      1  C   UNL     1      18.312  21.524  70.644  1.00  0.00     0.000 C 
ENDROOT
BRANCH   1   2
ATOM      2  C   UNL     1      17.026  20.684  70.660  1.00  0.00     0.006 C 
BRANCH   2   3
ATOM      3  C   UNL     1      17.267  19.224  70.254  1.00  0.00     0.053 C 
BRANCH   3   4
ATOM      4  C   UNL     1      16.269  18.326  70.914  1.00  0.00     0.041 C 
ATOM      5  O   UNL     1      15.049  18.638  70.928  1.00  0.00    -0.550 OA
ATOM      6  O   UNL     1      16.678  17.122  71.472  1.00  0.00    -0.550 OA
ENDBRANCH   3   4
ENDBRANCH   2   3
ENDBRANCH   1   2
BRANCH   1   7
ATOM      7  C   UNL     1      18.145  22.875  71.355  1.00  0.00     0.000 C 
BRANCH   7   8
ATOM      8  C   UNL     1      18.367  24.038  70.380  1.00  0.00    -0.000 C 
BRANCH   8   9
ATOM      9  C   UNL     1      17.800  25.345  70.945  1.00  0.00    -0.003 C 
ATOM     10  C   UNL     1      18.850  26.453  70.935  1.00  0.00     0.004 C 
ENDBRANCH   8   9
ENDBRANCH   7   8
ENDBRANCH   1   7
TORSDOF 6
ENDMDL
MODEL 2
REMARK VINA RESULT:    -4.401     11.404     12.800
REMARK INTER + INTRA:          -6.052
REMARK INTER:                  -5.658
REMARK INTRA:                  -0.394
REMARK UNBOUND:                -0.107
REMARK SMILES CCCCCCCC(=O)[O-]
REMARK SMILES IDX 5 1 6 2 7 3 8 4 9 5 10 6 4 7 3 8 2 9 1 10
REMARK H PARENT
REMARK Flexibility Score: inf
ROOT
ATOM      1  C   UNL     1      16.083  16.481  60.487  1.00  0.00     0.000 C 
ENDROOT
BRANCH   1   2
ATOM      2  C   UNL     1      16.132  15.190  59.655  1.00  0.00     0.006 C 
BRANCH   2   3
ATOM      3  C   UNL     1      16.394  15.455  58.167  1.00  0.00     0.053 C 
BRANCH   3   4
ATOM      4  C   UNL     1      17.850  15.301  57.857  1.00  0.00     0.041 C 
ATOM      5  O   UNL     1      18.508  16.277  57.408  1.00  0.00    -0.550 OA
ATOM      6  O   UNL     1      18.492  14.096  58.110  1.00  0.00    -0.550 OA
ENDBRANCH   3   4
ENDBRANCH   2   3
ENDBRANCH   1   2
BRANCH   1   7
ATOM      7  C   UNL     1      17.045  16.449  61.684  1.00  0.00     0.000 C 
BRANCH   7   8
ATOM      8  C   UNL     1      18.381  15.805  61.296  1.00  0.00    -0.000 C 
BRANCH   8   9
ATOM      9  C   UNL     1      19.447  16.873  61.023  1.00  0.00    -0.003 C 
ATOM     10  C   UNL     1      20.108  17.337  62.318  1.00  0.00     0.004 C 
ENDBRANCH   8   9
ENDBRANCH   7   8
ENDBRANCH   1   7
TORSDOF 6
ENDMDL
MODEL 3
REMARK VINA RESULT:    -4.382     16.962     17.849
REMARK INTER + INTRA:          -6.026
REMARK INTER:                  -5.724
REMARK INTRA:                  -0.303
REMARK UNBOUND:                -0.107
REMARK SMILES CCCCCCCC(=O)[O-]
REMARK SMILES IDX 5 1 6 2 7 3 8 4 9 5 10 6 4 7 3 8 2 9 1 10
REMARK H PARENT
REMARK Flexibility Score: inf
ROOT
ATOM      1  C   UNL     1      10.261  29.384  57.046  1.00  0.00     0.000 C 
ENDROOT
BRANCH   1   2
ATOM      2  C   UNL     1      10.931  29.479  55.667  1.00  0.00     0.006 C 
BRANCH   2   3
ATOM      3  C   UNL     1      10.906  28.148  54.904  1.00  0.00     0.053 C 
BRANCH   3   4
ATOM      4  C   UNL     1      11.525  28.309  53.551  1.00  0.00     0.041 C 
ATOM      5  O   UNL     1      11.597  29.449  53.020  1.00  0.00    -0.550 OA
ATOM      6  O   UNL     1      12.067  27.210  52.898  1.00  0.00    -0.550 OA
ENDBRANCH   3   4
ENDBRANCH   2   3
ENDBRANCH   1   2
BRANCH   1   7
ATOM      7  C   UNL     1      10.668  28.118  57.816  1.00  0.00     0.000 C 
BRANCH   7   8
ATOM      8  C   UNL     1      10.997  28.447  59.277  1.00  0.00    -0.000 C 
BRANCH   8   9
ATOM      9  C   UNL     1      11.379  29.923  59.435  1.00  0.00    -0.003 C 
ATOM     10  C   UNL     1      12.894  30.100  59.477  1.00  0.00     0.004 C 
ENDBRANCH   8   9
ENDBRANCH   7   8
ENDBRANCH   1   7
TORSDOF 6
ENDMDL
MODEL 4
REMARK VINA RESULT:    -4.343     17.003     17.957
REMARK INTER + INTRA:          -5.974
REMARK INTER:                  -5.671
REMARK INTRA:                  -0.303
REMARK UNBOUND:                -0.107
REMARK SMILES CCCCCCCC(=O)[O-]
REMARK SMILES IDX 5 1 6 2 7 3 8 4 9 5 10 6 4 7 3 8 2 9 1 10
REMARK H PARENT
REMARK Flexibility Score: inf
ROOT
ATOM      1  C   UNL     1      10.221  29.489  57.146  1.00  0.00     0.000 C 
ENDROOT
BRANCH   1   2
ATOM      2  C   UNL     1      10.905  29.575  55.773  1.00  0.00     0.006 C 
BRANCH   2   3
ATOM      3  C   UNL     1      10.833  28.257  54.992  1.00  0.00     0.053 C 
BRANCH   3   4
ATOM      4  C   UNL     1      11.319  28.452  53.590  1.00  0.00     0.041 C 
ATOM      5  O   UNL     1      11.089  29.532  52.986  1.00  0.00    -0.550 OA
ATOM      6  O   UNL     1      12.069  27.462  52.969  1.00  0.00    -0.550 OA
ENDBRANCH   3   4
ENDBRANCH   2   3
ENDBRANCH   1   2
BRANCH   1   7
ATOM      7  C   UNL     1      11.216  29.235  58.288  1.00  0.00     0.000 C 
BRANCH   7   8
ATOM      8  C   UNL     1      10.693  28.154  59.241  1.00  0.00    -0.000 C 
BRANCH   8   9
ATOM      9  C   UNL     1      10.499  26.822  58.508  1.00  0.00    -0.003 C 
ATOM     10  C   UNL     1      11.026  25.654  59.338  1.00  0.00     0.004 C 
ENDBRANCH   8   9
ENDBRANCH   7   8
ENDBRANCH   1   7
TORSDOF 6
ENDMDL
MODEL 5
REMARK VINA RESULT:    -4.337     10.645     12.520
REMARK INTER + INTRA:          -5.965
REMARK INTER:                  -5.446
REMARK INTRA:                  -0.519
REMARK UNBOUND:                -0.107
REMARK SMILES CCCCCCCC(=O)[O-]
REMARK SMILES IDX 5 1 6 2 7 3 8 4 9 5 10 6 4 7 3 8 2 9 1 10
REMARK H PARENT
REMARK Flexibility Score: inf
ROOT
ATOM      1  C   UNL     1      17.918  17.125  59.347  1.00  0.00     0.000 C 
ENDROOT
BRANCH   1   2
ATOM      2  C   UNL     1      18.819  16.073  60.013  1.00  0.00     0.006 C 
BRANCH   2   3
ATOM      3  C   UNL     1      18.795  16.158  61.544  1.00  0.00     0.053 C 
BRANCH   3   4
ATOM      4  C   UNL     1      19.662  17.283  62.018  1.00  0.00     0.041 C 
ATOM      5  O   UNL     1      19.170  18.210  62.714  1.00  0.00    -0.550 OA
ATOM      6  O   UNL     1      21.021  17.283  61.731  1.00  0.00    -0.550 OA
ENDBRANCH   3   4
ENDBRANCH   2   3
ENDBRANCH   1   2
BRANCH   1   7
ATOM      7  C   UNL     1      16.428  16.757  59.416  1.00  0.00     0.000 C 
BRANCH   7   8
ATOM      8  C   UNL     1      16.134  15.505  58.582  1.00  0.00    -0.000 C 
BRANCH   8   9
ATOM      9  C   UNL     1      15.507  14.404  59.446  1.00  0.00    -0.003 C 
ATOM     10  C   UNL     1      15.270  14.890  60.873  1.00  0.00     0.004 C 
ENDBRANCH   8   9
ENDBRANCH   7   8
ENDBRANCH   1   7
TORSDOF 6
ENDMDL
MODEL 6
REMARK VINA RESULT:    -4.320     10.229     11.707
REMARK INTER + INTRA:          -5.943
REMARK INTER:                  -5.507
REMARK INTRA:                  -0.436
REMARK UNBOUND:                -0.107
REMARK SMILES CCCCCCCC(=O)[O-]
REMARK SMILES IDX 5 1 6 2 7 3 8 4 9 5 10 6 4 7 3 8 2 9 1 10
REMARK H PARENT
REMARK Flexibility Score: inf
ROOT
ATOM      1  C   UNL     1      16.645  15.585  58.722  1.00  0.00     0.000 C 
ENDROOT
BRANCH   1   2
ATOM      2  C   UNL     1      15.693  15.310  59.897  1.00  0.00     0.006 C 
BRANCH   2   3
ATOM      3  C   UNL     1      15.270  16.590  60.628  1.00  0.00     0.053 C 
BRANCH   3   4
ATOM      4  C   UNL     1      15.682  16.531  62.066  1.00  0.00     0.041 C 
ATOM      5  O   UNL     1      15.768  15.421  62.654  1.00  0.00    -0.550 OA
ATOM      6  O   UNL     1      16.018  17.697  62.742  1.00  0.00    -0.550 OA
ENDBRANCH   3   4
ENDBRANCH   2   3
ENDBRANCH   1   2
BRANCH   1   7
ATOM      7  C   UNL     1      17.663  16.692  59.033  1.00  0.00     0.000 C 
BRANCH   7   8
ATOM      8  C   UNL     1      18.801  16.158  59.911  1.00  0.00    -0.000 C 
BRANCH   8   9
ATOM      9  C   UNL     1      19.484  17.297  60.678  1.00  0.00    -0.003 C 
ATOM     10  C   UNL     1      19.570  16.985  62.169  1.00  0.00     0.004 C 
ENDBRANCH   8   9
ENDBRANCH   7   8
ENDBRANCH   1   7
TORSDOF 6
ENDMDL
MODEL 7
REMARK VINA RESULT:    -4.308      9.954     10.963
REMARK INTER + INTRA:          -5.927
REMARK INTER:                  -5.523
REMARK INTRA:                  -0.404
REMARK UNBOUND:                -0.107
REMARK SMILES CCCCCCCC(=O)[O-]
REMARK SMILES IDX 5 1 6 2 7 3 8 4 9 5 10 6 4 7 3 8 2 9 1 10
REMARK H PARENT
REMARK Flexibility Score: inf
ROOT
ATOM      1  C   UNL     1      13.075  15.288  64.636  1.00  0.00     0.000 C 
ENDROOT
BRANCH   1   2
ATOM      2  C   UNL     1      13.899  13.991  64.626  1.00  0.00     0.006 C 
BRANCH   2   3
ATOM      3  C   UNL     1      13.442  13.008  63.540  1.00  0.00     0.053 C 
BRANCH   3   4
ATOM      4  C   UNL     1      14.290  11.775  63.562  1.00  0.00     0.041 C 
ATOM      5  O   UNL     1      15.399  11.758  62.966  1.00  0.00    -0.550 OA
ATOM      6  O   UNL     1      13.878  10.660  64.282  1.00  0.00    -0.550 OA
ENDBRANCH   3   4
ENDBRANCH   2   3
ENDBRANCH   1   2
BRANCH   1   7
ATOM      7  C   UNL     1      13.266  16.119  63.358  1.00  0.00     0.000 C 
BRANCH   7   8
ATOM      8  C   UNL     1      14.323  17.210  63.567  1.00  0.00    -0.000 C 
BRANCH   8   9
ATOM      9  C   UNL     1      15.540  16.977  62.664  1.00  0.00    -0.003 C 
ATOM     10  C   UNL     1      15.196  16.050  61.502  1.00  0.00     0.004 C 
ENDBRANCH   8   9
ENDBRANCH   7   8
ENDBRANCH   1   7
TORSDOF 6
ENDMDL
MODEL 8
REMARK VINA RESULT:    -4.286     11.218     12.577
REMARK INTER + INTRA:          -5.896
REMARK INTER:                  -5.600
REMARK INTRA:                  -0.296
REMARK UNBOUND:                -0.107
REMARK SMILES CCCCCCCC(=O)[O-]
REMARK SMILES IDX 5 1 6 2 7 3 8 4 9 5 10 6 4 7 3 8 2 9 1 10
REMARK H PARENT
REMARK Flexibility Score: inf
ROOT
ATOM      1  C   UNL     1      16.253  16.720  59.724  1.00  0.00     0.000 C 
ENDROOT
BRANCH   1   2
ATOM      2  C   UNL     1      15.688  15.498  58.983  1.00  0.00     0.006 C 
BRANCH   2   3
ATOM      3  C   UNL     1      15.575  14.261  59.883  1.00  0.00     0.053 C 
BRANCH   3   4
ATOM      4  C   UNL     1      16.812  13.425  59.779  1.00  0.00     0.041 C 
ATOM      5  O   UNL     1      17.488  13.424  58.717  1.00  0.00    -0.550 OA
ATOM      6  O   UNL     1      17.245  12.685  60.871  1.00  0.00    -0.550 OA
ENDBRANCH   3   4
ENDBRANCH   2   3
ENDBRANCH   1   2
BRANCH   1   7
ATOM      7  C   UNL     1      17.686  17.063  59.290  1.00  0.00     0.000 C 
BRANCH   7   8
ATOM      8  C   UNL     1      18.713  16.384  60.204  1.00  0.00    -0.000 C 
BRANCH   8   9
ATOM      9  C   UNL     1      19.689  17.408  60.793  1.00  0.00    -0.003 C 
ATOM     10  C   UNL     1      19.849  17.217  62.298  1.00  0.00     0.004 C 
ENDBRANCH   8   9
ENDBRANCH   7   8
ENDBRANCH   1   7
TORSDOF 6
ENDMDL
MODEL 9
REMARK VINA RESULT:    -4.097     10.592     12.321
REMARK INTER + INTRA:          -5.642
REMARK INTER:                  -5.360
REMARK INTRA:                  -0.282
REMARK UNBOUND:                -0.107
REMARK SMILES CCCCCCCC(=O)[O-]
REMARK SMILES IDX 5 1 6 2 7 3 8 4 9 5 10 6 4 7 3 8 2 9 1 10
REMARK H PARENT
REMARK Flexibility Score: inf
ROOT
ATOM      1  C   UNL     1      15.436  15.580  61.247  1.00  0.00     0.000 C 
ENDROOT
BRANCH   1   2
ATOM      2  C   UNL     1      15.649  15.893  59.757  1.00  0.00     0.006 C 
BRANCH   2   3
ATOM      3  C   UNL     1      16.848  16.819  59.514  1.00  0.00     0.053 C 
BRANCH   3   4
ATOM      4  C   UNL     1      17.953  16.074  58.832  1.00  0.00     0.041 C 
ATOM      5  O   UNL     1      18.750  15.370  59.506  1.00  0.00    -0.550 OA
ATOM      6  O   UNL     1      18.072  16.119  57.449  1.00  0.00    -0.550 OA
ENDBRANCH   3   4
ENDBRANCH   2   3
ENDBRANCH   1   2
BRANCH   1   7
ATOM      7  C   UNL     1      15.482  16.838  62.128  1.00  0.00     0.000 C 
BRANCH   7   8
ATOM      8  C   UNL     1      14.711  16.619  63.435  1.00  0.00    -0.000 C 
BRANCH   8   9
ATOM      9  C   UNL     1      14.181  15.184  63.527  1.00  0.00    -0.003 C 
ATOM     10  C   UNL     1      14.307  14.638  64.947  1.00  0.00     0.004 C 
ENDBRANCH   8   9
ENDBRANCH   7   8
ENDBRANCH   1   7
TORSDOF 6
ENDMDL
