MODEL 1
REMARK VINA RESULT:    -5.987      0.000      0.000
REMARK INTER + INTRA:          -6.427
REMARK INTER:                  -6.337
REMARK INTRA:                  -0.090
REMARK UNBOUND:                -0.090
REMARK SMILES C=C(C)[C@H]1CC=C(C)C(=O)C1
REMARK SMILES IDX 8 1 7 2 6 3 5 4 4 5 11 6 9 7 10 8 2 9 1 10 3 11
REMARK H PARENT
REMARK Flexibility Score: inf
ROOT
ATOM      1  C   UNL     1     -28.296  21.384  16.745  1.00  0.00     0.048 C 
ATOM      2  C   UNL     1     -28.261  22.137  15.444  1.00  0.00    -0.012 C 
ATOM      3  C   UNL     1     -27.144  22.782  15.066  1.00  0.00    -0.019 C 
ATOM      4  C   UNL     1     -27.086  23.615  13.813  1.00  0.00     0.036 C 
ATOM      5  C   UNL     1     -28.039  23.065  12.734  1.00  0.00     0.025 C 
ATOM      6  C   UNL     1     -29.470  22.951  13.294  1.00  0.00     0.089 C 
ATOM      7  C   UNL     1     -29.474  22.186  14.590  1.00  0.00     0.158 C 
ATOM      8  O   UNL     1     -30.535  21.622  14.967  1.00  0.00    -0.295 OA
ENDROOT
BRANCH   5   9
ATOM      9  C   UNL     1     -27.999  23.907  11.466  1.00  0.00    -0.077 C 
ATOM     10  C   UNL     1     -27.904  23.338  10.251  1.00  0.00     0.008 C 
ATOM     11  C   UNL     1     -28.064  25.410  11.555  1.00  0.00     0.039 C 
ENDBRANCH   5   9
TORSDOF 1
ENDMDL
MODEL 2
REMARK VINA RESULT:    -5.966     15.733     17.274
REMARK INTER + INTRA:          -6.405
REMARK INTER:                  -6.312
REMARK INTRA:                  -0.093
REMARK UNBOUND:                -0.090
REMARK SMILES C=C(C)[C@H]1CC=C(C)C(=O)C1
REMARK SMILES IDX 8 1 7 2 6 3 5 4 4 5 11 6 9 7 10 8 2 9 1 10 3 11
REMARK H PARENT
REMARK Flexibility Score: inf
ROOT
ATOM      1  C   UNL     1     -18.126  38.252  16.750  1.00  0.00     0.048 C 
ATOM      2  C   UNL     1     -18.213  37.433  15.492  1.00  0.00    -0.012 C 
ATOM      3  C   UNL     1     -19.334  36.748  15.208  1.00  0.00    -0.019 C 
ATOM      4  C   UNL     1     -19.440  35.852  14.003  1.00  0.00     0.036 C 
ATOM      5  C   UNL     1     -18.557  36.364  12.848  1.00  0.00     0.025 C 
ATOM      6  C   UNL     1     -17.101  36.535  13.324  1.00  0.00     0.089 C 
ATOM      7  C   UNL     1     -17.046  37.364  14.578  1.00  0.00     0.158 C 
ATOM      8  O   UNL     1     -15.979  37.968  14.868  1.00  0.00    -0.295 OA
ENDROOT
BRANCH   5   9
ATOM      9  C   UNL     1     -18.646  35.459  11.628  1.00  0.00    -0.077 C 
ATOM     10  C   UNL     1     -18.513  34.125  11.734  1.00  0.00     0.008 C 
ATOM     11  C   UNL     1     -18.888  36.052  10.263  1.00  0.00     0.039 C 
ENDBRANCH   5   9
TORSDOF 1
ENDMDL
MODEL 3
REMARK VINA RESULT:    -5.908     16.397     18.158
REMARK INTER + INTRA:          -6.343
REMARK INTER:                  -6.248
REMARK INTRA:                  -0.095
REMARK UNBOUND:                -0.090
REMARK SMILES C=C(C)[C@H]1CC=C(C)C(=O)C1
REMARK SMILES IDX 8 1 7 2 6 3 5 4 4 5 11 6 9 7 10 8 2 9 1 10 3 11
REMARK H PARENT
REMARK Flexibility Score: inf
ROOT
ATOM      1  C   UNL     1     -18.904  35.088  11.225  1.00  0.00     0.048 C 
ATOM      2  C   UNL     1     -18.618  36.004  12.382  1.00  0.00    -0.012 C 
ATOM      3  C   UNL     1     -19.275  35.850  13.545  1.00  0.00    -0.019 C 
ATOM      4  C   UNL     1     -19.082  36.791  14.704  1.00  0.00     0.036 C 
ATOM      5  C   UNL     1     -17.655  37.374  14.716  1.00  0.00     0.025 C 
ATOM      6  C   UNL     1     -17.339  38.040  13.363  1.00  0.00     0.089 C 
ATOM      7  C   UNL     1     -17.626  37.097  12.226  1.00  0.00     0.158 C 
ATOM      8  O   UNL     1     -17.046  37.272  11.122  1.00  0.00    -0.295 OA
ENDROOT
BRANCH   5   9
ATOM      9  C   UNL     1     -17.452  38.338  15.877  1.00  0.00    -0.077 C 
ATOM     10  C   UNL     1     -18.117  38.189  17.036  1.00  0.00     0.008 C 
ATOM     11  C   UNL     1     -16.487  39.489  15.743  1.00  0.00     0.039 C 
ENDBRANCH   5   9
TORSDOF 1
ENDMDL
MODEL 4
REMARK VINA RESULT:    -5.810      1.634      4.451
REMARK INTER + INTRA:          -6.239
REMARK INTER:                  -6.144
REMARK INTRA:                  -0.095
REMARK UNBOUND:                -0.090
REMARK SMILES C=C(C)[C@H]1CC=C(C)C(=O)C1
REMARK SMILES IDX 8 1 7 2 6 3 5 4 4 5 11 6 9 7 10 8 2 9 1 10 3 11
REMARK H PARENT
REMARK Flexibility Score: inf
ROOT
ATOM      1  C   UNL     1     -27.874  24.355  11.203  1.00  0.00     0.048 C 
ATOM      2  C   UNL     1     -28.130  23.440  12.368  1.00  0.00    -0.012 C 
ATOM      3  C   UNL     1     -27.474  23.622  13.527  1.00  0.00    -0.019 C 
ATOM      4  C   UNL     1     -27.637  22.686  14.694  1.00  0.00     0.036 C 
ATOM      5  C   UNL     1     -29.047  22.063  14.716  1.00  0.00     0.025 C 
ATOM      6  C   UNL     1     -29.349  21.377  13.370  1.00  0.00     0.089 C 
ATOM      7  C   UNL     1     -29.092  22.319  12.225  1.00  0.00     0.158 C 
ATOM      8  O   UNL     1     -29.671  22.119  11.124  1.00  0.00    -0.295 OA
ENDROOT
BRANCH   5   9
ATOM      9  C   UNL     1     -29.220  21.103  15.886  1.00  0.00    -0.077 C 
ATOM     10  C   UNL     1     -28.586  21.303  17.055  1.00  0.00     0.008 C 
ATOM     11  C   UNL     1     -30.116  19.900  15.749  1.00  0.00     0.039 C 
ENDBRANCH   5   9
TORSDOF 1
ENDMDL
MODEL 5
REMARK VINA RESULT:    -5.779      1.530      2.354
REMARK INTER + INTRA:          -6.207
REMARK INTER:                  -6.119
REMARK INTRA:                  -0.088
REMARK UNBOUND:                -0.090
REMARK SMILES C=C(C)[C@H]1CC=C(C)C(=O)C1
REMARK SMILES IDX 8 1 7 2 6 3 5 4 4 5 11 6 9 7 10 8 2 9 1 10 3 11
REMARK H PARENT
REMARK Flexibility Score: inf
ROOT
ATOM      1  C   UNL     1     -28.256  21.737  16.759  1.00  0.00     0.048 C 
ATOM      2  C   UNL     1     -28.281  22.277  15.356  1.00  0.00    -0.012 C 
ATOM      3  C   UNL     1     -29.340  22.047  14.562  1.00  0.00    -0.019 C 
ATOM      4  C   UNL     1     -29.376  22.497  13.126  1.00  0.00     0.036 C 
ATOM      5  C   UNL     1     -28.547  23.781  12.923  1.00  0.00     0.025 C 
ATOM      6  C   UNL     1     -27.109  23.574  13.436  1.00  0.00     0.089 C 
ATOM      7  C   UNL     1     -27.117  23.042  14.843  1.00  0.00     0.158 C 
ATOM      8  O   UNL     1     -26.104  23.217  15.572  1.00  0.00    -0.295 OA
ENDROOT
BRANCH   5   9
ATOM      9  C   UNL     1     -28.566  24.240  11.472  1.00  0.00    -0.077 C 
ATOM     10  C   UNL     1     -29.086  25.428  11.120  1.00  0.00     0.008 C 
ATOM     11  C   UNL     1     -27.994  23.356  10.393  1.00  0.00     0.039 C 
ENDBRANCH   5   9
TORSDOF 1
ENDMDL
MODEL 6
REMARK VINA RESULT:    -5.753      1.568      2.293
REMARK INTER + INTRA:          -6.179
REMARK INTER:                  -6.086
REMARK INTRA:                  -0.093
REMARK UNBOUND:                -0.090
REMARK SMILES C=C(C)[C@H]1CC=C(C)C(=O)C1
REMARK SMILES IDX 8 1 7 2 6 3 5 4 4 5 11 6 9 7 10 8 2 9 1 10 3 11
REMARK H PARENT
REMARK Flexibility Score: inf
ROOT
ATOM      1  C   UNL     1     -30.404  20.021  16.390  1.00  0.00     0.048 C 
ATOM      2  C   UNL     1     -29.712  20.943  15.424  1.00  0.00    -0.012 C 
ATOM      3  C   UNL     1     -30.091  20.979  14.135  1.00  0.00    -0.019 C 
ATOM      4  C   UNL     1     -29.377  21.825  13.115  1.00  0.00     0.036 C 
ATOM      5  C   UNL     1     -28.780  23.090  13.760  1.00  0.00     0.025 C 
ATOM      6  C   UNL     1     -27.869  22.708  14.943  1.00  0.00     0.089 C 
ATOM      7  C   UNL     1     -28.591  21.794  15.896  1.00  0.00     0.158 C 
ATOM      8  O   UNL     1     -28.205  21.725  17.093  1.00  0.00    -0.295 OA
ENDROOT
BRANCH   5   9
ATOM      9  C   UNL     1     -28.044  23.948  12.740  1.00  0.00    -0.077 C 
ATOM     10  C   UNL     1     -27.030  23.453  12.010  1.00  0.00     0.008 C 
ATOM     11  C   UNL     1     -28.446  25.386  12.532  1.00  0.00     0.039 C 
ENDBRANCH   5   9
TORSDOF 1
ENDMDL
MODEL 7
REMARK VINA RESULT:    -5.745     15.753     16.728
REMARK INTER + INTRA:          -6.171
REMARK INTER:                  -6.083
REMARK INTRA:                  -0.088
REMARK UNBOUND:                -0.090
REMARK SMILES C=C(C)[C@H]1CC=C(C)C(=O)C1
REMARK SMILES IDX 8 1 7 2 6 3 5 4 4 5 11 6 9 7 10 8 2 9 1 10 3 11
REMARK H PARENT
REMARK Flexibility Score: inf
ROOT
ATOM      1  C   UNL     1     -18.390  37.804  16.719  1.00  0.00     0.048 C 
ATOM      2  C   UNL     1     -18.405  37.273  15.313  1.00  0.00    -0.012 C 
ATOM      3  C   UNL     1     -17.396  37.558  14.471  1.00  0.00    -0.019 C 
ATOM      4  C   UNL     1     -17.405  37.117  13.032  1.00  0.00     0.036 C 
ATOM      5  C   UNL     1     -18.178  35.794  12.860  1.00  0.00     0.025 C 
ATOM      6  C   UNL     1     -19.599  35.926  13.440  1.00  0.00     0.089 C 
ATOM      7  C   UNL     1     -19.551  36.452  14.850  1.00  0.00     0.158 C 
ATOM      8  O   UNL     1     -20.519  36.223  15.623  1.00  0.00    -0.295 OA
ENDROOT
BRANCH   5   9
ATOM      9  C   UNL     1     -18.205  35.343  11.406  1.00  0.00    -0.077 C 
ATOM     10  C   UNL     1     -17.659  34.175  11.025  1.00  0.00     0.008 C 
ATOM     11  C   UNL     1     -18.851  36.212  10.358  1.00  0.00     0.039 C 
ENDBRANCH   5   9
TORSDOF 1
ENDMDL
MODEL 8
REMARK VINA RESULT:    -5.734     16.422     17.955
REMARK INTER + INTRA:          -6.158
REMARK INTER:                  -6.062
REMARK INTRA:                  -0.096
REMARK UNBOUND:                -0.090
REMARK SMILES C=C(C)[C@H]1CC=C(C)C(=O)C1
REMARK SMILES IDX 8 1 7 2 6 3 5 4 4 5 11 6 9 7 10 8 2 9 1 10 3 11
REMARK H PARENT
REMARK Flexibility Score: inf
ROOT
ATOM      1  C   UNL     1     -20.732  36.007  15.269  1.00  0.00     0.048 C 
ATOM      2  C   UNL     1     -19.416  36.397  14.655  1.00  0.00    -0.012 C 
ATOM      3  C   UNL     1     -19.114  36.013  13.403  1.00  0.00    -0.019 C 
ATOM      4  C   UNL     1     -17.778  36.310  12.776  1.00  0.00     0.036 C 
ATOM      5  C   UNL     1     -17.184  37.621  13.325  1.00  0.00     0.025 C 
ATOM      6  C   UNL     1     -17.108  37.570  14.863  1.00  0.00     0.089 C 
ATOM      7  C   UNL     1     -18.441  37.186  15.448  1.00  0.00     0.158 C 
ATOM      8  O   UNL     1     -18.704  37.506  16.638  1.00  0.00    -0.295 OA
ENDROOT
BRANCH   5   9
ATOM      9  C   UNL     1     -15.826  37.926  12.707  1.00  0.00    -0.077 C 
ATOM     10  C   UNL     1     -15.212  37.046  11.896  1.00  0.00     0.008 C 
ATOM     11  C   UNL     1     -15.140  39.236  12.998  1.00  0.00     0.039 C 
ENDBRANCH   5   9
TORSDOF 1
ENDMDL
MODEL 9
REMARK VINA RESULT:    -5.682     16.401     17.972
REMARK INTER + INTRA:          -6.104
REMARK INTER:                  -6.011
REMARK INTRA:                  -0.093
REMARK UNBOUND:                -0.090
REMARK SMILES C=C(C)[C@H]1CC=C(C)C(=O)C1
REMARK SMILES IDX 8 1 7 2 6 3 5 4 4 5 11 6 9 7 10 8 2 9 1 10 3 11
REMARK H PARENT
REMARK Flexibility Score: inf
ROOT
ATOM      1  C   UNL     1     -16.375  39.624  16.352  1.00  0.00     0.048 C 
ATOM      2  C   UNL     1     -17.002  38.654  15.389  1.00  0.00    -0.012 C 
ATOM      3  C   UNL     1     -16.637  38.655  14.095  1.00  0.00    -0.019 C 
ATOM      4  C   UNL     1     -17.294  37.759  13.079  1.00  0.00     0.036 C 
ATOM      5  C   UNL     1     -17.779  36.447  13.724  1.00  0.00     0.025 C 
ATOM      6  C   UNL     1     -18.703  36.748  14.920  1.00  0.00     0.089 C 
ATOM      7  C   UNL     1     -18.045  37.714  15.868  1.00  0.00     0.158 C 
ATOM      8  O   UNL     1     -18.421  37.745  17.071  1.00  0.00    -0.295 OA
ENDROOT
BRANCH   5   9
ATOM      9  C   UNL     1     -18.456  35.537  12.708  1.00  0.00    -0.077 C 
ATOM     10  C   UNL     1     -19.482  35.970  11.954  1.00  0.00     0.008 C 
ATOM     11  C   UNL     1     -17.981  34.118  12.529  1.00  0.00     0.039 C 
ENDBRANCH   5   9
TORSDOF 1
ENDMDL
