MODEL 1
REMARK VINA RESULT:    -6.732      0.000      0.000
REMARK INTER + INTRA:         -11.336
REMARK INTER:                  -9.880
REMARK INTRA:                  -1.456
REMARK UNBOUND:                -1.456
REMARK SMILES O=c1c(O[C@H]2O[C@H](CO)[C@@H](O)[C@H](O)[C@H]2O)c(-c2ccc(O)c(O)c2)oc2cc(O)cc(O)c12
REMARK SMILES IDX 4 1 3 2 16 3 25 4 2 5 26 6 1 7 33 8 27 9 31 10 28 11 30 12
REMARK SMILES IDX 17 13 18 14 19 15 20 16 24 17 22 18 21 19 23 21 32 23 29 25
REMARK SMILES IDX 5 27 14 28 6 29 12 30 7 31 10 32 15 33 13 35 8 37 9 38 11 40
REMARK H PARENT 21 20 23 22 32 24 29 26 15 34 13 36 9 39 11 41
REMARK Flexibility Score: inf
ROOT
ATOM      1  O   UNL     1      28.281  10.998  25.524  1.00  0.00    -0.454 OA
ENDROOT
BRANCH   1   2
ATOM      2  C   UNL     1      28.795  10.580  26.758  1.00  0.00     0.214 A 
ATOM      3  C   UNL     1      29.103  11.494  27.785  1.00  0.00     0.180 A 
ATOM      4  O   UNL     1      29.629  11.053  28.921  1.00  0.00    -0.452 OA
ATOM      5  C   UNL     1      29.007   9.215  26.979  1.00  0.00     0.239 A 
ATOM      6  C   UNL     1      29.875   9.770  29.164  1.00  0.00     0.146 A 
ATOM      7  O   UNL     1      28.650   8.404  26.085  1.00  0.00    -0.285 OA
ATOM      8  C   UNL     1      29.595   8.776  28.191  1.00  0.00     0.111 A 
ATOM      9  C   UNL     1      30.401   9.419  30.410  1.00  0.00     0.094 A 
ATOM     10  C   UNL     1      29.902   7.415  28.501  1.00  0.00     0.134 A 
ATOM     11  C   UNL     1      30.653   8.086  30.720  1.00  0.00     0.123 A 
ATOM     12  C   UNL     1      30.397   7.091  29.770  1.00  0.00     0.093 A 
BRANCH   3  13
ATOM     13  C   UNL     1      28.844  12.945  27.660  1.00  0.00     0.025 A 
ATOM     14  C   UNL     1      27.636  13.474  28.133  1.00  0.00     0.016 A 
ATOM     15  C   UNL     1      27.375  14.841  28.026  1.00  0.00     0.051 A 
ATOM     16  C   UNL     1      28.305  15.701  27.432  1.00  0.00     0.157 A 
ATOM     17  C   UNL     1      29.774  13.801  27.046  1.00  0.00     0.062 A 
ATOM     18  C   UNL     1      29.519  15.174  26.932  1.00  0.00     0.158 A 
BRANCH  16  19
ATOM     19  O   UNL     1      27.984  17.059  27.360  1.00  0.00    -0.504 OA
ATOM     20  H   UNL     1      27.040  17.417  27.357  1.00  0.00     0.293 HD
ENDBRANCH  16  19
BRANCH  18  21
ATOM     21  O   UNL     1      30.490  15.968  26.319  1.00  0.00    -0.504 OA
ATOM     22  H   UNL     1      30.490  16.977  26.342  1.00  0.00     0.293 HD
ENDBRANCH  18  21
ENDBRANCH   3  13
BRANCH  10  23
ATOM     23  O   UNL     1      29.764   6.354  27.599  1.00  0.00    -0.507 OA
ATOM     24  H   UNL     1      28.988   5.714  27.572  1.00  0.00     0.293 HD
ENDBRANCH  10  23
BRANCH  11  25
ATOM     25  O   UNL     1      31.166   7.757  31.973  1.00  0.00    -0.508 OA
ATOM     26  H   UNL     1      32.021   8.173  32.322  1.00  0.00     0.293 HD
ENDBRANCH  11  25
ENDBRANCH   1   2
BRANCH   1  27
ATOM     27  C   UNL     1      29.115  11.299  24.403  1.00  0.00     0.339 C 
ATOM     28  C   UNL     1      28.796  10.325  23.232  1.00  0.00     0.214 C 
ATOM     29  O   UNL     1      30.472  11.240  24.830  1.00  0.00    -0.332 OA
ATOM     30  C   UNL     1      29.928   9.302  23.048  1.00  0.00     0.180 C 
ATOM     31  C   UNL     1      31.403  11.280  23.758  1.00  0.00     0.179 C 
ATOM     32  C   UNL     1      31.251  10.053  22.805  1.00  0.00     0.177 C 
BRANCH  28  33
ATOM     33  O   UNL     1      27.548   9.694  23.401  1.00  0.00    -0.384 OA
ATOM     34  H   UNL     1      27.717   8.749  23.660  1.00  0.00     0.211 HD
ENDBRANCH  28  33
BRANCH  30  35
ATOM     35  O   UNL     1      29.660   8.465  21.950  1.00  0.00    -0.387 OA
ATOM     36  H   UNL     1      30.308   8.708  21.238  1.00  0.00     0.211 HD
ENDBRANCH  30  35
BRANCH  31  37
ATOM     37  C   UNL     1      31.389  12.631  23.008  1.00  0.00     0.191 C 
BRANCH  37  38
ATOM     38  O   UNL     1      32.689  12.999  22.631  1.00  0.00    -0.394 OA
ATOM     39  H   UNL     1      33.144  13.326  23.448  1.00  0.00     0.210 HD
ENDBRANCH  37  38
ENDBRANCH  31  37
BRANCH  32  40
ATOM     40  O   UNL     1      32.338   9.171  22.939  1.00  0.00    -0.387 OA
ATOM     41  H   UNL     1      32.012   8.256  22.725  1.00  0.00     0.211 HD
ENDBRANCH  32  40
ENDBRANCH   1  27
TORSDOF 12
ENDMDL
MODEL 2
REMARK VINA RESULT:    -6.616      1.462      1.868
REMARK INTER + INTRA:         -11.167
REMARK INTER:                  -9.757
REMARK INTRA:                  -1.410
REMARK UNBOUND:                -1.456
REMARK SMILES O=c1c(O[C@H]2O[C@H](CO)[C@@H](O)[C@H](O)[C@H]2O)c(-c2ccc(O)c(O)c2)oc2cc(O)cc(O)c12
REMARK SMILES IDX 4 1 3 2 16 3 25 4 2 5 26 6 1 7 33 8 27 9 31 10 28 11 30 12
REMARK SMILES IDX 17 13 18 14 19 15 20 16 24 17 22 18 21 19 23 21 32 23 29 25
REMARK SMILES IDX 5 27 14 28 6 29 12 30 7 31 10 32 15 33 13 35 8 37 9 38 11 40
REMARK H PARENT 21 20 23 22 32 24 29 26 15 34 13 36 9 39 11 41
REMARK Flexibility Score: inf
ROOT
ATOM      1  O   UNL     1      27.950  10.036  25.627  1.00  0.00    -0.454 OA
ENDROOT
BRANCH   1   2
ATOM      2  C   UNL     1      28.581   9.579  26.791  1.00  0.00     0.214 A 
ATOM      3  C   UNL     1      28.523  10.297  28.001  1.00  0.00     0.180 A 
ATOM      4  O   UNL     1      29.173   9.844  29.066  1.00  0.00    -0.452 OA
ATOM      5  C   UNL     1      29.288   8.372  26.751  1.00  0.00     0.239 A 
ATOM      6  C   UNL     1      29.881   8.719  29.067  1.00  0.00     0.146 A 
ATOM      7  O   UNL     1      29.262   7.701  25.687  1.00  0.00    -0.285 OA
ATOM      8  C   UNL     1      29.995   7.928  27.895  1.00  0.00     0.111 A 
ATOM      9  C   UNL     1      30.498   8.324  30.257  1.00  0.00     0.094 A 
ATOM     10  C   UNL     1      30.788   6.740  27.951  1.00  0.00     0.134 A 
ATOM     11  C   UNL     1      31.229   7.141  30.314  1.00  0.00     0.123 A 
ATOM     12  C   UNL     1      31.366   6.353  29.167  1.00  0.00     0.093 A 
BRANCH   3  13
ATOM     13  C   UNL     1      27.740  11.544  28.148  1.00  0.00     0.025 A 
ATOM     14  C   UNL     1      26.340  11.480  28.187  1.00  0.00     0.016 A 
ATOM     15  C   UNL     1      25.585  12.644  28.327  1.00  0.00     0.051 A 
ATOM     16  C   UNL     1      26.210  13.894  28.414  1.00  0.00     0.157 A 
ATOM     17  C   UNL     1      28.371  12.797  28.216  1.00  0.00     0.062 A 
ATOM     18  C   UNL     1      27.621  13.972  28.355  1.00  0.00     0.158 A 
BRANCH  16  19
ATOM     19  O   UNL     1      25.396  15.021  28.557  1.00  0.00    -0.504 OA
ATOM     20  H   UNL     1      24.771  15.171  29.336  1.00  0.00     0.293 HD
ENDBRANCH  16  19
BRANCH  18  21
ATOM     21  O   UNL     1      28.313  15.182  28.427  1.00  0.00    -0.504 OA
ATOM     22  H   UNL     1      28.420  15.721  29.273  1.00  0.00     0.293 HD
ENDBRANCH  18  21
ENDBRANCH   3  13
BRANCH  10  23
ATOM     23  O   UNL     1      31.059   5.924  26.847  1.00  0.00    -0.507 OA
ATOM     24  H   UNL     1      31.242   6.254  25.913  1.00  0.00     0.293 HD
ENDBRANCH  10  23
BRANCH  11  25
ATOM     25  O   UNL     1      31.826   6.760  31.514  1.00  0.00    -0.508 OA
ATOM     26  H   UNL     1      31.525   5.933  32.017  1.00  0.00     0.293 HD
ENDBRANCH  11  25
ENDBRANCH   1   2
BRANCH   1  27
ATOM     27  C   UNL     1      28.554  10.984  24.744  1.00  0.00     0.339 C 
ATOM     28  C   UNL     1      28.919  10.294  23.398  1.00  0.00     0.214 C 
ATOM     29  O   UNL     1      29.677  11.556  25.406  1.00  0.00    -0.332 OA
ATOM     30  C   UNL     1      30.439  10.102  23.277  1.00  0.00     0.180 C 
ATOM     31  C   UNL     1      30.503  12.331  24.550  1.00  0.00     0.179 C 
ATOM     32  C   UNL     1      31.131  11.472  23.407  1.00  0.00     0.177 C 
BRANCH  28  33
ATOM     33  O   UNL     1      28.227   9.079  23.228  1.00  0.00    -0.384 OA
ATOM     34  H   UNL     1      27.298   9.208  23.555  1.00  0.00     0.211 HD
ENDBRANCH  28  33
BRANCH  30  35
ATOM     35  O   UNL     1      30.764   9.533  22.033  1.00  0.00    -0.387 OA
ATOM     36  H   UNL     1      30.065   8.859  21.832  1.00  0.00     0.211 HD
ENDBRANCH  30  35
BRANCH  31  37
ATOM     37  C   UNL     1      29.793  13.601  24.027  1.00  0.00     0.191 C 
BRANCH  37  38
ATOM     38  O   UNL     1      29.894  14.642  24.961  1.00  0.00    -0.394 OA
ATOM     39  H   UNL     1      29.291  14.413  25.714  1.00  0.00     0.210 HD
ENDBRANCH  37  38
ENDBRANCH  31  37
BRANCH  32  40
ATOM     40  O   UNL     1      32.512  11.296  23.608  1.00  0.00    -0.387 OA
ATOM     41  H   UNL     1      32.870  10.799  22.826  1.00  0.00     0.211 HD
ENDBRANCH  32  40
ENDBRANCH   1  27
TORSDOF 12
ENDMDL
MODEL 3
REMARK VINA RESULT:    -6.373      2.140      2.873
REMARK INTER + INTRA:         -10.809
REMARK INTER:                  -9.416
REMARK INTRA:                  -1.393
REMARK UNBOUND:                -1.456
REMARK SMILES O=c1c(O[C@H]2O[C@H](CO)[C@@H](O)[C@H](O)[C@H]2O)c(-c2ccc(O)c(O)c2)oc2cc(O)cc(O)c12
REMARK SMILES IDX 4 1 3 2 16 3 25 4 2 5 26 6 1 7 33 8 27 9 31 10 28 11 30 12
REMARK SMILES IDX 17 13 18 14 19 15 20 16 24 17 22 18 21 19 23 21 32 23 29 25
REMARK SMILES IDX 5 27 14 28 6 29 12 30 7 31 10 32 15 33 13 35 8 37 9 38 11 40
REMARK H PARENT 21 20 23 22 32 24 29 26 15 34 13 36 9 39 11 41
REMARK Flexibility Score: inf
ROOT
ATOM      1  O   UNL     1      27.914  10.185  26.597  1.00  0.00    -0.454 OA
ENDROOT
BRANCH   1   2
ATOM      2  C   UNL     1      28.349  10.375  27.915  1.00  0.00     0.214 A 
ATOM      3  C   UNL     1      27.924  11.472  28.689  1.00  0.00     0.180 A 
ATOM      4  O   UNL     1      28.398  11.631  29.918  1.00  0.00    -0.452 OA
ATOM      5  C   UNL     1      29.229   9.446  28.480  1.00  0.00     0.239 A 
ATOM      6  C   UNL     1      29.257  10.792  30.486  1.00  0.00     0.146 A 
ATOM      7  O   UNL     1      29.534   8.427  27.807  1.00  0.00    -0.285 OA
ATOM      8  C   UNL     1      29.740   9.656  29.785  1.00  0.00     0.111 A 
ATOM      9  C   UNL     1      29.663  11.044  31.799  1.00  0.00     0.094 A 
ATOM     10  C   UNL     1      30.680   8.801  30.439  1.00  0.00     0.134 A 
ATOM     11  C   UNL     1      30.543  10.179  32.444  1.00  0.00     0.123 A 
ATOM     12  C   UNL     1      31.041   9.061  31.767  1.00  0.00     0.093 A 
BRANCH   3  13
ATOM     13  C   UNL     1      26.942  12.461  28.193  1.00  0.00     0.025 A 
ATOM     14  C   UNL     1      27.388  13.710  27.741  1.00  0.00     0.016 A 
ATOM     15  C   UNL     1      26.477  14.655  27.267  1.00  0.00     0.051 A 
ATOM     16  C   UNL     1      25.105  14.378  27.251  1.00  0.00     0.157 A 
ATOM     17  C   UNL     1      25.565  12.185  28.196  1.00  0.00     0.062 A 
ATOM     18  C   UNL     1      24.642  13.128  27.725  1.00  0.00     0.158 A 
BRANCH  16  19
ATOM     19  O   UNL     1      24.247  15.366  26.760  1.00  0.00    -0.504 OA
ATOM     20  H   UNL     1      23.245  15.358  26.887  1.00  0.00     0.293 HD
ENDBRANCH  16  19
BRANCH  18  21
ATOM     21  O   UNL     1      23.289  12.784  27.747  1.00  0.00    -0.504 OA
ATOM     22  H   UNL     1      22.932  11.887  27.457  1.00  0.00     0.293 HD
ENDBRANCH  18  21
ENDBRANCH   3  13
BRANCH  10  23
ATOM     23  O   UNL     1      31.302   7.707  29.829  1.00  0.00    -0.507 OA
ATOM     24  H   UNL     1      31.499   6.827  30.278  1.00  0.00     0.293 HD
ENDBRANCH  10  23
BRANCH  11  25
ATOM     25  O   UNL     1      30.926  10.442  33.758  1.00  0.00    -0.508 OA
ATOM     26  H   UNL     1      31.545   9.821  34.264  1.00  0.00     0.293 HD
ENDBRANCH  11  25
ENDBRANCH   1   2
BRANCH   1  27
ATOM     27  C   UNL     1      28.568  10.783  25.475  1.00  0.00     0.339 C 
ATOM     28  C   UNL     1      29.341   9.697  24.674  1.00  0.00     0.214 C 
ATOM     29  O   UNL     1      29.404  11.831  25.955  1.00  0.00    -0.332 OA
ATOM     30  C   UNL     1      30.857   9.839  24.883  1.00  0.00     0.180 C 
ATOM     31  C   UNL     1      30.289  12.343  24.970  1.00  0.00     0.179 C 
ATOM     32  C   UNL     1      31.291  11.257  24.464  1.00  0.00     0.177 C 
BRANCH  28  33
ATOM     33  O   UNL     1      28.895   8.399  24.987  1.00  0.00    -0.384 OA
ATOM     34  H   UNL     1      27.935   8.337  24.737  1.00  0.00     0.211 HD
ENDBRANCH  28  33
BRANCH  30  35
ATOM     35  O   UNL     1      31.551   8.893  24.108  1.00  0.00    -0.387 OA
ATOM     36  H   UNL     1      32.447   9.277  23.918  1.00  0.00     0.211 HD
ENDBRANCH  30  35
BRANCH  31  37
ATOM     37  C   UNL     1      29.549  13.061  23.820  1.00  0.00     0.191 C 
BRANCH  37  38
ATOM     38  O   UNL     1      30.328  14.110  23.310  1.00  0.00    -0.394 OA
ATOM     39  H   UNL     1      30.446  14.765  24.045  1.00  0.00     0.210 HD
ENDBRANCH  37  38
ENDBRANCH  31  37
BRANCH  32  40
ATOM     40  O   UNL     1      32.594  11.518  24.925  1.00  0.00    -0.387 OA
ATOM     41  H   UNL     1      32.682  12.501  25.043  1.00  0.00     0.211 HD
ENDBRANCH  32  40
ENDBRANCH   1  27
TORSDOF 12
ENDMDL
MODEL 4
REMARK VINA RESULT:    -6.293      1.136      1.784
REMARK INTER + INTRA:         -10.691
REMARK INTER:                  -9.431
REMARK INTRA:                  -1.261
REMARK UNBOUND:                -1.456
REMARK SMILES O=c1c(O[C@H]2O[C@H](CO)[C@@H](O)[C@H](O)[C@H]2O)c(-c2ccc(O)c(O)c2)oc2cc(O)cc(O)c12
REMARK SMILES IDX 4 1 3 2 16 3 25 4 2 5 26 6 1 7 33 8 27 9 31 10 28 11 30 12
REMARK SMILES IDX 17 13 18 14 19 15 20 16 24 17 22 18 21 19 23 21 32 23 29 25
REMARK SMILES IDX 5 27 14 28 6 29 12 30 7 31 10 32 15 33 13 35 8 37 9 38 11 40
REMARK H PARENT 21 20 23 22 32 24 29 26 15 34 13 36 9 39 11 41
REMARK Flexibility Score: inf
ROOT
ATOM      1  O   UNL     1      28.471  10.855  25.837  1.00  0.00    -0.454 OA
ENDROOT
BRANCH   1   2
ATOM      2  C   UNL     1      28.952  10.574  27.122  1.00  0.00     0.214 A 
ATOM      3  C   UNL     1      29.188  11.590  28.068  1.00  0.00     0.180 A 
ATOM      4  O   UNL     1      29.685  11.277  29.258  1.00  0.00    -0.452 OA
ATOM      5  C   UNL     1      29.201   9.244  27.478  1.00  0.00     0.239 A 
ATOM      6  C   UNL     1      29.965  10.033  29.630  1.00  0.00     0.146 A 
ATOM      7  O   UNL     1      28.906   8.340  26.653  1.00  0.00    -0.285 OA
ATOM      8  C   UNL     1      29.757   8.943  28.746  1.00  0.00     0.111 A 
ATOM      9  C   UNL     1      30.454   9.820  30.922  1.00  0.00     0.094 A 
ATOM     10  C   UNL     1      30.097   7.629  29.194  1.00  0.00     0.134 A 
ATOM     11  C   UNL     1      30.739   8.532  31.365  1.00  0.00     0.123 A 
ATOM     12  C   UNL     1      30.554   7.444  30.505  1.00  0.00     0.093 A 
BRANCH   3  13
ATOM     13  C   UNL     1      28.885  13.013  27.797  1.00  0.00     0.025 A 
ATOM     14  C   UNL     1      27.626  13.527  28.135  1.00  0.00     0.016 A 
ATOM     15  C   UNL     1      27.322  14.867  27.890  1.00  0.00     0.051 A 
ATOM     16  C   UNL     1      28.262  15.713  27.289  1.00  0.00     0.157 A 
ATOM     17  C   UNL     1      29.825  13.853  27.177  1.00  0.00     0.062 A 
ATOM     18  C   UNL     1      29.528  15.199  26.924  1.00  0.00     0.158 A 
BRANCH  16  19
ATOM     19  O   UNL     1      27.896  17.045  27.075  1.00  0.00    -0.504 OA
ATOM     20  H   UNL     1      27.101  17.330  26.522  1.00  0.00     0.293 HD
ENDBRANCH  16  19
BRANCH  18  21
ATOM     21  O   UNL     1      30.512  15.980  26.314  1.00  0.00    -0.504 OA
ATOM     22  H   UNL     1      30.521  16.988  26.331  1.00  0.00     0.293 HD
ENDBRANCH  18  21
ENDBRANCH   3  13
BRANCH  10  23
ATOM     23  O   UNL     1      30.031   6.484  28.392  1.00  0.00    -0.507 OA
ATOM     24  H   UNL     1      29.186   6.100  28.000  1.00  0.00     0.293 HD
ENDBRANCH  10  23
BRANCH  11  25
ATOM     25  O   UNL     1      31.214   8.340  32.661  1.00  0.00    -0.508 OA
ATOM     26  H   UNL     1      31.408   7.414  33.023  1.00  0.00     0.293 HD
ENDBRANCH  11  25
ENDBRANCH   1   2
BRANCH   1  27
ATOM     27  C   UNL     1      29.336  11.052  24.716  1.00  0.00     0.339 C 
ATOM     28  C   UNL     1      28.793  12.208  23.827  1.00  0.00     0.214 C 
ATOM     29  O   UNL     1      29.453   9.815  24.022  1.00  0.00    -0.332 OA
ATOM     30  C   UNL     1      28.198  11.659  22.520  1.00  0.00     0.180 C 
ATOM     31  C   UNL     1      30.087   9.935  22.757  1.00  0.00     0.179 C 
ATOM     32  C   UNL     1      29.276  10.845  21.780  1.00  0.00     0.177 C 
BRANCH  28  33
ATOM     33  O   UNL     1      27.867  13.011  24.521  1.00  0.00    -0.384 OA
ATOM     34  H   UNL     1      26.961  12.811  24.164  1.00  0.00     0.211 HD
ENDBRANCH  28  33
BRANCH  30  35
ATOM     35  O   UNL     1      27.765  12.713  21.697  1.00  0.00    -0.387 OA
ATOM     36  H   UNL     1      28.542  13.317  21.569  1.00  0.00     0.211 HD
ENDBRANCH  30  35
BRANCH  31  37
ATOM     37  C   UNL     1      31.571  10.348  22.872  1.00  0.00     0.191 C 
BRANCH  37  38
ATOM     38  O   UNL     1      32.410   9.266  22.565  1.00  0.00    -0.394 OA
ATOM     39  H   UNL     1      31.879   8.441  22.707  1.00  0.00     0.210 HD
ENDBRANCH  37  38
ENDBRANCH  31  37
BRANCH  32  40
ATOM     40  O   UNL     1      28.686  10.085  20.754  1.00  0.00    -0.387 OA
ATOM     41  H   UNL     1      28.121  10.697  20.212  1.00  0.00     0.211 HD
ENDBRANCH  32  40
ENDBRANCH   1  27
TORSDOF 12
ENDMDL
MODEL 5
REMARK VINA RESULT:    -6.281      2.100      5.227
REMARK INTER + INTRA:         -10.674
REMARK INTER:                  -9.226
REMARK INTRA:                  -1.448
REMARK UNBOUND:                -1.456
REMARK SMILES O=c1c(O[C@H]2O[C@H](CO)[C@@H](O)[C@H](O)[C@H]2O)c(-c2ccc(O)c(O)c2)oc2cc(O)cc(O)c12
REMARK SMILES IDX 4 1 3 2 16 3 25 4 2 5 26 6 1 7 33 8 27 9 31 10 28 11 30 12
REMARK SMILES IDX 17 13 18 14 19 15 20 16 24 17 22 18 21 19 23 21 32 23 29 25
REMARK SMILES IDX 5 27 14 28 6 29 12 30 7 31 10 32 15 33 13 35 8 37 9 38 11 40
REMARK H PARENT 21 20 23 22 32 24 29 26 15 34 13 36 9 39 11 41
REMARK Flexibility Score: inf
ROOT
ATOM      1  O   UNL     1      28.902  10.722  25.335  1.00  0.00    -0.454 OA
ENDROOT
BRANCH   1   2
ATOM      2  C   UNL     1      29.521   9.758  26.140  1.00  0.00     0.214 A 
ATOM      3  C   UNL     1      30.176   8.638  25.591  1.00  0.00     0.180 A 
ATOM      4  O   UNL     1      30.711   7.730  26.398  1.00  0.00    -0.452 OA
ATOM      5  C   UNL     1      29.492   9.913  27.530  1.00  0.00     0.239 A 
ATOM      6  C   UNL     1      30.681   7.820  27.723  1.00  0.00     0.146 A 
ATOM      7  O   UNL     1      28.977  10.960  28.002  1.00  0.00    -0.285 OA
ATOM      8  C   UNL     1      30.047   8.914  28.366  1.00  0.00     0.111 A 
ATOM      9  C   UNL     1      31.306   6.818  28.471  1.00  0.00     0.094 A 
ATOM     10  C   UNL     1      30.027   8.945  29.795  1.00  0.00     0.134 A 
ATOM     11  C   UNL     1      31.323   6.882  29.861  1.00  0.00     0.123 A 
ATOM     12  C   UNL     1      30.691   7.944  30.516  1.00  0.00     0.093 A 
BRANCH   3  13
ATOM     13  C   UNL     1      30.314   8.435  24.132  1.00  0.00     0.025 A 
ATOM     14  C   UNL     1      29.281   7.809  23.421  1.00  0.00     0.016 A 
ATOM     15  C   UNL     1      29.393   7.611  22.045  1.00  0.00     0.051 A 
ATOM     16  C   UNL     1      30.541   8.017  21.355  1.00  0.00     0.157 A 
ATOM     17  C   UNL     1      31.477   8.828  23.449  1.00  0.00     0.062 A 
ATOM     18  C   UNL     1      31.599   8.630  22.067  1.00  0.00     0.158 A 
BRANCH  16  19
ATOM     19  O   UNL     1      30.587   7.793  19.977  1.00  0.00    -0.504 OA
ATOM     20  H   UNL     1      29.831   8.007  19.344  1.00  0.00     0.293 HD
ENDBRANCH  16  19
BRANCH  18  21
ATOM     21  O   UNL     1      32.778   9.054  21.450  1.00  0.00    -0.504 OA
ATOM     22  H   UNL     1      33.028   8.828  20.499  1.00  0.00     0.293 HD
ENDBRANCH  18  21
ENDBRANCH   3  13
BRANCH  10  23
ATOM     23  O   UNL     1      29.356   9.913  30.550  1.00  0.00    -0.507 OA
ATOM     24  H   UNL     1      29.493  10.077  31.534  1.00  0.00     0.293 HD
ENDBRANCH  10  23
BRANCH  11  25
ATOM     25  O   UNL     1      31.962   5.879  30.587  1.00  0.00    -0.508 OA
ATOM     26  H   UNL     1      31.945   5.865  31.600  1.00  0.00     0.293 HD
ENDBRANCH  11  25
ENDBRANCH   1   2
BRANCH   1  27
ATOM     27  C   UNL     1      29.639  11.628  24.510  1.00  0.00     0.339 C 
ATOM     28  C   UNL     1      29.344  13.093  24.941  1.00  0.00     0.214 C 
ATOM     29  O   UNL     1      29.307  11.363  23.152  1.00  0.00    -0.332 OA
ATOM     30  C   UNL     1      28.457  13.800  23.903  1.00  0.00     0.180 C 
ATOM     31  C   UNL     1      29.785  12.351  22.250  1.00  0.00     0.179 C 
ATOM     32  C   UNL     1      29.154  13.752  22.530  1.00  0.00     0.177 C 
BRANCH  28  33
ATOM     33  O   UNL     1      28.783  13.157  26.231  1.00  0.00    -0.384 OA
ATOM     34  H   UNL     1      27.832  13.431  26.138  1.00  0.00     0.211 HD
ENDBRANCH  28  33
BRANCH  30  35
ATOM     35  O   UNL     1      28.245  15.141  24.270  1.00  0.00    -0.387 OA
ATOM     36  H   UNL     1      28.702  15.277  25.141  1.00  0.00     0.211 HD
ENDBRANCH  30  35
BRANCH  31  37
ATOM     37  C   UNL     1      31.328  12.390  22.173  1.00  0.00     0.191 C 
BRANCH  37  38
ATOM     38  O   UNL     1      31.803  13.682  22.443  1.00  0.00    -0.394 OA
ATOM     39  H   UNL     1      31.087  14.314  22.177  1.00  0.00     0.210 HD
ENDBRANCH  37  38
ENDBRANCH  31  37
BRANCH  32  40
ATOM     40  O   UNL     1      28.246  14.109  21.517  1.00  0.00    -0.387 OA
ATOM     41  H   UNL     1      27.873  13.269  21.137  1.00  0.00     0.211 HD
ENDBRANCH  32  40
ENDBRANCH   1  27
TORSDOF 12
ENDMDL
MODEL 6
REMARK VINA RESULT:    -6.172      2.270      6.035
REMARK INTER + INTRA:         -10.514
REMARK INTER:                  -9.265
REMARK INTRA:                  -1.249
REMARK UNBOUND:                -1.456
REMARK SMILES O=c1c(O[C@H]2O[C@H](CO)[C@@H](O)[C@H](O)[C@H]2O)c(-c2ccc(O)c(O)c2)oc2cc(O)cc(O)c12
REMARK SMILES IDX 4 1 3 2 16 3 25 4 2 5 26 6 1 7 33 8 27 9 31 10 28 11 30 12
REMARK SMILES IDX 17 13 18 14 19 15 20 16 24 17 22 18 21 19 23 21 32 23 29 25
REMARK SMILES IDX 5 27 14 28 6 29 12 30 7 31 10 32 15 33 13 35 8 37 9 38 11 40
REMARK H PARENT 21 20 23 22 32 24 29 26 15 34 13 36 9 39 11 41
REMARK Flexibility Score: inf
ROOT
ATOM      1  O   UNL     1      29.382  13.189  27.371  1.00  0.00    -0.454 OA
ENDROOT
BRANCH   1   2
ATOM      2  C   UNL     1      29.483  11.821  27.088  1.00  0.00     0.214 A 
ATOM      3  C   UNL     1      29.328  10.840  28.087  1.00  0.00     0.180 A 
ATOM      4  O   UNL     1      29.475   9.558  27.778  1.00  0.00    -0.452 OA
ATOM      5  C   UNL     1      29.743  11.416  25.775  1.00  0.00     0.239 A 
ATOM      6  C   UNL     1      29.751   9.129  26.551  1.00  0.00     0.146 A 
ATOM      7  O   UNL     1      29.796  12.298  24.878  1.00  0.00    -0.285 OA
ATOM      8  C   UNL     1      29.923  10.042  25.479  1.00  0.00     0.111 A 
ATOM      9  C   UNL     1      29.852   7.751  26.337  1.00  0.00     0.094 A 
ATOM     10  C   UNL     1      30.241   9.523  24.186  1.00  0.00     0.134 A 
ATOM     11  C   UNL     1      30.116   7.253  25.065  1.00  0.00     0.123 A 
ATOM     12  C   UNL     1      30.302   8.136  23.996  1.00  0.00     0.093 A 
BRANCH   3  13
ATOM     13  C   UNL     1      28.982  11.179  29.485  1.00  0.00     0.025 A 
ATOM     14  C   UNL     1      27.663  11.529  29.805  1.00  0.00     0.016 A 
ATOM     15  C   UNL     1      27.318  11.850  31.119  1.00  0.00     0.051 A 
ATOM     16  C   UNL     1      28.283  11.843  32.133  1.00  0.00     0.157 A 
ATOM     17  C   UNL     1      29.958  11.189  30.496  1.00  0.00     0.062 A 
ATOM     18  C   UNL     1      29.621  11.511  31.817  1.00  0.00     0.158 A 
BRANCH  16  19
ATOM     19  O   UNL     1      27.870  12.169  33.427  1.00  0.00    -0.504 OA
ATOM     20  H   UNL     1      27.296  12.968  33.653  1.00  0.00     0.293 HD
ENDBRANCH  16  19
BRANCH  18  21
ATOM     21  O   UNL     1      30.639  11.491  32.772  1.00  0.00    -0.504 OA
ATOM     22  H   UNL     1      31.141  12.311  33.077  1.00  0.00     0.293 HD
ENDBRANCH  18  21
ENDBRANCH   3  13
BRANCH  10  23
ATOM     23  O   UNL     1      30.527  10.316  23.070  1.00  0.00    -0.507 OA
ATOM     24  H   UNL     1      31.426  10.721  22.862  1.00  0.00     0.293 HD
ENDBRANCH  10  23
BRANCH  11  25
ATOM     25  O   UNL     1      30.200   5.875  24.870  1.00  0.00    -0.508 OA
ATOM     26  H   UNL     1      29.371   5.305  24.751  1.00  0.00     0.293 HD
ENDBRANCH  11  25
ENDBRANCH   1   2
BRANCH   1  27
ATOM     27  C   UNL     1      28.197  13.945  27.112  1.00  0.00     0.339 C 
ATOM     28  C   UNL     1      28.527  15.138  26.169  1.00  0.00     0.214 C 
ATOM     29  O   UNL     1      27.646  14.349  28.361  1.00  0.00    -0.332 OA
ATOM     30  C   UNL     1      28.496  16.468  26.940  1.00  0.00     0.180 C 
ATOM     31  C   UNL     1      26.606  15.308  28.235  1.00  0.00     0.179 C 
ATOM     32  C   UNL     1      27.111  16.638  27.593  1.00  0.00     0.177 C 
BRANCH  28  33
ATOM     33  O   UNL     1      29.753  14.955  25.502  1.00  0.00    -0.384 OA
ATOM     34  H   UNL     1      30.335  15.732  25.713  1.00  0.00     0.211 HD
ENDBRANCH  28  33
BRANCH  30  35
ATOM     35  O   UNL     1      28.736  17.546  26.070  1.00  0.00    -0.387 OA
ATOM     36  H   UNL     1      29.456  17.260  25.449  1.00  0.00     0.211 HD
ENDBRANCH  30  35
BRANCH  31  37
ATOM     37  C   UNL     1      25.353  14.738  27.532  1.00  0.00     0.191 C 
BRANCH  37  38
ATOM     38  O   UNL     1      25.050  15.483  26.383  1.00  0.00    -0.394 OA
ATOM     39  H   UNL     1      24.459  14.919  25.822  1.00  0.00     0.210 HD
ENDBRANCH  37  38
ENDBRANCH  31  37
BRANCH  32  40
ATOM     40  O   UNL     1      27.151  17.675  28.543  1.00  0.00    -0.387 OA
ATOM     41  H   UNL     1      27.344  17.265  29.428  1.00  0.00     0.211 HD
ENDBRANCH  32  40
ENDBRANCH   1  27
TORSDOF 12
ENDMDL
MODEL 7
REMARK VINA RESULT:    -6.142      1.899      6.013
REMARK INTER + INTRA:         -10.471
REMARK INTER:                  -9.141
REMARK INTRA:                  -1.330
REMARK UNBOUND:                -1.456
REMARK SMILES O=c1c(O[C@H]2O[C@H](CO)[C@@H](O)[C@H](O)[C@H]2O)c(-c2ccc(O)c(O)c2)oc2cc(O)cc(O)c12
REMARK SMILES IDX 4 1 3 2 16 3 25 4 2 5 26 6 1 7 33 8 27 9 31 10 28 11 30 12
REMARK SMILES IDX 17 13 18 14 19 15 20 16 24 17 22 18 21 19 23 21 32 23 29 25
REMARK SMILES IDX 5 27 14 28 6 29 12 30 7 31 10 32 15 33 13 35 8 37 9 38 11 40
REMARK H PARENT 21 20 23 22 32 24 29 26 15 34 13 36 9 39 11 41
REMARK Flexibility Score: inf
ROOT
ATOM      1  O   UNL     1      29.014   9.701  28.982  1.00  0.00    -0.454 OA
ENDROOT
BRANCH   1   2
ATOM      2  C   UNL     1      29.087   9.632  27.585  1.00  0.00     0.214 A 
ATOM      3  C   UNL     1      28.797  10.742  26.768  1.00  0.00     0.180 A 
ATOM      4  O   UNL     1      28.839  10.614  25.448  1.00  0.00    -0.452 OA
ATOM      5  C   UNL     1      29.462   8.426  26.984  1.00  0.00     0.239 A 
ATOM      6  C   UNL     1      29.161   9.481  24.832  1.00  0.00     0.146 A 
ATOM      7  O   UNL     1      29.798   7.468  27.728  1.00  0.00    -0.285 OA
ATOM      8  C   UNL     1      29.471   8.311  25.572  1.00  0.00     0.111 A 
ATOM      9  C   UNL     1      29.203   9.473  23.435  1.00  0.00     0.094 A 
ATOM     10  C   UNL     1      29.787   7.115  24.855  1.00  0.00     0.134 A 
ATOM     11  C   UNL     1      29.558   8.316  22.747  1.00  0.00     0.123 A 
ATOM     12  C   UNL     1      29.854   7.148  23.456  1.00  0.00     0.093 A 
BRANCH   3  13
ATOM     13  C   UNL     1      28.462  12.071  27.323  1.00  0.00     0.025 A 
ATOM     14  C   UNL     1      27.284  12.233  28.065  1.00  0.00     0.016 A 
ATOM     15  C   UNL     1      26.953  13.478  28.599  1.00  0.00     0.051 A 
ATOM     16  C   UNL     1      27.780  14.588  28.390  1.00  0.00     0.157 A 
ATOM     17  C   UNL     1      29.287  13.186  27.094  1.00  0.00     0.062 A 
ATOM     18  C   UNL     1      28.960  14.441  27.625  1.00  0.00     0.158 A 
BRANCH  16  19
ATOM     19  O   UNL     1      27.392  15.806  28.955  1.00  0.00    -0.504 OA
ATOM     20  H   UNL     1      26.432  16.088  29.086  1.00  0.00     0.293 HD
ENDBRANCH  16  19
BRANCH  18  21
ATOM     21  O   UNL     1      29.830  15.503  27.367  1.00  0.00    -0.504 OA
ATOM     22  H   UNL     1      30.557  15.478  26.668  1.00  0.00     0.293 HD
ENDBRANCH  18  21
ENDBRANCH   3  13
BRANCH  10  23
ATOM     23  O   UNL     1      30.018   5.875  25.459  1.00  0.00    -0.507 OA
ATOM     24  H   UNL     1      30.332   5.742  26.407  1.00  0.00     0.293 HD
ENDBRANCH  10  23
BRANCH  11  25
ATOM     25  O   UNL     1      29.606   8.334  21.354  1.00  0.00    -0.508 OA
ATOM     26  H   UNL     1      30.427   8.658  20.855  1.00  0.00     0.293 HD
ENDBRANCH  11  25
ENDBRANCH   1   2
BRANCH   1  27
ATOM     27  C   UNL     1      30.090  10.187  29.788  1.00  0.00     0.339 C 
ATOM     28  C   UNL     1      30.545   9.081  30.784  1.00  0.00     0.214 C 
ATOM     29  O   UNL     1      29.660  11.382  30.431  1.00  0.00    -0.332 OA
ATOM     30  C   UNL     1      30.101   9.421  32.216  1.00  0.00     0.180 C 
ATOM     31  C   UNL     1      30.548  11.829  31.444  1.00  0.00     0.179 C 
ATOM     32  C   UNL     1      30.676  10.796  32.608  1.00  0.00     0.177 C 
BRANCH  28  33
ATOM     33  O   UNL     1      30.095   7.806  30.391  1.00  0.00    -0.384 OA
ATOM     34  H   UNL     1      30.279   7.703  29.420  1.00  0.00     0.211 HD
ENDBRANCH  28  33
BRANCH  30  35
ATOM     35  O   UNL     1      30.568   8.448  33.118  1.00  0.00    -0.387 OA
ATOM     36  H   UNL     1      29.953   8.460  33.898  1.00  0.00     0.211 HD
ENDBRANCH  30  35
BRANCH  31  37
ATOM     37  C   UNL     1      31.917  12.275  30.882  1.00  0.00     0.191 C 
BRANCH  37  38
ATOM     38  O   UNL     1      32.897  12.239  31.884  1.00  0.00    -0.394 OA
ATOM     39  H   UNL     1      33.777  12.236  31.427  1.00  0.00     0.210 HD
ENDBRANCH  37  38
ENDBRANCH  31  37
BRANCH  32  40
ATOM     40  O   UNL     1      30.046  11.267  33.774  1.00  0.00    -0.387 OA
ATOM     41  H   UNL     1      30.581  12.031  34.118  1.00  0.00     0.211 HD
ENDBRANCH  32  40
ENDBRANCH   1  27
TORSDOF 12
ENDMDL
MODEL 8
REMARK VINA RESULT:    -6.083      1.737      5.660
REMARK INTER + INTRA:         -10.384
REMARK INTER:                  -8.937
REMARK INTRA:                  -1.447
REMARK UNBOUND:                -1.456
REMARK SMILES O=c1c(O[C@H]2O[C@H](CO)[C@@H](O)[C@H](O)[C@H]2O)c(-c2ccc(O)c(O)c2)oc2cc(O)cc(O)c12
REMARK SMILES IDX 4 1 3 2 16 3 25 4 2 5 26 6 1 7 33 8 27 9 31 10 28 11 30 12
REMARK SMILES IDX 17 13 18 14 19 15 20 16 24 17 22 18 21 19 23 21 32 23 29 25
REMARK SMILES IDX 5 27 14 28 6 29 12 30 7 31 10 32 15 33 13 35 8 37 9 38 11 40
REMARK H PARENT 21 20 23 22 32 24 29 26 15 34 13 36 9 39 11 41
REMARK Flexibility Score: inf
ROOT
ATOM      1  O   UNL     1      29.815  12.691  28.065  1.00  0.00    -0.454 OA
ENDROOT
BRANCH   1   2
ATOM      2  C   UNL     1      29.944  11.392  28.573  1.00  0.00     0.214 A 
ATOM      3  C   UNL     1      29.862  10.256  27.744  1.00  0.00     0.180 A 
ATOM      4  O   UNL     1      29.948   9.044  28.279  1.00  0.00    -0.452 OA
ATOM      5  C   UNL     1      30.164  11.217  29.943  1.00  0.00     0.239 A 
ATOM      6  C   UNL     1      30.127   8.829  29.578  1.00  0.00     0.146 A 
ATOM      7  O   UNL     1      30.318  12.241  30.658  1.00  0.00    -0.285 OA
ATOM      8  C   UNL     1      30.224   9.911  30.490  1.00  0.00     0.111 A 
ATOM      9  C   UNL     1      30.235   7.509  30.023  1.00  0.00     0.094 A 
ATOM     10  C   UNL     1      30.393   9.618  31.879  1.00  0.00     0.134 A 
ATOM     11  C   UNL     1      30.447   7.235  31.371  1.00  0.00     0.123 A 
ATOM     12  C   UNL     1      30.532   8.286  32.290  1.00  0.00     0.093 A 
BRANCH   3  13
ATOM     13  C   UNL     1      29.702  10.354  26.276  1.00  0.00     0.025 A 
ATOM     14  C   UNL     1      28.425  10.235  25.711  1.00  0.00     0.016 A 
ATOM     15  C   UNL     1      28.254  10.327  24.329  1.00  0.00     0.051 A 
ATOM     16  C   UNL     1      29.353  10.523  23.485  1.00  0.00     0.157 A 
ATOM     17  C   UNL     1      30.811  10.532  25.432  1.00  0.00     0.062 A 
ATOM     18  C   UNL     1      30.649  10.623  24.043  1.00  0.00     0.158 A 
BRANCH  16  19
ATOM     19  O   UNL     1      29.113  10.611  22.112  1.00  0.00    -0.504 OA
ATOM     20  H   UNL     1      28.948  11.477  21.621  1.00  0.00     0.293 HD
ENDBRANCH  16  19
BRANCH  18  21
ATOM     21  O   UNL     1      31.793  10.810  23.265  1.00  0.00    -0.504 OA
ATOM     22  H   UNL     1      32.514  10.114  23.148  1.00  0.00     0.293 HD
ENDBRANCH  18  21
ENDBRANCH   3  13
BRANCH  10  23
ATOM     23  O   UNL     1      30.408  10.585  32.889  1.00  0.00    -0.507 OA
ATOM     24  H   UNL     1      30.267  11.572  32.749  1.00  0.00     0.293 HD
ENDBRANCH  10  23
BRANCH  11  25
ATOM     25  O   UNL     1      30.564   5.911  31.793  1.00  0.00    -0.508 OA
ATOM     26  H   UNL     1      29.758   5.381  32.104  1.00  0.00     0.293 HD
ENDBRANCH  11  25
ENDBRANCH   1   2
BRANCH   1  27
ATOM     27  C   UNL     1      28.546  13.302  27.824  1.00  0.00     0.339 C 
ATOM     28  C   UNL     1      28.630  14.214  26.567  1.00  0.00     0.214 C 
ATOM     29  O   UNL     1      28.159  14.001  29.002  1.00  0.00    -0.332 OA
ATOM     30  C   UNL     1      28.606  15.699  26.966  1.00  0.00     0.180 C 
ATOM     31  C   UNL     1      27.036  14.849  28.813  1.00  0.00     0.179 C 
ATOM     32  C   UNL     1      27.326  15.981  27.777  1.00  0.00     0.177 C 
BRANCH  28  33
ATOM     33  O   UNL     1      29.751  13.910  25.772  1.00  0.00    -0.384 OA
ATOM     34  H   UNL     1      29.435  13.400  24.980  1.00  0.00     0.211 HD
ENDBRANCH  28  33
BRANCH  30  35
ATOM     35  O   UNL     1      28.620  16.515  25.822  1.00  0.00    -0.387 OA
ATOM     36  H   UNL     1      29.472  17.025  25.842  1.00  0.00     0.211 HD
ENDBRANCH  30  35
BRANCH  31  37
ATOM     37  C   UNL     1      25.743  14.064  28.500  1.00  0.00     0.191 C 
BRANCH  37  38
ATOM     38  O   UNL     1      25.174  14.508  27.297  1.00  0.00    -0.394 OA
ATOM     39  H   UNL     1      25.925  14.741  26.692  1.00  0.00     0.210 HD
ENDBRANCH  37  38
ENDBRANCH  31  37
BRANCH  32  40
ATOM     40  O   UNL     1      27.424  17.233  28.410  1.00  0.00    -0.387 OA
ATOM     41  H   UNL     1      27.593  17.070  29.376  1.00  0.00     0.211 HD
ENDBRANCH  32  40
ENDBRANCH   1  27
TORSDOF 12
ENDMDL
MODEL 9
REMARK VINA RESULT:    -6.021      1.850      7.151
REMARK INTER + INTRA:         -10.293
REMARK INTER:                  -9.090
REMARK INTRA:                  -1.203
REMARK UNBOUND:                -1.456
REMARK SMILES O=c1c(O[C@H]2O[C@H](CO)[C@@H](O)[C@H](O)[C@H]2O)c(-c2ccc(O)c(O)c2)oc2cc(O)cc(O)c12
REMARK SMILES IDX 4 1 3 2 16 3 25 4 2 5 26 6 1 7 33 8 27 9 31 10 28 11 30 12
REMARK SMILES IDX 17 13 18 14 19 15 20 16 24 17 22 18 21 19 23 21 32 23 29 25
REMARK SMILES IDX 5 27 14 28 6 29 12 30 7 31 10 32 15 33 13 35 8 37 9 38 11 40
REMARK H PARENT 21 20 23 22 32 24 29 26 15 34 13 36 9 39 11 41
REMARK Flexibility Score: inf
ROOT
ATOM      1  O   UNL     1      30.286  10.747  26.610  1.00  0.00    -0.454 OA
ENDROOT
BRANCH   1   2
ATOM      2  C   UNL     1      29.593  11.785  25.974  1.00  0.00     0.214 A 
ATOM      3  C   UNL     1      29.330  11.767  24.591  1.00  0.00     0.180 A 
ATOM      4  O   UNL     1      28.708  12.795  24.027  1.00  0.00    -0.452 OA
ATOM      5  C   UNL     1      29.146  12.870  26.736  1.00  0.00     0.239 A 
ATOM      6  C   UNL     1      28.292  13.859  24.705  1.00  0.00     0.146 A 
ATOM      7  O   UNL     1      29.314  12.832  27.983  1.00  0.00    -0.285 OA
ATOM      8  C   UNL     1      28.509  13.965  26.103  1.00  0.00     0.111 A 
ATOM      9  C   UNL     1      27.618  14.868  24.010  1.00  0.00     0.094 A 
ATOM     10  C   UNL     1      28.059  15.144  26.775  1.00  0.00     0.134 A 
ATOM     11  C   UNL     1      27.142  15.990  24.682  1.00  0.00     0.123 A 
ATOM     12  C   UNL     1      27.357  16.121  26.057  1.00  0.00     0.093 A 
BRANCH   3  13
ATOM     13  C   UNL     1      29.706  10.627  23.725  1.00  0.00     0.025 A 
ATOM     14  C   UNL     1      28.721   9.719  23.314  1.00  0.00     0.016 A 
ATOM     15  C   UNL     1      29.055   8.639  22.496  1.00  0.00     0.051 A 
ATOM     16  C   UNL     1      30.378   8.436  22.087  1.00  0.00     0.157 A 
ATOM     17  C   UNL     1      31.038  10.417  23.333  1.00  0.00     0.062 A 
ATOM     18  C   UNL     1      31.384   9.335  22.514  1.00  0.00     0.158 A 
BRANCH  16  19
ATOM     19  O   UNL     1      30.645   7.338  21.265  1.00  0.00    -0.504 OA
ATOM     20  H   UNL     1      29.944   6.680  20.957  1.00  0.00     0.293 HD
ENDBRANCH  16  19
BRANCH  18  21
ATOM     21  O   UNL     1      32.725   9.192  22.154  1.00  0.00    -0.504 OA
ATOM     22  H   UNL     1      33.037   8.723  21.317  1.00  0.00     0.293 HD
ENDBRANCH  18  21
ENDBRANCH   3  13
BRANCH  10  23
ATOM     23  O   UNL     1      28.293  15.415  28.127  1.00  0.00    -0.507 OA
ATOM     24  H   UNL     1      27.626  15.279  28.869  1.00  0.00     0.293 HD
ENDBRANCH  10  23
BRANCH  11  25
ATOM     25  O   UNL     1      26.462  16.978  23.972  1.00  0.00    -0.508 OA
ATOM     26  H   UNL     1      25.556  17.317  24.271  1.00  0.00     0.293 HD
ENDBRANCH  11  25
ENDBRANCH   1   2
BRANCH   1  27
ATOM     27  C   UNL     1      29.790   9.407  26.662  1.00  0.00     0.339 C 
ATOM     28  C   UNL     1      29.281   9.088  28.097  1.00  0.00     0.214 C 
ATOM     29  O   UNL     1      30.826   8.533  26.225  1.00  0.00    -0.332 OA
ATOM     30  C   UNL     1      30.243   8.131  28.819  1.00  0.00     0.180 C 
ATOM     31  C   UNL     1      30.543   7.161  26.460  1.00  0.00     0.179 C 
ATOM     32  C   UNL     1      30.397   6.847  27.982  1.00  0.00     0.177 C 
BRANCH  28  33
ATOM     33  O   UNL     1      29.056  10.259  28.845  1.00  0.00    -0.384 OA
ATOM     34  H   UNL     1      29.865  10.428  29.398  1.00  0.00     0.211 HD
ENDBRANCH  28  33
BRANCH  30  35
ATOM     35  O   UNL     1      29.745   7.800  30.091  1.00  0.00    -0.387 OA
ATOM     36  H   UNL     1      29.818   8.617  30.651  1.00  0.00     0.211 HD
ENDBRANCH  30  35
BRANCH  31  37
ATOM     37  C   UNL     1      29.351   6.647  25.621  1.00  0.00     0.191 C 
BRANCH  37  38
ATOM     38  O   UNL     1      28.341   6.147  26.455  1.00  0.00    -0.394 OA
ATOM     39  H   UNL     1      27.573   6.769  26.384  1.00  0.00     0.210 HD
ENDBRANCH  37  38
ENDBRANCH  31  37
BRANCH  32  40
ATOM     40  O   UNL     1      31.490   6.095  28.450  1.00  0.00    -0.387 OA
ATOM     41  H   UNL     1      31.267   5.133  28.331  1.00  0.00     0.211 HD
ENDBRANCH  32  40
ENDBRANCH   1  27
TORSDOF 12
ENDMDL
