MODEL 1
REMARK VINA RESULT:    -8.127      0.000      0.000
REMARK INTER + INTRA:          -8.127
REMARK INTER:                  -8.127
REMARK INTRA:                   0.000
REMARK UNBOUND:                 0.000
REMARK SMILES O=c1ccc2ccccc2o1
REMARK SMILES IDX 7 1 8 2 9 3 10 4 5 5 6 6 4 7 3 8 2 9 1 10 11 11
REMARK H PARENT
REMARK Flexibility Score: inf
ROOT
ATOM      1  C   UNL     1      34.275  26.020  20.516  1.00  0.00     0.001 A 
ATOM      2  C   UNL     1      33.709  27.297  20.420  1.00  0.00     0.004 A 
ATOM      3  C   UNL     1      33.264  27.778  19.183  1.00  0.00     0.048 A 
ATOM      4  C   UNL     1      33.383  26.983  18.038  1.00  0.00     0.138 A 
ATOM      5  C   UNL     1      33.953  25.693  18.136  1.00  0.00     0.018 A 
ATOM      6  C   UNL     1      34.398  25.217  19.377  1.00  0.00     0.012 A 
ATOM      7  C   UNL     1      34.058  24.922  16.974  1.00  0.00     0.019 A 
ATOM      8  C   UNL     1      33.601  25.442  15.763  1.00  0.00     0.094 A 
ATOM      9  C   UNL     1      33.047  26.727  15.743  1.00  0.00     0.336 A 
ATOM     10  O   UNL     1      32.629  27.213  14.660  1.00  0.00    -0.246 OA
ATOM     11  O   UNL     1      32.959  27.440  16.863  1.00  0.00    -0.423 OA
ENDROOT
TORSDOF 0
ENDMDL
MODEL 2
REMARK VINA RESULT:    -7.995      1.623      3.829
REMARK INTER + INTRA:          -7.995
REMARK INTER:                  -7.995
REMARK INTRA:                   0.000
REMARK UNBOUND:                 0.000
REMARK SMILES O=c1ccc2ccccc2o1
REMARK SMILES IDX 7 1 8 2 9 3 10 4 5 5 6 6 4 7 3 8 2 9 1 10 11 11
REMARK H PARENT
REMARK Flexibility Score: inf
ROOT
ATOM      1  C   UNL     1      33.250  26.026  15.227  1.00  0.00     0.001 A 
ATOM      2  C   UNL     1      32.836  27.359  15.339  1.00  0.00     0.004 A 
ATOM      3  C   UNL     1      32.837  27.993  16.586  1.00  0.00     0.048 A 
ATOM      4  C   UNL     1      33.253  27.297  17.727  1.00  0.00     0.138 A 
ATOM      5  C   UNL     1      33.672  25.951  17.613  1.00  0.00     0.018 A 
ATOM      6  C   UNL     1      33.668  25.321  16.360  1.00  0.00     0.012 A 
ATOM      7  C   UNL     1      34.082  25.282  18.770  1.00  0.00     0.019 A 
ATOM      8  C   UNL     1      34.068  25.954  19.991  1.00  0.00     0.094 A 
ATOM      9  C   UNL     1      33.641  27.286  20.028  1.00  0.00     0.336 A 
ATOM     10  O   UNL     1      33.620  27.909  21.121  1.00  0.00    -0.246 OA
ATOM     11  O   UNL     1      33.255  27.900  18.912  1.00  0.00    -0.423 OA
ENDROOT
TORSDOF 0
ENDMDL
MODEL 3
REMARK VINA RESULT:    -7.865      1.920      4.227
REMARK INTER + INTRA:          -7.865
REMARK INTER:                  -7.865
REMARK INTRA:                   0.000
REMARK UNBOUND:                 0.000
REMARK SMILES O=c1ccc2ccccc2o1
REMARK SMILES IDX 7 1 8 2 9 3 10 4 5 5 6 6 4 7 3 8 2 9 1 10 11 11
REMARK H PARENT
REMARK Flexibility Score: inf
ROOT
ATOM      1  C   UNL     1      32.676  27.827  15.587  1.00  0.00     0.001 A 
ATOM      2  C   UNL     1      33.048  26.588  15.053  1.00  0.00     0.004 A 
ATOM      3  C   UNL     1      33.559  25.587  15.887  1.00  0.00     0.048 A 
ATOM      4  C   UNL     1      33.698  25.823  17.259  1.00  0.00     0.138 A 
ATOM      5  C   UNL     1      33.322  27.074  17.798  1.00  0.00     0.018 A 
ATOM      6  C   UNL     1      32.812  28.073  16.957  1.00  0.00     0.012 A 
ATOM      7  C   UNL     1      33.473  27.279  19.173  1.00  0.00     0.019 A 
ATOM      8  C   UNL     1      33.986  26.253  19.966  1.00  0.00     0.094 A 
ATOM      9  C   UNL     1      34.337  25.040  19.363  1.00  0.00     0.336 A 
ATOM     10  O   UNL     1      34.801  24.103  20.063  1.00  0.00    -0.246 OA
ATOM     11  O   UNL     1      34.183  24.871  18.052  1.00  0.00    -0.423 OA
ENDROOT
TORSDOF 0
ENDMDL
MODEL 4
REMARK VINA RESULT:    -7.734      1.394      2.356
REMARK INTER + INTRA:          -7.734
REMARK INTER:                  -7.734
REMARK INTRA:                   0.000
REMARK UNBOUND:                 0.000
REMARK SMILES O=c1ccc2ccccc2o1
REMARK SMILES IDX 7 1 8 2 9 3 10 4 5 5 6 6 4 7 3 8 2 9 1 10 11 11
REMARK H PARENT
REMARK Flexibility Score: inf
ROOT
ATOM      1  C   UNL     1      34.000  24.399  18.017  1.00  0.00     0.001 A 
ATOM      2  C   UNL     1      33.987  25.247  19.131  1.00  0.00     0.004 A 
ATOM      3  C   UNL     1      33.633  26.593  18.986  1.00  0.00     0.048 A 
ATOM      4  C   UNL     1      33.291  27.096  17.726  1.00  0.00     0.138 A 
ATOM      5  C   UNL     1      33.303  26.239  16.602  1.00  0.00     0.018 A 
ATOM      6  C   UNL     1      33.659  24.891  16.753  1.00  0.00     0.012 A 
ATOM      7  C   UNL     1      32.956  26.771  15.356  1.00  0.00     0.019 A 
ATOM      8  C   UNL     1      32.610  28.119  15.259  1.00  0.00     0.094 A 
ATOM      9  C   UNL     1      32.619  28.906  16.416  1.00  0.00     0.336 A 
ATOM     10  O   UNL     1      32.310  30.124  16.348  1.00  0.00    -0.246 OA
ATOM     11  O   UNL     1      32.954  28.376  17.589  1.00  0.00    -0.423 OA
ENDROOT
TORSDOF 0
ENDMDL
MODEL 5
REMARK VINA RESULT:    -7.678      1.380      3.583
REMARK INTER + INTRA:          -7.678
REMARK INTER:                  -7.678
REMARK INTRA:                   0.000
REMARK UNBOUND:                 0.000
REMARK SMILES O=c1ccc2ccccc2o1
REMARK SMILES IDX 7 1 8 2 9 3 10 4 5 5 6 6 4 7 3 8 2 9 1 10 11 11
REMARK H PARENT
REMARK Flexibility Score: inf
ROOT
ATOM      1  C   UNL     1      33.934  24.662  16.741  1.00  0.00     0.001 A 
ATOM      2  C   UNL     1      33.518  25.609  15.799  1.00  0.00     0.004 A 
ATOM      3  C   UNL     1      33.117  26.884  16.212  1.00  0.00     0.048 A 
ATOM      4  C   UNL     1      33.131  27.217  17.571  1.00  0.00     0.138 A 
ATOM      5  C   UNL     1      33.552  26.261  18.523  1.00  0.00     0.018 A 
ATOM      6  C   UNL     1      33.952  24.984  18.102  1.00  0.00     0.012 A 
ATOM      7  C   UNL     1      33.556  26.623  19.874  1.00  0.00     0.019 A 
ATOM      8  C   UNL     1      33.149  27.905  20.240  1.00  0.00     0.094 A 
ATOM      9  C   UNL     1      32.745  28.800  19.243  1.00  0.00     0.336 A 
ATOM     10  O   UNL     1      32.373  29.961  19.554  1.00  0.00    -0.246 OA
ATOM     11  O   UNL     1      32.750  28.430  17.964  1.00  0.00    -0.423 OA
ENDROOT
TORSDOF 0
ENDMDL
MODEL 6
REMARK VINA RESULT:    -7.497      2.104      4.072
REMARK INTER + INTRA:          -7.497
REMARK INTER:                  -7.497
REMARK INTRA:                   0.000
REMARK UNBOUND:                 0.000
REMARK SMILES O=c1ccc2ccccc2o1
REMARK SMILES IDX 7 1 8 2 9 3 10 4 5 5 6 6 4 7 3 8 2 9 1 10 11 11
REMARK H PARENT
REMARK Flexibility Score: inf
ROOT
ATOM      1  C   UNL     1      33.489  25.384  16.467  1.00  0.00     0.001 A 
ATOM      2  C   UNL     1      33.058  26.710  16.594  1.00  0.00     0.004 A 
ATOM      3  C   UNL     1      33.193  27.380  17.815  1.00  0.00     0.048 A 
ATOM      4  C   UNL     1      33.761  26.726  18.914  1.00  0.00     0.138 A 
ATOM      5  C   UNL     1      34.197  25.388  18.785  1.00  0.00     0.018 A 
ATOM      6  C   UNL     1      34.058  24.722  17.559  1.00  0.00     0.012 A 
ATOM      7  C   UNL     1      34.761  24.761  19.901  1.00  0.00     0.019 A 
ATOM      8  C   UNL     1      34.876  25.468  21.098  1.00  0.00     0.094 A 
ATOM      9  C   UNL     1      34.422  26.791  21.151  1.00  0.00     0.336 A 
ATOM     10  O   UNL     1      34.517  27.445  22.222  1.00  0.00    -0.246 OA
ATOM     11  O   UNL     1      33.889  27.364  20.074  1.00  0.00    -0.423 OA
ENDROOT
TORSDOF 0
ENDMDL
MODEL 7
REMARK VINA RESULT:    -7.431      1.997      4.380
REMARK INTER + INTRA:          -7.431
REMARK INTER:                  -7.431
REMARK INTRA:                   0.000
REMARK UNBOUND:                 0.000
REMARK SMILES O=c1ccc2ccccc2o1
REMARK SMILES IDX 7 1 8 2 9 3 10 4 5 5 6 6 4 7 3 8 2 9 1 10 11 11
REMARK H PARENT
REMARK Flexibility Score: inf
ROOT
ATOM      1  C   UNL     1      33.112  26.509  15.646  1.00  0.00     0.001 A 
ATOM      2  C   UNL     1      33.689  25.276  15.969  1.00  0.00     0.004 A 
ATOM      3  C   UNL     1      34.068  25.000  17.288  1.00  0.00     0.048 A 
ATOM      4  C   UNL     1      33.870  25.957  18.289  1.00  0.00     0.138 A 
ATOM      5  C   UNL     1      33.286  27.202  17.962  1.00  0.00     0.018 A 
ATOM      6  C   UNL     1      32.909  27.473  16.639  1.00  0.00     0.012 A 
ATOM      7  C   UNL     1      33.100  28.139  18.985  1.00  0.00     0.019 A 
ATOM      8  C   UNL     1      33.492  27.820  20.284  1.00  0.00     0.094 A 
ATOM      9  C   UNL     1      34.063  26.567  20.533  1.00  0.00     0.336 A 
ATOM     10  O   UNL     1      34.423  26.261  21.700  1.00  0.00    -0.246 OA
ATOM     11  O   UNL     1      34.229  25.694  19.543  1.00  0.00    -0.423 OA
ENDROOT
TORSDOF 0
ENDMDL
MODEL 8
REMARK VINA RESULT:    -7.417      1.733      3.200
REMARK INTER + INTRA:          -7.417
REMARK INTER:                  -7.417
REMARK INTRA:                   0.000
REMARK UNBOUND:                 0.000
REMARK SMILES O=c1ccc2ccccc2o1
REMARK SMILES IDX 7 1 8 2 9 3 10 4 5 5 6 6 4 7 3 8 2 9 1 10 11 11
REMARK H PARENT
REMARK Flexibility Score: inf
ROOT
ATOM      1  C   UNL     1      33.952  24.506  16.747  1.00  0.00     0.001 A 
ATOM      2  C   UNL     1      33.869  24.629  18.139  1.00  0.00     0.004 A 
ATOM      3  C   UNL     1      33.415  25.821  18.714  1.00  0.00     0.048 A 
ATOM      4  C   UNL     1      33.041  26.895  17.898  1.00  0.00     0.138 A 
ATOM      5  C   UNL     1      33.124  26.770  16.492  1.00  0.00     0.018 A 
ATOM      6  C   UNL     1      33.581  25.573  15.922  1.00  0.00     0.012 A 
ATOM      7  C   UNL     1      32.743  27.860  15.704  1.00  0.00     0.019 A 
ATOM      8  C   UNL     1      32.296  29.028  16.320  1.00  0.00     0.094 A 
ATOM      9  C   UNL     1      32.240  29.079  17.717  1.00  0.00     0.336 A 
ATOM     10  O   UNL     1      31.839  30.125  18.292  1.00  0.00    -0.246 OA
ATOM     11  O   UNL     1      32.608  28.028  18.445  1.00  0.00    -0.423 OA
ENDROOT
TORSDOF 0
ENDMDL
MODEL 9
REMARK VINA RESULT:    -7.354      1.489      2.990
REMARK INTER + INTRA:          -7.354
REMARK INTER:                  -7.354
REMARK INTRA:                   0.000
REMARK UNBOUND:                 0.000
REMARK SMILES O=c1ccc2ccccc2o1
REMARK SMILES IDX 7 1 8 2 9 3 10 4 5 5 6 6 4 7 3 8 2 9 1 10 11 11
REMARK H PARENT
REMARK Flexibility Score: inf
ROOT
ATOM      1  C   UNL     1      33.999  24.705  18.463  1.00  0.00     0.001 A 
ATOM      2  C   UNL     1      33.983  24.641  17.065  1.00  0.00     0.004 A 
ATOM      3  C   UNL     1      33.598  25.757  16.314  1.00  0.00     0.048 A 
ATOM      4  C   UNL     1      33.228  26.942  16.959  1.00  0.00     0.138 A 
ATOM      5  C   UNL     1      33.246  27.007  18.372  1.00  0.00     0.018 A 
ATOM      6  C   UNL     1      33.632  25.885  19.119  1.00  0.00     0.012 A 
ATOM      7  C   UNL     1      32.872  28.206  18.988  1.00  0.00     0.019 A 
ATOM      8  C   UNL     1      32.496  29.292  18.199  1.00  0.00     0.094 A 
ATOM      9  C   UNL     1      32.503  29.155  16.806  1.00  0.00     0.336 A 
ATOM     10  O   UNL     1      32.167  30.125  16.078  1.00  0.00    -0.246 OA
ATOM     11  O   UNL     1      32.863  28.004  16.245  1.00  0.00    -0.423 OA
ENDROOT
TORSDOF 0
ENDMDL
