MODEL 1
REMARK VINA RESULT:    -1.661      0.000      0.000
REMARK INTER + INTRA:          -4.217
REMARK INTER:                  -2.438
REMARK INTRA:                  -1.779
REMARK UNBOUND:                -1.779
REMARK SMILES Cc1cc2c(C(C)C)c(O)c(O)c(C=O)c2c(O)c1-c1c(C)cc2c(C(C)C)c(O)c(O)c(C=O)c2c1O
REMARK SMILES IDX 1 1 2 2 3 3 4 4 16 5 13 6 11 7 9 8 5 9 17 10 19 11 20 12
REMARK SMILES IDX 37 13 21 14 36 15 23 16 22 17 24 18 33 19 25 20 31 21 29 22
REMARK SMILES IDX 38 23 34 25 35 26 26 27 27 28 28 29 32 30 30 32 18 34 6 36
REMARK SMILES IDX 7 37 8 38 14 39 15 40 10 41 12 43
REMARK H PARENT 38 24 32 31 30 33 18 35 10 42 12 44
REMARK Flexibility Score: inf
ROOT
ATOM      1  C   UNL     1     136.476 147.257 135.778  1.00  0.00     0.045 C 
ATOM      2  C   UNL     1     135.596 148.056 136.709  1.00  0.00    -0.039 A 
ATOM      3  C   UNL     1     135.934 148.145 138.060  1.00  0.00     0.013 A 
ATOM      4  C   UNL     1     135.199 148.932 138.966  1.00  0.00    -0.006 A 
ATOM      5  C   UNL     1     134.019 149.595 138.502  1.00  0.00     0.039 A 
ATOM      6  C   UNL     1     133.221 150.316 139.442  1.00  0.00     0.072 A 
ATOM      7  C   UNL     1     133.538 150.262 140.814  1.00  0.00     0.169 A 
ATOM      8  C   UNL     1     134.668 149.580 141.257  1.00  0.00     0.162 A 
ATOM      9  C   UNL     1     135.595 149.041 140.335  1.00  0.00     0.008 A 
ATOM     10  C   UNL     1     133.661 149.481 137.123  1.00  0.00     0.132 A 
ATOM     11  C   UNL     1     134.464 148.735 136.234  1.00  0.00     0.031 A 
ENDROOT
BRANCH  11  12
ATOM     12  C   UNL     1     134.105 148.648 134.794  1.00  0.00     0.031 A 
ATOM     13  C   UNL     1     133.275 147.605 134.333  1.00  0.00     0.132 A 
ATOM     14  C   UNL     1     134.597 149.604 133.889  1.00  0.00    -0.039 A 
ATOM     15  C   UNL     1     132.947 147.503 132.948  1.00  0.00     0.039 A 
ATOM     16  C   UNL     1     134.163 149.581 132.563  1.00  0.00     0.013 A 
ATOM     17  C   UNL     1     135.531 150.701 134.342  1.00  0.00     0.045 C 
ATOM     18  C   UNL     1     133.299 148.578 132.076  1.00  0.00    -0.006 A 
ATOM     19  C   UNL     1     132.251 146.379 132.414  1.00  0.00     0.072 A 
ATOM     20  C   UNL     1     132.788 148.615 130.740  1.00  0.00     0.008 A 
ATOM     21  C   UNL     1     131.834 146.385 131.069  1.00  0.00     0.169 A 
ATOM     22  C   UNL     1     132.090 147.488 130.251  1.00  0.00     0.162 A 
BRANCH  13  23
ATOM     23  O   UNL     1     132.741 146.695 135.254  1.00  0.00    -0.507 OA
ATOM     24  H   UNL     1     131.781 146.384 135.244  1.00  0.00     0.293 HD
ENDBRANCH  13  23
BRANCH  19  25
ATOM     25  C   UNL     1     132.032 145.142 133.194  1.00  0.00     0.264 C 
ATOM     26  O   UNL     1     130.881 144.840 133.604  1.00  0.00    -0.298 OA
ENDBRANCH  19  25
BRANCH  20  27
ATOM     27  C   UNL     1     132.932 149.827 129.796  1.00  0.00     0.017 C 
ATOM     28  C   UNL     1     134.377 150.020 129.315  1.00  0.00     0.012 C 
ATOM     29  C   UNL     1     132.292 151.125 130.330  1.00  0.00     0.012 C 
ENDBRANCH  20  27
BRANCH  21  30
ATOM     30  O   UNL     1     131.170 145.288 130.504  1.00  0.00    -0.504 OA
ATOM     31  H   UNL     1     131.285 144.987 129.546  1.00  0.00     0.293 HD
ENDBRANCH  21  30
BRANCH  22  32
ATOM     32  O   UNL     1     131.661 147.462 128.918  1.00  0.00    -0.504 OA
ATOM     33  H   UNL     1     131.180 148.236 128.475  1.00  0.00     0.293 HD
ENDBRANCH  22  32
ENDBRANCH  11  12
BRANCH  10  34
ATOM     34  O   UNL     1     132.497 150.090 136.638  1.00  0.00    -0.507 OA
ATOM     35  H   UNL     1     131.647 149.589 136.418  1.00  0.00     0.293 HD
ENDBRANCH  10  34
BRANCH   9  36
ATOM     36  C   UNL     1     137.009 148.696 140.845  1.00  0.00     0.017 C 
ATOM     37  C   UNL     1     138.133 149.471 140.133  1.00  0.00     0.012 C 
ATOM     38  C   UNL     1     137.273 147.183 140.917  1.00  0.00     0.012 C 
ENDBRANCH   9  36
BRANCH   6  39
ATOM     39  C   UNL     1     132.059 151.125 139.021  1.00  0.00     0.264 C 
ATOM     40  O   UNL     1     130.885 150.685 139.154  1.00  0.00    -0.298 OA
ENDBRANCH   6  39
BRANCH   8  41
ATOM     41  O   UNL     1     134.839 149.459 142.641  1.00  0.00    -0.504 OA
ATOM     42  H   UNL     1     134.413 150.084 143.313  1.00  0.00     0.293 HD
ENDBRANCH   8  41
BRANCH   7  43
ATOM     43  O   UNL     1     132.759 150.906 141.784  1.00  0.00    -0.504 OA
ATOM     44  H   UNL     1     132.377 151.836 141.680  1.00  0.00     0.293 HD
ENDBRANCH   7  43
TORSDOF 11
ENDMDL
MODEL 2
REMARK VINA RESULT:    -1.625     12.518     17.215
REMARK INTER + INTRA:          -4.163
REMARK INTER:                  -2.658
REMARK INTRA:                  -1.505
REMARK UNBOUND:                -1.779
REMARK SMILES Cc1cc2c(C(C)C)c(O)c(O)c(C=O)c2c(O)c1-c1c(C)cc2c(C(C)C)c(O)c(O)c(C=O)c2c1O
REMARK SMILES IDX 1 1 2 2 3 3 4 4 16 5 13 6 11 7 9 8 5 9 17 10 19 11 20 12
REMARK SMILES IDX 37 13 21 14 36 15 23 16 22 17 24 18 33 19 25 20 31 21 29 22
REMARK SMILES IDX 38 23 34 25 35 26 26 27 27 28 28 29 32 30 30 32 18 34 6 36
REMARK SMILES IDX 7 37 8 38 14 39 15 40 10 41 12 43
REMARK H PARENT 38 24 32 31 30 33 18 35 10 42 12 44
REMARK Flexibility Score: inf
ROOT
ATOM      1  C   UNL     1     151.124 149.962 136.528  1.00  0.00     0.045 C 
ATOM      2  C   UNL     1     149.846 149.593 135.815  1.00  0.00    -0.039 A 
ATOM      3  C   UNL     1     149.754 149.783 134.435  1.00  0.00     0.013 A 
ATOM      4  C   UNL     1     148.620 149.392 133.699  1.00  0.00    -0.006 A 
ATOM      5  C   UNL     1     147.493 148.860 134.402  1.00  0.00     0.039 A 
ATOM      6  C   UNL     1     146.307 148.553 133.667  1.00  0.00     0.072 A 
ATOM      7  C   UNL     1     146.224 148.887 132.301  1.00  0.00     0.169 A 
ATOM      8  C   UNL     1     147.316 149.441 131.638  1.00  0.00     0.162 A 
ATOM      9  C   UNL     1     148.570 149.557 132.280  1.00  0.00     0.008 A 
ATOM     10  C   UNL     1     147.580 148.691 135.819  1.00  0.00     0.132 A 
ATOM     11  C   UNL     1     148.762 149.034 136.509  1.00  0.00     0.031 A 
ENDROOT
BRANCH  11  12
ATOM     12  C   UNL     1     148.860 148.824 137.978  1.00  0.00     0.031 A 
ATOM     13  C   UNL     1     149.378 147.616 138.487  1.00  0.00     0.132 A 
ATOM     14  C   UNL     1     148.432 149.831 138.860  1.00  0.00    -0.039 A 
ATOM     15  C   UNL     1     149.452 147.399 139.896  1.00  0.00     0.039 A 
ATOM     16  C   UNL     1     148.633 149.671 140.231  1.00  0.00     0.013 A 
ATOM     17  C   UNL     1     147.823 151.114 138.347  1.00  0.00     0.045 C 
ATOM     18  C   UNL     1     149.188 148.494 140.775  1.00  0.00    -0.006 A 
ATOM     19  C   UNL     1     149.813 146.138 140.451  1.00  0.00     0.072 A 
ATOM     20  C   UNL     1     149.475 148.377 142.172  1.00  0.00     0.008 A 
ATOM     21  C   UNL     1     150.001 146.009 141.841  1.00  0.00     0.169 A 
ATOM     22  C   UNL     1     149.844 147.113 142.684  1.00  0.00     0.162 A 
BRANCH  13  23
ATOM     23  O   UNL     1     149.859 146.646 137.598  1.00  0.00    -0.507 OA
ATOM     24  H   UNL     1     150.419 146.858 136.785  1.00  0.00     0.293 HD
ENDBRANCH  13  23
BRANCH  19  25
ATOM     25  C   UNL     1     149.900 144.909 139.632  1.00  0.00     0.264 C 
ATOM     26  O   UNL     1     148.972 144.059 139.655  1.00  0.00    -0.298 OA
ENDBRANCH  19  25
BRANCH  20  27
ATOM     27  C   UNL     1     149.428 149.559 143.163  1.00  0.00     0.017 C 
ATOM     28  C   UNL     1     147.993 150.031 143.436  1.00  0.00     0.012 C 
ATOM     29  C   UNL     1     150.390 150.714 142.816  1.00  0.00     0.012 C 
ENDBRANCH  20  27
BRANCH  21  30
ATOM     30  O   UNL     1     150.332 144.779 142.424  1.00  0.00    -0.504 OA
ATOM     31  H   UNL     1     151.020 144.141 142.049  1.00  0.00     0.293 HD
ENDBRANCH  21  30
BRANCH  22  32
ATOM     32  O   UNL     1     150.039 146.952 144.061  1.00  0.00    -0.504 OA
ATOM     33  H   UNL     1     149.798 146.102 144.559  1.00  0.00     0.293 HD
ENDBRANCH  22  32
ENDBRANCH  11  12
BRANCH  10  34
ATOM     34  O   UNL     1     146.488 148.202 136.545  1.00  0.00    -0.507 OA
ATOM     35  H   UNL     1     146.497 148.048 137.544  1.00  0.00     0.293 HD
ENDBRANCH  10  34
BRANCH   9  36
ATOM     36  C   UNL     1     149.822 149.756 131.401  1.00  0.00     0.017 C 
ATOM     37  C   UNL     1     149.871 151.119 130.688  1.00  0.00     0.012 C 
ATOM     38  C   UNL     1     150.091 148.573 130.456  1.00  0.00     0.012 C 
ENDBRANCH   9  36
BRANCH   6  39
ATOM     39  C   UNL     1     145.148 147.889 134.298  1.00  0.00     0.264 C 
ATOM     40  O   UNL     1     144.945 146.655 134.140  1.00  0.00    -0.298 OA
ENDBRANCH   6  39
BRANCH   8  41
ATOM     41  O   UNL     1     147.113 149.869 130.320  1.00  0.00    -0.504 OA
ATOM     42  H   UNL     1     147.028 150.842 130.055  1.00  0.00     0.293 HD
ENDBRANCH   8  41
BRANCH   7  43
ATOM     43  O   UNL     1     145.068 148.657 131.546  1.00  0.00    -0.504 OA
ATOM     44  H   UNL     1     144.882 149.080 130.648  1.00  0.00     0.293 HD
ENDBRANCH   7  43
TORSDOF 11
ENDMDL
MODEL 3
REMARK VINA RESULT:    -1.622     16.576     19.752
REMARK INTER + INTRA:          -4.160
REMARK INTER:                  -2.434
REMARK INTRA:                  -1.726
REMARK UNBOUND:                -1.779
REMARK SMILES Cc1cc2c(C(C)C)c(O)c(O)c(C=O)c2c(O)c1-c1c(C)cc2c(C(C)C)c(O)c(O)c(C=O)c2c1O
REMARK SMILES IDX 1 1 2 2 3 3 4 4 16 5 13 6 11 7 9 8 5 9 17 10 19 11 20 12
REMARK SMILES IDX 37 13 21 14 36 15 23 16 22 17 24 18 33 19 25 20 31 21 29 22
REMARK SMILES IDX 38 23 34 25 35 26 26 27 27 28 28 29 32 30 30 32 18 34 6 36
REMARK SMILES IDX 7 37 8 38 14 39 15 40 10 41 12 43
REMARK H PARENT 38 24 32 31 30 33 18 35 10 42 12 44
REMARK Flexibility Score: inf
ROOT
ATOM      1  C   UNL     1     147.690 136.207 135.705  1.00  0.00     0.045 C 
ATOM      2  C   UNL     1     148.416 135.823 136.972  1.00  0.00    -0.039 A 
ATOM      3  C   UNL     1     148.610 134.473 137.265  1.00  0.00     0.013 A 
ATOM      4  C   UNL     1     149.341 134.048 138.390  1.00  0.00    -0.006 A 
ATOM      5  C   UNL     1     149.828 135.032 139.307  1.00  0.00     0.039 A 
ATOM      6  C   UNL     1     150.487 134.597 140.497  1.00  0.00     0.072 A 
ATOM      7  C   UNL     1     150.539 133.223 140.806  1.00  0.00     0.169 A 
ATOM      8  C   UNL     1     150.025 132.277 139.923  1.00  0.00     0.162 A 
ATOM      9  C   UNL     1     149.563 132.658 138.642  1.00  0.00     0.008 A 
ATOM     10  C   UNL     1     149.606 136.414 139.017  1.00  0.00     0.132 A 
ATOM     11  C   UNL     1     148.925 136.799 137.842  1.00  0.00     0.031 A 
ENDROOT
BRANCH  11  12
ATOM     12  C   UNL     1     148.725 138.239 137.529  1.00  0.00     0.031 A 
ATOM     13  C   UNL     1     147.562 138.904 137.967  1.00  0.00     0.132 A 
ATOM     14  C   UNL     1     149.697 138.937 136.792  1.00  0.00    -0.039 A 
ATOM     15  C   UNL     1     147.354 140.279 137.649  1.00  0.00     0.039 A 
ATOM     16  C   UNL     1     149.556 140.312 136.602  1.00  0.00     0.013 A 
ATOM     17  C   UNL     1     150.928 138.240 136.263  1.00  0.00     0.045 C 
ATOM     18  C   UNL     1     148.426 141.019 137.063  1.00  0.00    -0.006 A 
ATOM     19  C   UNL     1     146.125 140.945 137.927  1.00  0.00     0.072 A 
ATOM     20  C   UNL     1     148.334 142.443 136.943  1.00  0.00     0.008 A 
ATOM     21  C   UNL     1     146.014 142.333 137.716  1.00  0.00     0.169 A 
ATOM     22  C   UNL     1     147.103 143.069 137.243  1.00  0.00     0.162 A 
BRANCH  13  23
ATOM     23  O   UNL     1     146.631 138.213 138.753  1.00  0.00    -0.507 OA
ATOM     24  H   UNL     1     146.004 138.661 139.405  1.00  0.00     0.293 HD
ENDBRANCH  13  23
BRANCH  19  25
ATOM     25  C   UNL     1     144.905 140.215 138.337  1.00  0.00     0.264 C 
ATOM     26  O   UNL     1     144.467 140.312 139.513  1.00  0.00    -0.298 OA
ENDBRANCH  19  25
BRANCH  20  27
ATOM     27  C   UNL     1     149.511 143.350 136.526  1.00  0.00     0.017 C 
ATOM     28  C   UNL     1     149.852 143.209 135.036  1.00  0.00     0.012 C 
ATOM     29  C   UNL     1     150.745 143.247 137.445  1.00  0.00     0.012 C 
ENDBRANCH  20  27
BRANCH  21  30
ATOM     30  O   UNL     1     144.813 143.015 137.955  1.00  0.00    -0.504 OA
ATOM     31  H   UNL     1     144.698 143.728 138.663  1.00  0.00     0.293 HD
ENDBRANCH  21  30
BRANCH  22  32
ATOM     32  O   UNL     1     146.960 144.447 137.044  1.00  0.00    -0.504 OA
ATOM     33  H   UNL     1     147.611 144.999 136.498  1.00  0.00     0.293 HD
ENDBRANCH  22  32
ENDBRANCH  11  12
BRANCH  10  34
ATOM     34  O   UNL     1     150.040 137.406 139.905  1.00  0.00    -0.507 OA
ATOM     35  H   UNL     1     149.544 138.270 140.074  1.00  0.00     0.293 HD
ENDBRANCH  10  34
BRANCH   9  36
ATOM     36  C   UNL     1     149.423 131.563 137.565  1.00  0.00     0.017 C 
ATOM     37  C   UNL     1     150.040 131.943 136.207  1.00  0.00     0.012 C 
ATOM     38  C   UNL     1     147.992 131.014 137.444  1.00  0.00     0.012 C 
ENDBRANCH   9  36
BRANCH   6  39
ATOM     39  C   UNL     1     151.123 135.550 141.430  1.00  0.00     0.264 C 
ATOM     40  O   UNL     1     150.597 135.809 142.546  1.00  0.00    -0.298 OA
ENDBRANCH   6  39
BRANCH   8  41
ATOM     41  O   UNL     1     149.992 130.948 140.361  1.00  0.00    -0.504 OA
ATOM     42  H   UNL     1     149.158 130.496 140.713  1.00  0.00     0.293 HD
ENDBRANCH   8  41
BRANCH   7  43
ATOM     43  O   UNL     1     151.125 132.746 141.984  1.00  0.00    -0.504 OA
ATOM     44  H   UNL     1     150.649 132.166 142.661  1.00  0.00     0.293 HD
ENDBRANCH   7  43
TORSDOF 11
ENDMDL
MODEL 4
REMARK VINA RESULT:    -1.621      6.036      8.689
REMARK INTER + INTRA:          -4.157
REMARK INTER:                  -2.374
REMARK INTRA:                  -1.784
REMARK UNBOUND:                -1.779
REMARK SMILES Cc1cc2c(C(C)C)c(O)c(O)c(C=O)c2c(O)c1-c1c(C)cc2c(C(C)C)c(O)c(O)c(C=O)c2c1O
REMARK SMILES IDX 1 1 2 2 3 3 4 4 16 5 13 6 11 7 9 8 5 9 17 10 19 11 20 12
REMARK SMILES IDX 37 13 21 14 36 15 23 16 22 17 24 18 33 19 25 20 31 21 29 22
REMARK SMILES IDX 38 23 34 25 35 26 26 27 27 28 28 29 32 30 30 32 18 34 6 36
REMARK SMILES IDX 7 37 8 38 14 39 15 40 10 41 12 43
REMARK H PARENT 38 24 32 31 30 33 18 35 10 42 12 44
REMARK Flexibility Score: inf
ROOT
ATOM      1  C   UNL     1     134.324 144.806 136.604  1.00  0.00     0.045 C 
ATOM      2  C   UNL     1     133.598 145.392 137.791  1.00  0.00    -0.039 A 
ATOM      3  C   UNL     1     133.425 146.775 137.870  1.00  0.00     0.013 A 
ATOM      4  C   UNL     1     132.696 147.380 138.911  1.00  0.00    -0.006 A 
ATOM      5  C   UNL     1     132.188 146.557 139.965  1.00  0.00     0.039 A 
ATOM      6  C   UNL     1     131.531 147.180 141.069  1.00  0.00     0.072 A 
ATOM      7  C   UNL     1     131.500 148.586 141.161  1.00  0.00     0.169 A 
ATOM      8  C   UNL     1     132.034 149.377 140.146  1.00  0.00     0.162 A 
ATOM      9  C   UNL     1     132.495 148.795 138.943  1.00  0.00     0.008 A 
ATOM     10  C   UNL     1     132.390 145.143 139.894  1.00  0.00     0.132 A 
ATOM     11  C   UNL     1     133.070 144.571 138.798  1.00  0.00     0.031 A 
ENDROOT
BRANCH  11  12
ATOM     12  C   UNL     1     133.248 143.097 138.712  1.00  0.00     0.031 A 
ATOM     13  C   UNL     1     134.401 142.491 139.251  1.00  0.00     0.132 A 
ATOM     14  C   UNL     1     132.266 142.308 138.090  1.00  0.00    -0.039 A 
ATOM     15  C   UNL     1     134.588 141.080 139.151  1.00  0.00     0.039 A 
ATOM     16  C   UNL     1     132.386 140.918 138.116  1.00  0.00     0.013 A 
ATOM     17  C   UNL     1     131.046 142.932 137.456  1.00  0.00     0.045 C 
ATOM     18  C   UNL     1     133.505 140.274 138.684  1.00  0.00    -0.006 A 
ATOM     19  C   UNL     1     135.807 140.447 139.532  1.00  0.00     0.072 A 
ATOM     20  C   UNL     1     133.575 138.848 138.787  1.00  0.00     0.008 A 
ATOM     21  C   UNL     1     135.896 139.042 139.540  1.00  0.00     0.169 A 
ATOM     22  C   UNL     1     134.796 138.257 139.184  1.00  0.00     0.162 A 
BRANCH  13  23
ATOM     23  O   UNL     1     135.342 143.281 139.923  1.00  0.00    -0.507 OA
ATOM     24  H   UNL     1     135.659 143.099 140.864  1.00  0.00     0.293 HD
ENDBRANCH  13  23
BRANCH  19  25
ATOM     25  C   UNL     1     137.037 141.213 139.827  1.00  0.00     0.264 C 
ATOM     26  O   UNL     1     137.469 141.299 141.007  1.00  0.00    -0.298 OA
ENDBRANCH  19  25
BRANCH  20  27
ATOM     27  C   UNL     1     132.385 137.905 138.513  1.00  0.00     0.017 C 
ATOM     28  C   UNL     1     132.029 137.838 137.021  1.00  0.00     0.012 C 
ATOM     29  C   UNL     1     131.161 138.150 139.419  1.00  0.00     0.012 C 
ENDBRANCH  20  27
BRANCH  21  30
ATOM     30  O   UNL     1     137.086 138.386 139.885  1.00  0.00    -0.504 OA
ATOM     31  H   UNL     1     137.955 138.485 139.378  1.00  0.00     0.293 HD
ENDBRANCH  21  30
BRANCH  22  32
ATOM     32  O   UNL     1     134.919 136.863 139.202  1.00  0.00    -0.504 OA
ATOM     33  H   UNL     1     135.481 136.365 139.883  1.00  0.00     0.293 HD
ENDBRANCH  22  32
ENDBRANCH  11  12
BRANCH  10  34
ATOM     34  O   UNL     1     131.936 144.307 140.921  1.00  0.00    -0.507 OA
ATOM     35  H   UNL     1     131.879 144.583 141.892  1.00  0.00     0.293 HD
ENDBRANCH  10  34
BRANCH   9  36
ATOM     36  C   UNL     1     132.658 149.708 137.711  1.00  0.00     0.017 C 
ATOM     37  C   UNL     1     133.884 150.636 137.782  1.00  0.00     0.012 C 
ATOM     38  C   UNL     1     131.365 150.446 137.329  1.00  0.00     0.012 C 
ENDBRANCH   9  36
BRANCH   6  39
ATOM     39  C   UNL     1     130.875 146.393 142.133  1.00  0.00     0.264 C 
ATOM     40  O   UNL     1     131.390 146.304 143.280  1.00  0.00    -0.298 OA
ENDBRANCH   6  39
BRANCH   8  41
ATOM     41  O   UNL     1     132.086 150.757 140.373  1.00  0.00    -0.504 OA
ATOM     42  H   UNL     1     132.896 151.327 140.167  1.00  0.00     0.293 HD
ENDBRANCH   8  41
BRANCH   7  43
ATOM     43  O   UNL     1     130.916 149.249 142.247  1.00  0.00    -0.504 OA
ATOM     44  H   UNL     1     130.255 150.008 142.161  1.00  0.00     0.293 HD
ENDBRANCH   7  43
TORSDOF 11
ENDMDL
MODEL 5
REMARK VINA RESULT:    -1.586     16.808     20.111
REMARK INTER + INTRA:          -4.107
REMARK INTER:                  -2.439
REMARK INTRA:                  -1.668
REMARK UNBOUND:                -1.779
REMARK SMILES Cc1cc2c(C(C)C)c(O)c(O)c(C=O)c2c(O)c1-c1c(C)cc2c(C(C)C)c(O)c(O)c(C=O)c2c1O
REMARK SMILES IDX 1 1 2 2 3 3 4 4 16 5 13 6 11 7 9 8 5 9 17 10 19 11 20 12
REMARK SMILES IDX 37 13 21 14 36 15 23 16 22 17 24 18 33 19 25 20 31 21 29 22
REMARK SMILES IDX 38 23 34 25 35 26 26 27 27 28 28 29 32 30 30 32 18 34 6 36
REMARK SMILES IDX 7 37 8 38 14 39 15 40 10 41 12 43
REMARK H PARENT 38 24 32 31 30 33 18 35 10 42 12 44
REMARK Flexibility Score: inf
ROOT
ATOM      1  C   UNL     1     143.107 130.876 137.737  1.00  0.00     0.045 C 
ATOM      2  C   UNL     1     142.514 132.204 138.139  1.00  0.00    -0.039 A 
ATOM      3  C   UNL     1     141.131 132.382 138.074  1.00  0.00     0.013 A 
ATOM      4  C   UNL     1     140.507 133.568 138.502  1.00  0.00    -0.006 A 
ATOM      5  C   UNL     1     141.325 134.657 138.940  1.00  0.00     0.039 A 
ATOM      6  C   UNL     1     140.699 135.894 139.285  1.00  0.00     0.072 A 
ATOM      7  C   UNL     1     139.315 136.058 139.075  1.00  0.00     0.169 A 
ATOM      8  C   UNL     1     138.536 135.001 138.610  1.00  0.00     0.162 A 
ATOM      9  C   UNL     1     139.085 133.706 138.466  1.00  0.00     0.008 A 
ATOM     10  C   UNL     1     142.743 134.481 138.982  1.00  0.00     0.132 A 
ATOM     11  C   UNL     1     143.323 133.250 138.606  1.00  0.00     0.031 A 
ENDROOT
BRANCH  11  12
ATOM     12  C   UNL     1     144.796 133.061 138.683  1.00  0.00     0.031 A 
ATOM     13  C   UNL     1     145.390 132.605 139.878  1.00  0.00     0.132 A 
ATOM     14  C   UNL     1     145.599 133.341 137.564  1.00  0.00    -0.039 A 
ATOM     15  C   UNL     1     146.805 132.445 139.966  1.00  0.00     0.039 A 
ATOM     16  C   UNL     1     146.963 133.053 137.609  1.00  0.00     0.013 A 
ATOM     17  C   UNL     1     145.000 133.882 136.287  1.00  0.00     0.045 C 
ATOM     18  C   UNL     1     147.585 132.555 138.773  1.00  0.00    -0.006 A 
ATOM     19  C   UNL     1     147.460 132.146 141.196  1.00  0.00     0.072 A 
ATOM     20  C   UNL     1     148.965 132.176 138.782  1.00  0.00     0.008 A 
ATOM     21  C   UNL     1     148.840 131.867 141.207  1.00  0.00     0.169 A 
ATOM     22  C   UNL     1     149.576 131.872 140.019  1.00  0.00     0.162 A 
BRANCH  13  23
ATOM     23  O   UNL     1     144.573 132.271 140.966  1.00  0.00    -0.507 OA
ATOM     24  H   UNL     1     143.633 132.617 141.090  1.00  0.00     0.293 HD
ENDBRANCH  13  23
BRANCH  19  25
ATOM     25  C   UNL     1     146.765 132.218 142.499  1.00  0.00     0.264 C 
ATOM     26  O   UNL     1     146.557 131.173 143.171  1.00  0.00    -0.298 OA
ENDBRANCH  19  25
BRANCH  20  27
ATOM     27  C   UNL     1     149.832 132.055 137.511  1.00  0.00     0.017 C 
ATOM     28  C   UNL     1     150.211 133.426 136.934  1.00  0.00     0.012 C 
ATOM     29  C   UNL     1     149.270 131.084 136.452  1.00  0.00     0.012 C 
ENDBRANCH  20  27
BRANCH  21  30
ATOM     30  O   UNL     1     149.521 131.594 142.401  1.00  0.00    -0.504 OA
ATOM     31  H   UNL     1     149.439 132.151 143.240  1.00  0.00     0.293 HD
ENDBRANCH  21  30
BRANCH  22  32
ATOM     32  O   UNL     1     150.946 131.590 140.065  1.00  0.00    -0.504 OA
ATOM     33  H   UNL     1     151.610 132.148 140.590  1.00  0.00     0.293 HD
ENDBRANCH  22  32
ENDBRANCH  11  12
BRANCH  10  34
ATOM     34  O   UNL     1     143.580 135.532 139.375  1.00  0.00    -0.507 OA
ATOM     35  H   UNL     1     143.662 136.407 138.876  1.00  0.00     0.293 HD
ENDBRANCH  10  34
BRANCH   9  36
ATOM     36  C   UNL     1     138.114 132.512 138.379  1.00  0.00     0.017 C 
ATOM     37  C   UNL     1     138.305 131.471 139.498  1.00  0.00     0.012 C 
ATOM     38  C   UNL     1     138.051 131.884 136.977  1.00  0.00     0.012 C 
ENDBRANCH   9  36
BRANCH   6  39
ATOM     39  C   UNL     1     141.460 137.021 139.860  1.00  0.00     0.264 C 
ATOM     40  O   UNL     1     141.145 137.509 140.979  1.00  0.00    -0.298 OA
ENDBRANCH   6  39
BRANCH   8  41
ATOM     41  O   UNL     1     137.200 135.282 138.299  1.00  0.00    -0.504 OA
ATOM     42  H   UNL     1     136.901 135.659 137.409  1.00  0.00     0.293 HD
ENDBRANCH   8  41
BRANCH   7  43
ATOM     43  O   UNL     1     138.659 137.265 139.345  1.00  0.00    -0.504 OA
ATOM     44  H   UNL     1     139.118 138.164 139.387  1.00  0.00     0.293 HD
ENDBRANCH   7  43
TORSDOF 11
ENDMDL
MODEL 6
REMARK VINA RESULT:    -1.581      4.547      8.295
REMARK INTER + INTRA:          -4.099
REMARK INTER:                  -2.298
REMARK INTRA:                  -1.801
REMARK UNBOUND:                -1.779
REMARK SMILES Cc1cc2c(C(C)C)c(O)c(O)c(C=O)c2c(O)c1-c1c(C)cc2c(C(C)C)c(O)c(O)c(C=O)c2c1O
REMARK SMILES IDX 1 1 2 2 3 3 4 4 16 5 13 6 11 7 9 8 5 9 17 10 19 11 20 12
REMARK SMILES IDX 37 13 21 14 36 15 23 16 22 17 24 18 33 19 25 20 31 21 29 22
REMARK SMILES IDX 38 23 34 25 35 26 26 27 27 28 28 29 32 30 30 32 18 34 6 36
REMARK SMILES IDX 7 37 8 38 14 39 15 40 10 41 12 43
REMARK H PARENT 38 24 32 31 30 33 18 35 10 42 12 44
REMARK Flexibility Score: inf
ROOT
ATOM      1  C   UNL     1     137.109 145.593 137.621  1.00  0.00     0.045 C 
ATOM      2  C   UNL     1     138.261 146.523 137.327  1.00  0.00    -0.039 A 
ATOM      3  C   UNL     1     139.425 146.008 136.755  1.00  0.00     0.013 A 
ATOM      4  C   UNL     1     140.506 146.831 136.389  1.00  0.00    -0.006 A 
ATOM      5  C   UNL     1     140.442 148.228 136.689  1.00  0.00     0.039 A 
ATOM      6  C   UNL     1     141.578 149.046 136.404  1.00  0.00     0.072 A 
ATOM      7  C   UNL     1     142.771 148.451 135.949  1.00  0.00     0.169 A 
ATOM      8  C   UNL     1     142.833 147.083 135.698  1.00  0.00     0.162 A 
ATOM      9  C   UNL     1     141.669 146.282 135.763  1.00  0.00     0.008 A 
ATOM     10  C   UNL     1     139.258 148.748 137.298  1.00  0.00     0.132 A 
ATOM     11  C   UNL     1     138.170 147.898 137.589  1.00  0.00     0.031 A 
ENDROOT
BRANCH  11  12
ATOM     12  C   UNL     1     136.928 148.451 138.192  1.00  0.00     0.031 A 
ATOM     13  C   UNL     1     135.881 148.906 137.365  1.00  0.00     0.132 A 
ATOM     14  C   UNL     1     136.799 148.523 139.589  1.00  0.00    -0.039 A 
ATOM     15  C   UNL     1     134.697 149.459 137.937  1.00  0.00     0.039 A 
ATOM     16  C   UNL     1     135.587 148.935 140.146  1.00  0.00     0.013 A 
ATOM     17  C   UNL     1     137.923 148.094 140.502  1.00  0.00     0.045 C 
ATOM     18  C   UNL     1     134.503 149.357 139.349  1.00  0.00    -0.006 A 
ATOM     19  C   UNL     1     133.688 150.079 137.143  1.00  0.00     0.072 A 
ATOM     20  C   UNL     1     133.236 149.690 139.925  1.00  0.00     0.008 A 
ATOM     21  C   UNL     1     132.480 150.490 137.738  1.00  0.00     0.169 A 
ATOM     22  C   UNL     1     132.255 150.289 139.102  1.00  0.00     0.162 A 
BRANCH  13  23
ATOM     23  O   UNL     1     135.996 148.771 135.975  1.00  0.00    -0.507 OA
ATOM     24  H   UNL     1     135.342 148.255 135.404  1.00  0.00     0.293 HD
ENDBRANCH  13  23
BRANCH  19  25
ATOM     25  C   UNL     1     133.897 150.409 135.717  1.00  0.00     0.264 C 
ATOM     26  O   UNL     1     133.285 149.774 134.817  1.00  0.00    -0.298 OA
ENDBRANCH  19  25
BRANCH  20  27
ATOM     27  C   UNL     1     132.859 149.414 141.395  1.00  0.00     0.017 C 
ATOM     28  C   UNL     1     133.561 150.376 142.365  1.00  0.00     0.012 C 
ATOM     29  C   UNL     1     132.981 147.934 141.813  1.00  0.00     0.012 C 
ENDBRANCH  20  27
BRANCH  21  30
ATOM     30  O   UNL     1     131.477 151.125 136.993  1.00  0.00    -0.504 OA
ATOM     31  H   UNL     1     131.081 152.025 137.226  1.00  0.00     0.293 HD
ENDBRANCH  21  30
BRANCH  22  32
ATOM     32  O   UNL     1     131.042 150.710 139.662  1.00  0.00    -0.504 OA
ATOM     33  H   UNL     1     130.358 150.069 140.047  1.00  0.00     0.293 HD
ENDBRANCH  22  32
ENDBRANCH  11  12
BRANCH  10  34
ATOM     34  O   UNL     1     139.169 150.104 137.636  1.00  0.00    -0.507 OA
ATOM     35  H   UNL     1     139.264 150.460 138.577  1.00  0.00     0.293 HD
ENDBRANCH  10  34
BRANCH   9  36
ATOM     36  C   UNL     1     141.694 144.906 135.067  1.00  0.00     0.017 C 
ATOM     37  C   UNL     1     142.522 143.846 135.816  1.00  0.00     0.012 C 
ATOM     38  C   UNL     1     142.037 144.991 133.571  1.00  0.00     0.012 C 
ENDBRANCH   9  36
BRANCH   6  39
ATOM     39  C   UNL     1     141.545 150.513 136.572  1.00  0.00     0.264 C 
ATOM     40  O   UNL     1     142.143 151.066 137.534  1.00  0.00    -0.298 OA
ENDBRANCH   6  39
BRANCH   8  41
ATOM     41  O   UNL     1     144.087 146.548 135.380  1.00  0.00    -0.504 OA
ATOM     42  H   UNL     1     144.540 145.824 135.923  1.00  0.00     0.293 HD
ENDBRANCH   8  41
BRANCH   7  43
ATOM     43  O   UNL     1     143.930 149.198 135.705  1.00  0.00    -0.504 OA
ATOM     44  H   UNL     1     144.528 149.572 136.428  1.00  0.00     0.293 HD
ENDBRANCH   7  43
TORSDOF 11
ENDMDL
MODEL 7
REMARK VINA RESULT:    -1.574     16.178     19.846
REMARK INTER + INTRA:          -4.089
REMARK INTER:                  -2.464
REMARK INTRA:                  -1.625
REMARK UNBOUND:                -1.779
REMARK SMILES Cc1cc2c(C(C)C)c(O)c(O)c(C=O)c2c(O)c1-c1c(C)cc2c(C(C)C)c(O)c(O)c(C=O)c2c1O
REMARK SMILES IDX 1 1 2 2 3 3 4 4 16 5 13 6 11 7 9 8 5 9 17 10 19 11 20 12
REMARK SMILES IDX 37 13 21 14 36 15 23 16 22 17 24 18 33 19 25 20 31 21 29 22
REMARK SMILES IDX 38 23 34 25 35 26 26 27 27 28 28 29 32 30 30 32 18 34 6 36
REMARK SMILES IDX 7 37 8 38 14 39 15 40 10 41 12 43
REMARK H PARENT 38 24 32 31 30 33 18 35 10 42 12 44
REMARK Flexibility Score: inf
ROOT
ATOM      1  C   UNL     1     145.790 137.578 138.714  1.00  0.00     0.045 C 
ATOM      2  C   UNL     1     146.749 138.705 139.011  1.00  0.00    -0.039 A 
ATOM      3  C   UNL     1     146.267 140.013 139.076  1.00  0.00     0.013 A 
ATOM      4  C   UNL     1     147.092 141.099 139.421  1.00  0.00    -0.006 A 
ATOM      5  C   UNL     1     148.488 140.865 139.629  1.00  0.00     0.039 A 
ATOM      6  C   UNL     1     149.342 141.981 139.885  1.00  0.00     0.072 A 
ATOM      7  C   UNL     1     148.824 143.290 139.809  1.00  0.00     0.169 A 
ATOM      8  C   UNL     1     147.470 143.505 139.566  1.00  0.00     0.162 A 
ATOM      9  C   UNL     1     146.561 142.423 139.524  1.00  0.00     0.008 A 
ATOM     10  C   UNL     1     148.984 139.528 139.537  1.00  0.00     0.132 A 
ATOM     11  C   UNL     1     148.109 138.457 139.254  1.00  0.00     0.031 A 
ENDROOT
BRANCH  11  12
ATOM     12  C   UNL     1     148.624 137.064 139.192  1.00  0.00     0.031 A 
ATOM     13  C   UNL     1     148.653 136.268 140.355  1.00  0.00     0.132 A 
ATOM     14  C   UNL     1     149.088 136.541 137.973  1.00  0.00    -0.039 A 
ATOM     15  C   UNL     1     149.168 134.938 140.307  1.00  0.00     0.039 A 
ATOM     16  C   UNL     1     149.462 135.199 137.901  1.00  0.00     0.013 A 
ATOM     17  C   UNL     1     149.121 137.386 136.722  1.00  0.00     0.045 C 
ATOM     18  C   UNL     1     149.462 134.360 139.034  1.00  0.00    -0.006 A 
ATOM     19  C   UNL     1     149.367 134.158 141.484  1.00  0.00     0.072 A 
ATOM     20  C   UNL     1     149.760 132.964 138.932  1.00  0.00     0.008 A 
ATOM     21  C   UNL     1     149.753 132.808 141.375  1.00  0.00     0.169 A 
ATOM     22  C   UNL     1     149.935 132.220 140.121  1.00  0.00     0.162 A 
BRANCH  13  23
ATOM     23  O   UNL     1     148.130 136.779 141.550  1.00  0.00    -0.507 OA
ATOM     24  H   UNL     1     147.336 136.383 142.032  1.00  0.00     0.293 HD
ENDBRANCH  13  23
BRANCH  19  25
ATOM     25  C   UNL     1     149.287 134.741 142.841  1.00  0.00     0.264 C 
ATOM     26  O   UNL     1     148.225 134.653 143.512  1.00  0.00    -0.298 OA
ENDBRANCH  19  25
BRANCH  20  27
ATOM     27  C   UNL     1     149.880 132.204 137.594  1.00  0.00     0.017 C 
ATOM     28  C   UNL     1     151.125 132.622 136.800  1.00  0.00     0.012 C 
ATOM     29  C   UNL     1     148.590 132.207 136.747  1.00  0.00     0.012 C 
ENDBRANCH  20  27
BRANCH  21  30
ATOM     30  O   UNL     1     149.982 132.019 142.511  1.00  0.00    -0.504 OA
ATOM     31  H   UNL     1     149.249 131.586 143.056  1.00  0.00     0.293 HD
ENDBRANCH  21  30
BRANCH  22  32
ATOM     32  O   UNL     1     150.318 130.875 140.048  1.00  0.00    -0.504 OA
ATOM     33  H   UNL     1     150.566 130.325 140.862  1.00  0.00     0.293 HD
ENDBRANCH  22  32
ENDBRANCH  11  12
BRANCH  10  34
ATOM     34  O   UNL     1     150.348 139.262 139.703  1.00  0.00    -0.507 OA
ATOM     35  H   UNL     1     150.719 138.367 139.992  1.00  0.00     0.293 HD
ENDBRANCH  10  34
BRANCH   9  36
ATOM     36  C   UNL     1     145.059 142.729 139.692  1.00  0.00     0.017 C 
ATOM     37  C   UNL     1     144.415 143.381 138.455  1.00  0.00     0.012 C 
ATOM     38  C   UNL     1     144.735 143.469 141.000  1.00  0.00     0.012 C 
ENDBRANCH   9  36
BRANCH   6  39
ATOM     39  C   UNL     1     150.768 141.810 140.229  1.00  0.00     0.264 C 
ATOM     40  O   UNL     1     151.122 141.579 141.417  1.00  0.00    -0.298 OA
ENDBRANCH   6  39
BRANCH   8  41
ATOM     41  O   UNL     1     147.060 144.829 139.371  1.00  0.00    -0.504 OA
ATOM     42  H   UNL     1     146.864 145.471 140.129  1.00  0.00     0.293 HD
ENDBRANCH   8  41
BRANCH   7  43
ATOM     43  O   UNL     1     149.628 144.420 139.998  1.00  0.00    -0.504 OA
ATOM     44  H   UNL     1     150.547 144.538 139.596  1.00  0.00     0.293 HD
ENDBRANCH   7  43
TORSDOF 11
ENDMDL
MODEL 8
REMARK VINA RESULT:    -1.504      3.524      9.356
REMARK INTER + INTRA:          -3.986
REMARK INTER:                  -2.338
REMARK INTRA:                  -1.649
REMARK UNBOUND:                -1.779
REMARK SMILES Cc1cc2c(C(C)C)c(O)c(O)c(C=O)c2c(O)c1-c1c(C)cc2c(C(C)C)c(O)c(O)c(C=O)c2c1O
REMARK SMILES IDX 1 1 2 2 3 3 4 4 16 5 13 6 11 7 9 8 5 9 17 10 19 11 20 12
REMARK SMILES IDX 37 13 21 14 36 15 23 16 22 17 24 18 33 19 25 20 31 21 29 22
REMARK SMILES IDX 38 23 34 25 35 26 26 27 27 28 28 29 32 30 30 32 18 34 6 36
REMARK SMILES IDX 7 37 8 38 14 39 15 40 10 41 12 43
REMARK H PARENT 38 24 32 31 30 33 18 35 10 42 12 44
REMARK Flexibility Score: inf
ROOT
ATOM      1  C   UNL     1     138.276 148.444 136.789  1.00  0.00     0.045 C 
ATOM      2  C   UNL     1     137.066 148.851 137.594  1.00  0.00    -0.039 A 
ATOM      3  C   UNL     1     135.862 149.108 136.936  1.00  0.00     0.013 A 
ATOM      4  C   UNL     1     134.680 149.420 137.632  1.00  0.00    -0.006 A 
ATOM      5  C   UNL     1     134.735 149.561 139.055  1.00  0.00     0.039 A 
ATOM      6  C   UNL     1     133.557 149.971 139.752  1.00  0.00     0.072 A 
ATOM      7  C   UNL     1     132.409 150.343 139.025  1.00  0.00     0.169 A 
ATOM      8  C   UNL     1     132.382 150.239 137.636  1.00  0.00     0.162 A 
ATOM      9  C   UNL     1     133.450 149.634 136.935  1.00  0.00     0.008 A 
ATOM     10  C   UNL     1     135.975 149.323 139.724  1.00  0.00     0.132 A 
ATOM     11  C   UNL     1     137.122 148.947 138.993  1.00  0.00     0.031 A 
ENDROOT
BRANCH  11  12
ATOM     12  C   UNL     1     138.402 148.667 139.697  1.00  0.00     0.031 A 
ATOM     13  C   UNL     1     138.693 147.363 140.145  1.00  0.00     0.132 A 
ATOM     14  C   UNL     1     139.320 149.707 139.921  1.00  0.00    -0.039 A 
ATOM     15  C   UNL     1     139.909 147.093 140.842  1.00  0.00     0.039 A 
ATOM     16  C   UNL     1     140.565 149.414 140.479  1.00  0.00     0.013 A 
ATOM     17  C   UNL     1     139.014 151.125 139.502  1.00  0.00     0.045 C 
ATOM     18  C   UNL     1     140.909 148.112 140.899  1.00  0.00    -0.006 A 
ATOM     19  C   UNL     1     140.170 145.832 141.453  1.00  0.00     0.072 A 
ATOM     20  C   UNL     1     142.219 147.804 141.386  1.00  0.00     0.008 A 
ATOM     21  C   UNL     1     141.434 145.572 142.015  1.00  0.00     0.169 A 
ATOM     22  C   UNL     1     142.444 146.537 141.971  1.00  0.00     0.162 A 
BRANCH  13  23
ATOM     23  O   UNL     1     137.798 146.323 139.861  1.00  0.00    -0.507 OA
ATOM     24  H   UNL     1     137.209 146.297 139.041  1.00  0.00     0.293 HD
ENDBRANCH  13  23
BRANCH  19  25
ATOM     25  C   UNL     1     139.121 144.803 141.620  1.00  0.00     0.264 C 
ATOM     26  O   UNL     1     138.437 144.753 142.676  1.00  0.00    -0.298 OA
ENDBRANCH  19  25
BRANCH  20  27
ATOM     27  C   UNL     1     143.421 148.766 141.290  1.00  0.00     0.017 C 
ATOM     28  C   UNL     1     143.289 149.958 142.249  1.00  0.00     0.012 C 
ATOM     29  C   UNL     1     143.785 149.183 139.850  1.00  0.00     0.012 C 
ENDBRANCH  20  27
BRANCH  21  30
ATOM     30  O   UNL     1     141.718 144.353 142.645  1.00  0.00    -0.504 OA
ATOM     31  H   UNL     1     142.309 144.260 143.460  1.00  0.00     0.293 HD
ENDBRANCH  21  30
BRANCH  22  32
ATOM     32  O   UNL     1     143.690 146.246 142.538  1.00  0.00    -0.504 OA
ATOM     33  H   UNL     1     144.342 146.961 142.842  1.00  0.00     0.293 HD
ENDBRANCH  22  32
ENDBRANCH  11  12
BRANCH  10  34
ATOM     34  O   UNL     1     136.077 149.481 141.111  1.00  0.00    -0.507 OA
ATOM     35  H   UNL     1     136.731 150.105 141.563  1.00  0.00     0.293 HD
ENDBRANCH  10  34
BRANCH   9  36
ATOM     36  C   UNL     1     133.192 149.151 135.493  1.00  0.00     0.017 C 
ATOM     37  C   UNL     1     133.030 150.294 134.475  1.00  0.00     0.012 C 
ATOM     38  C   UNL     1     132.076 148.098 135.398  1.00  0.00     0.012 C 
ENDBRANCH   9  36
BRANCH   6  39
ATOM     39  C   UNL     1     133.501 150.022 141.227  1.00  0.00     0.264 C 
ATOM     40  O   UNL     1     133.535 151.125 141.837  1.00  0.00    -0.298 OA
ENDBRANCH   6  39
BRANCH   8  41
ATOM     41  O   UNL     1     131.257 150.753 136.980  1.00  0.00    -0.504 OA
ATOM     42  H   UNL     1     131.308 151.302 136.131  1.00  0.00     0.293 HD
ENDBRANCH   8  41
BRANCH   7  43
ATOM     43  O   UNL     1     131.246 150.803 139.654  1.00  0.00    -0.504 OA
ATOM     44  H   UNL     1     130.793 151.681 139.441  1.00  0.00     0.293 HD
ENDBRANCH   7  43
TORSDOF 11
ENDMDL
MODEL 9
REMARK VINA RESULT:     1.211     12.497     17.223
REMARK INTER + INTRA:          -0.002
REMARK INTER:                   1.531
REMARK INTRA:                  -1.533
REMARK UNBOUND:                -1.779
REMARK SMILES Cc1cc2c(C(C)C)c(O)c(O)c(C=O)c2c(O)c1-c1c(C)cc2c(C(C)C)c(O)c(O)c(C=O)c2c1O
REMARK SMILES IDX 1 1 2 2 3 3 4 4 16 5 13 6 11 7 9 8 5 9 17 10 19 11 20 12
REMARK SMILES IDX 37 13 21 14 36 15 23 16 22 17 24 18 33 19 25 20 31 21 29 22
REMARK SMILES IDX 38 23 34 25 35 26 26 27 27 28 28 29 32 30 30 32 18 34 6 36
REMARK SMILES IDX 7 37 8 38 14 39 15 40 10 41 12 43
REMARK H PARENT 38 24 32 31 30 33 18 35 10 42 12 44
REMARK Flexibility Score: inf
ROOT
ATOM      1  C   UNL     1     147.930 151.125 136.015  1.00  0.00     0.045 C 
ATOM      2  C   UNL     1     148.391 149.782 135.503  1.00  0.00    -0.039 A 
ATOM      3  C   UNL     1     148.492 149.573 134.127  1.00  0.00     0.013 A 
ATOM      4  C   UNL     1     148.985 148.371 133.586  1.00  0.00    -0.006 A 
ATOM      5  C   UNL     1     149.312 147.299 134.475  1.00  0.00     0.039 A 
ATOM      6  C   UNL     1     149.722 146.047 133.921  1.00  0.00     0.072 A 
ATOM      7  C   UNL     1     149.680 145.852 132.526  1.00  0.00     0.169 A 
ATOM      8  C   UNL     1     149.320 146.893 131.674  1.00  0.00     0.162 A 
ATOM      9  C   UNL     1     149.120 148.201 132.173  1.00  0.00     0.008 A 
ATOM     10  C   UNL     1     149.184 147.507 135.883  1.00  0.00     0.132 A 
ATOM     11  C   UNL     1     148.749 148.752 136.386  1.00  0.00     0.031 A 
ENDROOT
BRANCH  11  12
ATOM     12  C   UNL     1     148.649 148.974 137.853  1.00  0.00     0.031 A 
ATOM     13  C   UNL     1     147.407 148.834 138.507  1.00  0.00     0.132 A 
ATOM     14  C   UNL     1     149.792 149.327 138.588  1.00  0.00    -0.039 A 
ATOM     15  C   UNL     1     147.300 149.069 139.910  1.00  0.00     0.039 A 
ATOM     16  C   UNL     1     149.712 149.421 139.978  1.00  0.00     0.013 A 
ATOM     17  C   UNL     1     151.125 149.537 137.909  1.00  0.00     0.045 C 
ATOM     18  C   UNL     1     148.496 149.245 140.671  1.00  0.00    -0.006 A 
ATOM     19  C   UNL     1     146.043 149.100 140.581  1.00  0.00     0.072 A 
ATOM     20  C   UNL     1     148.442 149.253 142.101  1.00  0.00     0.008 A 
ATOM     21  C   UNL     1     145.997 149.203 141.984  1.00  0.00     0.169 A 
ATOM     22  C   UNL     1     147.177 149.268 142.731  1.00  0.00     0.162 A 
BRANCH  13  23
ATOM     23  O   UNL     1     146.288 148.420 137.773  1.00  0.00    -0.507 OA
ATOM     24  H   UNL     1     145.393 148.203 138.188  1.00  0.00     0.293 HD
ENDBRANCH  13  23
BRANCH  19  25
ATOM     25  C   UNL     1     144.758 149.133 139.849  1.00  0.00     0.264 C 
ATOM     26  O   UNL     1     143.987 150.123 139.956  1.00  0.00    -0.298 OA
ENDBRANCH  19  25
BRANCH  20  27
ATOM     27  C   UNL     1     149.688 149.223 143.011  1.00  0.00     0.017 C 
ATOM     28  C   UNL     1     150.494 150.527 142.934  1.00  0.00     0.012 C 
ATOM     29  C   UNL     1     150.560 147.960 142.848  1.00  0.00     0.012 C 
ENDBRANCH  20  27
BRANCH  21  30
ATOM     30  O   UNL     1     144.779 149.261 142.675  1.00  0.00    -0.504 OA
ATOM     31  H   UNL     1     144.205 150.091 142.742  1.00  0.00     0.293 HD
ENDBRANCH  21  30
BRANCH  22  32
ATOM     32  O   UNL     1     147.097 149.370 144.125  1.00  0.00    -0.504 OA
ATOM     33  H   UNL     1     147.875 149.660 144.705  1.00  0.00     0.293 HD
ENDBRANCH  22  32
ENDBRANCH  11  12
BRANCH  10  34
ATOM     34  O   UNL     1     149.465 146.473 136.784  1.00  0.00    -0.507 OA
ATOM     35  H   UNL     1     148.768 145.845 137.160  1.00  0.00     0.293 HD
ENDBRANCH  10  34
BRANCH   9  36
ATOM     36  C   UNL     1     149.160 149.374 131.172  1.00  0.00     0.017 C 
ATOM     37  C   UNL     1     150.340 150.338 131.391  1.00  0.00     0.012 C 
ATOM     38  C   UNL     1     147.810 150.096 131.033  1.00  0.00     0.012 C 
ENDBRANCH   9  36
BRANCH   6  39
ATOM     39  C   UNL     1     150.192 144.934 134.771  1.00  0.00     0.264 C 
ATOM     40  O   UNL     1     149.515 143.877 134.883  1.00  0.00    -0.298 OA
ENDBRANCH   6  39
BRANCH   8  41
ATOM     41  O   UNL     1     149.171 146.584 130.317  1.00  0.00    -0.504 OA
ATOM     42  H   UNL     1     149.162 145.638 129.957  1.00  0.00     0.293 HD
ENDBRANCH   8  41
BRANCH   7  43
ATOM     43  O   UNL     1     150.018 144.630 131.935  1.00  0.00    -0.504 OA
ATOM     44  H   UNL     1     150.759 144.025 132.263  1.00  0.00     0.293 HD
ENDBRANCH   7  43
TORSDOF 11
ENDMDL
