MODEL 1
REMARK VINA RESULT:    -4.563      0.000      0.000
REMARK INTER + INTRA:          -5.575
REMARK INTER:                  -5.364
REMARK INTRA:                  -0.211
REMARK UNBOUND:                -0.211
REMARK SMILES O=c1c(O)c(-c2ccc(O)c(O)c2)oc2cc(O)ccc12
REMARK SMILES IDX 5 1 3 2 2 3 1 4 21 5 15 6 14 7 16 8 17 9 19 10 20 11 6 12
REMARK SMILES IDX 7 13 8 14 9 15 13 16 11 17 10 18 12 20 4 22 18 24
REMARK H PARENT 10 19 12 21 4 23 18 25
REMARK Flexibility Score: inf
ROOT
ATOM      1  C   UNL     1      -3.126 -13.519  28.961  1.00  0.00     0.180 A 
ATOM      2  C   UNL     1      -3.262 -13.160  27.603  1.00  0.00     0.208 A 
ATOM      3  C   UNL     1      -4.448 -13.497  26.931  1.00  0.00     0.235 A 
ATOM      4  O   UNL     1      -4.598 -13.179  25.719  1.00  0.00    -0.285 OA
ATOM      5  C   UNL     1      -5.456 -14.195  27.615  1.00  0.00     0.069 A 
ATOM      6  C   UNL     1      -5.232 -14.537  28.967  1.00  0.00     0.142 A 
ATOM      7  O   UNL     1      -4.099 -14.192  29.569  1.00  0.00    -0.452 OA
ATOM      8  C   UNL     1      -6.208 -15.241  29.681  1.00  0.00     0.094 A 
ATOM      9  C   UNL     1      -7.409 -15.607  29.059  1.00  0.00     0.119 A 
ATOM     10  C   UNL     1      -7.633 -15.268  27.722  1.00  0.00     0.047 A 
ATOM     11  C   UNL     1      -6.664 -14.566  26.999  1.00  0.00     0.020 A 
ENDROOT
BRANCH   1  12
ATOM     12  C   UNL     1      -1.914 -13.184  29.743  1.00  0.00     0.025 A 
ATOM     13  C   UNL     1      -0.717 -13.869  29.490  1.00  0.00     0.016 A 
ATOM     14  C   UNL     1       0.434 -13.585  30.230  1.00  0.00     0.051 A 
ATOM     15  C   UNL     1       0.401 -12.623  31.244  1.00  0.00     0.157 A 
ATOM     16  C   UNL     1      -1.949 -12.230  30.777  1.00  0.00     0.062 A 
ATOM     17  C   UNL     1      -0.797 -11.944  31.523  1.00  0.00     0.158 A 
BRANCH  15  18
ATOM     18  O   UNL     1       1.566 -12.358  31.964  1.00  0.00    -0.504 OA
ATOM     19  H   UNL     1       1.676 -11.518  32.519  1.00  0.00     0.293 HD
ENDBRANCH  15  18
BRANCH  17  20
ATOM     20  O   UNL     1      -0.839 -10.994  32.542  1.00  0.00    -0.504 OA
ATOM     21  H   UNL     1      -0.428 -11.173  33.451  1.00  0.00     0.293 HD
ENDBRANCH  17  20
ENDBRANCH   1  12
BRANCH   2  22
ATOM     22  O   UNL     1      -2.222 -12.510  26.934  1.00  0.00    -0.502 OA
ATOM     23  H   UNL     1      -2.360 -11.639  26.436  1.00  0.00     0.293 HD
ENDBRANCH   2  22
BRANCH   9  24
ATOM     24  O   UNL     1      -8.387 -16.307  29.763  1.00  0.00    -0.508 OA
ATOM     25  H   UNL     1      -9.216 -15.846  30.119  1.00  0.00     0.293 HD
ENDBRANCH   9  24
TORSDOF 5
ENDMDL
MODEL 2
REMARK VINA RESULT:    -4.024      3.364      4.988
REMARK INTER + INTRA:          -4.941
REMARK INTER:                  -4.690
REMARK INTRA:                  -0.251
REMARK UNBOUND:                -0.211
REMARK SMILES O=c1c(O)c(-c2ccc(O)c(O)c2)oc2cc(O)ccc12
REMARK SMILES IDX 5 1 3 2 2 3 1 4 21 5 15 6 14 7 16 8 17 9 19 10 20 11 6 12
REMARK SMILES IDX 7 13 8 14 9 15 13 16 11 17 10 18 12 20 4 22 18 24
REMARK H PARENT 10 19 12 21 4 23 18 25
REMARK Flexibility Score: inf
ROOT
ATOM      1  C   UNL     1      -3.907 -12.354  31.277  1.00  0.00     0.180 A 
ATOM      2  C   UNL     1      -2.510 -12.430  31.095  1.00  0.00     0.208 A 
ATOM      3  C   UNL     1      -2.013 -12.949  29.890  1.00  0.00     0.235 A 
ATOM      4  O   UNL     1      -0.767 -13.018  29.699  1.00  0.00    -0.285 OA
ATOM      5  C   UNL     1      -2.910 -13.396  28.907  1.00  0.00     0.069 A 
ATOM      6  C   UNL     1      -4.294 -13.308  29.176  1.00  0.00     0.142 A 
ATOM      7  O   UNL     1      -4.724 -12.802  30.326  1.00  0.00    -0.452 OA
ATOM      8  C   UNL     1      -5.221 -13.752  28.226  1.00  0.00     0.094 A 
ATOM      9  C   UNL     1      -4.781 -14.284  27.007  1.00  0.00     0.119 A 
ATOM     10  C   UNL     1      -3.411 -14.370  26.738  1.00  0.00     0.047 A 
ATOM     11  C   UNL     1      -2.478 -13.930  27.681  1.00  0.00     0.020 A 
ENDROOT
BRANCH   1  12
ATOM     12  C   UNL     1      -4.510 -11.803  32.512  1.00  0.00     0.025 A 
ATOM     13  C   UNL     1      -4.497 -10.416  32.727  1.00  0.00     0.016 A 
ATOM     14  C   UNL     1      -5.041  -9.875  33.895  1.00  0.00     0.051 A 
ATOM     15  C   UNL     1      -5.592 -10.710  34.871  1.00  0.00     0.157 A 
ATOM     16  C   UNL     1      -5.048 -12.643  33.504  1.00  0.00     0.062 A 
ATOM     17  C   UNL     1      -5.593 -12.102  34.677  1.00  0.00     0.158 A 
BRANCH  15  18
ATOM     18  O   UNL     1      -6.131 -10.142  36.025  1.00  0.00    -0.504 OA
ATOM     19  H   UNL     1      -5.960  -9.176  36.279  1.00  0.00     0.293 HD
ENDBRANCH  15  18
BRANCH  17  20
ATOM     20  O   UNL     1      -6.128 -12.941  35.653  1.00  0.00    -0.504 OA
ATOM     21  H   UNL     1      -6.440 -12.583  36.549  1.00  0.00     0.293 HD
ENDBRANCH  17  20
ENDBRANCH   1  12
BRANCH   2  22
ATOM     22  O   UNL     1      -1.641 -12.024  32.110  1.00  0.00    -0.502 OA
ATOM     23  H   UNL     1      -1.792 -12.268  33.082  1.00  0.00     0.293 HD
ENDBRANCH   2  22
BRANCH   9  24
ATOM     24  O   UNL     1      -5.697 -14.727  26.055  1.00  0.00    -0.508 OA
ATOM     25  H   UNL     1      -5.731 -15.697  25.764  1.00  0.00     0.293 HD
ENDBRANCH   9  24
TORSDOF 5
ENDMDL
MODEL 3
REMARK VINA RESULT:    -3.351      3.470      5.089
REMARK INTER + INTRA:          -4.150
REMARK INTER:                  -4.253
REMARK INTRA:                   0.103
REMARK UNBOUND:                -0.211
REMARK SMILES O=c1c(O)c(-c2ccc(O)c(O)c2)oc2cc(O)ccc12
REMARK SMILES IDX 5 1 3 2 2 3 1 4 21 5 15 6 14 7 16 8 17 9 19 10 20 11 6 12
REMARK SMILES IDX 7 13 8 14 9 15 13 16 11 17 10 18 12 20 4 22 18 24
REMARK H PARENT 10 19 12 21 4 23 18 25
REMARK Flexibility Score: inf
ROOT
ATOM      1  C   UNL     1      -4.085 -11.827  31.164  1.00  0.00     0.180 A 
ATOM      2  C   UNL     1      -3.139 -10.840  30.817  1.00  0.00     0.208 A 
ATOM      3  C   UNL     1      -2.708 -10.756  29.484  1.00  0.00     0.235 A 
ATOM      4  O   UNL     1      -1.870  -9.875  29.146  1.00  0.00    -0.285 OA
ATOM      5  C   UNL     1      -3.210 -11.663  28.537  1.00  0.00     0.069 A 
ATOM      6  C   UNL     1      -4.136 -12.637  28.970  1.00  0.00     0.142 A 
ATOM      7  O   UNL     1      -4.525 -12.677  30.239  1.00  0.00    -0.452 OA
ATOM      8  C   UNL     1      -4.653 -13.565  28.059  1.00  0.00     0.094 A 
ATOM      9  C   UNL     1      -4.254 -13.531  26.716  1.00  0.00     0.119 A 
ATOM     10  C   UNL     1      -3.338 -12.567  26.285  1.00  0.00     0.047 A 
ATOM     11  C   UNL     1      -2.816 -11.636  27.187  1.00  0.00     0.020 A 
ENDROOT
BRANCH   1  12
ATOM     12  C   UNL     1      -4.603 -11.968  32.544  1.00  0.00     0.025 A 
ATOM     13  C   UNL     1      -4.828 -13.250  33.070  1.00  0.00     0.016 A 
ATOM     14  C   UNL     1      -5.336 -13.407  34.362  1.00  0.00     0.051 A 
ATOM     15  C   UNL     1      -5.639 -12.287  35.142  1.00  0.00     0.157 A 
ATOM     16  C   UNL     1      -4.928 -10.844  33.324  1.00  0.00     0.062 A 
ATOM     17  C   UNL     1      -5.439 -10.998  34.620  1.00  0.00     0.158 A 
BRANCH  15  18
ATOM     18  O   UNL     1      -6.142 -12.475  36.430  1.00  0.00    -0.504 OA
ATOM     19  H   UNL     1      -5.887 -13.275  36.996  1.00  0.00     0.293 HD
ENDBRANCH  15  18
BRANCH  17  20
ATOM     20  O   UNL     1      -5.753  -9.879  35.388  1.00  0.00    -0.504 OA
ATOM     21  H   UNL     1      -6.232  -9.963  36.278  1.00  0.00     0.293 HD
ENDBRANCH  17  20
ENDBRANCH   1  12
BRANCH   2  22
ATOM     22  O   UNL     1      -2.620  -9.983  31.790  1.00  0.00    -0.502 OA
ATOM     23  H   UNL     1      -3.206  -9.359  32.331  1.00  0.00     0.293 HD
ENDBRANCH   2  22
BRANCH   9  24
ATOM     24  O   UNL     1      -4.764 -14.451  25.802  1.00  0.00    -0.508 OA
ATOM     25  H   UNL     1      -5.003 -14.180  24.855  1.00  0.00     0.293 HD
ENDBRANCH   9  24
TORSDOF 5
ENDMDL
MODEL 4
REMARK VINA RESULT:    -2.877      1.742      6.668
REMARK INTER + INTRA:          -3.592
REMARK INTER:                  -3.935
REMARK INTRA:                   0.343
REMARK UNBOUND:                -0.211
REMARK SMILES O=c1c(O)c(-c2ccc(O)c(O)c2)oc2cc(O)ccc12
REMARK SMILES IDX 5 1 3 2 2 3 1 4 21 5 15 6 14 7 16 8 17 9 19 10 20 11 6 12
REMARK SMILES IDX 7 13 8 14 9 15 13 16 11 17 10 18 12 20 4 22 18 24
REMARK H PARENT 10 19 12 21 4 23 18 25
REMARK Flexibility Score: inf
ROOT
ATOM      1  C   UNL     1      -4.462 -13.302  29.600  1.00  0.00     0.180 A 
ATOM      2  C   UNL     1      -4.583 -11.974  29.139  1.00  0.00     0.208 A 
ATOM      3  C   UNL     1      -3.550 -11.066  29.417  1.00  0.00     0.235 A 
ATOM      4  O   UNL     1      -3.629  -9.875  29.007  1.00  0.00    -0.285 OA
ATOM      5  C   UNL     1      -2.437 -11.492  30.159  1.00  0.00     0.069 A 
ATOM      6  C   UNL     1      -2.403 -12.831  30.605  1.00  0.00     0.142 A 
ATOM      7  O   UNL     1      -3.397 -13.661  30.313  1.00  0.00    -0.452 OA
ATOM      8  C   UNL     1      -1.316 -13.292  31.356  1.00  0.00     0.094 A 
ATOM      9  C   UNL     1      -0.258 -12.427  31.668  1.00  0.00     0.119 A 
ATOM     10  C   UNL     1      -0.288 -11.101  31.226  1.00  0.00     0.047 A 
ATOM     11  C   UNL     1      -1.371 -10.631  30.476  1.00  0.00     0.020 A 
ENDROOT
BRANCH   1  12
ATOM     12  C   UNL     1      -5.500 -14.324  29.332  1.00  0.00     0.025 A 
ATOM     13  C   UNL     1      -6.306 -14.206  28.189  1.00  0.00     0.016 A 
ATOM     14  C   UNL     1      -7.305 -15.147  27.927  1.00  0.00     0.051 A 
ATOM     15  C   UNL     1      -7.524 -16.209  28.808  1.00  0.00     0.157 A 
ATOM     16  C   UNL     1      -5.736 -15.383  30.227  1.00  0.00     0.062 A 
ATOM     17  C   UNL     1      -6.739 -16.327  29.967  1.00  0.00     0.158 A 
BRANCH  15  18
ATOM     18  O   UNL     1      -8.527 -17.135  28.518  1.00  0.00    -0.504 OA
ATOM     19  H   UNL     1      -8.411 -17.851  27.812  1.00  0.00     0.293 HD
ENDBRANCH  15  18
BRANCH  17  20
ATOM     20  O   UNL     1      -6.962 -17.376  30.857  1.00  0.00    -0.504 OA
ATOM     21  H   UNL     1      -6.708 -18.330  30.627  1.00  0.00     0.293 HD
ENDBRANCH  17  20
ENDBRANCH   1  12
BRANCH   2  22
ATOM     22  O   UNL     1      -5.725 -11.566  28.446  1.00  0.00    -0.502 OA
ATOM     23  H   UNL     1      -5.683 -10.921  27.666  1.00  0.00     0.293 HD
ENDBRANCH   2  22
BRANCH   9  24
ATOM     24  O   UNL     1       0.829 -12.878  32.414  1.00  0.00    -0.508 OA
ATOM     25  H   UNL     1       0.779 -13.728  32.962  1.00  0.00     0.293 HD
ENDBRANCH   9  24
TORSDOF 5
ENDMDL
MODEL 5
REMARK VINA RESULT:    -2.502      3.761      5.952
REMARK INTER + INTRA:          -3.152
REMARK INTER:                  -2.931
REMARK INTRA:                  -0.221
REMARK UNBOUND:                -0.211
REMARK SMILES O=c1c(O)c(-c2ccc(O)c(O)c2)oc2cc(O)ccc12
REMARK SMILES IDX 5 1 3 2 2 3 1 4 21 5 15 6 14 7 16 8 17 9 19 10 20 11 6 12
REMARK SMILES IDX 7 13 8 14 9 15 13 16 11 17 10 18 12 20 4 22 18 24
REMARK H PARENT 10 19 12 21 4 23 18 25
REMARK Flexibility Score: inf
ROOT
ATOM      1  C   UNL     1      -4.339 -12.740  31.295  1.00  0.00     0.180 A 
ATOM      2  C   UNL     1      -4.740 -14.045  31.649  1.00  0.00     0.208 A 
ATOM      3  C   UNL     1      -5.306 -14.259  32.915  1.00  0.00     0.235 A 
ATOM      4  O   UNL     1      -5.682 -15.416  33.251  1.00  0.00    -0.285 OA
ATOM      5  C   UNL     1      -5.441 -13.179  33.803  1.00  0.00     0.069 A 
ATOM      6  C   UNL     1      -4.993 -11.908  33.382  1.00  0.00     0.142 A 
ATOM      7  O   UNL     1      -4.471 -11.746  32.172  1.00  0.00    -0.452 OA
ATOM      8  C   UNL     1      -5.101 -10.809  34.241  1.00  0.00     0.094 A 
ATOM      9  C   UNL     1      -5.653 -10.965  35.520  1.00  0.00     0.119 A 
ATOM     10  C   UNL     1      -6.099 -12.222  35.938  1.00  0.00     0.047 A 
ATOM     11  C   UNL     1      -5.994 -13.327  35.087  1.00  0.00     0.020 A 
ENDROOT
BRANCH   1  12
ATOM     12  C   UNL     1      -3.752 -12.430  29.972  1.00  0.00     0.025 A 
ATOM     13  C   UNL     1      -4.518 -11.739  29.021  1.00  0.00     0.016 A 
ATOM     14  C   UNL     1      -3.992 -11.454  27.758  1.00  0.00     0.051 A 
ATOM     15  C   UNL     1      -2.699 -11.867  27.422  1.00  0.00     0.157 A 
ATOM     16  C   UNL     1      -2.458 -12.861  29.624  1.00  0.00     0.062 A 
ATOM     17  C   UNL     1      -1.929 -12.577  28.358  1.00  0.00     0.158 A 
BRANCH  15  18
ATOM     18  O   UNL     1      -2.199 -11.565  26.155  1.00  0.00    -0.504 OA
ATOM     19  H   UNL     1      -1.754 -12.264  25.572  1.00  0.00     0.293 HD
ENDBRANCH  15  18
BRANCH  17  20
ATOM     20  O   UNL     1      -0.645 -13.004  28.024  1.00  0.00    -0.504 OA
ATOM     21  H   UNL     1      -0.243 -12.815  27.112  1.00  0.00     0.293 HD
ENDBRANCH  17  20
ENDBRANCH   1  12
BRANCH   2  22
ATOM     22  O   UNL     1      -4.548 -15.109  30.764  1.00  0.00    -0.502 OA
ATOM     23  H   UNL     1      -4.669 -15.009  29.763  1.00  0.00     0.293 HD
ENDBRANCH   2  22
BRANCH   9  24
ATOM     24  O   UNL     1      -5.766  -9.875  36.381  1.00  0.00    -0.508 OA
ATOM     25  H   UNL     1      -5.839  -8.928  36.029  1.00  0.00     0.293 HD
ENDBRANCH   9  24
TORSDOF 5
ENDMDL
MODEL 6
REMARK VINA RESULT:    -1.865      3.157      5.071
REMARK INTER + INTRA:          -2.403
REMARK INTER:                  -2.813
REMARK INTRA:                   0.410
REMARK UNBOUND:                -0.211
REMARK SMILES O=c1c(O)c(-c2ccc(O)c(O)c2)oc2cc(O)ccc12
REMARK SMILES IDX 5 1 3 2 2 3 1 4 21 5 15 6 14 7 16 8 17 9 19 10 20 11 6 12
REMARK SMILES IDX 7 13 8 14 9 15 13 16 11 17 10 18 12 20 4 22 18 24
REMARK H PARENT 10 19 12 21 4 23 18 25
REMARK Flexibility Score: inf
ROOT
ATOM      1  C   UNL     1      -4.736 -13.110  30.616  1.00  0.00     0.180 A 
ATOM      2  C   UNL     1      -5.222 -14.290  30.014  1.00  0.00     0.208 A 
ATOM      3  C   UNL     1      -5.015 -14.481  28.639  1.00  0.00     0.235 A 
ATOM      4  O   UNL     1      -5.431 -15.533  28.079  1.00  0.00    -0.285 OA
ATOM      5  C   UNL     1      -4.351 -13.493  27.896  1.00  0.00     0.069 A 
ATOM      6  C   UNL     1      -3.917 -12.330  28.569  1.00  0.00     0.142 A 
ATOM      7  O   UNL     1      -4.125 -12.190  29.873  1.00  0.00    -0.452 OA
ATOM      8  C   UNL     1      -3.261 -11.316  27.861  1.00  0.00     0.094 A 
ATOM      9  C   UNL     1      -3.031 -11.452  26.485  1.00  0.00     0.119 A 
ATOM     10  C   UNL     1      -3.458 -12.603  25.818  1.00  0.00     0.047 A 
ATOM     11  C   UNL     1      -4.116 -13.621  26.515  1.00  0.00     0.020 A 
ENDROOT
BRANCH   1  12
ATOM     12  C   UNL     1      -4.899 -12.842  32.063  1.00  0.00     0.025 A 
ATOM     13  C   UNL     1      -5.124 -13.913  32.943  1.00  0.00     0.016 A 
ATOM     14  C   UNL     1      -5.301 -13.682  34.309  1.00  0.00     0.051 A 
ATOM     15  C   UNL     1      -5.270 -12.380  34.816  1.00  0.00     0.157 A 
ATOM     16  C   UNL     1      -4.889 -11.531  32.573  1.00  0.00     0.062 A 
ATOM     17  C   UNL     1      -5.068 -11.297  33.943  1.00  0.00     0.158 A 
BRANCH  15  18
ATOM     18  O   UNL     1      -5.447 -12.180  36.185  1.00  0.00    -0.504 OA
ATOM     19  H   UNL     1      -4.919 -12.698  36.877  1.00  0.00     0.293 HD
ENDBRANCH  15  18
BRANCH  17  20
ATOM     20  O   UNL     1      -5.051  -9.995  34.440  1.00  0.00    -0.504 OA
ATOM     21  H   UNL     1      -5.800  -9.341  34.242  1.00  0.00     0.293 HD
ENDBRANCH  17  20
ENDBRANCH   1  12
BRANCH   2  22
ATOM     22  O   UNL     1      -5.922 -15.233  30.769  1.00  0.00    -0.502 OA
ATOM     23  H   UNL     1      -5.547 -16.152  30.971  1.00  0.00     0.293 HD
ENDBRANCH   2  22
BRANCH   9  24
ATOM     24  O   UNL     1      -2.377 -10.448  25.774  1.00  0.00    -0.508 OA
ATOM     25  H   UNL     1      -2.589 -10.265  24.800  1.00  0.00     0.293 HD
ENDBRANCH   9  24
TORSDOF 5
ENDMDL
MODEL 7
REMARK VINA RESULT:    -1.834      1.795      6.742
REMARK INTER + INTRA:          -2.366
REMARK INTER:                  -2.546
REMARK INTRA:                   0.180
REMARK UNBOUND:                -0.211
REMARK SMILES O=c1c(O)c(-c2ccc(O)c(O)c2)oc2cc(O)ccc12
REMARK SMILES IDX 5 1 3 2 2 3 1 4 21 5 15 6 14 7 16 8 17 9 19 10 20 11 6 12
REMARK SMILES IDX 7 13 8 14 9 15 13 16 11 17 10 18 12 20 4 22 18 24
REMARK H PARENT 10 19 12 21 4 23 18 25
REMARK Flexibility Score: inf
ROOT
ATOM      1  C   UNL     1      -4.330 -13.250  29.821  1.00  0.00     0.180 A 
ATOM      2  C   UNL     1      -4.409 -11.932  29.323  1.00  0.00     0.208 A 
ATOM      3  C   UNL     1      -3.336 -11.058  29.552  1.00  0.00     0.235 A 
ATOM      4  O   UNL     1      -3.378  -9.877  29.108  1.00  0.00    -0.285 OA
ATOM      5  C   UNL     1      -2.224 -11.505  30.283  1.00  0.00     0.069 A 
ATOM      6  C   UNL     1      -2.232 -12.831  30.767  1.00  0.00     0.142 A 
ATOM      7  O   UNL     1      -3.264 -13.630  30.522  1.00  0.00    -0.452 OA
ATOM      8  C   UNL     1      -1.147 -13.312  31.509  1.00  0.00     0.094 A 
ATOM      9  C   UNL     1      -0.049 -12.481  31.772  1.00  0.00     0.119 A 
ATOM     10  C   UNL     1      -0.039 -11.168  31.292  1.00  0.00     0.047 A 
ATOM     11  C   UNL     1      -1.118 -10.678  30.551  1.00  0.00     0.020 A 
ENDROOT
BRANCH   1  12
ATOM     12  C   UNL     1      -5.412 -14.237  29.606  1.00  0.00     0.025 A 
ATOM     13  C   UNL     1      -5.665 -15.209  30.586  1.00  0.00     0.016 A 
ATOM     14  C   UNL     1      -6.667 -16.164  30.395  1.00  0.00     0.051 A 
ATOM     15  C   UNL     1      -7.421 -16.171  29.218  1.00  0.00     0.157 A 
ATOM     16  C   UNL     1      -6.159 -14.260  28.414  1.00  0.00     0.062 A 
ATOM     17  C   UNL     1      -7.164 -15.217  28.219  1.00  0.00     0.158 A 
BRANCH  15  18
ATOM     18  O   UNL     1      -8.417 -17.135  29.057  1.00  0.00    -0.504 OA
ATOM     19  H   UNL     1      -8.777 -17.389  28.145  1.00  0.00     0.293 HD
ENDBRANCH  15  18
BRANCH  17  20
ATOM     20  O   UNL     1      -7.902 -15.229  27.037  1.00  0.00    -0.504 OA
ATOM     21  H   UNL     1      -7.940 -16.050  26.443  1.00  0.00     0.293 HD
ENDBRANCH  17  20
ENDBRANCH   1  12
BRANCH   2  22
ATOM     22  O   UNL     1      -5.550 -11.500  28.642  1.00  0.00    -0.502 OA
ATOM     23  H   UNL     1      -5.941 -12.013  27.861  1.00  0.00     0.293 HD
ENDBRANCH   2  22
BRANCH   9  24
ATOM     24  O   UNL     1       1.036 -12.952  32.508  1.00  0.00    -0.508 OA
ATOM     25  H   UNL     1       1.989 -12.797  32.204  1.00  0.00     0.293 HD
ENDBRANCH   9  24
TORSDOF 5
ENDMDL
