MODEL 1
REMARK VINA RESULT:    -3.169      0.000      0.000
REMARK INTER + INTRA:          -6.068
REMARK INTER:                  -4.836
REMARK INTRA:                  -1.231
REMARK UNBOUND:                -1.231
REMARK SMILES CCCCCCCCCC=CC(=O)[O-]
REMARK SMILES IDX 7 1 8 2 9 3 10 4 11 5 12 6 13 7 14 8 6 9 5 10 4 11 3 12 2 13
REMARK SMILES IDX 1 14
REMARK H PARENT
REMARK Flexibility Score: inf
ROOT
ATOM      1  C   UNL     1      64.212  29.064  60.470  1.00  0.00     0.000 C 
ENDROOT
BRANCH   1   2
ATOM      2  C   UNL     1      64.773  30.321  59.787  1.00  0.00     0.004 C 
BRANCH   2   3
ATOM      3  C   UNL     1      64.120  31.616  60.299  1.00  0.00     0.027 C 
BRANCH   3   4
ATOM      4  C   UNL     1      64.114  32.681  59.237  1.00  0.00    -0.025 C 
ATOM      5  C   UNL     1      64.024  34.005  59.447  1.00  0.00     0.020 C 
BRANCH   5   6
ATOM      6  C   UNL     1      63.879  34.682  60.753  1.00  0.00     0.064 C 
ATOM      7  O   UNL     1      64.847  34.664  61.558  1.00  0.00    -0.545 OA
ATOM      8  O   UNL     1      62.720  35.354  61.118  1.00  0.00    -0.545 OA
ENDBRANCH   5   6
ENDBRANCH   3   4
ENDBRANCH   2   3
ENDBRANCH   1   2
BRANCH   1   9
ATOM      9  C   UNL     1      62.861  29.318  61.158  1.00  0.00     0.000 C 
BRANCH   9  10
ATOM     10  C   UNL     1      61.711  28.510  60.531  1.00  0.00     0.000 C 
BRANCH  10  11
ATOM     11  C   UNL     1      60.414  29.304  60.276  1.00  0.00    -0.000 C 
BRANCH  11  12
ATOM     12  C   UNL     1      60.156  29.685  58.804  1.00  0.00    -0.000 C 
BRANCH  12  13
ATOM     13  C   UNL     1      61.000  30.862  58.285  1.00  0.00    -0.003 C 
ATOM     14  C   UNL     1      62.024  30.442  57.231  1.00  0.00     0.004 C 
ENDBRANCH  12  13
ENDBRANCH  11  12
ENDBRANCH  10  11
ENDBRANCH   9  10
ENDBRANCH   1   9
TORSDOF 9
ENDMDL
MODEL 2
REMARK VINA RESULT:    -3.137      2.419      5.088
REMARK INTER + INTRA:          -6.019
REMARK INTER:                  -5.066
REMARK INTRA:                  -0.953
REMARK UNBOUND:                -1.231
REMARK SMILES CCCCCCCCCC=CC(=O)[O-]
REMARK SMILES IDX 7 1 8 2 9 3 10 4 11 5 12 6 13 7 14 8 6 9 5 10 4 11 3 12 2 13
REMARK SMILES IDX 1 14
REMARK H PARENT
REMARK Flexibility Score: inf
ROOT
ATOM      1  C   UNL     1      64.303  29.249  60.201  1.00  0.00     0.000 C 
ENDROOT
BRANCH   1   2
ATOM      2  C   UNL     1      63.172  28.265  60.539  1.00  0.00     0.004 C 
BRANCH   2   3
ATOM      3  C   UNL     1      61.945  28.960  61.151  1.00  0.00     0.027 C 
BRANCH   3   4
ATOM      4  C   UNL     1      60.673  28.501  60.492  1.00  0.00    -0.025 C 
ATOM      5  C   UNL     1      60.149  28.994  59.357  1.00  0.00     0.020 C 
BRANCH   5   6
ATOM      6  C   UNL     1      60.694  30.102  58.544  1.00  0.00     0.064 C 
ATOM      7  O   UNL     1      61.679  29.880  57.794  1.00  0.00    -0.545 OA
ATOM      8  O   UNL     1      60.144  31.378  58.565  1.00  0.00    -0.545 OA
ENDBRANCH   5   6
ENDBRANCH   3   4
ENDBRANCH   2   3
ENDBRANCH   1   2
BRANCH   1   9
ATOM      9  C   UNL     1      63.956  30.699  60.574  1.00  0.00     0.000 C 
BRANCH   9  10
ATOM     10  C   UNL     1      64.345  31.707  59.477  1.00  0.00     0.000 C 
BRANCH  10  11
ATOM     11  C   UNL     1      63.308  32.816  59.208  1.00  0.00    -0.000 C 
BRANCH  11  12
ATOM     12  C   UNL     1      63.703  34.219  59.709  1.00  0.00    -0.000 C 
BRANCH  12  13
ATOM     13  C   UNL     1      64.500  34.234  61.025  1.00  0.00    -0.003 C 
ATOM     14  C   UNL     1      64.063  35.350  61.973  1.00  0.00     0.004 C 
ENDBRANCH  12  13
ENDBRANCH  11  12
ENDBRANCH  10  11
ENDBRANCH   9  10
ENDBRANCH   1   9
TORSDOF 9
ENDMDL
MODEL 3
REMARK VINA RESULT:    -3.066     11.702     13.477
REMARK INTER + INTRA:          -5.910
REMARK INTER:                  -4.518
REMARK INTRA:                  -1.392
REMARK UNBOUND:                -1.231
REMARK SMILES CCCCCCCCCC=CC(=O)[O-]
REMARK SMILES IDX 7 1 8 2 9 3 10 4 11 5 12 6 13 7 14 8 6 9 5 10 4 11 3 12 2 13
REMARK SMILES IDX 1 14
REMARK H PARENT
REMARK Flexibility Score: inf
ROOT
ATOM      1  C   UNL     1      60.771  27.242  49.570  1.00  0.00     0.000 C 
ENDROOT
BRANCH   1   2
ATOM      2  C   UNL     1      61.222  25.780  49.712  1.00  0.00     0.004 C 
BRANCH   2   3
ATOM      3  C   UNL     1      60.104  24.779  49.376  1.00  0.00     0.027 C 
BRANCH   3   4
ATOM      4  C   UNL     1      59.952  23.747  50.460  1.00  0.00    -0.025 C 
ATOM      5  C   UNL     1      60.371  22.472  50.400  1.00  0.00     0.020 C 
BRANCH   5   6
ATOM      6  C   UNL     1      61.036  21.815  49.254  1.00  0.00     0.064 C 
ATOM      7  O   UNL     1      60.382  20.991  48.563  1.00  0.00    -0.545 OA
ATOM      8  O   UNL     1      62.351  22.088  48.901  1.00  0.00    -0.545 OA
ENDBRANCH   5   6
ENDBRANCH   3   4
ENDBRANCH   2   3
ENDBRANCH   1   2
BRANCH   1   9
ATOM      9  C   UNL     1      59.570  27.401  48.623  1.00  0.00     0.000 C 
BRANCH   9  10
ATOM     10  C   UNL     1      58.662  28.584  49.004  1.00  0.00     0.000 C 
BRANCH  10  11
ATOM     11  C   UNL     1      57.400  28.210  49.808  1.00  0.00    -0.000 C 
BRANCH  11  12
ATOM     12  C   UNL     1      57.002  26.722  49.749  1.00  0.00    -0.000 C 
BRANCH  12  13
ATOM     13  C   UNL     1      57.007  25.998  51.107  1.00  0.00    -0.003 C 
ATOM     14  C   UNL     1      57.881  26.695  52.150  1.00  0.00     0.004 C 
ENDBRANCH  12  13
ENDBRANCH  11  12
ENDBRANCH  10  11
ENDBRANCH   9  10
ENDBRANCH   1   9
TORSDOF 9
ENDMDL
MODEL 4
REMARK VINA RESULT:    -3.064      7.324      9.233
REMARK INTER + INTRA:          -5.908
REMARK INTER:                  -4.512
REMARK INTRA:                  -1.395
REMARK UNBOUND:                -1.231
REMARK SMILES CCCCCCCCCC=CC(=O)[O-]
REMARK SMILES IDX 7 1 8 2 9 3 10 4 11 5 12 6 13 7 14 8 6 9 5 10 4 11 3 12 2 13
REMARK SMILES IDX 1 14
REMARK H PARENT
REMARK Flexibility Score: inf
ROOT
ATOM      1  C   UNL     1      72.738  30.570  60.019  1.00  0.00     0.000 C 
ENDROOT
BRANCH   1   2
ATOM      2  C   UNL     1      71.504  31.468  59.842  1.00  0.00     0.004 C 
BRANCH   2   3
ATOM      3  C   UNL     1      70.572  30.981  58.721  1.00  0.00     0.027 C 
BRANCH   3   4
ATOM      4  C   UNL     1      71.354  30.391  57.579  1.00  0.00    -0.025 C 
ATOM      5  C   UNL     1      71.578  30.976  56.390  1.00  0.00     0.020 C 
BRANCH   5   6
ATOM      6  C   UNL     1      71.081  32.296  55.950  1.00  0.00     0.064 C 
ATOM      7  O   UNL     1      70.055  32.348  55.222  1.00  0.00    -0.545 OA
ATOM      8  O   UNL     1      71.695  33.485  56.325  1.00  0.00    -0.545 OA
ENDBRANCH   5   6
ENDBRANCH   3   4
ENDBRANCH   2   3
ENDBRANCH   1   2
BRANCH   1   9
ATOM      9  C   UNL     1      72.913  30.084  61.468  1.00  0.00     0.000 C 
BRANCH   9  10
ATOM     10  C   UNL     1      72.562  28.596  61.645  1.00  0.00     0.000 C 
BRANCH  10  11
ATOM     11  C   UNL     1      72.262  27.833  60.339  1.00  0.00    -0.000 C 
BRANCH  11  12
ATOM     12  C   UNL     1      70.782  27.464  60.119  1.00  0.00    -0.000 C 
BRANCH  12  13
ATOM     13  C   UNL     1      69.791  28.197  61.040  1.00  0.00    -0.003 C 
ATOM     14  C   UNL     1      68.353  28.153  60.524  1.00  0.00     0.004 C 
ENDBRANCH  12  13
ENDBRANCH  11  12
ENDBRANCH  10  11
ENDBRANCH   9  10
ENDBRANCH   1   9
TORSDOF 9
ENDMDL
MODEL 5
REMARK VINA RESULT:    -3.063      2.444      5.113
REMARK INTER + INTRA:          -5.905
REMARK INTER:                  -4.766
REMARK INTRA:                  -1.139
REMARK UNBOUND:                -1.231
REMARK SMILES CCCCCCCCCC=CC(=O)[O-]
REMARK SMILES IDX 7 1 8 2 9 3 10 4 11 5 12 6 13 7 14 8 6 9 5 10 4 11 3 12 2 13
REMARK SMILES IDX 1 14
REMARK H PARENT
REMARK Flexibility Score: inf
ROOT
ATOM      1  C   UNL     1      60.807  30.645  58.380  1.00  0.00     0.000 C 
ENDROOT
BRANCH   1   2
ATOM      2  C   UNL     1      61.931  29.607  58.236  1.00  0.00     0.004 C 
BRANCH   2   3
ATOM      3  C   UNL     1      62.007  28.645  59.433  1.00  0.00     0.027 C 
BRANCH   3   4
ATOM      4  C   UNL     1      62.459  29.357  60.678  1.00  0.00    -0.025 C 
ATOM      5  C   UNL     1      63.730  29.636  61.010  1.00  0.00     0.020 C 
BRANCH   5   6
ATOM      6  C   UNL     1      64.941  29.275  60.243  1.00  0.00     0.064 C 
ATOM      7  O   UNL     1      65.582  28.242  60.568  1.00  0.00    -0.545 OA
ATOM      8  O   UNL     1      65.389  30.026  59.164  1.00  0.00    -0.545 OA
ENDBRANCH   5   6
ENDBRANCH   3   4
ENDBRANCH   2   3
ENDBRANCH   1   2
BRANCH   1   9
ATOM      9  C   UNL     1      61.333  32.090  58.371  1.00  0.00     0.000 C 
BRANCH   9  10
ATOM     10  C   UNL     1      62.864  32.167  58.243  1.00  0.00     0.000 C 
BRANCH  10  11
ATOM     11  C   UNL     1      63.513  33.418  58.870  1.00  0.00    -0.000 C 
BRANCH  11  12
ATOM     12  C   UNL     1      64.100  33.215  60.281  1.00  0.00    -0.000 C 
BRANCH  12  13
ATOM     13  C   UNL     1      64.499  34.511  61.007  1.00  0.00    -0.003 C 
ATOM     14  C   UNL     1      63.311  35.435  61.272  1.00  0.00     0.004 C 
ENDBRANCH  12  13
ENDBRANCH  11  12
ENDBRANCH  10  11
ENDBRANCH   9  10
ENDBRANCH   1   9
TORSDOF 9
ENDMDL
MODEL 6
REMARK VINA RESULT:    -3.048      9.437     11.531
REMARK INTER + INTRA:          -5.884
REMARK INTER:                  -4.189
REMARK INTRA:                  -1.694
REMARK UNBOUND:                -1.231
REMARK SMILES CCCCCCCCCC=CC(=O)[O-]
REMARK SMILES IDX 7 1 8 2 9 3 10 4 11 5 12 6 13 7 14 8 6 9 5 10 4 11 3 12 2 13
REMARK SMILES IDX 1 14
REMARK H PARENT
REMARK Flexibility Score: inf
ROOT
ATOM      1  C   UNL     1      59.354  26.350  49.012  1.00  0.00     0.000 C 
ENDROOT
BRANCH   1   2
ATOM      2  C   UNL     1      59.519  27.807  48.552  1.00  0.00     0.004 C 
BRANCH   2   3
ATOM      3  C   UNL     1      58.239  28.638  48.741  1.00  0.00     0.027 C 
BRANCH   3   4
ATOM      4  C   UNL     1      57.234  27.907  49.588  1.00  0.00    -0.025 C 
ATOM      5  C   UNL     1      56.259  28.471  50.320  1.00  0.00     0.020 C 
BRANCH   5   6
ATOM      6  C   UNL     1      55.994  29.918  50.469  1.00  0.00     0.064 C 
ATOM      7  O   UNL     1      56.480  30.527  51.458  1.00  0.00    -0.545 OA
ATOM      8  O   UNL     1      55.241  30.634  49.547  1.00  0.00    -0.545 OA
ENDBRANCH   5   6
ENDBRANCH   3   4
ENDBRANCH   2   3
ENDBRANCH   1   2
BRANCH   1   9
ATOM      9  C   UNL     1      60.541  25.859  49.857  1.00  0.00     0.000 C 
BRANCH   9  10
ATOM     10  C   UNL     1      60.206  25.759  51.356  1.00  0.00     0.000 C 
BRANCH  10  11
ATOM     11  C   UNL     1      60.610  26.983  52.202  1.00  0.00    -0.000 C 
BRANCH  11  12
ATOM     12  C   UNL     1      59.481  27.997  52.470  1.00  0.00    -0.000 C 
BRANCH  12  13
ATOM     13  C   UNL     1      59.780  29.434  52.008  1.00  0.00    -0.003 C 
ATOM     14  C   UNL     1      61.134  29.566  51.312  1.00  0.00     0.004 C 
ENDBRANCH  12  13
ENDBRANCH  11  12
ENDBRANCH  10  11
ENDBRANCH   9  10
ENDBRANCH   1   9
TORSDOF 9
ENDMDL
MODEL 7
REMARK VINA RESULT:    -3.041      6.741      8.575
REMARK INTER + INTRA:          -5.872
REMARK INTER:                  -4.576
REMARK INTRA:                  -1.296
REMARK UNBOUND:                -1.231
REMARK SMILES CCCCCCCCCC=CC(=O)[O-]
REMARK SMILES IDX 7 1 8 2 9 3 10 4 11 5 12 6 13 7 14 8 6 9 5 10 4 11 3 12 2 13
REMARK SMILES IDX 1 14
REMARK H PARENT
REMARK Flexibility Score: inf
ROOT
ATOM      1  C   UNL     1      72.177  29.363  57.862  1.00  0.00     0.000 C 
ENDROOT
BRANCH   1   2
ATOM      2  C   UNL     1      71.656  30.782  57.588  1.00  0.00     0.004 C 
BRANCH   2   3
ATOM      3  C   UNL     1      70.561  31.213  58.577  1.00  0.00     0.027 C 
BRANCH   3   4
ATOM      4  C   UNL     1      71.054  32.293  59.501  1.00  0.00    -0.025 C 
ATOM      5  C   UNL     1      70.858  33.613  59.348  1.00  0.00     0.020 C 
BRANCH   5   6
ATOM      6  C   UNL     1      70.151  34.276  58.232  1.00  0.00     0.064 C 
ATOM      7  O   UNL     1      70.744  34.411  57.131  1.00  0.00    -0.545 OA
ATOM      8  O   UNL     1      68.846  34.739  58.350  1.00  0.00    -0.545 OA
ENDBRANCH   5   6
ENDBRANCH   3   4
ENDBRANCH   2   3
ENDBRANCH   1   2
BRANCH   1   9
ATOM      9  C   UNL     1      73.117  29.302  59.078  1.00  0.00     0.000 C 
BRANCH   9  10
ATOM     10  C   UNL     1      72.633  28.318  60.158  1.00  0.00     0.000 C 
BRANCH  10  11
ATOM     11  C   UNL     1      71.957  28.966  61.382  1.00  0.00    -0.000 C 
BRANCH  11  12
ATOM     12  C   UNL     1      70.415  28.958  61.362  1.00  0.00    -0.000 C 
BRANCH  12  13
ATOM     13  C   UNL     1      69.788  27.831  60.523  1.00  0.00    -0.003 C 
ATOM     14  C   UNL     1      68.336  28.113  60.137  1.00  0.00     0.004 C 
ENDBRANCH  12  13
ENDBRANCH  11  12
ENDBRANCH  10  11
ENDBRANCH   9  10
ENDBRANCH   1   9
TORSDOF 9
ENDMDL
MODEL 8
REMARK VINA RESULT:    -3.037     10.261     12.025
REMARK INTER + INTRA:          -5.866
REMARK INTER:                  -4.636
REMARK INTRA:                  -1.229
REMARK UNBOUND:                -1.231
REMARK SMILES CCCCCCCCCC=CC(=O)[O-]
REMARK SMILES IDX 7 1 8 2 9 3 10 4 11 5 12 6 13 7 14 8 6 9 5 10 4 11 3 12 2 13
REMARK SMILES IDX 1 14
REMARK H PARENT
REMARK Flexibility Score: inf
ROOT
ATOM      1  C   UNL     1      59.192  28.243  51.586  1.00  0.00     0.000 C 
ENDROOT
BRANCH   1   2
ATOM      2  C   UNL     1      57.905  29.027  51.887  1.00  0.00     0.004 C 
BRANCH   2   3
ATOM      3  C   UNL     1      56.651  28.359  51.298  1.00  0.00     0.027 C 
BRANCH   3   4
ATOM      4  C   UNL     1      56.284  28.963  49.970  1.00  0.00    -0.025 C 
ATOM      5  C   UNL     1      55.463  30.009  49.778  1.00  0.00     0.020 C 
BRANCH   5   6
ATOM      6  C   UNL     1      54.730  30.757  50.822  1.00  0.00     0.064 C 
ATOM      7  O   UNL     1      55.282  31.755  51.355  1.00  0.00    -0.545 OA
ATOM      8  O   UNL     1      53.447  30.409  51.224  1.00  0.00    -0.545 OA
ENDBRANCH   5   6
ENDBRANCH   3   4
ENDBRANCH   2   3
ENDBRANCH   1   2
BRANCH   1   9
ATOM      9  C   UNL     1      60.152  29.013  50.664  1.00  0.00     0.000 C 
BRANCH   9  10
ATOM     10  C   UNL     1      60.482  28.246  49.372  1.00  0.00     0.000 C 
BRANCH  10  11
ATOM     11  C   UNL     1      59.411  27.234  48.918  1.00  0.00    -0.000 C 
BRANCH  11  12
ATOM     12  C   UNL     1      59.819  25.752  49.030  1.00  0.00    -0.000 C 
BRANCH  12  13
ATOM     13  C   UNL     1      58.813  24.860  49.778  1.00  0.00    -0.003 C 
ATOM     14  C   UNL     1      57.373  25.359  49.661  1.00  0.00     0.004 C 
ENDBRANCH  12  13
ENDBRANCH  11  12
ENDBRANCH  10  11
ENDBRANCH   9  10
ENDBRANCH   1   9
TORSDOF 9
ENDMDL
MODEL 9
REMARK VINA RESULT:    -2.999     15.259     16.928
REMARK INTER + INTRA:          -5.808
REMARK INTER:                  -4.579
REMARK INTRA:                  -1.228
REMARK UNBOUND:                -1.231
REMARK SMILES CCCCCCCCCC=CC(=O)[O-]
REMARK SMILES IDX 7 1 8 2 9 3 10 4 11 5 12 6 13 7 14 8 6 9 5 10 4 11 3 12 2 13
REMARK SMILES IDX 1 14
REMARK H PARENT
REMARK Flexibility Score: inf
ROOT
ATOM      1  C   UNL     1      57.405  17.616  53.868  1.00  0.00     0.000 C 
ENDROOT
BRANCH   1   2
ATOM      2  C   UNL     1      57.827  19.074  53.624  1.00  0.00     0.004 C 
BRANCH   2   3
ATOM      3  C   UNL     1      56.733  19.900  52.927  1.00  0.00     0.027 C 
BRANCH   3   4
ATOM      4  C   UNL     1      56.060  19.107  51.840  1.00  0.00    -0.025 C 
ATOM      5  C   UNL     1      54.753  19.141  51.532  1.00  0.00     0.020 C 
BRANCH   5   6
ATOM      6  C   UNL     1      53.707  19.934  52.213  1.00  0.00     0.064 C 
ATOM      7  O   UNL     1      53.553  21.141  51.892  1.00  0.00    -0.545 OA
ATOM      8  O   UNL     1      52.875  19.389  53.183  1.00  0.00    -0.545 OA
ENDBRANCH   5   6
ENDBRANCH   3   4
ENDBRANCH   2   3
ENDBRANCH   1   2
BRANCH   1   9
ATOM      9  C   UNL     1      58.528  16.615  53.552  1.00  0.00     0.000 C 
BRANCH   9  10
ATOM     10  C   UNL     1      59.537  17.155  52.523  1.00  0.00     0.000 C 
BRANCH  10  11
ATOM     11  C   UNL     1      59.553  16.417  51.169  1.00  0.00    -0.000 C 
BRANCH  11  12
ATOM     12  C   UNL     1      58.168  16.186  50.532  1.00  0.00    -0.000 C 
BRANCH  12  13
ATOM     13  C   UNL     1      57.798  17.179  49.416  1.00  0.00    -0.003 C 
ATOM     14  C   UNL     1      58.965  18.076  49.007  1.00  0.00     0.004 C 
ENDBRANCH  12  13
ENDBRANCH  11  12
ENDBRANCH  10  11
ENDBRANCH   9  10
ENDBRANCH   1   9
TORSDOF 9
ENDMDL
