MODEL 1
REMARK VINA RESULT:    -4.770      0.000      0.000
REMARK INTER + INTRA:          -6.206
REMARK INTER:                  -5.885
REMARK INTRA:                  -0.321
REMARK UNBOUND:                -0.321
REMARK SMILES O=c1c(O)c(-c2cc(O)c(O)c(O)c2)oc2cc(O)cc(O)c12
REMARK SMILES IDX 5 1 3 2 2 3 1 4 23 5 21 6 20 7 18 8 17 9 16 10 15 11 6 12
REMARK SMILES IDX 7 13 8 14 14 15 10 16 12 17 9 18 11 20 13 22 4 24 22 26
REMARK SMILES IDX 19 28
REMARK H PARENT 9 19 11 21 13 23 4 25 22 27 19 29
REMARK Flexibility Score: inf
ROOT
ATOM      1  C   UNL     1     125.489  15.989 151.270  1.00  0.00     0.180 A 
ATOM      2  C   UNL     1     126.743  15.575 151.750  1.00  0.00     0.208 A 
ATOM      3  C   UNL     1     127.784  16.514 151.835  1.00  0.00     0.238 A 
ATOM      4  O   UNL     1     128.924  16.119 152.195  1.00  0.00    -0.285 OA
ATOM      5  C   UNL     1     127.543  17.866 151.493  1.00  0.00     0.111 A 
ATOM      6  C   UNL     1     128.512  18.912 151.583  1.00  0.00     0.134 A 
ATOM      7  C   UNL     1     128.191  20.193 151.115  1.00  0.00     0.093 A 
ATOM      8  C   UNL     1     126.921  20.482 150.621  1.00  0.00     0.123 A 
ATOM      9  C   UNL     1     125.949  19.481 150.579  1.00  0.00     0.094 A 
ATOM     10  C   UNL     1     126.250  18.185 151.002  1.00  0.00     0.146 A 
ATOM     11  O   UNL     1     125.303  17.258 150.925  1.00  0.00    -0.452 OA
ENDROOT
BRANCH   1  12
ATOM     12  C   UNL     1     124.348  15.055 151.138  1.00  0.00     0.029 A 
ATOM     13  C   UNL     1     123.586  14.670 152.254  1.00  0.00     0.062 A 
ATOM     14  C   UNL     1     122.524  13.765 152.113  1.00  0.00     0.162 A 
ATOM     15  C   UNL     1     124.057  14.495 149.886  1.00  0.00     0.062 A 
ATOM     16  C   UNL     1     122.224  13.227 150.850  1.00  0.00     0.200 A 
ATOM     17  C   UNL     1     122.999  13.592 149.735  1.00  0.00     0.162 A 
BRANCH  14  18
ATOM     18  O   UNL     1     121.770  13.395 153.226  1.00  0.00    -0.504 OA
ATOM     19  H   UNL     1     121.012  13.973 153.570  1.00  0.00     0.293 HD
ENDBRANCH  14  18
BRANCH  16  20
ATOM     20  O   UNL     1     121.169  12.329 150.691  1.00  0.00    -0.502 OA
ATOM     21  H   UNL     1     121.105  11.470 151.225  1.00  0.00     0.293 HD
ENDBRANCH  16  20
BRANCH  17  22
ATOM     22  O   UNL     1     122.731  13.070 148.471  1.00  0.00    -0.504 OA
ATOM     23  H   UNL     1     121.878  12.565 148.264  1.00  0.00     0.293 HD
ENDBRANCH  17  22
ENDBRANCH   1  12
BRANCH   2  24
ATOM     24  O   UNL     1     126.939  14.252 152.156  1.00  0.00    -0.502 OA
ATOM     25  H   UNL     1     127.412  14.012 153.019  1.00  0.00     0.293 HD
ENDBRANCH   2  24
BRANCH   6  26
ATOM     26  O   UNL     1     129.784  18.756 152.142  1.00  0.00    -0.507 OA
ATOM     27  H   UNL     1     129.986  18.769 153.130  1.00  0.00     0.293 HD
ENDBRANCH   6  26
BRANCH   8  28
ATOM     28  O   UNL     1     126.631  21.772 150.182  1.00  0.00    -0.508 OA
ATOM     29  H   UNL     1     127.178  22.220 149.455  1.00  0.00     0.293 HD
ENDBRANCH   8  28
TORSDOF 7
ENDMDL
MODEL 2
REMARK VINA RESULT:    -4.381     11.253     14.605
REMARK INTER + INTRA:          -5.727
REMARK INTER:                  -5.399
REMARK INTRA:                  -0.327
REMARK UNBOUND:                -0.321
REMARK SMILES O=c1c(O)c(-c2cc(O)c(O)c(O)c2)oc2cc(O)cc(O)c12
REMARK SMILES IDX 5 1 3 2 2 3 1 4 23 5 21 6 20 7 18 8 17 9 16 10 15 11 6 12
REMARK SMILES IDX 7 13 8 14 14 15 10 16 12 17 9 18 11 20 13 22 4 24 22 26
REMARK SMILES IDX 19 28
REMARK H PARENT 9 19 11 21 13 23 4 25 22 27 19 29
REMARK Flexibility Score: inf
ROOT
ATOM      1  C   UNL     1     115.958  16.366 141.430  1.00  0.00     0.180 A 
ATOM      2  C   UNL     1     115.000  15.345 141.554  1.00  0.00     0.208 A 
ATOM      3  C   UNL     1     114.747  14.800 142.823  1.00  0.00     0.238 A 
ATOM      4  O   UNL     1     113.943  13.835 142.915  1.00  0.00    -0.285 OA
ATOM      5  C   UNL     1     115.410  15.321 143.960  1.00  0.00     0.111 A 
ATOM      6  C   UNL     1     115.198  14.875 145.300  1.00  0.00     0.134 A 
ATOM      7  C   UNL     1     115.991  15.391 146.333  1.00  0.00     0.093 A 
ATOM      8  C   UNL     1     116.942  16.380 146.087  1.00  0.00     0.123 A 
ATOM      9  C   UNL     1     117.120  16.862 144.789  1.00  0.00     0.094 A 
ATOM     10  C   UNL     1     116.372  16.340 143.732  1.00  0.00     0.146 A 
ATOM     11  O   UNL     1     116.588  16.812 142.510  1.00  0.00    -0.452 OA
ENDROOT
BRANCH   1  12
ATOM     12  C   UNL     1     116.290  16.981 140.124  1.00  0.00     0.029 A 
ATOM     13  C   UNL     1     117.114  16.325 139.195  1.00  0.00     0.062 A 
ATOM     14  C   UNL     1     117.437  16.933 137.974  1.00  0.00     0.162 A 
ATOM     15  C   UNL     1     115.822  18.270 139.830  1.00  0.00     0.062 A 
ATOM     16  C   UNL     1     116.944  18.215 137.678  1.00  0.00     0.200 A 
ATOM     17  C   UNL     1     116.138  18.885 138.614  1.00  0.00     0.162 A 
BRANCH  14  18
ATOM     18  O   UNL     1     118.251  16.269 137.057  1.00  0.00    -0.504 OA
ATOM     19  H   UNL     1     118.024  15.341 136.719  1.00  0.00     0.293 HD
ENDBRANCH  14  18
BRANCH  16  20
ATOM     20  O   UNL     1     117.252  18.834 136.466  1.00  0.00    -0.502 OA
ATOM     21  H   UNL     1     118.195  18.858 136.096  1.00  0.00     0.293 HD
ENDBRANCH  16  20
BRANCH  17  22
ATOM     22  O   UNL     1     115.640  20.161 138.353  1.00  0.00    -0.504 OA
ATOM     23  H   UNL     1     114.815  20.313 137.786  1.00  0.00     0.293 HD
ENDBRANCH  17  22
ENDBRANCH   1  12
BRANCH   2  24
ATOM     24  O   UNL     1     114.300  14.898 140.430  1.00  0.00    -0.502 OA
ATOM     25  H   UNL     1     113.821  14.005 140.408  1.00  0.00     0.293 HD
ENDBRANCH   2  24
BRANCH   6  26
ATOM     26  O   UNL     1     114.214  13.955 145.672  1.00  0.00    -0.507 OA
ATOM     27  H   UNL     1     114.389  13.001 145.948  1.00  0.00     0.293 HD
ENDBRANCH   6  26
BRANCH   8  28
ATOM     28  O   UNL     1     117.700  16.883 147.142  1.00  0.00    -0.508 OA
ATOM     29  H   UNL     1     117.481  16.658 148.106  1.00  0.00     0.293 HD
ENDBRANCH   8  28
TORSDOF 7
ENDMDL
MODEL 3
REMARK VINA RESULT:    -4.374     10.277     11.842
REMARK INTER + INTRA:          -5.718
REMARK INTER:                  -5.685
REMARK INTRA:                  -0.033
REMARK UNBOUND:                -0.321
REMARK SMILES O=c1c(O)c(-c2cc(O)c(O)c(O)c2)oc2cc(O)cc(O)c12
REMARK SMILES IDX 5 1 3 2 2 3 1 4 23 5 21 6 20 7 18 8 17 9 16 10 15 11 6 12
REMARK SMILES IDX 7 13 8 14 14 15 10 16 12 17 9 18 11 20 13 22 4 24 22 26
REMARK SMILES IDX 19 28
REMARK H PARENT 9 19 11 21 13 23 4 25 22 27 19 29
REMARK Flexibility Score: inf
ROOT
ATOM      1  C   UNL     1     115.324  15.101 148.089  1.00  0.00     0.180 A 
ATOM      2  C   UNL     1     114.771  13.883 148.519  1.00  0.00     0.208 A 
ATOM      3  C   UNL     1     114.525  13.692 149.888  1.00  0.00     0.238 A 
ATOM      4  O   UNL     1     114.100  12.572 150.274  1.00  0.00    -0.285 OA
ATOM      5  C   UNL     1     114.781  14.742 150.803  1.00  0.00     0.111 A 
ATOM      6  C   UNL     1     114.527  14.675 152.207  1.00  0.00     0.134 A 
ATOM      7  C   UNL     1     114.921  15.739 153.031  1.00  0.00     0.093 A 
ATOM      8  C   UNL     1     115.499  16.889 152.497  1.00  0.00     0.123 A 
ATOM      9  C   UNL     1     115.701  16.987 151.119  1.00  0.00     0.094 A 
ATOM     10  C   UNL     1     115.355  15.929 150.276  1.00  0.00     0.146 A 
ATOM     11  O   UNL     1     115.584  16.055 148.975  1.00  0.00    -0.452 OA
ENDROOT
BRANCH   1  12
ATOM     12  C   UNL     1     115.625  15.371 146.664  1.00  0.00     0.029 A 
ATOM     13  C   UNL     1     114.661  15.169 145.662  1.00  0.00     0.062 A 
ATOM     14  C   UNL     1     114.972  15.407 144.316  1.00  0.00     0.162 A 
ATOM     15  C   UNL     1     116.916  15.777 146.297  1.00  0.00     0.062 A 
ATOM     16  C   UNL     1     116.262  15.837 143.960  1.00  0.00     0.200 A 
ATOM     17  C   UNL     1     117.236  16.018 144.957  1.00  0.00     0.162 A 
BRANCH  14  18
ATOM     18  O   UNL     1     114.006  15.210 143.331  1.00  0.00    -0.504 OA
ATOM     19  H   UNL     1     114.174  14.606 142.534  1.00  0.00     0.293 HD
ENDBRANCH  14  18
BRANCH  16  20
ATOM     20  O   UNL     1     116.588  16.083 142.626  1.00  0.00    -0.502 OA
ATOM     21  H   UNL     1     116.689  15.335 141.949  1.00  0.00     0.293 HD
ENDBRANCH  16  20
BRANCH  17  22
ATOM     22  O   UNL     1     118.526  16.437 144.635  1.00  0.00    -0.504 OA
ATOM     23  H   UNL     1     118.839  17.388 144.790  1.00  0.00     0.293 HD
ENDBRANCH  17  22
ENDBRANCH   1  12
BRANCH   2  24
ATOM     24  O   UNL     1     114.454  12.888 147.590  1.00  0.00    -0.502 OA
ATOM     25  H   UNL     1     113.500  12.605 147.402  1.00  0.00     0.293 HD
ENDBRANCH   2  24
BRANCH   6  26
ATOM     26  O   UNL     1     113.875  13.611 152.836  1.00  0.00    -0.507 OA
ATOM     27  H   UNL     1     112.896  13.391 152.732  1.00  0.00     0.293 HD
ENDBRANCH   6  26
BRANCH   8  28
ATOM     28  O   UNL     1     115.861  17.934 153.344  1.00  0.00    -0.508 OA
ATOM     29  H   UNL     1     116.832  18.174 153.505  1.00  0.00     0.293 HD
ENDBRANCH   8  28
TORSDOF 7
ENDMDL
MODEL 4
REMARK VINA RESULT:    -4.343     14.451     16.634
REMARK INTER + INTRA:          -5.680
REMARK INTER:                  -5.346
REMARK INTRA:                  -0.333
REMARK UNBOUND:                -0.321
REMARK SMILES O=c1c(O)c(-c2cc(O)c(O)c(O)c2)oc2cc(O)cc(O)c12
REMARK SMILES IDX 5 1 3 2 2 3 1 4 23 5 21 6 20 7 18 8 17 9 16 10 15 11 6 12
REMARK SMILES IDX 7 13 8 14 14 15 10 16 12 17 9 18 11 20 13 22 4 24 22 26
REMARK SMILES IDX 19 28
REMARK H PARENT 9 19 11 21 13 23 4 25 22 27 19 29
REMARK Flexibility Score: inf
ROOT
ATOM      1  C   UNL     1     126.866   8.114 137.276  1.00  0.00     0.180 A 
ATOM      2  C   UNL     1     127.989   7.820 136.485  1.00  0.00     0.208 A 
ATOM      3  C   UNL     1     129.127   7.267 137.095  1.00  0.00     0.238 A 
ATOM      4  O   UNL     1     130.154   7.076 136.394  1.00  0.00    -0.285 OA
ATOM      5  C   UNL     1     129.107   6.962 138.478  1.00  0.00     0.111 A 
ATOM      6  C   UNL     1     130.186   6.359 139.192  1.00  0.00     0.134 A 
ATOM      7  C   UNL     1     130.093   6.202 140.581  1.00  0.00     0.093 A 
ATOM      8  C   UNL     1     128.938   6.566 141.272  1.00  0.00     0.123 A 
ATOM      9  C   UNL     1     127.856   7.106 140.575  1.00  0.00     0.094 A 
ATOM     10  C   UNL     1     127.933   7.311 139.196  1.00  0.00     0.146 A 
ATOM     11  O   UNL     1     126.889   7.847 138.576  1.00  0.00    -0.452 OA
ENDROOT
BRANCH   1  12
ATOM     12  C   UNL     1     125.636   8.711 136.707  1.00  0.00     0.029 A 
ATOM     13  C   UNL     1     125.357  10.081 136.842  1.00  0.00     0.062 A 
ATOM     14  C   UNL     1     124.175  10.623 136.318  1.00  0.00     0.162 A 
ATOM     15  C   UNL     1     124.699   7.883 136.071  1.00  0.00     0.062 A 
ATOM     16  C   UNL     1     123.253   9.790 135.661  1.00  0.00     0.200 A 
ATOM     17  C   UNL     1     123.517   8.415 135.544  1.00  0.00     0.162 A 
BRANCH  14  18
ATOM     18  O   UNL     1     123.912  11.985 136.452  1.00  0.00    -0.504 OA
ATOM     19  H   UNL     1     123.109  12.323 136.971  1.00  0.00     0.293 HD
ENDBRANCH  14  18
BRANCH  16  20
ATOM     20  O   UNL     1     122.074  10.313 135.129  1.00  0.00    -0.502 OA
ATOM     21  H   UNL     1     122.020  11.255 134.761  1.00  0.00     0.293 HD
ENDBRANCH  16  20
BRANCH  17  22
ATOM     22  O   UNL     1     122.619   7.561 134.905  1.00  0.00    -0.504 OA
ATOM     23  H   UNL     1     122.902   6.945 134.152  1.00  0.00     0.293 HD
ENDBRANCH  17  22
ENDBRANCH   1  12
BRANCH   2  24
ATOM     24  O   UNL     1     127.961   8.057 135.108  1.00  0.00    -0.502 OA
ATOM     25  H   UNL     1     128.440   7.461 134.444  1.00  0.00     0.293 HD
ENDBRANCH   2  24
BRANCH   6  26
ATOM     26  O   UNL     1     131.351   5.876 138.590  1.00  0.00    -0.507 OA
ATOM     27  H   UNL     1     131.953   5.166 138.980  1.00  0.00     0.293 HD
ENDBRANCH   6  26
BRANCH   8  28
ATOM     28  O   UNL     1     128.874   6.379 142.651  1.00  0.00    -0.508 OA
ATOM     29  H   UNL     1     128.709   5.464 143.054  1.00  0.00     0.293 HD
ENDBRANCH   8  28
TORSDOF 7
ENDMDL
MODEL 5
REMARK VINA RESULT:    -4.327     11.568     14.234
REMARK INTER + INTRA:          -5.660
REMARK INTER:                  -5.381
REMARK INTRA:                  -0.279
REMARK UNBOUND:                -0.321
REMARK SMILES O=c1c(O)c(-c2cc(O)c(O)c(O)c2)oc2cc(O)cc(O)c12
REMARK SMILES IDX 5 1 3 2 2 3 1 4 23 5 21 6 20 7 18 8 17 9 16 10 15 11 6 12
REMARK SMILES IDX 7 13 8 14 14 15 10 16 12 17 9 18 11 20 13 22 4 24 22 26
REMARK SMILES IDX 19 28
REMARK H PARENT 9 19 11 21 13 23 4 25 22 27 19 29
REMARK Flexibility Score: inf
ROOT
ATOM      1  C   UNL     1     116.052  16.472 141.633  1.00  0.00     0.180 A 
ATOM      2  C   UNL     1     116.474  15.642 140.581  1.00  0.00     0.208 A 
ATOM      3  C   UNL     1     116.525  16.166 139.279  1.00  0.00     0.238 A 
ATOM      4  O   UNL     1     116.831  15.396 138.331  1.00  0.00    -0.285 OA
ATOM      5  C   UNL     1     116.209  17.527 139.053  1.00  0.00     0.111 A 
ATOM      6  C   UNL     1     116.270  18.176 137.782  1.00  0.00     0.134 A 
ATOM      7  C   UNL     1     115.830  19.501 137.662  1.00  0.00     0.093 A 
ATOM      8  C   UNL     1     115.394  20.220 138.773  1.00  0.00     0.123 A 
ATOM      9  C   UNL     1     115.382  19.613 140.030  1.00  0.00     0.094 A 
ATOM     10  C   UNL     1     115.777  18.282 140.177  1.00  0.00     0.146 A 
ATOM     11  O   UNL     1     115.730  17.736 141.386  1.00  0.00    -0.452 OA
ENDROOT
BRANCH   1  12
ATOM     12  C   UNL     1     115.959  15.988 143.030  1.00  0.00     0.029 A 
ATOM     13  C   UNL     1     114.957  15.087 143.426  1.00  0.00     0.062 A 
ATOM     14  C   UNL     1     114.871  14.658 144.758  1.00  0.00     0.162 A 
ATOM     15  C   UNL     1     116.850  16.485 143.992  1.00  0.00     0.062 A 
ATOM     16  C   UNL     1     115.783  15.143 145.711  1.00  0.00     0.200 A 
ATOM     17  C   UNL     1     116.772  16.062 145.323  1.00  0.00     0.162 A 
BRANCH  14  18
ATOM     18  O   UNL     1     113.876  13.758 145.139  1.00  0.00    -0.504 OA
ATOM     19  H   UNL     1     113.966  13.188 145.972  1.00  0.00     0.293 HD
ENDBRANCH  14  18
BRANCH  16  20
ATOM     20  O   UNL     1     115.714  14.724 147.040  1.00  0.00    -0.502 OA
ATOM     21  H   UNL     1     116.472  14.881 147.695  1.00  0.00     0.293 HD
ENDBRANCH  16  20
BRANCH  17  22
ATOM     22  O   UNL     1     117.687  16.567 146.246  1.00  0.00    -0.504 OA
ATOM     23  H   UNL     1     117.399  17.111 147.051  1.00  0.00     0.293 HD
ENDBRANCH  17  22
ENDBRANCH   1  12
BRANCH   2  24
ATOM     24  O   UNL     1     116.855  14.322 140.836  1.00  0.00    -0.502 OA
ATOM     25  H   UNL     1     117.518  13.826 140.252  1.00  0.00     0.293 HD
ENDBRANCH   2  24
BRANCH   6  26
ATOM     26  O   UNL     1     116.772  17.580 136.622  1.00  0.00    -0.507 OA
ATOM     27  H   UNL     1     117.160  18.081 135.837  1.00  0.00     0.293 HD
ENDBRANCH   6  26
BRANCH   8  28
ATOM     28  O   UNL     1     114.982  21.542 138.619  1.00  0.00    -0.508 OA
ATOM     29  H   UNL     1     114.065  21.772 138.253  1.00  0.00     0.293 HD
ENDBRANCH   8  28
TORSDOF 7
ENDMDL
MODEL 6
REMARK VINA RESULT:    -4.264     14.179     15.933
REMARK INTER + INTRA:          -5.582
REMARK INTER:                  -5.229
REMARK INTRA:                  -0.353
REMARK UNBOUND:                -0.321
REMARK SMILES O=c1c(O)c(-c2cc(O)c(O)c(O)c2)oc2cc(O)cc(O)c12
REMARK SMILES IDX 5 1 3 2 2 3 1 4 23 5 21 6 20 7 18 8 17 9 16 10 15 11 6 12
REMARK SMILES IDX 7 13 8 14 14 15 10 16 12 17 9 18 11 20 13 22 4 24 22 26
REMARK SMILES IDX 19 28
REMARK H PARENT 9 19 11 21 13 23 4 25 22 27 19 29
REMARK Flexibility Score: inf
ROOT
ATOM      1  C   UNL     1     129.899   6.046 140.191  1.00  0.00     0.180 A 
ATOM      2  C   UNL     1     130.446   4.779 139.930  1.00  0.00     0.208 A 
ATOM      3  C   UNL     1     131.655   4.418 140.547  1.00  0.00     0.238 A 
ATOM      4  O   UNL     1     132.177   3.312 140.250  1.00  0.00    -0.285 OA
ATOM      5  C   UNL     1     132.271   5.305 141.463  1.00  0.00     0.111 A 
ATOM      6  C   UNL     1     133.473   5.025 142.182  1.00  0.00     0.134 A 
ATOM      7  C   UNL     1     134.048   6.022 142.981  1.00  0.00     0.093 A 
ATOM      8  C   UNL     1     133.434   7.263 143.138  1.00  0.00     0.123 A 
ATOM      9  C   UNL     1     132.229   7.528 142.484  1.00  0.00     0.094 A 
ATOM     10  C   UNL     1     131.651   6.569 141.650  1.00  0.00     0.146 A 
ATOM     11  O   UNL     1     130.517   6.869 141.030  1.00  0.00    -0.452 OA
ENDROOT
BRANCH   1  12
ATOM     12  C   UNL     1     128.637   6.503 139.567  1.00  0.00     0.029 A 
ATOM     13  C   UNL     1     127.396   6.303 140.193  1.00  0.00     0.062 A 
ATOM     14  C   UNL     1     126.209   6.721 139.575  1.00  0.00     0.162 A 
ATOM     15  C   UNL     1     128.672   7.095 138.295  1.00  0.00     0.062 A 
ATOM     16  C   UNL     1     126.256   7.335 138.312  1.00  0.00     0.200 A 
ATOM     17  C   UNL     1     127.493   7.517 137.671  1.00  0.00     0.162 A 
BRANCH  14  18
ATOM     18  O   UNL     1     124.984   6.523 140.210  1.00  0.00    -0.504 OA
ATOM     19  H   UNL     1     124.291   7.261 140.271  1.00  0.00     0.293 HD
ENDBRANCH  14  18
BRANCH  16  20
ATOM     20  O   UNL     1     125.086   7.761 137.683  1.00  0.00    -0.502 OA
ATOM     21  H   UNL     1     124.760   7.353 136.814  1.00  0.00     0.293 HD
ENDBRANCH  16  20
BRANCH  17  22
ATOM     22  O   UNL     1     127.572   8.115 136.414  1.00  0.00    -0.504 OA
ATOM     23  H   UNL     1     126.772   8.554 135.974  1.00  0.00     0.293 HD
ENDBRANCH  17  22
ENDBRANCH   1  12
BRANCH   2  24
ATOM     24  O   UNL     1     129.783   3.888 139.082  1.00  0.00    -0.502 OA
ATOM     25  H   UNL     1     128.780   3.753 139.113  1.00  0.00     0.293 HD
ENDBRANCH   2  24
BRANCH   6  26
ATOM     26  O   UNL     1     134.124   3.789 142.167  1.00  0.00    -0.507 OA
ATOM     27  H   UNL     1     135.104   3.649 142.366  1.00  0.00     0.293 HD
ENDBRANCH   6  26
BRANCH   8  28
ATOM     28  O   UNL     1     134.025   8.224 143.955  1.00  0.00    -0.508 OA
ATOM     29  H   UNL     1     134.987   8.140 144.262  1.00  0.00     0.293 HD
ENDBRANCH   8  28
TORSDOF 7
ENDMDL
MODEL 7
REMARK VINA RESULT:    -4.252     11.656     14.508
REMARK INTER + INTRA:          -5.567
REMARK INTER:                  -5.260
REMARK INTRA:                  -0.307
REMARK UNBOUND:                -0.321
REMARK SMILES O=c1c(O)c(-c2cc(O)c(O)c(O)c2)oc2cc(O)cc(O)c12
REMARK SMILES IDX 5 1 3 2 2 3 1 4 23 5 21 6 20 7 18 8 17 9 16 10 15 11 6 12
REMARK SMILES IDX 7 13 8 14 14 15 10 16 12 17 9 18 11 20 13 22 4 24 22 26
REMARK SMILES IDX 19 28
REMARK H PARENT 9 19 11 21 13 23 4 25 22 27 19 29
REMARK Flexibility Score: inf
ROOT
ATOM      1  C   UNL     1     115.924  16.997 141.717  1.00  0.00     0.180 A 
ATOM      2  C   UNL     1     115.549  18.341 141.553  1.00  0.00     0.208 A 
ATOM      3  C   UNL     1     115.606  18.913 140.271  1.00  0.00     0.238 A 
ATOM      4  O   UNL     1     115.340  20.137 140.145  1.00  0.00    -0.285 OA
ATOM      5  C   UNL     1     115.981  18.119 139.161  1.00  0.00     0.111 A 
ATOM      6  C   UNL     1     116.030  18.581 137.810  1.00  0.00     0.134 A 
ATOM      7  C   UNL     1     116.520  17.734 136.808  1.00  0.00     0.093 A 
ATOM      8  C   UNL     1     116.901  16.424 137.093  1.00  0.00     0.123 A 
ATOM      9  C   UNL     1     116.806  15.944 138.400  1.00  0.00     0.094 A 
ATOM     10  C   UNL     1     116.359  16.776 139.429  1.00  0.00     0.146 A 
ATOM     11  O   UNL     1     116.304  16.286 140.661  1.00  0.00    -0.452 OA
ENDROOT
BRANCH   1  12
ATOM     12  C   UNL     1     115.904  16.329 143.038  1.00  0.00     0.029 A 
ATOM     13  C   UNL     1     116.890  16.589 144.004  1.00  0.00     0.062 A 
ATOM     14  C   UNL     1     116.868  15.929 145.240  1.00  0.00     0.162 A 
ATOM     15  C   UNL     1     114.917  15.371 143.311  1.00  0.00     0.062 A 
ATOM     16  C   UNL     1     115.861  14.988 145.515  1.00  0.00     0.200 A 
ATOM     17  C   UNL     1     114.886  14.708 144.542  1.00  0.00     0.162 A 
BRANCH  14  18
ATOM     18  O   UNL     1     117.848  16.200 146.194  1.00  0.00    -0.504 OA
ATOM     19  H   UNL     1     117.608  16.454 147.146  1.00  0.00     0.293 HD
ENDBRANCH  14  18
BRANCH  16  20
ATOM     20  O   UNL     1     115.821  14.324 146.741  1.00  0.00    -0.502 OA
ATOM     21  H   UNL     1     116.049  14.788 147.613  1.00  0.00     0.293 HD
ENDBRANCH  16  20
BRANCH  17  22
ATOM     22  O   UNL     1     113.879  13.774 144.781  1.00  0.00    -0.504 OA
ATOM     23  H   UNL     1     113.451  13.662 145.693  1.00  0.00     0.293 HD
ENDBRANCH  17  22
ENDBRANCH   1  12
BRANCH   2  24
ATOM     24  O   UNL     1     115.108  19.087 142.649  1.00  0.00    -0.502 OA
ATOM     25  H   UNL     1     115.709  19.309 143.433  1.00  0.00     0.293 HD
ENDBRANCH   2  24
BRANCH   6  26
ATOM     26  O   UNL     1     115.590  19.842 137.398  1.00  0.00    -0.507 OA
ATOM     27  H   UNL     1     115.440  20.117 136.439  1.00  0.00     0.293 HD
ENDBRANCH   6  26
BRANCH   8  28
ATOM     28  O   UNL     1     117.366  15.605 136.067  1.00  0.00    -0.508 OA
ATOM     29  H   UNL     1     118.340  15.609 135.785  1.00  0.00     0.293 HD
ENDBRANCH   8  28
TORSDOF 7
ENDMDL
MODEL 8
REMARK VINA RESULT:    -4.178     14.667     16.788
REMARK INTER + INTRA:          -5.476
REMARK INTER:                  -5.264
REMARK INTRA:                  -0.212
REMARK UNBOUND:                -0.321
REMARK SMILES O=c1c(O)c(-c2cc(O)c(O)c(O)c2)oc2cc(O)cc(O)c12
REMARK SMILES IDX 5 1 3 2 2 3 1 4 23 5 21 6 20 7 18 8 17 9 16 10 15 11 6 12
REMARK SMILES IDX 7 13 8 14 14 15 10 16 12 17 9 18 11 20 13 22 4 24 22 26
REMARK SMILES IDX 19 28
REMARK H PARENT 9 19 11 21 13 23 4 25 22 27 19 29
REMARK Flexibility Score: inf
ROOT
ATOM      1  C   UNL     1     125.864   7.279 137.931  1.00  0.00     0.180 A 
ATOM      2  C   UNL     1     125.488   5.944 137.711  1.00  0.00     0.208 A 
ATOM      3  C   UNL     1     126.081   4.932 138.485  1.00  0.00     0.238 A 
ATOM      4  O   UNL     1     125.794   3.733 138.232  1.00  0.00    -0.285 OA
ATOM      5  C   UNL     1     126.999   5.274 139.508  1.00  0.00     0.111 A 
ATOM      6  C   UNL     1     127.626   4.335 140.382  1.00  0.00     0.134 A 
ATOM      7  C   UNL     1     128.600   4.779 141.287  1.00  0.00     0.093 A 
ATOM      8  C   UNL     1     128.923   6.131 141.393  1.00  0.00     0.123 A 
ATOM      9  C   UNL     1     128.276   7.063 140.581  1.00  0.00     0.094 A 
ATOM     10  C   UNL     1     127.329   6.648 139.643  1.00  0.00     0.146 A 
ATOM     11  O   UNL     1     126.753   7.565 138.876  1.00  0.00    -0.452 OA
ENDROOT
BRANCH   1  12
ATOM     12  C   UNL     1     125.295   8.398 137.146  1.00  0.00     0.029 A 
ATOM     13  C   UNL     1     126.094   9.174 136.292  1.00  0.00     0.062 A 
ATOM     14  C   UNL     1     125.541  10.244 135.575  1.00  0.00     0.162 A 
ATOM     15  C   UNL     1     123.941   8.730 137.303  1.00  0.00     0.062 A 
ATOM     16  C   UNL     1     124.179  10.555 135.720  1.00  0.00     0.200 A 
ATOM     17  C   UNL     1     123.380   9.795 136.591  1.00  0.00     0.162 A 
BRANCH  14  18
ATOM     18  O   UNL     1     126.344  11.004 134.724  1.00  0.00    -0.504 OA
ATOM     19  H   UNL     1     126.041  11.253 133.789  1.00  0.00     0.293 HD
ENDBRANCH  14  18
BRANCH  16  20
ATOM     20  O   UNL     1     123.610  11.614 135.011  1.00  0.00    -0.502 OA
ATOM     21  H   UNL     1     123.946  11.894 134.097  1.00  0.00     0.293 HD
ENDBRANCH  16  20
BRANCH  17  22
ATOM     22  O   UNL     1     122.027  10.084 136.762  1.00  0.00    -0.504 OA
ATOM     23  H   UNL     1     121.618  10.960 136.459  1.00  0.00     0.293 HD
ENDBRANCH  17  22
ENDBRANCH   1  12
BRANCH   2  24
ATOM     24  O   UNL     1     124.523   5.634 136.750  1.00  0.00    -0.502 OA
ATOM     25  H   UNL     1     123.572   5.981 136.802  1.00  0.00     0.293 HD
ENDBRANCH   2  24
BRANCH   6  26
ATOM     26  O   UNL     1     127.316   2.973 140.423  1.00  0.00    -0.507 OA
ATOM     27  H   UNL     1     126.384   2.595 140.506  1.00  0.00     0.293 HD
ENDBRANCH   6  26
BRANCH   8  28
ATOM     28  O   UNL     1     129.883   6.538 142.317  1.00  0.00    -0.508 OA
ATOM     29  H   UNL     1     129.676   7.230 143.027  1.00  0.00     0.293 HD
ENDBRANCH   8  28
TORSDOF 7
ENDMDL
MODEL 9
REMARK VINA RESULT:    -4.149      5.843      9.027
REMARK INTER + INTRA:          -5.440
REMARK INTER:                  -5.088
REMARK INTRA:                  -0.351
REMARK UNBOUND:                -0.321
REMARK SMILES O=c1c(O)c(-c2cc(O)c(O)c(O)c2)oc2cc(O)cc(O)c12
REMARK SMILES IDX 5 1 3 2 2 3 1 4 23 5 21 6 20 7 18 8 17 9 16 10 15 11 6 12
REMARK SMILES IDX 7 13 8 14 14 15 10 16 12 17 9 18 11 20 13 22 4 24 22 26
REMARK SMILES IDX 19 28
REMARK H PARENT 9 19 11 21 13 23 4 25 22 27 19 29
REMARK Flexibility Score: inf
ROOT
ATOM      1  C   UNL     1     129.840  12.013 152.321  1.00  0.00     0.180 A 
ATOM      2  C   UNL     1     128.992  11.148 153.032  1.00  0.00     0.208 A 
ATOM      3  C   UNL     1     129.243   9.767 152.998  1.00  0.00     0.238 A 
ATOM      4  O   UNL     1     128.436   8.992 153.575  1.00  0.00    -0.285 OA
ATOM      5  C   UNL     1     130.373   9.272 152.301  1.00  0.00     0.111 A 
ATOM      6  C   UNL     1     130.750   7.896 152.237  1.00  0.00     0.134 A 
ATOM      7  C   UNL     1     131.828   7.513 151.428  1.00  0.00     0.093 A 
ATOM      8  C   UNL     1     132.580   8.458 150.734  1.00  0.00     0.123 A 
ATOM      9  C   UNL     1     132.254   9.812 150.832  1.00  0.00     0.094 A 
ATOM     10  C   UNL     1     131.162  10.222 151.600  1.00  0.00     0.146 A 
ATOM     11  O   UNL     1     130.873  11.517 151.649  1.00  0.00    -0.452 OA
ENDROOT
BRANCH   1  12
ATOM     12  C   UNL     1     129.631  13.479 152.297  1.00  0.00     0.029 A 
ATOM     13  C   UNL     1     130.262  14.323 153.226  1.00  0.00     0.062 A 
ATOM     14  C   UNL     1     130.032  15.706 153.202  1.00  0.00     0.162 A 
ATOM     15  C   UNL     1     128.738  14.032 151.368  1.00  0.00     0.062 A 
ATOM     16  C   UNL     1     129.154  16.254 152.253  1.00  0.00     0.200 A 
ATOM     17  C   UNL     1     128.503  15.411 151.337  1.00  0.00     0.162 A 
BRANCH  14  18
ATOM     18  O   UNL     1     130.670  16.535 154.125  1.00  0.00    -0.504 OA
ATOM     19  H   UNL     1     130.397  17.503 154.247  1.00  0.00     0.293 HD
ENDBRANCH  14  18
BRANCH  16  20
ATOM     20  O   UNL     1     128.917  17.629 152.213  1.00  0.00    -0.502 OA
ATOM     21  H   UNL     1     128.819  18.184 153.055  1.00  0.00     0.293 HD
ENDBRANCH  16  20
BRANCH  17  22
ATOM     22  O   UNL     1     127.620  15.924 150.388  1.00  0.00    -0.504 OA
ATOM     23  H   UNL     1     126.896  15.358 149.962  1.00  0.00     0.293 HD
ENDBRANCH  17  22
ENDBRANCH   1  12
BRANCH   2  24
ATOM     24  O   UNL     1     127.927  11.662 153.776  1.00  0.00    -0.502 OA
ATOM     25  H   UNL     1     126.972  11.348 153.648  1.00  0.00     0.293 HD
ENDBRANCH   2  24
BRANCH   6  26
ATOM     26  O   UNL     1     130.123   6.878 152.960  1.00  0.00    -0.507 OA
ATOM     27  H   UNL     1     129.261   6.981 153.475  1.00  0.00     0.293 HD
ENDBRANCH   6  26
BRANCH   8  28
ATOM     28  O   UNL     1     133.656   8.042 149.954  1.00  0.00    -0.508 OA
ATOM     29  H   UNL     1     133.970   7.078 149.954  1.00  0.00     0.293 HD
ENDBRANCH   8  28
TORSDOF 7
ENDMDL
