MODEL 1
REMARK VINA RESULT:    -8.829      0.000      0.000
REMARK INTER + INTRA:          -9.087
REMARK INTER:                  -9.087
REMARK INTRA:                   0.000
REMARK UNBOUND:                 0.000
REMARK SMILES C[C@H]1CC[C@@]2(OC1)O[C@@H]1C[C@@H]3[C@@H]4CC=C5C[C@H](O)CC[C@@]5(C)[C@@H]4CC[C@@]3(C)[C@@H]1[C@@H]2C
REMARK SMILES IDX 1 1 2 2 3 3 4 4 5 5 29 6 28 7 9 8 8 9 10 10 11 11 26 12
REMARK SMILES IDX 25 13 24 14 23 15 12 16 13 17 14 18 15 19 21 20 20 21 19 22
REMARK SMILES IDX 17 23 16 24 22 25 27 26 30 27 6 28 7 29 18 30
REMARK H PARENT 18 31
REMARK Flexibility Score: inf
ROOT
ATOM      1  C   UNL     1     100.965 121.471 127.911  1.00  0.00     0.010 C 
ATOM      2  C   UNL     1     101.718 120.186 127.531  1.00  0.00     0.012 C 
ATOM      3  C   UNL     1     100.871 119.268 126.638  1.00  0.00     0.011 C 
ATOM      4  C   UNL     1     100.779 119.809 125.208  1.00  0.00     0.066 C 
ATOM      5  C   UNL     1     102.178 120.186 124.657  1.00  0.00     0.171 C 
ATOM      6  C   UNL     1     102.038 120.849 123.267  1.00  0.00     0.052 C 
ATOM      7  C   UNL     1     103.117 120.193 122.425  1.00  0.00     0.033 C 
ATOM      8  C   UNL     1     103.255 118.840 123.124  1.00  0.00     0.126 C 
ATOM      9  O   UNL     1     102.958 119.004 124.496  1.00  0.00    -0.346 OA
ATOM     10  C   UNL     1     104.709 118.366 122.916  1.00  0.00     0.037 C 
ATOM     11  C   UNL     1     105.270 119.386 121.932  1.00  0.00     0.002 C 
ATOM     12  C   UNL     1     104.587 120.715 122.300  1.00  0.00    -0.024 C 
ATOM     13  C   UNL     1     104.819 121.691 121.131  1.00  0.00     0.008 C 
ATOM     14  C   UNL     1     106.325 121.861 120.819  1.00  0.00     0.005 C 
ATOM     15  C   UNL     1     107.085 120.515 120.553  1.00  0.00     0.003 C 
ATOM     16  C   UNL     1     106.789 119.435 121.643  1.00  0.00     0.000 C 
ATOM     17  C   UNL     1     107.703 119.487 122.893  1.00  0.00     0.031 C 
ATOM     18  C   UNL     1     108.905 120.386 122.784  1.00  0.00    -0.027 C 
ATOM     19  C   UNL     1     109.383 120.875 121.620  1.00  0.00    -0.065 C 
ATOM     20  C   UNL     1     108.633 120.699 120.306  1.00  0.00    -0.008 C 
ATOM     21  C   UNL     1     109.251 119.440 119.618  1.00  0.00     0.014 C 
ATOM     22  C   UNL     1     110.796 119.496 119.500  1.00  0.00     0.033 C 
ATOM     23  C   UNL     1     111.490 119.849 120.841  1.00  0.00     0.118 C 
ATOM     24  C   UNL     1     110.874 121.094 121.515  1.00  0.00     0.063 C 
ATOM     25  C   UNL     1     108.861 121.931 119.380  1.00  0.00     0.016 C 
ATOM     26  C   UNL     1     105.129 121.338 123.621  1.00  0.00     0.012 C 
ATOM     27  C   UNL     1     101.920 122.382 123.214  1.00  0.00     0.014 C 
ATOM     28  O   UNL     1     102.825 121.088 125.549  1.00  0.00    -0.349 OA
ATOM     29  C   UNL     1     103.044 120.507 126.823  1.00  0.00     0.167 C 
ENDROOT
BRANCH  23  30
ATOM     30  O   UNL     1     112.871 120.018 120.653  1.00  0.00    -0.393 OA
ATOM     31  H   UNL     1     113.282 120.140 121.549  1.00  0.00     0.210 HD
ENDBRANCH  23  30
TORSDOF 1
ENDMDL
MODEL 2
REMARK VINA RESULT:    -8.633      3.777      6.051
REMARK INTER + INTRA:          -8.885
REMARK INTER:                  -8.885
REMARK INTRA:                   0.000
REMARK UNBOUND:                 0.000
REMARK SMILES C[C@H]1CC[C@@]2(OC1)O[C@@H]1C[C@@H]3[C@@H]4CC=C5C[C@H](O)CC[C@@]5(C)[C@@H]4CC[C@@]3(C)[C@@H]1[C@@H]2C
REMARK SMILES IDX 1 1 2 2 3 3 4 4 5 5 29 6 28 7 9 8 8 9 10 10 11 11 26 12
REMARK SMILES IDX 25 13 24 14 23 15 12 16 13 17 14 18 15 19 21 20 20 21 19 22
REMARK SMILES IDX 17 23 16 24 22 25 27 26 30 27 6 28 7 29 18 30
REMARK H PARENT 18 31
REMARK Flexibility Score: inf
ROOT
ATOM      1  C   UNL     1     100.190 120.961 114.942  1.00  0.00     0.010 C 
ATOM      2  C   UNL     1     101.267 122.047 115.088  1.00  0.00     0.012 C 
ATOM      3  C   UNL     1     100.764 123.248 115.904  1.00  0.00     0.011 C 
ATOM      4  C   UNL     1     100.690 122.918 117.397  1.00  0.00     0.066 C 
ATOM      5  C   UNL     1     102.004 122.264 117.895  1.00  0.00     0.171 C 
ATOM      6  C   UNL     1     101.850 121.824 119.370  1.00  0.00     0.052 C 
ATOM      7  C   UNL     1     103.137 122.277 120.036  1.00  0.00     0.033 C 
ATOM      8  C   UNL     1     103.527 123.460 119.150  1.00  0.00     0.126 C 
ATOM      9  O   UNL     1     103.061 123.219 117.837  1.00  0.00    -0.346 OA
ATOM     10  C   UNL     1     105.066 123.570 119.188  1.00  0.00     0.037 C 
ATOM     11  C   UNL     1     105.460 122.563 120.261  1.00  0.00     0.002 C 
ATOM     12  C   UNL     1     104.441 121.417 120.129  1.00  0.00    -0.024 C 
ATOM     13  C   UNL     1     104.547 120.557 121.402  1.00  0.00     0.008 C 
ATOM     14  C   UNL     1     105.990 120.047 121.628  1.00  0.00     0.005 C 
ATOM     15  C   UNL     1     107.077 121.177 121.652  1.00  0.00     0.003 C 
ATOM     16  C   UNL     1     106.943 122.163 120.447  1.00  0.00     0.000 C 
ATOM     17  C   UNL     1     107.684 121.736 119.156  1.00  0.00     0.031 C 
ATOM     18  C   UNL     1     108.636 120.580 119.303  1.00  0.00    -0.027 C 
ATOM     19  C   UNL     1     109.097 120.124 120.486  1.00  0.00    -0.065 C 
ATOM     20  C   UNL     1     108.552 120.635 121.813  1.00  0.00    -0.008 C 
ATOM     21  C   UNL     1     109.523 121.767 122.277  1.00  0.00     0.014 C 
ATOM     22  C   UNL     1     111.012 121.334 122.292  1.00  0.00     0.033 C 
ATOM     23  C   UNL     1     111.459 120.664 120.968  1.00  0.00     0.118 C 
ATOM     24  C   UNL     1     110.494 119.546 120.516  1.00  0.00     0.063 C 
ATOM     25  C   UNL     1     108.567 119.502 122.882  1.00  0.00     0.016 C 
ATOM     26  C   UNL     1     104.677 120.528 118.871  1.00  0.00     0.012 C 
ATOM     27  C   UNL     1     101.369 120.388 119.642  1.00  0.00     0.014 C 
ATOM     28  O   UNL     1     102.319 121.130 117.093  1.00  0.00    -0.349 OA
ATOM     29  C   UNL     1     102.541 121.485 115.739  1.00  0.00     0.167 C 
ENDROOT
BRANCH  23  30
ATOM     30  O   UNL     1     112.770 120.172 121.080  1.00  0.00    -0.393 OA
ATOM     31  H   UNL     1     113.004 120.161 122.045  1.00  0.00     0.210 HD
ENDBRANCH  23  30
TORSDOF 1
ENDMDL
MODEL 3
REMARK VINA RESULT:    -8.022      4.168      5.477
REMARK INTER + INTRA:          -8.256
REMARK INTER:                  -8.256
REMARK INTRA:                   0.000
REMARK UNBOUND:                 0.000
REMARK SMILES C[C@H]1CC[C@@]2(OC1)O[C@@H]1C[C@@H]3[C@@H]4CC=C5C[C@H](O)CC[C@@]5(C)[C@@H]4CC[C@@]3(C)[C@@H]1[C@@H]2C
REMARK SMILES IDX 1 1 2 2 3 3 4 4 5 5 29 6 28 7 9 8 8 9 10 10 11 11 26 12
REMARK SMILES IDX 25 13 24 14 23 15 12 16 13 17 14 18 15 19 21 20 20 21 19 22
REMARK SMILES IDX 17 23 16 24 22 25 27 26 30 27 6 28 7 29 18 30
REMARK H PARENT 18 31
REMARK Flexibility Score: inf
ROOT
ATOM      1  C   UNL     1      98.262 125.174 119.457  1.00  0.00     0.010 C 
ATOM      2  C   UNL     1      98.660 123.695 119.591  1.00  0.00     0.012 C 
ATOM      3  C   UNL     1      98.509 122.937 118.264  1.00  0.00     0.011 C 
ATOM      4  C   UNL     1      99.628 123.298 117.283  1.00  0.00     0.066 C 
ATOM      5  C   UNL     1     101.020 123.208 117.958  1.00  0.00     0.171 C 
ATOM      6  C   UNL     1     102.114 123.704 116.984  1.00  0.00     0.052 C 
ATOM      7  C   UNL     1     103.226 122.678 117.111  1.00  0.00     0.033 C 
ATOM      8  C   UNL     1     102.437 121.438 117.531  1.00  0.00     0.126 C 
ATOM      9  O   UNL     1     101.306 121.848 118.274  1.00  0.00    -0.346 OA
ATOM     10  C   UNL     1     103.382 120.564 118.382  1.00  0.00     0.037 C 
ATOM     11  C   UNL     1     104.729 121.260 118.232  1.00  0.00     0.002 C 
ATOM     12  C   UNL     1     104.397 122.760 118.145  1.00  0.00    -0.024 C 
ATOM     13  C   UNL     1     105.656 123.481 117.626  1.00  0.00     0.008 C 
ATOM     14  C   UNL     1     106.887 123.194 118.518  1.00  0.00     0.005 C 
ATOM     15  C   UNL     1     107.190 121.669 118.729  1.00  0.00     0.003 C 
ATOM     16  C   UNL     1     105.919 120.857 119.136  1.00  0.00     0.000 C 
ATOM     17  C   UNL     1     105.617 120.815 120.654  1.00  0.00     0.031 C 
ATOM     18  C   UNL     1     106.710 121.332 121.550  1.00  0.00    -0.027 C 
ATOM     19  C   UNL     1     107.987 121.521 121.156  1.00  0.00    -0.065 C 
ATOM     20  C   UNL     1     108.406 121.392 119.697  1.00  0.00    -0.008 C 
ATOM     21  C   UNL     1     108.946 119.937 119.526  1.00  0.00     0.014 C 
ATOM     22  C   UNL     1     110.030 119.555 120.566  1.00  0.00     0.033 C 
ATOM     23  C   UNL     1     109.607 119.871 122.023  1.00  0.00     0.118 C 
ATOM     24  C   UNL     1     109.074 121.311 122.184  1.00  0.00     0.063 C 
ATOM     25  C   UNL     1     109.558 122.389 119.371  1.00  0.00     0.016 C 
ATOM     26  C   UNL     1     103.965 123.373 119.510  1.00  0.00     0.012 C 
ATOM     27  C   UNL     1     102.501 125.192 117.040  1.00  0.00     0.014 C 
ATOM     28  O   UNL     1     101.041 124.004 119.139  1.00  0.00    -0.349 OA
ATOM     29  C   UNL     1     100.103 123.551 120.100  1.00  0.00     0.167 C 
ENDROOT
BRANCH  23  30
ATOM     30  O   UNL     1     110.669 119.633 122.911  1.00  0.00    -0.393 OA
ATOM     31  H   UNL     1     110.730 118.651 123.048  1.00  0.00     0.210 HD
ENDBRANCH  23  30
TORSDOF 1
ENDMDL
MODEL 4
REMARK VINA RESULT:    -7.742      2.252      2.775
REMARK INTER + INTRA:          -7.968
REMARK INTER:                  -7.968
REMARK INTRA:                   0.000
REMARK UNBOUND:                 0.000
REMARK SMILES C[C@H]1CC[C@@]2(OC1)O[C@@H]1C[C@@H]3[C@@H]4CC=C5C[C@H](O)CC[C@@]5(C)[C@@H]4CC[C@@]3(C)[C@@H]1[C@@H]2C
REMARK SMILES IDX 1 1 2 2 3 3 4 4 5 5 29 6 28 7 9 8 8 9 10 10 11 11 26 12
REMARK SMILES IDX 25 13 24 14 23 15 12 16 13 17 14 18 15 19 21 20 20 21 19 22
REMARK SMILES IDX 17 23 16 24 22 25 27 26 30 27 6 28 7 29 18 30
REMARK H PARENT 18 31
REMARK Flexibility Score: inf
ROOT
ATOM      1  C   UNL     1      99.216 123.152 123.786  1.00  0.00     0.010 C 
ATOM      2  C   UNL     1      99.875 121.764 123.743  1.00  0.00     0.012 C 
ATOM      3  C   UNL     1      99.284 120.882 122.632  1.00  0.00     0.011 C 
ATOM      4  C   UNL     1      99.779 121.319 121.250  1.00  0.00     0.066 C 
ATOM      5  C   UNL     1     101.319 121.490 121.232  1.00  0.00     0.171 C 
ATOM      6  C   UNL     1     101.772 122.056 119.865  1.00  0.00     0.052 C 
ATOM      7  C   UNL     1     102.981 121.217 119.491  1.00  0.00     0.033 C 
ATOM      8  C   UNL     1     102.679 119.916 120.233  1.00  0.00     0.126 C 
ATOM      9  O   UNL     1     101.939 120.218 121.400  1.00  0.00    -0.346 OA
ATOM     10  C   UNL     1     104.034 119.264 120.580  1.00  0.00     0.037 C 
ATOM     11  C   UNL     1     105.039 120.133 119.835  1.00  0.00     0.002 C 
ATOM     12  C   UNL     1     104.455 121.556 119.890  1.00  0.00    -0.024 C 
ATOM     13  C   UNL     1     105.216 122.406 118.854  1.00  0.00     0.008 C 
ATOM     14  C   UNL     1     106.743 122.378 119.104  1.00  0.00     0.005 C 
ATOM     15  C   UNL     1     107.359 120.938 119.172  1.00  0.00     0.003 C 
ATOM     16  C   UNL     1     106.554 119.986 120.114  1.00  0.00     0.000 C 
ATOM     17  C   UNL     1     106.963 120.029 121.607  1.00  0.00     0.031 C 
ATOM     18  C   UNL     1     108.235 120.774 121.912  1.00  0.00    -0.027 C 
ATOM     19  C   UNL     1     109.155 121.113 120.986  1.00  0.00    -0.065 C 
ATOM     20  C   UNL     1     108.904 120.924 119.495  1.00  0.00    -0.008 C 
ATOM     21  C   UNL     1     109.550 119.554 119.116  1.00  0.00     0.014 C 
ATOM     22  C   UNL     1     111.029 119.423 119.564  1.00  0.00     0.033 C 
ATOM     23  C   UNL     1     111.243 119.796 121.053  1.00  0.00     0.118 C 
ATOM     24  C   UNL     1     110.602 121.152 121.420  1.00  0.00     0.063 C 
ATOM     25  C   UNL     1     109.609 122.047 118.678  1.00  0.00     0.016 C 
ATOM     26  C   UNL     1     104.572 122.213 121.298  1.00  0.00     0.012 C 
ATOM     27  C   UNL     1     101.888 123.583 119.726  1.00  0.00     0.014 C 
ATOM     28  O   UNL     1     101.723 122.377 122.269  1.00  0.00    -0.349 OA
ATOM     29  C   UNL     1     101.396 121.875 123.554  1.00  0.00     0.167 C 
ENDROOT
BRANCH  23  30
ATOM     30  O   UNL     1     112.611 119.791 121.373  1.00  0.00    -0.393 OA
ATOM     31  H   UNL     1     112.688 119.882 122.359  1.00  0.00     0.210 HD
ENDBRANCH  23  30
TORSDOF 1
ENDMDL
MODEL 5
REMARK VINA RESULT:    -7.711      3.211      4.258
REMARK INTER + INTRA:          -7.936
REMARK INTER:                  -7.936
REMARK INTRA:                   0.000
REMARK UNBOUND:                 0.000
REMARK SMILES C[C@H]1CC[C@@]2(OC1)O[C@@H]1C[C@@H]3[C@@H]4CC=C5C[C@H](O)CC[C@@]5(C)[C@@H]4CC[C@@]3(C)[C@@H]1[C@@H]2C
REMARK SMILES IDX 1 1 2 2 3 3 4 4 5 5 29 6 28 7 9 8 8 9 10 10 11 11 26 12
REMARK SMILES IDX 25 13 24 14 23 15 12 16 13 17 14 18 15 19 21 20 20 21 19 22
REMARK SMILES IDX 17 23 16 24 22 25 27 26 30 27 6 28 7 29 18 30
REMARK H PARENT 18 31
REMARK Flexibility Score: inf
ROOT
ATOM      1  C   UNL     1      99.929 118.695 127.375  1.00  0.00     0.010 C 
ATOM      2  C   UNL     1     101.373 119.220 127.358  1.00  0.00     0.012 C 
ATOM      3  C   UNL     1     102.399 118.077 127.331  1.00  0.00     0.011 C 
ATOM      4  C   UNL     1     102.469 117.421 125.949  1.00  0.00     0.066 C 
ATOM      5  C   UNL     1     102.609 118.483 124.828  1.00  0.00     0.171 C 
ATOM      6  C   UNL     1     102.544 117.800 123.442  1.00  0.00     0.052 C 
ATOM      7  C   UNL     1     103.669 118.443 122.651  1.00  0.00     0.033 C 
ATOM      8  C   UNL     1     104.629 118.839 123.773  1.00  0.00     0.126 C 
ATOM      9  O   UNL     1     103.878 119.122 124.936  1.00  0.00    -0.346 OA
ATOM     10  C   UNL     1     105.406 120.082 123.289  1.00  0.00     0.037 C 
ATOM     11  C   UNL     1     104.988 120.207 121.829  1.00  0.00     0.002 C 
ATOM     12  C   UNL     1     103.522 119.742 121.791  1.00  0.00    -0.024 C 
ATOM     13  C   UNL     1     103.156 119.491 120.316  1.00  0.00     0.008 C 
ATOM     14  C   UNL     1     103.406 120.745 119.445  1.00  0.00     0.005 C 
ATOM     15  C   UNL     1     104.861 121.322 119.547  1.00  0.00     0.003 C 
ATOM     16  C   UNL     1     105.340 121.482 121.025  1.00  0.00     0.000 C 
ATOM     17  C   UNL     1     104.961 122.822 121.704  1.00  0.00     0.031 C 
ATOM     18  C   UNL     1     104.419 123.885 120.787  1.00  0.00    -0.027 C 
ATOM     19  C   UNL     1     104.535 123.858 119.443  1.00  0.00    -0.065 C 
ATOM     20  C   UNL     1     105.080 122.641 118.707  1.00  0.00    -0.008 C 
ATOM     21  C   UNL     1     106.599 122.918 118.474  1.00  0.00     0.014 C 
ATOM     22  C   UNL     1     106.881 124.285 117.799  1.00  0.00     0.033 C 
ATOM     23  C   UNL     1     106.156 125.464 118.498  1.00  0.00     0.118 C 
ATOM     24  C   UNL     1     104.655 125.183 118.725  1.00  0.00     0.063 C 
ATOM     25  C   UNL     1     104.387 122.487 117.320  1.00  0.00     0.016 C 
ATOM     26  C   UNL     1     102.534 120.775 122.410  1.00  0.00     0.012 C 
ATOM     27  C   UNL     1     101.168 117.683 122.765  1.00  0.00     0.014 C 
ATOM     28  O   UNL     1     101.562 119.442 124.933  1.00  0.00    -0.349 OA
ATOM     29  C   UNL     1     101.614 120.151 126.159  1.00  0.00     0.167 C 
ENDROOT
BRANCH  23  30
ATOM     30  O   UNL     1     106.334 126.654 117.774  1.00  0.00    -0.393 OA
ATOM     31  H   UNL     1     107.208 127.041 118.044  1.00  0.00     0.210 HD
ENDBRANCH  23  30
TORSDOF 1
ENDMDL
MODEL 6
REMARK VINA RESULT:    -7.343      2.420      8.203
REMARK INTER + INTRA:          -7.558
REMARK INTER:                  -7.558
REMARK INTRA:                   0.000
REMARK UNBOUND:                 0.000
REMARK SMILES C[C@H]1CC[C@@]2(OC1)O[C@@H]1C[C@@H]3[C@@H]4CC=C5C[C@H](O)CC[C@@]5(C)[C@@H]4CC[C@@]3(C)[C@@H]1[C@@H]2C
REMARK SMILES IDX 1 1 2 2 3 3 4 4 5 5 29 6 28 7 9 8 8 9 10 10 11 11 26 12
REMARK SMILES IDX 25 13 24 14 23 15 12 16 13 17 14 18 15 19 21 20 20 21 19 22
REMARK SMILES IDX 17 23 16 24 22 25 27 26 30 27 6 28 7 29 18 30
REMARK H PARENT 18 31
REMARK Flexibility Score: inf
ROOT
ATOM      1  C   UNL     1     111.301 119.738 121.295  1.00  0.00     0.010 C 
ATOM      2  C   UNL     1     110.510 120.282 122.495  1.00  0.00     0.012 C 
ATOM      3  C   UNL     1     110.171 121.772 122.330  1.00  0.00     0.011 C 
ATOM      4  C   UNL     1     109.048 121.980 121.311  1.00  0.00     0.066 C 
ATOM      5  C   UNL     1     107.848 121.041 121.594  1.00  0.00     0.171 C 
ATOM      6  C   UNL     1     106.791 121.182 120.475  1.00  0.00     0.052 C 
ATOM      7  C   UNL     1     105.466 121.258 121.214  1.00  0.00     0.033 C 
ATOM      8  C   UNL     1     105.910 121.844 122.554  1.00  0.00     0.126 C 
ATOM      9  O   UNL     1     107.231 121.418 122.822  1.00  0.00    -0.346 OA
ATOM     10  C   UNL     1     104.925 121.328 123.625  1.00  0.00     0.037 C 
ATOM     11  C   UNL     1     103.848 120.635 122.801  1.00  0.00     0.002 C 
ATOM     12  C   UNL     1     104.593 120.020 121.603  1.00  0.00    -0.024 C 
ATOM     13  C   UNL     1     103.535 119.631 120.553  1.00  0.00     0.008 C 
ATOM     14  C   UNL     1     102.468 118.679 121.143  1.00  0.00     0.005 C 
ATOM     15  C   UNL     1     101.766 119.220 122.437  1.00  0.00     0.003 C 
ATOM     16  C   UNL     1     102.786 119.749 123.495  1.00  0.00     0.000 C 
ATOM     17  C   UNL     1     103.344 118.682 124.469  1.00  0.00     0.031 C 
ATOM     18  C   UNL     1     102.647 117.347 124.442  1.00  0.00    -0.027 C 
ATOM     19  C   UNL     1     101.437 117.136 123.885  1.00  0.00    -0.065 C 
ATOM     20  C   UNL     1     100.729 118.208 123.066  1.00  0.00    -0.008 C 
ATOM     21  C   UNL     1      99.754 118.932 124.047  1.00  0.00     0.014 C 
ATOM     22  C   UNL     1      98.823 117.963 124.819  1.00  0.00     0.033 C 
ATOM     23  C   UNL     1      99.591 116.795 125.490  1.00  0.00     0.118 C 
ATOM     24  C   UNL     1     100.553 116.084 124.514  1.00  0.00     0.063 C 
ATOM     25  C   UNL     1      99.891 117.557 121.925  1.00  0.00     0.016 C 
ATOM     26  C   UNL     1     105.441 118.769 121.984  1.00  0.00     0.012 C 
ATOM     27  C   UNL     1     106.887 120.225 119.274  1.00  0.00     0.014 C 
ATOM     28  O   UNL     1     108.293 119.690 121.659  1.00  0.00    -0.349 OA
ATOM     29  C   UNL     1     109.215 119.485 122.716  1.00  0.00     0.167 C 
ENDROOT
BRANCH  23  30
ATOM     30  O   UNL     1      98.695 115.877 126.061  1.00  0.00    -0.393 OA
ATOM     31  H   UNL     1      99.003 114.965 125.815  1.00  0.00     0.210 HD
ENDBRANCH  23  30
TORSDOF 1
ENDMDL
MODEL 7
REMARK VINA RESULT:    -7.261      2.145      8.263
REMARK INTER + INTRA:          -7.473
REMARK INTER:                  -7.473
REMARK INTRA:                   0.000
REMARK UNBOUND:                 0.000
REMARK SMILES C[C@H]1CC[C@@]2(OC1)O[C@@H]1C[C@@H]3[C@@H]4CC=C5C[C@H](O)CC[C@@]5(C)[C@@H]4CC[C@@]3(C)[C@@H]1[C@@H]2C
REMARK SMILES IDX 1 1 2 2 3 3 4 4 5 5 29 6 28 7 9 8 8 9 10 10 11 11 26 12
REMARK SMILES IDX 25 13 24 14 23 15 12 16 13 17 14 18 15 19 21 20 20 21 19 22
REMARK SMILES IDX 17 23 16 24 22 25 27 26 30 27 6 28 7 29 18 30
REMARK H PARENT 18 31
REMARK Flexibility Score: inf
ROOT
ATOM      1  C   UNL     1     109.991 120.004 119.574  1.00  0.00     0.010 C 
ATOM      2  C   UNL     1     109.368 121.140 120.400  1.00  0.00     0.012 C 
ATOM      3  C   UNL     1     108.423 122.011 119.557  1.00  0.00     0.011 C 
ATOM      4  C   UNL     1     107.100 121.292 119.281  1.00  0.00     0.066 C 
ATOM      5  C   UNL     1     106.497 120.702 120.582  1.00  0.00     0.171 C 
ATOM      6  C   UNL     1     105.234 119.873 120.250  1.00  0.00     0.052 C 
ATOM      7  C   UNL     1     104.220 120.295 121.299  1.00  0.00     0.033 C 
ATOM      8  C   UNL     1     104.702 121.709 121.624  1.00  0.00     0.126 C 
ATOM      9  O   UNL     1     106.103 121.764 121.446  1.00  0.00    -0.346 OA
ATOM     10  C   UNL     1     104.309 121.998 123.088  1.00  0.00     0.037 C 
ATOM     11  C   UNL     1     103.441 120.802 123.459  1.00  0.00     0.002 C 
ATOM     12  C   UNL     1     104.052 119.613 122.697  1.00  0.00    -0.024 C 
ATOM     13  C   UNL     1     103.022 118.468 122.728  1.00  0.00     0.008 C 
ATOM     14  C   UNL     1     102.616 118.104 124.176  1.00  0.00     0.005 C 
ATOM     15  C   UNL     1     102.097 119.316 125.025  1.00  0.00     0.003 C 
ATOM     16  C   UNL     1     103.039 120.559 124.933  1.00  0.00     0.000 C 
ATOM     17  C   UNL     1     104.205 120.584 125.953  1.00  0.00     0.031 C 
ATOM     18  C   UNL     1     104.129 119.560 127.054  1.00  0.00    -0.027 C 
ATOM     19  C   UNL     1     103.014 118.872 127.373  1.00  0.00    -0.065 C 
ATOM     20  C   UNL     1     101.753 118.942 126.520  1.00  0.00    -0.008 C 
ATOM     21  C   UNL     1     100.842 120.025 127.180  1.00  0.00     0.014 C 
ATOM     22  C   UNL     1     100.608 119.796 128.695  1.00  0.00     0.033 C 
ATOM     23  C   UNL     1     101.924 119.560 129.479  1.00  0.00     0.118 C 
ATOM     24  C   UNL     1     102.820 118.488 128.822  1.00  0.00     0.063 C 
ATOM     25  C   UNL     1     101.000 117.578 126.547  1.00  0.00     0.016 C 
ATOM     26  C   UNL     1     105.401 119.123 123.305  1.00  0.00     0.012 C 
ATOM     27  C   UNL     1     105.413 118.368 119.991  1.00  0.00     0.014 C 
ATOM     28  O   UNL     1     107.454 119.869 121.227  1.00  0.00    -0.349 OA
ATOM     29  C   UNL     1     108.609 120.592 121.618  1.00  0.00     0.167 C 
ENDROOT
BRANCH  23  30
ATOM     30  O   UNL     1     101.651 119.226 130.816  1.00  0.00    -0.393 OA
ATOM     31  H   UNL     1     101.976 118.299 130.966  1.00  0.00     0.210 HD
ENDBRANCH  23  30
TORSDOF 1
ENDMDL
MODEL 8
REMARK VINA RESULT:    -7.126      3.181      5.179
REMARK INTER + INTRA:          -7.335
REMARK INTER:                  -7.335
REMARK INTRA:                   0.000
REMARK UNBOUND:                 0.000
REMARK SMILES C[C@H]1CC[C@@]2(OC1)O[C@@H]1C[C@@H]3[C@@H]4CC=C5C[C@H](O)CC[C@@]5(C)[C@@H]4CC[C@@]3(C)[C@@H]1[C@@H]2C
REMARK SMILES IDX 1 1 2 2 3 3 4 4 5 5 29 6 28 7 9 8 8 9 10 10 11 11 26 12
REMARK SMILES IDX 25 13 24 14 23 15 12 16 13 17 14 18 15 19 21 20 20 21 19 22
REMARK SMILES IDX 17 23 16 24 22 25 27 26 30 27 6 28 7 29 18 30
REMARK H PARENT 18 31
REMARK Flexibility Score: inf
ROOT
ATOM      1  C   UNL     1      98.677 121.554 117.590  1.00  0.00     0.010 C 
ATOM      2  C   UNL     1      99.859 122.488 117.282  1.00  0.00     0.012 C 
ATOM      3  C   UNL     1      99.750 123.820 118.038  1.00  0.00     0.011 C 
ATOM      4  C   UNL     1     100.085 123.650 119.522  1.00  0.00     0.066 C 
ATOM      5  C   UNL     1     101.410 122.869 119.715  1.00  0.00     0.171 C 
ATOM      6  C   UNL     1     101.652 122.600 121.218  1.00  0.00     0.052 C 
ATOM      7  C   UNL     1     103.119 122.931 121.430  1.00  0.00     0.033 C 
ATOM      8  C   UNL     1     103.353 123.956 120.321  1.00  0.00     0.126 C 
ATOM      9  O   UNL     1     102.497 123.656 119.236  1.00  0.00    -0.346 OA
ATOM     10  C   UNL     1     104.837 123.852 119.911  1.00  0.00     0.037 C 
ATOM     11  C   UNL     1     105.421 122.908 120.955  1.00  0.00     0.002 C 
ATOM     12  C   UNL     1     104.292 121.909 121.267  1.00  0.00    -0.024 C 
ATOM     13  C   UNL     1     104.677 121.169 122.563  1.00  0.00     0.008 C 
ATOM     14  C   UNL     1     106.061 120.487 122.440  1.00  0.00     0.005 C 
ATOM     15  C   UNL     1     107.220 121.450 122.008  1.00  0.00     0.003 C 
ATOM     16  C   UNL     1     106.842 122.324 120.769  1.00  0.00     0.000 C 
ATOM     17  C   UNL     1     107.119 121.674 119.390  1.00  0.00     0.031 C 
ATOM     18  C   UNL     1     107.944 120.415 119.418  1.00  0.00    -0.027 C 
ATOM     19  C   UNL     1     108.683 120.016 120.474  1.00  0.00    -0.065 C 
ATOM     20  C   UNL     1     108.610 120.725 121.820  1.00  0.00    -0.008 C 
ATOM     21  C   UNL     1     109.790 121.749 121.837  1.00  0.00     0.014 C 
ATOM     22  C   UNL     1     111.162 121.115 121.493  1.00  0.00     0.033 C 
ATOM     23  C   UNL     1     111.124 120.264 120.198  1.00  0.00     0.118 C 
ATOM     24  C   UNL     1     109.956 119.254 120.188  1.00  0.00     0.063 C 
ATOM     25  C   UNL     1     108.819 119.709 122.983  1.00  0.00     0.016 C 
ATOM     26  C   UNL     1     104.051 120.878 120.124  1.00  0.00     0.012 C 
ATOM     27  C   UNL     1     101.123 121.279 121.803  1.00  0.00     0.014 C 
ATOM     28  O   UNL     1     101.352 121.630 119.015  1.00  0.00    -0.349 OA
ATOM     29  C   UNL     1     101.201 121.817 117.618  1.00  0.00     0.167 C 
ENDROOT
BRANCH  23  30
ATOM     30  O   UNL     1     112.350 119.606 120.002  1.00  0.00    -0.393 OA
ATOM     31  H   UNL     1     112.728 119.927 119.142  1.00  0.00     0.210 HD
ENDBRANCH  23  30
TORSDOF 1
ENDMDL
MODEL 9
REMARK VINA RESULT:    -6.817      7.722     10.002
REMARK INTER + INTRA:          -7.016
REMARK INTER:                  -7.016
REMARK INTRA:                   0.000
REMARK UNBOUND:                 0.000
REMARK SMILES C[C@H]1CC[C@@]2(OC1)O[C@@H]1C[C@@H]3[C@@H]4CC=C5C[C@H](O)CC[C@@]5(C)[C@@H]4CC[C@@]3(C)[C@@H]1[C@@H]2C
REMARK SMILES IDX 1 1 2 2 3 3 4 4 5 5 29 6 28 7 9 8 8 9 10 10 11 11 26 12
REMARK SMILES IDX 25 13 24 14 23 15 12 16 13 17 14 18 15 19 21 20 20 21 19 22
REMARK SMILES IDX 17 23 16 24 22 25 27 26 30 27 6 28 7 29 18 30
REMARK H PARENT 18 31
REMARK Flexibility Score: inf
ROOT
ATOM      1  C   UNL     1      98.594 114.995 113.129  1.00  0.00     0.010 C 
ATOM      2  C   UNL     1     100.046 115.082 113.625  1.00  0.00     0.012 C 
ATOM      3  C   UNL     1     101.041 115.245 112.466  1.00  0.00     0.011 C 
ATOM      4  C   UNL     1     101.000 116.665 111.892  1.00  0.00     0.066 C 
ATOM      5  C   UNL     1     101.089 117.729 113.015  1.00  0.00     0.171 C 
ATOM      6  C   UNL     1     100.913 119.145 112.416  1.00  0.00     0.052 C 
ATOM      7  C   UNL     1     101.998 119.973 113.082  1.00  0.00     0.033 C 
ATOM      8  C   UNL     1     103.041 118.900 113.393  1.00  0.00     0.126 C 
ATOM      9  O   UNL     1     102.377 117.672 113.621  1.00  0.00    -0.346 OA
ATOM     10  C   UNL     1     103.812 119.364 114.646  1.00  0.00     0.037 C 
ATOM     11  C   UNL     1     103.299 120.781 114.866  1.00  0.00     0.002 C 
ATOM     12  C   UNL     1     101.823 120.744 114.433  1.00  0.00    -0.024 C 
ATOM     13  C   UNL     1     101.352 122.203 114.277  1.00  0.00     0.008 C 
ATOM     14  C   UNL     1     101.572 123.016 115.575  1.00  0.00     0.005 C 
ATOM     15  C   UNL     1     103.044 122.981 116.116  1.00  0.00     0.003 C 
ATOM     16  C   UNL     1     103.626 121.533 116.179  1.00  0.00     0.000 C 
ATOM     17  C   UNL     1     103.326 120.754 117.483  1.00  0.00     0.031 C 
ATOM     18  C   UNL     1     102.749 121.568 118.610  1.00  0.00    -0.027 C 
ATOM     19  C   UNL     1     102.772 122.916 118.660  1.00  0.00    -0.065 C 
ATOM     20  C   UNL     1     103.237 123.757 117.478  1.00  0.00    -0.008 C 
ATOM     21  C   UNL     1     104.743 124.079 117.738  1.00  0.00     0.014 C 
ATOM     22  C   UNL     1     105.010 124.692 119.137  1.00  0.00     0.033 C 
ATOM     23  C   UNL     1     104.363 123.877 120.286  1.00  0.00     0.118 C 
ATOM     24  C   UNL     1     102.874 123.564 120.022  1.00  0.00     0.063 C 
ATOM     25  C   UNL     1     102.447 125.099 117.420  1.00  0.00     0.016 C 
ATOM     26  C   UNL     1     100.904 120.000 115.447  1.00  0.00     0.012 C 
ATOM     27  C   UNL     1      99.492 119.730 112.367  1.00  0.00     0.014 C 
ATOM     28  O   UNL     1     100.075 117.497 113.987  1.00  0.00    -0.349 OA
ATOM     29  C   UNL     1     100.226 116.239 114.621  1.00  0.00     0.167 C 
ENDROOT
BRANCH  23  30
ATOM     30  O   UNL     1     104.519 124.542 121.513  1.00  0.00    -0.393 OA
ATOM     31  H   UNL     1     103.637 124.540 121.970  1.00  0.00     0.210 HD
ENDBRANCH  23  30
TORSDOF 1
ENDMDL
