MODEL 1
REMARK VINA RESULT:    -7.362      0.000      0.000
REMARK INTER + INTRA:         -14.251
REMARK INTER:                 -12.096
REMARK INTRA:                  -2.155
REMARK UNBOUND:                -2.155
REMARK SMILES C[C@@H]1O[C@H](OC[C@H]2O[C@H](Oc3c(-c4ccc(O)c(O)c4)oc4cc(O)cc(O)c4c3=O)[C@H](O)[C@@H](O)[C@@H]2O)[C@H](O)[C@@H](O)[C@H]1O
REMARK SMILES IDX 7 1 36 2 34 3 32 4 9 5 8 6 6 7 5 8 4 9 1 10 2 11 42 12 3 13
REMARK SMILES IDX 40 14 38 15 43 16 41 18 39 20 37 22 35 24 10 26 11 27 12 28
REMARK SMILES IDX 30 29 21 30 29 31 31 32 22 33 27 34 23 35 26 36 24 37 13 38
REMARK SMILES IDX 20 39 14 40 18 41 15 42 16 43 19 44 17 46 28 48 25 50 33 52
REMARK H PARENT 43 17 41 19 39 21 37 23 35 25 19 45 17 47 28 49 25 51 33 53
REMARK Flexibility Score: inf
ROOT
ATOM      1  C   UNL     1      18.489  25.260  42.256  1.00  0.00     0.180 C 
ATOM      2  C   UNL     1      19.106  26.624  41.893  1.00  0.00     0.177 C 
ATOM      3  C   UNL     1      19.934  27.391  42.971  1.00  0.00     0.180 C 
ATOM      4  C   UNL     1      19.193  27.084  44.466  1.00  0.00     0.214 C 
ATOM      5  C   UNL     1      18.252  25.812  44.548  1.00  0.00     0.339 C 
ATOM      6  O   UNL     1      18.672  24.821  43.629  1.00  0.00    -0.332 OA
ENDROOT
BRANCH   1   7
ATOM      7  C   UNL     1      18.963  24.084  41.330  1.00  0.00     0.198 C 
BRANCH   7   8
ATOM      8  O   UNL     1      18.434  24.075  39.974  1.00  0.00    -0.347 OA
BRANCH   8   9
ATOM      9  C   UNL     1      19.518  24.157  38.988  1.00  0.00     0.281 C 
ATOM     10  C   UNL     1      19.970  20.756  37.364  1.00  0.00     0.041 C 
ATOM     11  C   UNL     1      19.666  22.238  37.371  1.00  0.00     0.150 C 
ATOM     12  C   UNL     1      18.212  22.408  37.060  1.00  0.00     0.174 C 
ATOM     13  O   UNL     1      19.965  22.821  38.676  1.00  0.00    -0.344 OA
ATOM     14  C   UNL     1      17.928  23.877  37.083  1.00  0.00     0.179 C 
ATOM     15  C   UNL     1      19.045  24.866  37.702  1.00  0.00     0.202 C 
BRANCH  12  16
ATOM     16  O   UNL     1      17.815  21.891  35.783  1.00  0.00    -0.388 OA
ATOM     17  H   UNL     1      18.048  22.533  35.086  1.00  0.00     0.211 HD
ENDBRANCH  12  16
BRANCH  14  18
ATOM     18  O   UNL     1      17.632  24.360  35.815  1.00  0.00    -0.387 OA
ATOM     19  H   UNL     1      18.310  24.017  35.129  1.00  0.00     0.211 HD
ENDBRANCH  14  18
BRANCH  15  20
ATOM     20  O   UNL     1      18.347  26.109  37.783  1.00  0.00    -0.385 OA
ATOM     21  H   UNL     1      17.453  25.963  38.150  1.00  0.00     0.211 HD
ENDBRANCH  15  20
ENDBRANCH   8   9
ENDBRANCH   7   8
ENDBRANCH   1   7
BRANCH   2  22
ATOM     22  O   UNL     1      17.996  27.452  41.567  1.00  0.00    -0.387 OA
ATOM     23  H   UNL     1      17.927  27.444  40.498  1.00  0.00     0.211 HD
ENDBRANCH   2  22
BRANCH   3  24
ATOM     24  O   UNL     1      21.293  26.947  42.960  1.00  0.00    -0.387 OA
ATOM     25  H   UNL     1      21.865  27.777  43.204  1.00  0.00     0.211 HD
ENDBRANCH   3  24
BRANCH   5  26
ATOM     26  O   UNL     1      16.775  25.933  44.653  1.00  0.00    -0.454 OA
BRANCH  26  27
ATOM     27  C   UNL     1      15.912  25.162  45.510  1.00  0.00     0.214 A 
ATOM     28  C   UNL     1      16.242  25.048  46.927  1.00  0.00     0.180 A 
ATOM     29  C   UNL     1      15.263  24.021  45.043  1.00  0.00     0.239 A 
ATOM     30  O   UNL     1      16.913  23.962  47.208  1.00  0.00    -0.452 OA
ATOM     31  C   UNL     1      15.807  22.791  45.471  1.00  0.00     0.111 A 
ATOM     32  O   UNL     1      14.080  24.090  44.561  1.00  0.00    -0.285 OA
ATOM     33  C   UNL     1      16.522  22.782  46.688  1.00  0.00     0.146 A 
ATOM     34  C   UNL     1      16.388  21.823  44.616  1.00  0.00     0.134 A 
ATOM     35  C   UNL     1      16.770  21.531  47.301  1.00  0.00     0.094 A 
ATOM     36  C   UNL     1      16.477  20.527  45.149  1.00  0.00     0.093 A 
ATOM     37  C   UNL     1      16.388  20.373  46.540  1.00  0.00     0.123 A 
BRANCH  28  38
ATOM     38  C   UNL     1      15.315  25.435  48.068  1.00  0.00     0.025 A 
ATOM     39  C   UNL     1      15.332  24.860  49.402  1.00  0.00     0.062 A 
ATOM     40  C   UNL     1      15.124  26.824  48.022  1.00  0.00     0.016 A 
ATOM     41  C   UNL     1      15.102  25.831  50.438  1.00  0.00     0.158 A 
ATOM     42  C   UNL     1      15.705  27.662  48.978  1.00  0.00     0.051 A 
ATOM     43  C   UNL     1      15.770  27.094  50.231  1.00  0.00     0.157 A 
BRANCH  41  44
ATOM     44  O   UNL     1      13.756  25.839  50.896  1.00  0.00    -0.504 OA
ATOM     45  H   UNL     1      13.392  24.885  51.188  1.00  0.00     0.293 HD
ENDBRANCH  41  44
BRANCH  43  46
ATOM     46  O   UNL     1      16.520  27.799  51.235  1.00  0.00    -0.504 OA
ATOM     47  H   UNL     1      17.437  27.480  51.537  1.00  0.00     0.293 HD
ENDBRANCH  43  46
ENDBRANCH  28  38
BRANCH  34  48
ATOM     48  O   UNL     1      17.245  22.272  43.623  1.00  0.00    -0.507 OA
ATOM     49  H   UNL     1      17.253  23.251  43.452  1.00  0.00     0.293 HD
ENDBRANCH  34  48
BRANCH  37  50
ATOM     50  O   UNL     1      15.806  19.203  47.056  1.00  0.00    -0.508 OA
ATOM     51  H   UNL     1      15.165  18.623  46.538  1.00  0.00     0.293 HD
ENDBRANCH  37  50
ENDBRANCH  26  27
ENDBRANCH   5  26
BRANCH   4  52
ATOM     52  O   UNL     1      18.356  28.159  44.884  1.00  0.00    -0.384 OA
ATOM     53  H   UNL     1      17.606  27.708  45.505  1.00  0.00     0.211 HD
ENDBRANCH   4  52
TORSDOF 16
ENDMDL
MODEL 2
REMARK VINA RESULT:    -7.307      2.758      5.117
REMARK INTER + INTRA:         -14.161
REMARK INTER:                 -12.027
REMARK INTRA:                  -2.134
REMARK UNBOUND:                -2.155
REMARK SMILES C[C@@H]1O[C@H](OC[C@H]2O[C@H](Oc3c(-c4ccc(O)c(O)c4)oc4cc(O)cc(O)c4c3=O)[C@H](O)[C@@H](O)[C@@H]2O)[C@H](O)[C@@H](O)[C@H]1O
REMARK SMILES IDX 7 1 36 2 34 3 32 4 9 5 8 6 6 7 5 8 4 9 1 10 2 11 42 12 3 13
REMARK SMILES IDX 40 14 38 15 43 16 41 18 39 20 37 22 35 24 10 26 11 27 12 28
REMARK SMILES IDX 30 29 21 30 29 31 31 32 22 33 27 34 23 35 26 36 24 37 13 38
REMARK SMILES IDX 20 39 14 40 18 41 15 42 16 43 19 44 17 46 28 48 25 50 33 52
REMARK H PARENT 43 17 41 19 39 21 37 23 35 25 19 45 17 47 28 49 25 51 33 53
REMARK Flexibility Score: inf
ROOT
ATOM      1  C   UNL     1      14.981  24.504  38.431  1.00  0.00     0.180 C 
ATOM      2  C   UNL     1      13.620  24.630  37.719  1.00  0.00     0.177 C 
ATOM      3  C   UNL     1      12.729  25.878  38.009  1.00  0.00     0.180 C 
ATOM      4  C   UNL     1      12.954  26.271  39.643  1.00  0.00     0.214 C 
ATOM      5  C   UNL     1      14.261  25.710  40.338  1.00  0.00     0.339 C 
ATOM      6  O   UNL     1      15.300  25.546  39.390  1.00  0.00    -0.332 OA
ENDROOT
BRANCH   1   7
ATOM      7  C   UNL     1      16.201  24.395  37.448  1.00  0.00     0.198 C 
BRANCH   7   8
ATOM      8  O   UNL     1      17.269  23.486  37.839  1.00  0.00    -0.347 OA
BRANCH   8   9
ATOM      9  C   UNL     1      18.577  24.008  37.426  1.00  0.00     0.281 C 
ATOM     10  C   UNL     1      20.407  25.313  40.485  1.00  0.00     0.041 C 
ATOM     11  C   UNL     1      20.223  24.413  39.283  1.00  0.00     0.150 C 
ATOM     12  C   UNL     1      19.974  23.026  39.785  1.00  0.00     0.174 C 
ATOM     13  O   UNL     1      19.091  24.857  38.474  1.00  0.00    -0.344 OA
ATOM     14  C   UNL     1      19.782  22.153  38.584  1.00  0.00     0.179 C 
ATOM     15  C   UNL     1      19.569  22.860  37.148  1.00  0.00     0.202 C 
BRANCH  12  16
ATOM     16  O   UNL     1      21.041  22.481  40.573  1.00  0.00    -0.388 OA
ATOM     17  H   UNL     1      21.698  22.062  39.985  1.00  0.00     0.211 HD
ENDBRANCH  12  16
BRANCH  14  18
ATOM     18  O   UNL     1      20.833  21.257  38.431  1.00  0.00    -0.387 OA
ATOM     19  H   UNL     1      20.942  20.990  37.450  1.00  0.00     0.211 HD
ENDBRANCH  14  18
BRANCH  15  20
ATOM     20  O   UNL     1      19.183  21.764  36.318  1.00  0.00    -0.385 OA
ATOM     21  H   UNL     1      18.395  22.008  35.792  1.00  0.00     0.211 HD
ENDBRANCH  15  20
ENDBRANCH   8   9
ENDBRANCH   7   8
ENDBRANCH   1   7
BRANCH   2  22
ATOM     22  O   UNL     1      12.879  23.492  38.145  1.00  0.00    -0.387 OA
ATOM     23  H   UNL     1      11.948  23.869  38.516  1.00  0.00     0.211 HD
ENDBRANCH   2  22
BRANCH   3  24
ATOM     24  O   UNL     1      13.100  26.961  37.153  1.00  0.00    -0.387 OA
ATOM     25  H   UNL     1      13.876  27.452  37.636  1.00  0.00     0.211 HD
ENDBRANCH   3  24
BRANCH   5  26
ATOM     26  O   UNL     1      14.209  24.623  41.351  1.00  0.00    -0.454 OA
BRANCH  26  27
ATOM     27  C   UNL     1      15.065  24.482  42.500  1.00  0.00     0.214 A 
ATOM     28  C   UNL     1      16.511  24.485  42.309  1.00  0.00     0.180 A 
ATOM     29  C   UNL     1      14.694  23.689  43.583  1.00  0.00     0.239 A 
ATOM     30  O   UNL     1      17.015  23.281  42.221  1.00  0.00    -0.452 OA
ATOM     31  C   UNL     1      15.348  22.443  43.679  1.00  0.00     0.111 A 
ATOM     32  O   UNL     1      14.078  24.193  44.586  1.00  0.00    -0.285 OA
ATOM     33  C   UNL     1      16.626  22.330  43.091  1.00  0.00     0.146 A 
ATOM     34  C   UNL     1      14.709  21.183  43.578  1.00  0.00     0.134 A 
ATOM     35  C   UNL     1      17.433  21.229  43.466  1.00  0.00     0.094 A 
ATOM     36  C   UNL     1      15.425  20.101  44.113  1.00  0.00     0.093 A 
ATOM     37  C   UNL     1      16.805  20.250  44.311  1.00  0.00     0.123 A 
BRANCH  28  38
ATOM     38  C   UNL     1      17.476  25.439  42.993  1.00  0.00     0.025 A 
ATOM     39  C   UNL     1      17.295  26.875  43.122  1.00  0.00     0.062 A 
ATOM     40  C   UNL     1      17.985  24.801  44.133  1.00  0.00     0.016 A 
ATOM     41  C   UNL     1      17.721  27.385  44.397  1.00  0.00     0.158 A 
ATOM     42  C   UNL     1      17.594  25.196  45.415  1.00  0.00     0.051 A 
ATOM     43  C   UNL     1      17.370  26.550  45.521  1.00  0.00     0.157 A 
BRANCH  41  44
ATOM     44  O   UNL     1      19.021  27.960  44.355  1.00  0.00    -0.504 OA
ATOM     45  H   UNL     1      19.770  27.370  44.823  1.00  0.00     0.293 HD
ENDBRANCH  41  44
BRANCH  43  46
ATOM     46  O   UNL     1      16.781  27.026  46.744  1.00  0.00    -0.504 OA
ATOM     47  H   UNL     1      15.775  27.129  46.846  1.00  0.00     0.293 HD
ENDBRANCH  43  46
ENDBRANCH  28  38
BRANCH  34  48
ATOM     48  O   UNL     1      13.763  21.020  42.577  1.00  0.00    -0.507 OA
ATOM     49  H   UNL     1      14.048  20.504  41.777  1.00  0.00     0.293 HD
ENDBRANCH  34  48
BRANCH  37  50
ATOM     50  O   UNL     1      17.413  19.575  45.382  1.00  0.00    -0.508 OA
ATOM     51  H   UNL     1      17.149  19.705  46.345  1.00  0.00     0.293 HD
ENDBRANCH  37  50
ENDBRANCH  26  27
ENDBRANCH   5  26
BRANCH   4  52
ATOM     52  O   UNL     1      11.893  25.790  40.465  1.00  0.00    -0.384 OA
ATOM     53  H   UNL     1      12.368  25.431  41.357  1.00  0.00     0.211 HD
ENDBRANCH   4  52
TORSDOF 16
ENDMDL
MODEL 3
REMARK VINA RESULT:    -7.285      2.536      4.902
REMARK INTER + INTRA:         -14.124
REMARK INTER:                 -11.158
REMARK INTRA:                  -2.966
REMARK UNBOUND:                -2.155
REMARK SMILES C[C@@H]1O[C@H](OC[C@H]2O[C@H](Oc3c(-c4ccc(O)c(O)c4)oc4cc(O)cc(O)c4c3=O)[C@H](O)[C@@H](O)[C@@H]2O)[C@H](O)[C@@H](O)[C@H]1O
REMARK SMILES IDX 7 1 36 2 34 3 32 4 9 5 8 6 6 7 5 8 4 9 1 10 2 11 42 12 3 13
REMARK SMILES IDX 40 14 38 15 43 16 41 18 39 20 37 22 35 24 10 26 11 27 12 28
REMARK SMILES IDX 30 29 21 30 29 31 31 32 22 33 27 34 23 35 26 36 24 37 13 38
REMARK SMILES IDX 20 39 14 40 18 41 15 42 16 43 19 44 17 46 28 48 25 50 33 52
REMARK H PARENT 43 17 41 19 39 21 37 23 35 25 19 45 17 47 28 49 25 51 33 53
REMARK Flexibility Score: inf
ROOT
ATOM      1  C   UNL     1      15.234  24.750  38.930  1.00  0.00     0.180 C 
ATOM      2  C   UNL     1      13.791  24.597  38.410  1.00  0.00     0.177 C 
ATOM      3  C   UNL     1      12.652  25.422  39.086  1.00  0.00     0.180 C 
ATOM      4  C   UNL     1      13.031  25.517  40.737  1.00  0.00     0.214 C 
ATOM      5  C   UNL     1      14.540  25.253  41.138  1.00  0.00     0.339 C 
ATOM      6  O   UNL     1      15.409  25.617  40.082  1.00  0.00    -0.332 OA
ENDROOT
BRANCH   1   7
ATOM      7  C   UNL     1      16.253  25.227  37.835  1.00  0.00     0.198 C 
BRANCH   7   8
ATOM      8  O   UNL     1      17.305  24.287  37.476  1.00  0.00    -0.347 OA
BRANCH   8   9
ATOM      9  C   UNL     1      18.627  24.831  37.805  1.00  0.00     0.281 C 
ATOM     10  C   UNL     1      20.198  22.695  40.522  1.00  0.00     0.041 C 
ATOM     11  C   UNL     1      20.123  23.318  39.144  1.00  0.00     0.150 C 
ATOM     12  C   UNL     1      19.869  22.220  38.160  1.00  0.00     0.174 C 
ATOM     13  O   UNL     1      19.044  24.300  39.080  1.00  0.00    -0.344 OA
ATOM     14  C   UNL     1      19.786  22.857  36.808  1.00  0.00     0.179 C 
ATOM     15  C   UNL     1      19.663  24.464  36.721  1.00  0.00     0.202 C 
BRANCH  12  16
ATOM     16  O   UNL     1      20.887  21.211  38.123  1.00  0.00    -0.388 OA
ATOM     17  H   UNL     1      21.451  21.290  38.916  1.00  0.00     0.211 HD
ENDBRANCH  12  16
BRANCH  14  18
ATOM     18  O   UNL     1      20.864  22.500  36.009  1.00  0.00    -0.387 OA
ATOM     19  H   UNL     1      20.999  21.485  36.012  1.00  0.00     0.211 HD
ENDBRANCH  14  18
BRANCH  15  20
ATOM     20  O   UNL     1      19.364  24.678  35.341  1.00  0.00    -0.385 OA
ATOM     21  H   UNL     1      20.055  24.267  34.786  1.00  0.00     0.211 HD
ENDBRANCH  15  20
ENDBRANCH   8   9
ENDBRANCH   7   8
ENDBRANCH   1   7
BRANCH   2  22
ATOM     22  O   UNL     1      13.474  23.224  38.611  1.00  0.00    -0.387 OA
ATOM     23  H   UNL     1      13.856  22.973  39.580  1.00  0.00     0.211 HD
ENDBRANCH   2  22
BRANCH   3  24
ATOM     24  O   UNL     1      12.562  26.720  38.494  1.00  0.00    -0.387 OA
ATOM     25  H   UNL     1      11.563  26.852  38.248  1.00  0.00     0.211 HD
ENDBRANCH   3  24
BRANCH   5  26
ATOM     26  O   UNL     1      14.960  24.018  41.850  1.00  0.00    -0.454 OA
BRANCH  26  27
ATOM     27  C   UNL     1      15.822  23.944  43.001  1.00  0.00     0.214 A 
ATOM     28  C   UNL     1      15.430  24.638  44.223  1.00  0.00     0.180 A 
ATOM     29  C   UNL     1      17.207  23.895  42.863  1.00  0.00     0.239 A 
ATOM     30  O   UNL     1      15.967  25.825  44.330  1.00  0.00    -0.452 OA
ATOM     31  C   UNL     1      17.893  25.092  43.161  1.00  0.00     0.111 A 
ATOM     32  O   UNL     1      17.823  22.775  42.812  1.00  0.00    -0.285 OA
ATOM     33  C   UNL     1      17.276  25.991  44.057  1.00  0.00     0.146 A 
ATOM     34  C   UNL     1      18.640  25.850  42.227  1.00  0.00     0.134 A 
ATOM     35  C   UNL     1      18.077  27.007  44.632  1.00  0.00     0.094 A 
ATOM     36  C   UNL     1      19.573  26.739  42.784  1.00  0.00     0.093 A 
ATOM     37  C   UNL     1      19.419  27.107  44.128  1.00  0.00     0.123 A 
BRANCH  28  38
ATOM     38  C   UNL     1      15.272  23.978  45.583  1.00  0.00     0.025 A 
ATOM     39  C   UNL     1      16.359  23.601  46.471  1.00  0.00     0.062 A 
ATOM     40  C   UNL     1      14.158  24.548  46.218  1.00  0.00     0.016 A 
ATOM     41  C   UNL     1      16.066  23.846  47.857  1.00  0.00     0.158 A 
ATOM     42  C   UNL     1      14.313  25.416  47.302  1.00  0.00     0.051 A 
ATOM     43  C   UNL     1      15.378  25.089  48.111  1.00  0.00     0.157 A 
BRANCH  41  44
ATOM     44  O   UNL     1      15.637  22.678  48.545  1.00  0.00    -0.504 OA
ATOM     45  H   UNL     1      16.432  22.081  48.921  1.00  0.00     0.293 HD
ENDBRANCH  41  44
BRANCH  43  46
ATOM     46  O   UNL     1      15.734  26.029  49.140  1.00  0.00    -0.504 OA
ATOM     47  H   UNL     1      15.422  25.910  50.100  1.00  0.00     0.293 HD
ENDBRANCH  43  46
ENDBRANCH  28  38
BRANCH  34  48
ATOM     48  O   UNL     1      18.086  26.053  40.972  1.00  0.00    -0.507 OA
ATOM     49  H   UNL     1      18.712  26.022  40.200  1.00  0.00     0.293 HD
ENDBRANCH  34  48
BRANCH  37  50
ATOM     50  O   UNL     1      20.567  27.382  44.891  1.00  0.00    -0.508 OA
ATOM     51  H   UNL     1      21.046  26.691  45.446  1.00  0.00     0.293 HD
ENDBRANCH  37  50
ENDBRANCH  26  27
ENDBRANCH   5  26
BRANCH   4  52
ATOM     52  O   UNL     1      12.298  24.574  41.514  1.00  0.00    -0.384 OA
ATOM     53  H   UNL     1      12.203  25.020  42.485  1.00  0.00     0.211 HD
ENDBRANCH   4  52
TORSDOF 16
ENDMDL
MODEL 4
REMARK VINA RESULT:    -7.154      2.492     10.272
REMARK INTER + INTRA:         -13.909
REMARK INTER:                 -10.794
REMARK INTRA:                  -3.115
REMARK UNBOUND:                -2.155
REMARK SMILES C[C@@H]1O[C@H](OC[C@H]2O[C@H](Oc3c(-c4ccc(O)c(O)c4)oc4cc(O)cc(O)c4c3=O)[C@H](O)[C@@H](O)[C@@H]2O)[C@H](O)[C@@H](O)[C@H]1O
REMARK SMILES IDX 7 1 36 2 34 3 32 4 9 5 8 6 6 7 5 8 4 9 1 10 2 11 42 12 3 13
REMARK SMILES IDX 40 14 38 15 43 16 41 18 39 20 37 22 35 24 10 26 11 27 12 28
REMARK SMILES IDX 30 29 21 30 29 31 31 32 22 33 27 34 23 35 26 36 24 37 13 38
REMARK SMILES IDX 20 39 14 40 18 41 15 42 16 43 19 44 17 46 28 48 25 50 33 52
REMARK H PARENT 43 17 41 19 39 21 37 23 35 25 19 45 17 47 28 49 25 51 33 53
REMARK Flexibility Score: inf
ROOT
ATOM      1  C   UNL     1      15.141  22.116  49.413  1.00  0.00     0.180 C 
ATOM      2  C   UNL     1      15.273  20.608  49.702  1.00  0.00     0.177 C 
ATOM      3  C   UNL     1      16.584  19.871  49.286  1.00  0.00     0.180 C 
ATOM      4  C   UNL     1      17.105  20.580  47.836  1.00  0.00     0.214 C 
ATOM      5  C   UNL     1      16.541  22.023  47.505  1.00  0.00     0.339 C 
ATOM      6  O   UNL     1      16.245  22.728  48.695  1.00  0.00    -0.332 OA
ENDROOT
BRANCH   1   7
ATOM      7  C   UNL     1      14.887  22.985  50.696  1.00  0.00     0.198 C 
BRANCH   7   8
ATOM      8  O   UNL     1      15.245  24.393  50.605  1.00  0.00    -0.347 OA
BRANCH   8   9
ATOM      9  C   UNL     1      14.556  25.176  51.637  1.00  0.00     0.281 C 
ATOM     10  C   UNL     1      16.441  24.832  54.914  1.00  0.00     0.041 C 
ATOM     11  C   UNL     1      15.865  25.596  53.741  1.00  0.00     0.150 C 
ATOM     12  C   UNL     1      17.009  26.091  52.913  1.00  0.00     0.174 C 
ATOM     13  O   UNL     1      15.006  24.734  52.935  1.00  0.00    -0.344 OA
ATOM     14  C   UNL     1      16.420  26.832  51.754  1.00  0.00     0.179 C 
ATOM     15  C   UNL     1      14.838  26.684  51.470  1.00  0.00     0.202 C 
BRANCH  12  16
ATOM     16  O   UNL     1      17.904  26.971  53.605  1.00  0.00    -0.388 OA
ATOM     17  H   UNL     1      18.769  26.976  53.152  1.00  0.00     0.211 HD
ENDBRANCH  12  16
BRANCH  14  18
ATOM     18  O   UNL     1      16.681  28.194  51.834  1.00  0.00    -0.387 OA
ATOM     19  H   UNL     1      16.267  28.594  52.680  1.00  0.00     0.211 HD
ENDBRANCH  14  18
BRANCH  15  20
ATOM     20  O   UNL     1      14.692  27.304  50.192  1.00  0.00    -0.385 OA
ATOM     21  H   UNL     1      15.480  27.850  49.998  1.00  0.00     0.211 HD
ENDBRANCH  15  20
ENDBRANCH   8   9
ENDBRANCH   7   8
ENDBRANCH   1   7
BRANCH   2  22
ATOM     22  O   UNL     1      14.215  20.002  48.969  1.00  0.00    -0.387 OA
ATOM     23  H   UNL     1      13.375  19.974  49.633  1.00  0.00     0.211 HD
ENDBRANCH   2  22
BRANCH   3  24
ATOM     24  O   UNL     1      17.570  19.996  50.313  1.00  0.00    -0.387 OA
ATOM     25  H   UNL     1      18.482  20.067  49.825  1.00  0.00     0.211 HD
ENDBRANCH   3  24
BRANCH   5  26
ATOM     26  O   UNL     1      15.549  22.249  46.421  1.00  0.00    -0.454 OA
BRANCH  26  27
ATOM     27  C   UNL     1      15.615  23.261  45.399  1.00  0.00     0.214 A 
ATOM     28  C   UNL     1      16.790  23.319  44.537  1.00  0.00     0.180 A 
ATOM     29  C   UNL     1      15.064  24.525  45.598  1.00  0.00     0.239 A 
ATOM     30  O   UNL     1      17.686  24.176  44.954  1.00  0.00    -0.452 OA
ATOM     31  C   UNL     1      15.988  25.560  45.854  1.00  0.00     0.111 A 
ATOM     32  O   UNL     1      13.865  24.783  45.234  1.00  0.00    -0.285 OA
ATOM     33  C   UNL     1      17.300  25.401  45.358  1.00  0.00     0.146 A 
ATOM     34  C   UNL     1      16.065  26.295  47.062  1.00  0.00     0.134 A 
ATOM     35  C   UNL     1      18.128  26.547  45.296  1.00  0.00     0.094 A 
ATOM     36  C   UNL     1      16.732  27.527  46.975  1.00  0.00     0.093 A 
ATOM     37  C   UNL     1      17.589  27.742  45.887  1.00  0.00     0.123 A 
BRANCH  28  38
ATOM     38  C   UNL     1      16.758  23.248  43.019  1.00  0.00     0.025 A 
ATOM     39  C   UNL     1      16.415  24.344  42.129  1.00  0.00     0.062 A 
ATOM     40  C   UNL     1      17.836  22.457  42.596  1.00  0.00     0.016 A 
ATOM     41  C   UNL     1      17.228  24.385  40.943  1.00  0.00     0.158 A 
ATOM     42  C   UNL     1      18.946  23.028  41.968  1.00  0.00     0.051 A 
ATOM     43  C   UNL     1      18.625  24.101  41.169  1.00  0.00     0.157 A 
BRANCH  41  44
ATOM     44  O   UNL     1      16.587  23.802  39.816  1.00  0.00    -0.504 OA
ATOM     45  H   UNL     1      15.769  24.367  39.442  1.00  0.00     0.293 HD
ENDBRANCH  41  44
BRANCH  43  46
ATOM     46  O   UNL     1      19.715  24.872  40.633  1.00  0.00    -0.504 OA
ATOM     47  H   UNL     1      19.573  25.808  40.263  1.00  0.00     0.293 HD
ENDBRANCH  43  46
ENDBRANCH  28  38
BRANCH  34  48
ATOM     48  O   UNL     1      15.972  25.589  48.252  1.00  0.00    -0.507 OA
ATOM     49  H   UNL     1      16.819  25.453  48.755  1.00  0.00     0.293 HD
ENDBRANCH  34  48
BRANCH  37  50
ATOM     50  O   UNL     1      17.725  29.045  45.378  1.00  0.00    -0.508 OA
ATOM     51  H   UNL     1      17.217  29.387  44.578  1.00  0.00     0.293 HD
ENDBRANCH  37  50
ENDBRANCH  26  27
ENDBRANCH   5  26
BRANCH   4  52
ATOM     52  O   UNL     1      16.749  19.802  46.696  1.00  0.00    -0.384 OA
ATOM     53  H   UNL     1      15.929  19.189  47.016  1.00  0.00     0.211 HD
ENDBRANCH   4  52
TORSDOF 16
ENDMDL
MODEL 5
REMARK VINA RESULT:    -7.083      2.574      9.493
REMARK INTER + INTRA:         -13.793
REMARK INTER:                 -10.265
REMARK INTRA:                  -3.528
REMARK UNBOUND:                -2.155
REMARK SMILES C[C@@H]1O[C@H](OC[C@H]2O[C@H](Oc3c(-c4ccc(O)c(O)c4)oc4cc(O)cc(O)c4c3=O)[C@H](O)[C@@H](O)[C@@H]2O)[C@H](O)[C@@H](O)[C@H]1O
REMARK SMILES IDX 7 1 36 2 34 3 32 4 9 5 8 6 6 7 5 8 4 9 1 10 2 11 42 12 3 13
REMARK SMILES IDX 40 14 38 15 43 16 41 18 39 20 37 22 35 24 10 26 11 27 12 28
REMARK SMILES IDX 30 29 21 30 29 31 31 32 22 33 27 34 23 35 26 36 24 37 13 38
REMARK SMILES IDX 20 39 14 40 18 41 15 42 16 43 19 44 17 46 28 48 25 50 33 52
REMARK H PARENT 43 17 41 19 39 21 37 23 35 25 19 45 17 47 28 49 25 51 33 53
REMARK Flexibility Score: inf
ROOT
ATOM      1  C   UNL     1      14.792  22.129  48.794  1.00  0.00     0.180 C 
ATOM      2  C   UNL     1      15.018  20.651  49.167  1.00  0.00     0.177 C 
ATOM      3  C   UNL     1      16.449  20.044  49.025  1.00  0.00     0.180 C 
ATOM      4  C   UNL     1      17.152  20.767  47.662  1.00  0.00     0.214 C 
ATOM      5  C   UNL     1      16.519  22.134  47.172  1.00  0.00     0.339 C 
ATOM      6  O   UNL     1      15.944  22.835  48.258  1.00  0.00    -0.332 OA
ENDROOT
BRANCH   1   7
ATOM      7  C   UNL     1      14.225  22.999  49.971  1.00  0.00     0.198 C 
BRANCH   7   8
ATOM      8  O   UNL     1      13.982  24.405  49.678  1.00  0.00    -0.347 OA
BRANCH   8   9
ATOM      9  C   UNL     1      12.545  24.701  49.689  1.00  0.00     0.281 C 
ATOM     10  C   UNL     1      12.030  28.271  50.872  1.00  0.00     0.041 C 
ATOM     11  C   UNL     1      11.937  27.132  49.879  1.00  0.00     0.150 C 
ATOM     12  C   UNL     1      12.865  27.438  48.746  1.00  0.00     0.174 C 
ATOM     13  O   UNL     1      12.317  25.869  50.505  1.00  0.00    -0.344 OA
ATOM     14  C   UNL     1      12.768  26.297  47.782  1.00  0.00     0.179 C 
ATOM     15  C   UNL     1      12.018  24.949  48.260  1.00  0.00     0.202 C 
BRANCH  12  16
ATOM     16  O   UNL     1      12.562  28.650  48.043  1.00  0.00    -0.388 OA
ATOM     17  H   UNL     1      11.889  29.154  48.540  1.00  0.00     0.211 HD
ENDBRANCH  12  16
BRANCH  14  18
ATOM     18  O   UNL     1      12.164  26.684  46.593  1.00  0.00    -0.387 OA
ATOM     19  H   UNL     1      12.361  27.666  46.388  1.00  0.00     0.211 HD
ENDBRANCH  14  18
BRANCH  15  20
ATOM     20  O   UNL     1      12.332  24.032  47.211  1.00  0.00    -0.385 OA
ATOM     21  H   UNL     1      11.634  23.349  47.150  1.00  0.00     0.211 HD
ENDBRANCH  15  20
ENDBRANCH   8   9
ENDBRANCH   7   8
ENDBRANCH   1   7
BRANCH   2  22
ATOM     22  O   UNL     1      14.175  19.919  48.285  1.00  0.00    -0.387 OA
ATOM     23  H   UNL     1      13.848  19.060  48.835  1.00  0.00     0.211 HD
ENDBRANCH   2  22
BRANCH   3  24
ATOM     24  O   UNL     1      17.214  20.298  50.206  1.00  0.00    -0.387 OA
ATOM     25  H   UNL     1      18.204  20.146  49.941  1.00  0.00     0.211 HD
ENDBRANCH   3  24
BRANCH   5  26
ATOM     26  O   UNL     1      15.724  22.228  45.920  1.00  0.00    -0.454 OA
BRANCH  26  27
ATOM     27  C   UNL     1      15.772  23.294  44.954  1.00  0.00     0.214 A 
ATOM     28  C   UNL     1      16.944  23.418  44.094  1.00  0.00     0.180 A 
ATOM     29  C   UNL     1      15.202  24.537  45.223  1.00  0.00     0.239 A 
ATOM     30  O   UNL     1      17.828  24.264  44.555  1.00  0.00    -0.452 OA
ATOM     31  C   UNL     1      16.111  25.571  45.534  1.00  0.00     0.111 A 
ATOM     32  O   UNL     1      13.998  24.796  44.876  1.00  0.00    -0.285 OA
ATOM     33  C   UNL     1      17.424  25.460  45.027  1.00  0.00     0.146 A 
ATOM     34  C   UNL     1      16.180  26.240  46.780  1.00  0.00     0.134 A 
ATOM     35  C   UNL     1      18.234  26.620  45.027  1.00  0.00     0.094 A 
ATOM     36  C   UNL     1      16.828  27.485  46.759  1.00  0.00     0.093 A 
ATOM     37  C   UNL     1      17.678  27.773  45.682  1.00  0.00     0.123 A 
BRANCH  28  38
ATOM     38  C   UNL     1      16.908  23.430  42.575  1.00  0.00     0.025 A 
ATOM     39  C   UNL     1      16.099  24.315  41.755  1.00  0.00     0.062 A 
ATOM     40  C   UNL     1      18.213  23.216  42.107  1.00  0.00     0.016 A 
ATOM     41  C   UNL     1      16.783  24.777  40.578  1.00  0.00     0.158 A 
ATOM     42  C   UNL     1      18.946  24.252  41.520  1.00  0.00     0.051 A 
ATOM     43  C   UNL     1      18.168  25.121  40.789  1.00  0.00     0.157 A 
BRANCH  41  44
ATOM     44  O   UNL     1      16.434  24.040  39.413  1.00  0.00    -0.504 OA
ATOM     45  H   UNL     1      15.533  23.484  39.506  1.00  0.00     0.293 HD
ENDBRANCH  41  44
BRANCH  43  46
ATOM     46  O   UNL     1      18.798  26.321  40.308  1.00  0.00    -0.504 OA
ATOM     47  H   UNL     1      18.942  27.126  40.912  1.00  0.00     0.293 HD
ENDBRANCH  43  46
ENDBRANCH  28  38
BRANCH  34  48
ATOM     48  O   UNL     1      16.101  25.469  47.930  1.00  0.00    -0.507 OA
ATOM     49  H   UNL     1      15.781  25.927  48.751  1.00  0.00     0.293 HD
ENDBRANCH  34  48
BRANCH  37  50
ATOM     50  O   UNL     1      17.792  29.103  45.245  1.00  0.00    -0.508 OA
ATOM     51  H   UNL     1      17.183  29.845  45.552  1.00  0.00     0.293 HD
ENDBRANCH  37  50
ENDBRANCH  26  27
ENDBRANCH   5  26
BRANCH   4  52
ATOM     52  O   UNL     1      17.089  19.927  46.513  1.00  0.00    -0.384 OA
ATOM     53  H   UNL     1      16.398  20.408  45.848  1.00  0.00     0.211 HD
ENDBRANCH   4  52
TORSDOF 16
ENDMDL
MODEL 6
REMARK VINA RESULT:    -7.065      2.303      9.237
REMARK INTER + INTRA:         -13.763
REMARK INTER:                 -11.659
REMARK INTRA:                  -2.104
REMARK UNBOUND:                -2.155
REMARK SMILES C[C@@H]1O[C@H](OC[C@H]2O[C@H](Oc3c(-c4ccc(O)c(O)c4)oc4cc(O)cc(O)c4c3=O)[C@H](O)[C@@H](O)[C@@H]2O)[C@H](O)[C@@H](O)[C@H]1O
REMARK SMILES IDX 7 1 36 2 34 3 32 4 9 5 8 6 6 7 5 8 4 9 1 10 2 11 42 12 3 13
REMARK SMILES IDX 40 14 38 15 43 16 41 18 39 20 37 22 35 24 10 26 11 27 12 28
REMARK SMILES IDX 30 29 21 30 29 31 31 32 22 33 27 34 23 35 26 36 24 37 13 38
REMARK SMILES IDX 20 39 14 40 18 41 15 42 16 43 19 44 17 46 28 48 25 50 33 52
REMARK H PARENT 43 17 41 19 39 21 37 23 35 25 19 45 17 47 28 49 25 51 33 53
REMARK Flexibility Score: inf
ROOT
ATOM      1  C   UNL     1      15.463  22.130  45.326  1.00  0.00     0.180 C 
ATOM      2  C   UNL     1      16.174  22.329  46.678  1.00  0.00     0.177 C 
ATOM      3  C   UNL     1      16.230  23.758  47.301  1.00  0.00     0.180 C 
ATOM      4  C   UNL     1      16.385  24.848  46.011  1.00  0.00     0.214 C 
ATOM      5  C   UNL     1      15.956  24.324  44.579  1.00  0.00     0.339 C 
ATOM      6  O   UNL     1      14.952  23.333  44.691  1.00  0.00    -0.332 OA
ENDROOT
BRANCH   1   7
ATOM      7  C   UNL     1      14.280  21.100  45.378  1.00  0.00     0.198 C 
BRANCH   7   8
ATOM      8  O   UNL     1      14.090  20.396  46.639  1.00  0.00    -0.347 OA
BRANCH   8   9
ATOM      9  C   UNL     1      14.154  18.943  46.442  1.00  0.00     0.281 C 
ATOM     10  C   UNL     1      17.475  18.063  44.826  1.00  0.00     0.041 C 
ATOM     11  C   UNL     1      16.432  18.016  45.922  1.00  0.00     0.150 C 
ATOM     12  C   UNL     1      16.983  18.744  47.108  1.00  0.00     0.174 C 
ATOM     13  O   UNL     1      15.192  18.649  45.483  1.00  0.00    -0.344 OA
ATOM     14  C   UNL     1      15.935  18.697  48.175  1.00  0.00     0.179 C 
ATOM     15  C   UNL     1      14.447  18.216  47.770  1.00  0.00     0.202 C 
BRANCH  12  16
ATOM     16  O   UNL     1      18.193  18.185  47.637  1.00  0.00    -0.388 OA
ATOM     17  H   UNL     1      18.383  18.589  48.505  1.00  0.00     0.211 HD
ENDBRANCH  12  16
BRANCH  14  18
ATOM     18  O   UNL     1      16.330  17.903  49.243  1.00  0.00    -0.387 OA
ATOM     19  H   UNL     1      15.830  18.165  50.096  1.00  0.00     0.211 HD
ENDBRANCH  14  18
BRANCH  15  20
ATOM     20  O   UNL     1      13.692  18.529  48.941  1.00  0.00    -0.385 OA
ATOM     21  H   UNL     1      13.088  17.789  49.152  1.00  0.00     0.211 HD
ENDBRANCH  15  20
ENDBRANCH   8   9
ENDBRANCH   7   8
ENDBRANCH   1   7
BRANCH   2  22
ATOM     22  O   UNL     1      17.521  21.934  46.444  1.00  0.00    -0.387 OA
ATOM     23  H   UNL     1      17.529  20.865  46.507  1.00  0.00     0.211 HD
ENDBRANCH   2  22
BRANCH   3  24
ATOM     24  O   UNL     1      15.047  24.014  48.063  1.00  0.00    -0.387 OA
ATOM     25  H   UNL     1      15.370  24.409  48.965  1.00  0.00     0.211 HD
ENDBRANCH   3  24
BRANCH   5  26
ATOM     26  O   UNL     1      16.954  24.038  43.515  1.00  0.00    -0.454 OA
BRANCH  26  27
ATOM     27  C   UNL     1      17.196  24.826  42.335  1.00  0.00     0.214 A 
ATOM     28  C   UNL     1      17.837  24.198  41.185  1.00  0.00     0.180 A 
ATOM     29  C   UNL     1      17.517  26.179  42.423  1.00  0.00     0.239 A 
ATOM     30  O   UNL     1      19.130  24.390  41.155  1.00  0.00    -0.452 OA
ATOM     31  C   UNL     1      18.872  26.500  42.199  1.00  0.00     0.111 A 
ATOM     32  O   UNL     1      16.605  27.074  42.365  1.00  0.00    -0.285 OA
ATOM     33  C   UNL     1      19.628  25.618  41.398  1.00  0.00     0.146 A 
ATOM     34  C   UNL     1      19.739  27.065  43.166  1.00  0.00     0.134 A 
ATOM     35  C   UNL     1      20.860  26.085  40.880  1.00  0.00     0.094 A 
ATOM     36  C   UNL     1      20.884  27.694  42.652  1.00  0.00     0.093 A 
ATOM     37  C   UNL     1      21.287  27.376  41.347  1.00  0.00     0.123 A 
BRANCH  28  38
ATOM     38  C   UNL     1      17.253  24.152  39.782  1.00  0.00     0.025 A 
ATOM     39  C   UNL     1      16.282  25.087  39.240  1.00  0.00     0.062 A 
ATOM     40  C   UNL     1      18.275  23.778  38.897  1.00  0.00     0.016 A 
ATOM     41  C   UNL     1      16.529  25.423  37.864  1.00  0.00     0.158 A 
ATOM     42  C   UNL     1      18.832  24.702  38.009  1.00  0.00     0.051 A 
ATOM     43  C   UNL     1      17.921  25.622  37.540  1.00  0.00     0.157 A 
BRANCH  41  44
ATOM     44  O   UNL     1      15.717  24.682  36.962  1.00  0.00    -0.504 OA
ATOM     45  H   UNL     1      15.870  23.632  37.005  1.00  0.00     0.293 HD
ENDBRANCH  41  44
BRANCH  43  46
ATOM     46  O   UNL     1      18.435  26.725  36.773  1.00  0.00    -0.504 OA
ATOM     47  H   UNL     1      18.344  27.685  37.096  1.00  0.00     0.293 HD
ENDBRANCH  43  46
ENDBRANCH  28  38
BRANCH  34  48
ATOM     48  O   UNL     1      19.699  26.544  44.450  1.00  0.00    -0.507 OA
ATOM     49  H   UNL     1      18.811  26.242  44.779  1.00  0.00     0.293 HD
ENDBRANCH  34  48
BRANCH  37  50
ATOM     50  O   UNL     1      21.914  28.365  40.571  1.00  0.00    -0.508 OA
ATOM     51  H   UNL     1      21.453  28.871  39.832  1.00  0.00     0.293 HD
ENDBRANCH  37  50
ENDBRANCH  26  27
ENDBRANCH   5  26
BRANCH   4  52
ATOM     52  O   UNL     1      17.730  25.282  45.830  1.00  0.00    -0.384 OA
ATOM     53  H   UNL     1      18.189  25.193  46.795  1.00  0.00     0.211 HD
ENDBRANCH   4  52
TORSDOF 16
ENDMDL
MODEL 7
REMARK VINA RESULT:    -7.039      2.118      9.293
REMARK INTER + INTRA:         -13.720
REMARK INTER:                 -10.836
REMARK INTRA:                  -2.884
REMARK UNBOUND:                -2.155
REMARK SMILES C[C@@H]1O[C@H](OC[C@H]2O[C@H](Oc3c(-c4ccc(O)c(O)c4)oc4cc(O)cc(O)c4c3=O)[C@H](O)[C@@H](O)[C@@H]2O)[C@H](O)[C@@H](O)[C@H]1O
REMARK SMILES IDX 7 1 36 2 34 3 32 4 9 5 8 6 6 7 5 8 4 9 1 10 2 11 42 12 3 13
REMARK SMILES IDX 40 14 38 15 43 16 41 18 39 20 37 22 35 24 10 26 11 27 12 28
REMARK SMILES IDX 30 29 21 30 29 31 31 32 22 33 27 34 23 35 26 36 24 37 13 38
REMARK SMILES IDX 20 39 14 40 18 41 15 42 16 43 19 44 17 46 28 48 25 50 33 52
REMARK H PARENT 43 17 41 19 39 21 37 23 35 25 19 45 17 47 28 49 25 51 33 53
REMARK Flexibility Score: inf
ROOT
ATOM      1  C   UNL     1      14.856  21.604  46.454  1.00  0.00     0.180 C 
ATOM      2  C   UNL     1      14.845  20.063  46.492  1.00  0.00     0.177 C 
ATOM      3  C   UNL     1      16.192  19.293  46.334  1.00  0.00     0.180 C 
ATOM      4  C   UNL     1      17.138  20.180  45.241  1.00  0.00     0.214 C 
ATOM      5  C   UNL     1      16.747  21.700  45.030  1.00  0.00     0.339 C 
ATOM      6  O   UNL     1      16.143  22.227  46.197  1.00  0.00    -0.332 OA
ENDROOT
BRANCH   1   7
ATOM      7  C   UNL     1      14.271  22.273  47.748  1.00  0.00     0.198 C 
BRANCH   7   8
ATOM      8  O   UNL     1      14.603  23.674  47.960  1.00  0.00    -0.347 OA
BRANCH   8   9
ATOM      9  C   UNL     1      13.736  24.269  48.983  1.00  0.00     0.281 C 
ATOM     10  C   UNL     1      15.591  27.123  50.664  1.00  0.00     0.041 C 
ATOM     11  C   UNL     1      14.466  26.510  49.859  1.00  0.00     0.150 C 
ATOM     12  C   UNL     1      14.591  27.002  48.451  1.00  0.00     0.174 C 
ATOM     13  O   UNL     1      14.549  25.052  49.883  1.00  0.00    -0.344 OA
ATOM     14  C   UNL     1      13.480  26.376  47.669  1.00  0.00     0.179 C 
ATOM     15  C   UNL     1      12.654  25.163  48.342  1.00  0.00     0.202 C 
BRANCH  12  16
ATOM     16  O   UNL     1      14.497  28.426  48.311  1.00  0.00    -0.388 OA
ATOM     17  H   UNL     1      15.355  28.832  48.541  1.00  0.00     0.211 HD
ENDBRANCH  12  16
BRANCH  14  18
ATOM     18  O   UNL     1      12.541  27.320  47.272  1.00  0.00    -0.387 OA
ATOM     19  H   UNL     1      11.600  26.920  47.275  1.00  0.00     0.211 HD
ENDBRANCH  14  18
BRANCH  15  20
ATOM     20  O   UNL     1      11.875  24.674  47.250  1.00  0.00    -0.385 OA
ATOM     21  H   UNL     1      11.492  23.804  47.480  1.00  0.00     0.211 HD
ENDBRANCH  15  20
ENDBRANCH   8   9
ENDBRANCH   7   8
ENDBRANCH   1   7
BRANCH   2  22
ATOM     22  O   UNL     1      14.024  19.677  45.395  1.00  0.00    -0.387 OA
ATOM     23  H   UNL     1      13.019  19.681  45.764  1.00  0.00     0.211 HD
ENDBRANCH   2  22
BRANCH   3  24
ATOM     24  O   UNL     1      16.840  19.164  47.602  1.00  0.00    -0.387 OA
ATOM     25  H   UNL     1      17.112  20.125  47.881  1.00  0.00     0.211 HD
ENDBRANCH   3  24
BRANCH   5  26
ATOM     26  O   UNL     1      16.122  22.184  43.771  1.00  0.00    -0.454 OA
BRANCH  26  27
ATOM     27  C   UNL     1      16.436  23.404  43.074  1.00  0.00     0.214 A 
ATOM     28  C   UNL     1      17.757  23.555  42.473  1.00  0.00     0.180 A 
ATOM     29  C   UNL     1      15.924  24.629  43.497  1.00  0.00     0.239 A 
ATOM     30  O   UNL     1      18.599  24.190  43.246  1.00  0.00    -0.452 OA
ATOM     31  C   UNL     1      16.835  25.472  44.169  1.00  0.00     0.111 A 
ATOM     32  O   UNL     1      14.832  25.087  43.012  1.00  0.00    -0.285 OA
ATOM     33  C   UNL     1      18.207  25.310  43.882  1.00  0.00     0.146 A 
ATOM     34  C   UNL     1      16.716  25.876  45.521  1.00  0.00     0.134 A 
ATOM     35  C   UNL     1      19.090  26.348  44.265  1.00  0.00     0.094 A 
ATOM     36  C   UNL     1      17.451  27.018  45.874  1.00  0.00     0.093 A 
ATOM     37  C   UNL     1      18.511  27.409  45.044  1.00  0.00     0.123 A 
BRANCH  28  38
ATOM     38  C   UNL     1      18.013  23.864  41.007  1.00  0.00     0.025 A 
ATOM     39  C   UNL     1      17.351  24.900  40.233  1.00  0.00     0.062 A 
ATOM     40  C   UNL     1      19.389  23.733  40.768  1.00  0.00     0.016 A 
ATOM     41  C   UNL     1      18.235  25.576  39.322  1.00  0.00     0.158 A 
ATOM     42  C   UNL     1      20.192  24.855  40.546  1.00  0.00     0.051 A 
ATOM     43  C   UNL     1      19.544  25.858  39.861  1.00  0.00     0.157 A 
BRANCH  41  44
ATOM     44  O   UNL     1      18.137  25.084  37.992  1.00  0.00    -0.504 OA
ATOM     45  H   UNL     1      17.415  24.314  37.867  1.00  0.00     0.293 HD
ENDBRANCH  41  44
BRANCH  43  46
ATOM     46  O   UNL     1      20.221  27.122  39.751  1.00  0.00    -0.504 OA
ATOM     47  H   UNL     1      20.791  27.488  40.510  1.00  0.00     0.293 HD
ENDBRANCH  43  46
ENDBRANCH  28  38
BRANCH  34  48
ATOM     48  O   UNL     1      16.359  24.912  46.453  1.00  0.00    -0.507 OA
ATOM     49  H   UNL     1      16.984  24.777  47.214  1.00  0.00     0.293 HD
ENDBRANCH  34  48
BRANCH  37  50
ATOM     50  O   UNL     1      18.809  28.776  44.923  1.00  0.00    -0.508 OA
ATOM     51  H   UNL     1      19.476  29.145  44.264  1.00  0.00     0.293 HD
ENDBRANCH  37  50
ENDBRANCH  26  27
ENDBRANCH   5  26
BRANCH   4  52
ATOM     52  O   UNL     1      17.102  19.630  43.927  1.00  0.00    -0.384 OA
ATOM     53  H   UNL     1      16.716  18.636  44.046  1.00  0.00     0.211 HD
ENDBRANCH   4  52
TORSDOF 16
ENDMDL
MODEL 8
REMARK VINA RESULT:    -6.969      2.624      9.842
REMARK INTER + INTRA:         -13.606
REMARK INTER:                 -10.482
REMARK INTRA:                  -3.124
REMARK UNBOUND:                -2.155
REMARK SMILES C[C@@H]1O[C@H](OC[C@H]2O[C@H](Oc3c(-c4ccc(O)c(O)c4)oc4cc(O)cc(O)c4c3=O)[C@H](O)[C@@H](O)[C@@H]2O)[C@H](O)[C@@H](O)[C@H]1O
REMARK SMILES IDX 7 1 36 2 34 3 32 4 9 5 8 6 6 7 5 8 4 9 1 10 2 11 42 12 3 13
REMARK SMILES IDX 40 14 38 15 43 16 41 18 39 20 37 22 35 24 10 26 11 27 12 28
REMARK SMILES IDX 30 29 21 30 29 31 31 32 22 33 27 34 23 35 26 36 24 37 13 38
REMARK SMILES IDX 20 39 14 40 18 41 15 42 16 43 19 44 17 46 28 48 25 50 33 52
REMARK H PARENT 43 17 41 19 39 21 37 23 35 25 19 45 17 47 28 49 25 51 33 53
REMARK Flexibility Score: inf
ROOT
ATOM      1  C   UNL     1      14.545  20.815  46.423  1.00  0.00     0.180 C 
ATOM      2  C   UNL     1      14.847  19.308  46.310  1.00  0.00     0.177 C 
ATOM      3  C   UNL     1      16.331  18.841  46.184  1.00  0.00     0.180 C 
ATOM      4  C   UNL     1      17.135  20.014  45.259  1.00  0.00     0.214 C 
ATOM      5  C   UNL     1      16.455  21.441  45.168  1.00  0.00     0.339 C 
ATOM      6  O   UNL     1      15.690  21.704  46.329  1.00  0.00    -0.332 OA
ENDROOT
BRANCH   1   7
ATOM      7  C   UNL     1      13.763  21.207  47.726  1.00  0.00     0.198 C 
BRANCH   7   8
ATOM      8  O   UNL     1      14.251  20.631  48.972  1.00  0.00    -0.347 OA
BRANCH   8   9
ATOM      9  C   UNL     1      14.862  21.660  49.820  1.00  0.00     0.281 C 
ATOM     10  C   UNL     1      14.322  20.736  53.463  1.00  0.00     0.041 C 
ATOM     11  C   UNL     1      15.158  21.041  52.239  1.00  0.00     0.150 C 
ATOM     12  C   UNL     1      15.828  19.772  51.816  1.00  0.00     0.174 C 
ATOM     13  O   UNL     1      14.321  21.545  51.154  1.00  0.00    -0.344 OA
ATOM     14  C   UNL     1      16.640  20.091  50.599  1.00  0.00     0.179 C 
ATOM     15  C   UNL     1      16.396  21.506  49.862  1.00  0.00     0.202 C 
BRANCH  12  16
ATOM     16  O   UNL     1      16.699  19.204  52.804  1.00  0.00    -0.388 OA
ATOM     17  H   UNL     1      17.214  19.916  53.230  1.00  0.00     0.211 HD
ENDBRANCH  12  16
BRANCH  14  18
ATOM     18  O   UNL     1      18.002  20.010  50.859  1.00  0.00    -0.387 OA
ATOM     19  H   UNL     1      18.278  19.044  51.055  1.00  0.00     0.211 HD
ENDBRANCH  14  18
BRANCH  15  20
ATOM     20  O   UNL     1      17.135  21.355  48.649  1.00  0.00    -0.385 OA
ATOM     21  H   UNL     1      16.629  21.737  47.905  1.00  0.00     0.211 HD
ENDBRANCH  15  20
ENDBRANCH   8   9
ENDBRANCH   7   8
ENDBRANCH   1   7
BRANCH   2  22
ATOM     22  O   UNL     1      14.187  18.892  45.120  1.00  0.00    -0.387 OA
ATOM     23  H   UNL     1      14.604  19.483  44.330  1.00  0.00     0.211 HD
ENDBRANCH   2  22
BRANCH   3  24
ATOM     24  O   UNL     1      16.918  18.703  47.480  1.00  0.00    -0.387 OA
ATOM     25  H   UNL     1      17.435  17.805  47.463  1.00  0.00     0.211 HD
ENDBRANCH   3  24
BRANCH   5  26
ATOM     26  O   UNL     1      15.817  21.928  43.917  1.00  0.00    -0.454 OA
BRANCH  26  27
ATOM     27  C   UNL     1      16.090  23.173  43.247  1.00  0.00     0.214 A 
ATOM     28  C   UNL     1      17.416  23.395  42.681  1.00  0.00     0.180 A 
ATOM     29  C   UNL     1      15.511  24.366  43.675  1.00  0.00     0.239 A 
ATOM     30  O   UNL     1      18.209  24.055  43.484  1.00  0.00    -0.452 OA
ATOM     31  C   UNL     1      16.365  25.239  44.383  1.00  0.00     0.111 A 
ATOM     32  O   UNL     1      14.411  24.780  43.170  1.00  0.00    -0.285 OA
ATOM     33  C   UNL     1      17.750  25.146  44.127  1.00  0.00     0.146 A 
ATOM     34  C   UNL     1      16.195  25.615  45.737  1.00  0.00     0.134 A 
ATOM     35  C   UNL     1      18.574  26.217  44.548  1.00  0.00     0.094 A 
ATOM     36  C   UNL     1      16.867  26.784  46.126  1.00  0.00     0.093 A 
ATOM     37  C   UNL     1      17.927  27.237  45.327  1.00  0.00     0.123 A 
BRANCH  28  38
ATOM     38  C   UNL     1      17.693  23.739  41.226  1.00  0.00     0.025 A 
ATOM     39  C   UNL     1      17.011  24.765  40.455  1.00  0.00     0.062 A 
ATOM     40  C   UNL     1      19.078  23.662  41.016  1.00  0.00     0.016 A 
ATOM     41  C   UNL     1      17.889  25.489  39.577  1.00  0.00     0.158 A 
ATOM     42  C   UNL     1      19.844  24.816  40.831  1.00  0.00     0.051 A 
ATOM     43  C   UNL     1      19.175  25.808  40.149  1.00  0.00     0.157 A 
BRANCH  41  44
ATOM     44  O   UNL     1      17.838  25.017  38.236  1.00  0.00    -0.504 OA
ATOM     45  H   UNL     1      17.899  25.785  37.504  1.00  0.00     0.293 HD
ENDBRANCH  41  44
BRANCH  43  46
ATOM     46  O   UNL     1      19.808  27.097  40.077  1.00  0.00    -0.504 OA
ATOM     47  H   UNL     1      20.319  27.393  39.250  1.00  0.00     0.293 HD
ENDBRANCH  43  46
ENDBRANCH  28  38
BRANCH  34  48
ATOM     48  O   UNL     1      15.862  24.620  46.644  1.00  0.00    -0.507 OA
ATOM     49  H   UNL     1      15.233  23.920  46.325  1.00  0.00     0.293 HD
ENDBRANCH  34  48
BRANCH  37  50
ATOM     50  O   UNL     1      18.164  28.619  45.235  1.00  0.00    -0.508 OA
ATOM     51  H   UNL     1      17.437  29.314  45.285  1.00  0.00     0.293 HD
ENDBRANCH  37  50
ENDBRANCH  26  27
ENDBRANCH   5  26
BRANCH   4  52
ATOM     52  O   UNL     1      17.288  19.617  43.899  1.00  0.00    -0.384 OA
ATOM     53  H   UNL     1      16.512  20.131  43.366  1.00  0.00     0.211 HD
ENDBRANCH   4  52
TORSDOF 16
ENDMDL
MODEL 9
REMARK VINA RESULT:    -6.830      3.346      7.827
REMARK INTER + INTRA:         -13.377
REMARK INTER:                 -10.714
REMARK INTRA:                  -2.663
REMARK UNBOUND:                -2.155
REMARK SMILES C[C@@H]1O[C@H](OC[C@H]2O[C@H](Oc3c(-c4ccc(O)c(O)c4)oc4cc(O)cc(O)c4c3=O)[C@H](O)[C@@H](O)[C@@H]2O)[C@H](O)[C@@H](O)[C@H]1O
REMARK SMILES IDX 7 1 36 2 34 3 32 4 9 5 8 6 6 7 5 8 4 9 1 10 2 11 42 12 3 13
REMARK SMILES IDX 40 14 38 15 43 16 41 18 39 20 37 22 35 24 10 26 11 27 12 28
REMARK SMILES IDX 30 29 21 30 29 31 31 32 22 33 27 34 23 35 26 36 24 37 13 38
REMARK SMILES IDX 20 39 14 40 18 41 15 42 16 43 19 44 17 46 28 48 25 50 33 52
REMARK H PARENT 43 17 41 19 39 21 37 23 35 25 19 45 17 47 28 49 25 51 33 53
REMARK Flexibility Score: inf
ROOT
ATOM      1  C   UNL     1      14.383  20.892  44.229  1.00  0.00     0.180 C 
ATOM      2  C   UNL     1      12.946  20.662  43.722  1.00  0.00     0.177 C 
ATOM      3  C   UNL     1      12.456  21.440  42.461  1.00  0.00     0.180 C 
ATOM      4  C   UNL     1      13.176  22.974  42.521  1.00  0.00     0.214 C 
ATOM      5  C   UNL     1      14.463  23.122  43.432  1.00  0.00     0.339 C 
ATOM      6  O   UNL     1      15.159  21.893  43.517  1.00  0.00    -0.332 OA
ENDROOT
BRANCH   1   7
ATOM      7  C   UNL     1      15.252  19.586  44.281  1.00  0.00     0.198 C 
BRANCH   7   8
ATOM      8  O   UNL     1      15.782  19.212  45.584  1.00  0.00    -0.347 OA
BRANCH   8   9
ATOM      9  C   UNL     1      15.169  20.015  46.648  1.00  0.00     0.281 C 
ATOM     10  C   UNL     1      13.251  17.712  48.979  1.00  0.00     0.041 C 
ATOM     11  C   UNL     1      14.322  18.724  48.633  1.00  0.00     0.150 C 
ATOM     12  C   UNL     1      15.648  18.039  48.734  1.00  0.00     0.174 C 
ATOM     13  O   UNL     1      14.130  19.235  47.278  1.00  0.00    -0.344 OA
ATOM     14  C   UNL     1      16.691  19.051  48.376  1.00  0.00     0.179 C 
ATOM     15  C   UNL     1      16.217  20.437  47.699  1.00  0.00     0.202 C 
BRANCH  12  16
ATOM     16  O   UNL     1      15.949  17.520  50.036  1.00  0.00    -0.388 OA
ATOM     17  H   UNL     1      16.530  16.740  49.948  1.00  0.00     0.211 HD
ENDBRANCH  12  16
BRANCH  14  18
ATOM     18  O   UNL     1      17.467  19.393  49.476  1.00  0.00    -0.387 OA
ATOM     19  H   UNL     1      16.890  19.476  50.316  1.00  0.00     0.211 HD
ENDBRANCH  14  18
BRANCH  15  20
ATOM     20  O   UNL     1      17.453  21.019  47.284  1.00  0.00    -0.385 OA
ATOM     21  H   UNL     1      17.967  21.297  48.069  1.00  0.00     0.211 HD
ENDBRANCH  15  20
ENDBRANCH   8   9
ENDBRANCH   7   8
ENDBRANCH   1   7
BRANCH   2  22
ATOM     22  O   UNL     1      12.110  21.066  44.800  1.00  0.00    -0.387 OA
ATOM     23  H   UNL     1      11.115  20.780  44.524  1.00  0.00     0.211 HD
ENDBRANCH   2  22
BRANCH   3  24
ATOM     24  O   UNL     1      12.822  20.736  41.271  1.00  0.00    -0.387 OA
ATOM     25  H   UNL     1      11.937  20.369  40.875  1.00  0.00     0.211 HD
ENDBRANCH   3  24
BRANCH   5  26
ATOM     26  O   UNL     1      14.438  23.876  44.713  1.00  0.00    -0.454 OA
BRANCH  26  27
ATOM     27  C   UNL     1      15.575  24.220  45.526  1.00  0.00     0.214 A 
ATOM     28  C   UNL     1      15.497  25.392  46.390  1.00  0.00     0.180 A 
ATOM     29  C   UNL     1      16.876  24.001  45.078  1.00  0.00     0.239 A 
ATOM     30  O   UNL     1      16.006  26.465  45.841  1.00  0.00    -0.452 OA
ATOM     31  C   UNL     1      17.576  25.149  44.652  1.00  0.00     0.111 A 
ATOM     32  O   UNL     1      17.492  22.914  45.357  1.00  0.00    -0.285 OA
ATOM     33  C   UNL     1      17.189  26.390  45.202  1.00  0.00     0.146 A 
ATOM     34  C   UNL     1      18.025  25.379  43.329  1.00  0.00     0.134 A 
ATOM     35  C   UNL     1      18.080  27.482  45.065  1.00  0.00     0.094 A 
ATOM     36  C   UNL     1      19.043  26.337  43.197  1.00  0.00     0.093 A 
ATOM     37  C   UNL     1      19.238  27.247  44.246  1.00  0.00     0.123 A 
BRANCH  28  38
ATOM     38  C   UNL     1      15.726  25.381  47.893  1.00  0.00     0.025 A 
ATOM     39  C   UNL     1      15.621  26.532  48.773  1.00  0.00     0.062 A 
ATOM     40  C   UNL     1      15.190  24.191  48.406  1.00  0.00     0.016 A 
ATOM     41  C   UNL     1      15.018  26.220  50.041  1.00  0.00     0.158 A 
ATOM     42  C   UNL     1      14.019  24.199  49.169  1.00  0.00     0.051 A 
ATOM     43  C   UNL     1      13.895  25.318  49.961  1.00  0.00     0.157 A 
BRANCH  41  44
ATOM     44  O   UNL     1      15.976  26.026  51.073  1.00  0.00    -0.504 OA
ATOM     45  H   UNL     1      16.944  26.398  50.841  1.00  0.00     0.293 HD
ENDBRANCH  41  44
BRANCH  43  46
ATOM     46  O   UNL     1      12.639  25.510  50.635  1.00  0.00    -0.504 OA
ATOM     47  H   UNL     1      12.542  25.353  51.635  1.00  0.00     0.293 HD
ENDBRANCH  43  46
ENDBRANCH  28  38
BRANCH  34  48
ATOM     48  O   UNL     1      17.153  25.082  42.293  1.00  0.00    -0.507 OA
ATOM     49  H   UNL     1      16.191  25.004  42.530  1.00  0.00     0.293 HD
ENDBRANCH  34  48
BRANCH  37  50
ATOM     50  O   UNL     1      20.536  27.718  44.502  1.00  0.00    -0.508 OA
ATOM     51  H   UNL     1      21.072  28.262  43.844  1.00  0.00     0.293 HD
ENDBRANCH  37  50
ENDBRANCH  26  27
ENDBRANCH   5  26
BRANCH   4  52
ATOM     52  O   UNL     1      12.286  23.969  43.019  1.00  0.00    -0.384 OA
ATOM     53  H   UNL     1      11.332  23.483  43.096  1.00  0.00     0.211 HD
ENDBRANCH   4  52
TORSDOF 16
ENDMDL
