MODEL 1
REMARK VINA RESULT:    -3.626      0.000      0.000
REMARK INTER + INTRA:          -4.556
REMARK INTER:                  -4.474
REMARK INTRA:                  -0.082
REMARK UNBOUND:                -0.082
REMARK SMILES CCCCCC(=O)[O-]
REMARK SMILES IDX 4 1 5 2 6 3 7 4 8 5 3 6 2 7 1 8
REMARK H PARENT
REMARK Flexibility Score: inf
ROOT
ATOM      1  C   UNL     1      59.521  -1.184  83.277  1.00  0.00     0.006 C 
ENDROOT
BRANCH   1   2
ATOM      2  C   UNL     1      60.971  -1.615  83.033  1.00  0.00     0.053 C 
BRANCH   2   3
ATOM      3  C   UNL     1      61.184  -1.947  81.590  1.00  0.00     0.041 C 
ATOM      4  O   UNL     1      61.658  -1.085  80.804  1.00  0.00    -0.550 OA
ATOM      5  O   UNL     1      60.905  -3.226  81.123  1.00  0.00    -0.550 OA
ENDBRANCH   2   3
ENDBRANCH   1   2
BRANCH   1   6
ATOM      6  C   UNL     1      59.411  -0.315  84.538  1.00  0.00     0.000 C 
BRANCH   6   7
ATOM      7  C   UNL     1      57.959  -0.136  85.007  1.00  0.00    -0.003 C 
ATOM      8  C   UNL     1      56.973  -1.001  84.223  1.00  0.00     0.004 C 
ENDBRANCH   6   7
ENDBRANCH   1   6
TORSDOF 4
ENDMDL
MODEL 2
REMARK VINA RESULT:    -3.613     13.320     13.931
REMARK INTER + INTRA:          -4.539
REMARK INTER:                  -4.405
REMARK INTRA:                  -0.134
REMARK UNBOUND:                -0.082
REMARK SMILES CCCCCC(=O)[O-]
REMARK SMILES IDX 4 1 5 2 6 3 7 4 8 5 3 6 2 7 1 8
REMARK H PARENT
REMARK Flexibility Score: inf
ROOT
ATOM      1  C   UNL     1      51.238  -0.684  72.845  1.00  0.00     0.006 C 
ENDROOT
BRANCH   1   2
ATOM      2  C   UNL     1      52.647  -0.826  72.263  1.00  0.00     0.053 C 
BRANCH   2   3
ATOM      3  C   UNL     1      53.147   0.496  71.772  1.00  0.00     0.041 C 
ATOM      4  O   UNL     1      52.333   1.404  71.455  1.00  0.00    -0.550 OA
ATOM      5  O   UNL     1      54.514   0.744  71.712  1.00  0.00    -0.550 OA
ENDBRANCH   2   3
ENDBRANCH   1   2
BRANCH   1   6
ATOM      6  C   UNL     1      50.223  -1.498  72.031  1.00  0.00     0.000 C 
BRANCH   6   7
ATOM      7  C   UNL     1      48.886  -0.763  71.848  1.00  0.00    -0.003 C 
ATOM      8  C   UNL     1      48.589   0.217  72.982  1.00  0.00     0.004 C 
ENDBRANCH   6   7
ENDBRANCH   1   6
TORSDOF 4
ENDMDL
MODEL 3
REMARK VINA RESULT:    -3.609     13.281     13.943
REMARK INTER + INTRA:          -4.535
REMARK INTER:                  -4.419
REMARK INTRA:                  -0.115
REMARK UNBOUND:                -0.082
REMARK SMILES CCCCCC(=O)[O-]
REMARK SMILES IDX 4 1 5 2 6 3 7 4 8 5 3 6 2 7 1 8
REMARK H PARENT
REMARK Flexibility Score: inf
ROOT
ATOM      1  C   UNL     1      50.997  -0.514  72.778  1.00  0.00     0.006 C 
ENDROOT
BRANCH   1   2
ATOM      2  C   UNL     1      51.882   0.417  71.943  1.00  0.00     0.053 C 
BRANCH   2   3
ATOM      3  C   UNL     1      53.283  -0.105  71.884  1.00  0.00     0.041 C 
ATOM      4  O   UNL     1      53.507  -1.337  72.026  1.00  0.00    -0.550 OA
ATOM      5  O   UNL     1      54.338   0.762  71.624  1.00  0.00    -0.550 OA
ENDBRANCH   2   3
ENDBRANCH   1   2
BRANCH   1   6
ATOM      6  C   UNL     1      49.995  -1.262  71.887  1.00  0.00     0.000 C 
BRANCH   6   7
ATOM      7  C   UNL     1      48.607  -0.603  71.877  1.00  0.00    -0.003 C 
ATOM      8  C   UNL     1      48.362   0.281  73.098  1.00  0.00     0.004 C 
ENDBRANCH   6   7
ENDBRANCH   1   6
TORSDOF 4
ENDMDL
MODEL 4
REMARK VINA RESULT:    -3.570      1.870      2.101
REMARK INTER + INTRA:          -4.486
REMARK INTER:                  -4.292
REMARK INTRA:                  -0.194
REMARK UNBOUND:                -0.082
REMARK SMILES CCCCCC(=O)[O-]
REMARK SMILES IDX 4 1 5 2 6 3 7 4 8 5 3 6 2 7 1 8
REMARK H PARENT
REMARK Flexibility Score: inf
ROOT
ATOM      1  C   UNL     1      59.481  -1.000  83.273  1.00  0.00     0.006 C 
ENDROOT
BRANCH   1   2
ATOM      2  C   UNL     1      60.464  -2.160  83.457  1.00  0.00     0.053 C 
BRANCH   2   3
ATOM      3  C   UNL     1      59.769  -3.471  83.266  1.00  0.00     0.041 C 
ATOM      4  O   UNL     1      58.823  -3.573  82.441  1.00  0.00    -0.550 OA
ATOM      5  O   UNL     1      60.199  -4.594  83.964  1.00  0.00    -0.550 OA
ENDBRANCH   2   3
ENDBRANCH   1   2
BRANCH   1   6
ATOM      6  C   UNL     1      59.298  -0.221  84.584  1.00  0.00     0.000 C 
BRANCH   6   7
ATOM      7  C   UNL     1      57.836  -0.192  85.054  1.00  0.00    -0.003 C 
ATOM      8  C   UNL     1      56.906  -1.000  84.149  1.00  0.00     0.004 C 
ENDBRANCH   6   7
ENDBRANCH   1   6
TORSDOF 4
ENDMDL
MODEL 5
REMARK VINA RESULT:    -3.416     13.178     13.870
REMARK INTER + INTRA:          -4.296
REMARK INTER:                  -4.085
REMARK INTRA:                  -0.211
REMARK UNBOUND:                -0.082
REMARK SMILES CCCCCC(=O)[O-]
REMARK SMILES IDX 4 1 5 2 6 3 7 4 8 5 3 6 2 7 1 8
REMARK H PARENT
REMARK Flexibility Score: inf
ROOT
ATOM      1  C   UNL     1      50.452  -0.254  72.974  1.00  0.00     0.006 C 
ENDROOT
BRANCH   1   2
ATOM      2  C   UNL     1      51.594   0.272  72.099  1.00  0.00     0.053 C 
BRANCH   2   3
ATOM      3  C   UNL     1      52.798  -0.608  72.222  1.00  0.00     0.041 C 
ATOM      4  O   UNL     1      52.837  -1.509  73.102  1.00  0.00    -0.550 OA
ATOM      5  O   UNL     1      53.856  -0.467  71.333  1.00  0.00    -0.550 OA
ENDBRANCH   2   3
ENDBRANCH   1   2
BRANCH   1   6
ATOM      6  C   UNL     1      49.386  -0.958  72.122  1.00  0.00     0.000 C 
BRANCH   6   7
ATOM      7  C   UNL     1      49.016  -2.346  72.669  1.00  0.00    -0.003 C 
ATOM      8  C   UNL     1      50.037  -3.421  72.296  1.00  0.00     0.004 C 
ENDBRANCH   6   7
ENDBRANCH   1   6
TORSDOF 4
ENDMDL
MODEL 6
REMARK VINA RESULT:    -3.407     13.718     14.532
REMARK INTER + INTRA:          -4.285
REMARK INTER:                  -4.174
REMARK INTRA:                  -0.111
REMARK UNBOUND:                -0.082
REMARK SMILES CCCCCC(=O)[O-]
REMARK SMILES IDX 4 1 5 2 6 3 7 4 8 5 3 6 2 7 1 8
REMARK H PARENT
REMARK Flexibility Score: inf
ROOT
ATOM      1  C   UNL     1      51.439  -1.734  72.874  1.00  0.00     0.006 C 
ENDROOT
BRANCH   1   2
ATOM      2  C   UNL     1      50.125  -2.158  72.209  1.00  0.00     0.053 C 
BRANCH   2   3
ATOM      3  C   UNL     1      49.021  -1.221  72.584  1.00  0.00     0.041 C 
ATOM      4  O   UNL     1      48.743  -1.022  73.797  1.00  0.00    -0.550 OA
ATOM      5  O   UNL     1      48.331  -0.528  71.596  1.00  0.00    -0.550 OA
ENDBRANCH   2   3
ENDBRANCH   1   2
BRANCH   1   6
ATOM      6  C   UNL     1      51.942  -0.404  72.296  1.00  0.00     0.000 C 
BRANCH   6   7
ATOM      7  C   UNL     1      53.430  -0.451  71.916  1.00  0.00    -0.003 C 
ATOM      8  C   UNL     1      53.911   0.835  71.244  1.00  0.00     0.004 C 
ENDBRANCH   6   7
ENDBRANCH   1   6
TORSDOF 4
ENDMDL
MODEL 7
REMARK VINA RESULT:    -3.400      2.749      2.995
REMARK INTER + INTRA:          -4.277
REMARK INTER:                  -4.100
REMARK INTRA:                  -0.177
REMARK UNBOUND:                -0.082
REMARK SMILES CCCCCC(=O)[O-]
REMARK SMILES IDX 4 1 5 2 6 3 7 4 8 5 3 6 2 7 1 8
REMARK H PARENT
REMARK Flexibility Score: inf
ROOT
ATOM      1  C   UNL     1      59.111  -2.009  83.060  1.00  0.00     0.006 C 
ENDROOT
BRANCH   1   2
ATOM      2  C   UNL     1      59.781  -3.375  83.236  1.00  0.00     0.053 C 
BRANCH   2   3
ATOM      3  C   UNL     1      58.753  -4.442  83.445  1.00  0.00     0.041 C 
ATOM      4  O   UNL     1      57.553  -4.130  83.668  1.00  0.00    -0.550 OA
ATOM      5  O   UNL     1      59.110  -5.781  83.343  1.00  0.00    -0.550 OA
ENDBRANCH   2   3
ENDBRANCH   1   2
BRANCH   1   6
ATOM      6  C   UNL     1      59.742  -0.963  83.990  1.00  0.00     0.000 C 
BRANCH   6   7
ATOM      7  C   UNL     1      58.693  -0.151  84.764  1.00  0.00    -0.003 C 
ATOM      8  C   UNL     1      57.275  -0.691  84.583  1.00  0.00     0.004 C 
ENDBRANCH   6   7
ENDBRANCH   1   6
TORSDOF 4
ENDMDL
MODEL 8
REMARK VINA RESULT:    -3.367     12.886     13.523
REMARK INTER + INTRA:          -4.236
REMARK INTER:                  -4.116
REMARK INTRA:                  -0.120
REMARK UNBOUND:                -0.082
REMARK SMILES CCCCCC(=O)[O-]
REMARK SMILES IDX 4 1 5 2 6 3 7 4 8 5 3 6 2 7 1 8
REMARK H PARENT
REMARK Flexibility Score: inf
ROOT
ATOM      1  C   UNL     1      51.125  -0.284  72.615  1.00  0.00     0.006 C 
ENDROOT
BRANCH   1   2
ATOM      2  C   UNL     1      52.537  -0.787  72.300  1.00  0.00     0.053 C 
BRANCH   2   3
ATOM      3  C   UNL     1      52.857  -1.998  73.118  1.00  0.00     0.041 C 
ATOM      4  O   UNL     1      52.420  -2.103  74.295  1.00  0.00    -0.550 OA
ATOM      5  O   UNL     1      53.597  -3.036  72.564  1.00  0.00    -0.550 OA
ENDBRANCH   2   3
ENDBRANCH   1   2
BRANCH   1   6
ATOM      6  C   UNL     1      50.071  -1.087  71.839  1.00  0.00     0.000 C 
BRANCH   6   7
ATOM      7  C   UNL     1      48.639  -0.600  72.112  1.00  0.00    -0.003 C 
ATOM      8  C   UNL     1      48.556   0.359  73.299  1.00  0.00     0.004 C 
ENDBRANCH   6   7
ENDBRANCH   1   6
TORSDOF 4
ENDMDL
MODEL 9
REMARK VINA RESULT:    -3.333     11.575     12.265
REMARK INTER + INTRA:          -4.194
REMARK INTER:                  -4.035
REMARK INTRA:                  -0.159
REMARK UNBOUND:                -0.082
REMARK SMILES CCCCCC(=O)[O-]
REMARK SMILES IDX 4 1 5 2 6 3 7 4 8 5 3 6 2 7 1 8
REMARK H PARENT
REMARK Flexibility Score: inf
ROOT
ATOM      1  C   UNL     1      51.889  -1.951  73.096  1.00  0.00     0.006 C 
ENDROOT
BRANCH   1   2
ATOM      2  C   UNL     1      53.109  -2.872  72.997  1.00  0.00     0.053 C 
BRANCH   2   3
ATOM      3  C   UNL     1      53.601  -3.240  74.362  1.00  0.00     0.041 C 
ATOM      4  O   UNL     1      54.174  -2.380  75.082  1.00  0.00    -0.550 OA
ATOM      5  O   UNL     1      53.381  -4.519  74.858  1.00  0.00    -0.550 OA
ENDBRANCH   2   3
ENDBRANCH   1   2
BRANCH   1   6
ATOM      6  C   UNL     1      52.113  -0.656  72.301  1.00  0.00     0.000 C 
BRANCH   6   7
ATOM      7  C   UNL     1      53.579  -0.468  71.880  1.00  0.00    -0.003 C 
ATOM      8  C   UNL     1      53.833   0.882  71.210  1.00  0.00     0.004 C 
ENDBRANCH   6   7
ENDBRANCH   1   6
TORSDOF 4
ENDMDL
