MODEL 1
REMARK VINA RESULT:    -7.200      0.000      0.000
REMARK INTER + INTRA:          -8.984
REMARK INTER:                  -8.673
REMARK INTRA:                  -0.311
REMARK UNBOUND:                -0.311
REMARK SMILES Oc1cc(O)c2cc(O)c(-c3ccc(O)c(O)c3)[o+]c2c1
REMARK SMILES IDX 10 1 19 2 20 3 21 4 2 5 3 6 4 7 6 8 7 9 8 10 11 11 12 12
REMARK SMILES IDX 13 13 14 14 18 15 16 16 15 17 17 19 9 21 1 23 5 25
REMARK H PARENT 15 18 17 20 9 22 1 24 5 26
REMARK Flexibility Score: inf
ROOT
ATOM      1  C   UNL     1      21.807  46.666  -5.716  1.00  0.00     0.402 A 
ATOM      2  O   UNL     1      21.693  47.400  -4.613  1.00  0.00    -0.202 OA
ATOM      3  C   UNL     1      21.258  46.915  -3.455  1.00  0.00     0.368 A 
ATOM      4  C   UNL     1      21.170  47.767  -2.351  1.00  0.00     0.162 A 
ATOM      5  C   UNL     1      20.713  47.285  -1.123  1.00  0.00     0.128 A 
ATOM      6  C   UNL     1      20.342  45.943  -0.997  1.00  0.00     0.093 A 
ATOM      7  C   UNL     1      20.422  45.068  -2.087  1.00  0.00     0.136 A 
ATOM      8  C   UNL     1      20.887  45.554  -3.337  1.00  0.00     0.125 A 
ATOM      9  C   UNL     1      21.013  44.748  -4.480  1.00  0.00     0.078 A 
ATOM     10  C   UNL     1      21.485  45.297  -5.677  1.00  0.00     0.223 A 
ENDROOT
BRANCH   1  11
ATOM     11  C   UNL     1      22.295  47.325  -6.949  1.00  0.00     0.087 A 
ATOM     12  C   UNL     1      23.648  47.687  -7.051  1.00  0.00     0.022 A 
ATOM     13  C   UNL     1      24.125  48.329  -8.196  1.00  0.00     0.051 A 
ATOM     14  C   UNL     1      23.259  48.631  -9.250  1.00  0.00     0.157 A 
ATOM     15  C   UNL     1      21.420  47.649  -8.002  1.00  0.00     0.068 A 
ATOM     16  C   UNL     1      21.898  48.295  -9.152  1.00  0.00     0.158 A 
BRANCH  14  17
ATOM     17  O   UNL     1      23.764  49.269 -10.382  1.00  0.00    -0.504 OA
ATOM     18  H   UNL     1      24.029  48.758 -11.215  1.00  0.00     0.293 HD
ENDBRANCH  14  17
BRANCH  16  19
ATOM     19  O   UNL     1      21.025  48.606 -10.194  1.00  0.00    -0.504 OA
ATOM     20  H   UNL     1      20.022  48.629 -10.057  1.00  0.00     0.293 HD
ENDBRANCH  16  19
ENDBRANCH   1  11
BRANCH  10  21
ATOM     21  O   UNL     1      21.657  44.486  -6.798  1.00  0.00    -0.500 OA
ATOM     22  H   UNL     1      21.859  44.877  -7.712  1.00  0.00     0.294 HD
ENDBRANCH  10  21
BRANCH   5  23
ATOM     23  O   UNL     1      20.632  48.151  -0.035  1.00  0.00    -0.507 OA
ATOM     24  H   UNL     1      21.445  48.651   0.307  1.00  0.00     0.293 HD
ENDBRANCH   5  23
BRANCH   7  25
ATOM     25  O   UNL     1      20.029  43.743  -1.880  1.00  0.00    -0.507 OA
ATOM     26  H   UNL     1      19.557  43.410  -1.053  1.00  0.00     0.293 HD
ENDBRANCH   7  25
TORSDOF 6
ENDMDL
MODEL 2
REMARK VINA RESULT:    -6.711      1.672      3.236
REMARK INTER + INTRA:          -8.395
REMARK INTER:                  -8.221
REMARK INTRA:                  -0.174
REMARK UNBOUND:                -0.311
REMARK SMILES Oc1cc(O)c2cc(O)c(-c3ccc(O)c(O)c3)[o+]c2c1
REMARK SMILES IDX 10 1 19 2 20 3 21 4 2 5 3 6 4 7 6 8 7 9 8 10 11 11 12 12
REMARK SMILES IDX 13 13 14 14 18 15 16 16 15 17 17 19 9 21 1 23 5 25
REMARK H PARENT 15 18 17 20 9 22 1 24 5 26
REMARK Flexibility Score: inf
ROOT
ATOM      1  C   UNL     1      21.219  47.080  -4.170  1.00  0.00     0.402 A 
ATOM      2  O   UNL     1      21.189  45.911  -3.536  1.00  0.00    -0.202 OA
ATOM      3  C   UNL     1      20.891  45.788  -2.248  1.00  0.00     0.368 A 
ATOM      4  C   UNL     1      20.889  44.515  -1.669  1.00  0.00     0.162 A 
ATOM      5  C   UNL     1      20.582  44.356  -0.317  1.00  0.00     0.128 A 
ATOM      6  C   UNL     1      20.276  45.476   0.464  1.00  0.00     0.093 A 
ATOM      7  C   UNL     1      20.271  46.761  -0.091  1.00  0.00     0.136 A 
ATOM      8  C   UNL     1      20.580  46.927  -1.467  1.00  0.00     0.125 A 
ATOM      9  C   UNL     1      20.587  48.174  -2.112  1.00  0.00     0.078 A 
ATOM     10  C   UNL     1      20.896  48.258  -3.473  1.00  0.00     0.223 A 
ENDROOT
BRANCH   1  11
ATOM     11  C   UNL     1      21.576  47.088  -5.608  1.00  0.00     0.087 A 
ATOM     12  C   UNL     1      20.829  46.314  -6.510  1.00  0.00     0.022 A 
ATOM     13  C   UNL     1      21.160  46.291  -7.866  1.00  0.00     0.051 A 
ATOM     14  C   UNL     1      22.250  47.026  -8.341  1.00  0.00     0.157 A 
ATOM     15  C   UNL     1      22.685  47.811  -6.084  1.00  0.00     0.068 A 
ATOM     16  C   UNL     1      23.020  47.787  -7.446  1.00  0.00     0.158 A 
BRANCH  14  17
ATOM     17  O   UNL     1      22.555  46.986  -9.701  1.00  0.00    -0.504 OA
ATOM     18  H   UNL     1      22.781  47.821 -10.227  1.00  0.00     0.293 HD
ENDBRANCH  14  17
BRANCH  16  19
ATOM     19  O   UNL     1      24.117  48.513  -7.910  1.00  0.00    -0.504 OA
ATOM     20  H   UNL     1      24.667  48.196  -8.699  1.00  0.00     0.293 HD
ENDBRANCH  16  19
ENDBRANCH   1  11
BRANCH  10  21
ATOM     21  O   UNL     1      20.854  49.490  -4.125  1.00  0.00    -0.500 OA
ATOM     22  H   UNL     1      21.686  49.909  -4.526  1.00  0.00     0.294 HD
ENDBRANCH  10  21
BRANCH   5  23
ATOM     23  O   UNL     1      20.585  43.079   0.241  1.00  0.00    -0.507 OA
ATOM     24  H   UNL     1      20.978  42.286  -0.252  1.00  0.00     0.293 HD
ENDBRANCH   5  23
BRANCH   7  25
ATOM     25  O   UNL     1      19.959  47.827   0.756  1.00  0.00    -0.507 OA
ATOM     26  H   UNL     1      20.024  48.801   0.496  1.00  0.00     0.293 HD
ENDBRANCH   7  25
TORSDOF 6
ENDMDL
MODEL 3
REMARK VINA RESULT:    -6.687      1.404      1.691
REMARK INTER + INTRA:          -8.366
REMARK INTER:                  -8.017
REMARK INTRA:                  -0.349
REMARK UNBOUND:                -0.311
REMARK SMILES Oc1cc(O)c2cc(O)c(-c3ccc(O)c(O)c3)[o+]c2c1
REMARK SMILES IDX 10 1 19 2 20 3 21 4 2 5 3 6 4 7 6 8 7 9 8 10 11 11 12 12
REMARK SMILES IDX 13 13 14 14 18 15 16 16 15 17 17 19 9 21 1 23 5 25
REMARK H PARENT 15 18 17 20 9 22 1 24 5 26
REMARK Flexibility Score: inf
ROOT
ATOM      1  C   UNL     1      21.495  46.443  -4.595  1.00  0.00     0.402 A 
ATOM      2  O   UNL     1      21.859  47.360  -3.704  1.00  0.00    -0.202 OA
ATOM      3  C   UNL     1      21.514  47.309  -2.422  1.00  0.00     0.368 A 
ATOM      4  C   UNL     1      21.943  48.323  -1.562  1.00  0.00     0.162 A 
ATOM      5  C   UNL     1      21.593  48.297  -0.211  1.00  0.00     0.128 A 
ATOM      6  C   UNL     1      20.808  47.251   0.285  1.00  0.00     0.093 A 
ATOM      7  C   UNL     1      20.365  46.223  -0.556  1.00  0.00     0.136 A 
ATOM      8  C   UNL     1      20.721  46.245  -1.930  1.00  0.00     0.125 A 
ATOM      9  C   UNL     1      20.334  45.250  -2.844  1.00  0.00     0.078 A 
ATOM     10  C   UNL     1      20.728  45.338  -4.183  1.00  0.00     0.223 A 
ENDROOT
BRANCH   1  11
ATOM     11  C   UNL     1      21.935  46.616  -5.999  1.00  0.00     0.087 A 
ATOM     12  C   UNL     1      23.158  46.067  -6.412  1.00  0.00     0.022 A 
ATOM     13  C   UNL     1      23.603  46.236  -7.726  1.00  0.00     0.051 A 
ATOM     14  C   UNL     1      22.841  46.967  -8.642  1.00  0.00     0.157 A 
ATOM     15  C   UNL     1      21.179  47.370  -6.916  1.00  0.00     0.068 A 
ATOM     16  C   UNL     1      21.625  47.541  -8.235  1.00  0.00     0.158 A 
BRANCH  14  17
ATOM     17  O   UNL     1      23.308  47.117  -9.946  1.00  0.00    -0.504 OA
ATOM     18  H   UNL     1      23.901  47.890 -10.221  1.00  0.00     0.293 HD
ENDBRANCH  14  17
BRANCH  16  19
ATOM     19  O   UNL     1      20.866  48.284  -9.139  1.00  0.00    -0.504 OA
ATOM     20  H   UNL     1      21.243  48.579 -10.032  1.00  0.00     0.293 HD
ENDBRANCH  16  19
ENDBRANCH   1  11
BRANCH  10  21
ATOM     21  O   UNL     1      20.387  44.326  -5.079  1.00  0.00    -0.500 OA
ATOM     22  H   UNL     1      21.046  43.978  -5.768  1.00  0.00     0.294 HD
ENDBRANCH  10  21
BRANCH   5  23
ATOM     23  O   UNL     1      22.031  49.318   0.631  1.00  0.00    -0.507 OA
ATOM     24  H   UNL     1      22.121  49.178   1.631  1.00  0.00     0.293 HD
ENDBRANCH   5  23
BRANCH   7  25
ATOM     25  O   UNL     1      19.582  45.216   0.015  1.00  0.00    -0.507 OA
ATOM     26  H   UNL     1      19.846  44.679   0.828  1.00  0.00     0.293 HD
ENDBRANCH   7  25
TORSDOF 6
ENDMDL
MODEL 4
REMARK VINA RESULT:    -6.255      1.384      2.777
REMARK INTER + INTRA:          -7.846
REMARK INTER:                  -7.497
REMARK INTRA:                  -0.349
REMARK UNBOUND:                -0.311
REMARK SMILES Oc1cc(O)c2cc(O)c(-c3ccc(O)c(O)c3)[o+]c2c1
REMARK SMILES IDX 10 1 19 2 20 3 21 4 2 5 3 6 4 7 6 8 7 9 8 10 11 11 12 12
REMARK SMILES IDX 13 13 14 14 18 15 16 16 15 17 17 19 9 21 1 23 5 25
REMARK H PARENT 15 18 17 20 9 22 1 24 5 26
REMARK Flexibility Score: inf
ROOT
ATOM      1  C   UNL     1      21.606  47.756  -4.487  1.00  0.00     0.402 A 
ATOM      2  O   UNL     1      21.540  46.498  -4.059  1.00  0.00    -0.202 OA
ATOM      3  C   UNL     1      21.134  46.163  -2.839  1.00  0.00     0.368 A 
ATOM      4  C   UNL     1      21.102  44.812  -2.481  1.00  0.00     0.162 A 
ATOM      5  C   UNL     1      20.683  44.432  -1.204  1.00  0.00     0.128 A 
ATOM      6  C   UNL     1      20.295  45.406  -0.279  1.00  0.00     0.093 A 
ATOM      7  C   UNL     1      20.318  46.765  -0.614  1.00  0.00     0.136 A 
ATOM      8  C   UNL     1      20.741  47.157  -1.911  1.00  0.00     0.125 A 
ATOM      9  C   UNL     1      20.783  48.494  -2.339  1.00  0.00     0.078 A 
ATOM     10  C   UNL     1      21.207  48.802  -3.635  1.00  0.00     0.223 A 
ENDROOT
BRANCH   1  11
ATOM     11  C   UNL     1      22.084  48.002  -5.866  1.00  0.00     0.087 A 
ATOM     12  C   UNL     1      23.449  48.240  -6.093  1.00  0.00     0.022 A 
ATOM     13  C   UNL     1      23.919  48.494  -7.384  1.00  0.00     0.051 A 
ATOM     14  C   UNL     1      23.034  48.529  -8.465  1.00  0.00     0.157 A 
ATOM     15  C   UNL     1      21.191  48.058  -6.953  1.00  0.00     0.068 A 
ATOM     16  C   UNL     1      21.662  48.314  -8.249  1.00  0.00     0.158 A 
BRANCH  14  17
ATOM     17  O   UNL     1      23.532  48.781  -9.742  1.00  0.00    -0.504 OA
ATOM     18  H   UNL     1      24.198  49.522  -9.924  1.00  0.00     0.293 HD
ENDBRANCH  14  17
BRANCH  16  19
ATOM     19  O   UNL     1      20.771  48.361  -9.321  1.00  0.00    -0.504 OA
ATOM     20  H   UNL     1      20.278  47.535  -9.638  1.00  0.00     0.293 HD
ENDBRANCH  16  19
ENDBRANCH   1  11
BRANCH  10  21
ATOM     21  O   UNL     1      21.202  50.125  -4.076  1.00  0.00    -0.500 OA
ATOM     22  H   UNL     1      20.944  50.369  -5.026  1.00  0.00     0.294 HD
ENDBRANCH  10  21
BRANCH   5  23
ATOM     23  O   UNL     1      20.658  43.080  -0.866  1.00  0.00    -0.507 OA
ATOM     24  H   UNL     1      21.137  42.730  -0.044  1.00  0.00     0.293 HD
ENDBRANCH   5  23
BRANCH   7  25
ATOM     25  O   UNL     1      19.918  47.677   0.367  1.00  0.00    -0.507 OA
ATOM     26  H   UNL     1      20.152  48.659   0.364  1.00  0.00     0.293 HD
ENDBRANCH   7  25
TORSDOF 6
ENDMDL
MODEL 5
REMARK VINA RESULT:    -6.215      1.504      6.609
REMARK INTER + INTRA:          -7.798
REMARK INTER:                  -8.106
REMARK INTRA:                   0.308
REMARK UNBOUND:                -0.311
REMARK SMILES Oc1cc(O)c2cc(O)c(-c3ccc(O)c(O)c3)[o+]c2c1
REMARK SMILES IDX 10 1 19 2 20 3 21 4 2 5 3 6 4 7 6 8 7 9 8 10 11 11 12 12
REMARK SMILES IDX 13 13 14 14 18 15 16 16 15 17 17 19 9 21 1 23 5 25
REMARK H PARENT 15 18 17 20 9 22 1 24 5 26
REMARK Flexibility Score: inf
ROOT
ATOM      1  C   UNL     1      21.134  46.491  -3.765  1.00  0.00     0.402 A 
ATOM      2  O   UNL     1      21.582  47.056  -4.882  1.00  0.00    -0.202 OA
ATOM      3  C   UNL     1      21.469  46.494  -6.080  1.00  0.00     0.368 A 
ATOM      4  C   UNL     1      21.974  47.166  -7.197  1.00  0.00     0.162 A 
ATOM      5  C   UNL     1      21.873  46.597  -8.468  1.00  0.00     0.128 A 
ATOM      6  C   UNL     1      21.264  45.348  -8.625  1.00  0.00     0.093 A 
ATOM      7  C   UNL     1      20.750  44.655  -7.523  1.00  0.00     0.136 A 
ATOM      8  C   UNL     1      20.849  45.231  -6.229  1.00  0.00     0.125 A 
ATOM      9  C   UNL     1      20.350  44.615  -5.069  1.00  0.00     0.078 A 
ATOM     10  C   UNL     1      20.480  45.247  -3.829  1.00  0.00     0.223 A 
ENDROOT
BRANCH   1  11
ATOM     11  C   UNL     1      21.328  47.214  -2.487  1.00  0.00     0.087 A 
ATOM     12  C   UNL     1      22.392  48.121  -2.361  1.00  0.00     0.022 A 
ATOM     13  C   UNL     1      22.606  48.799  -1.159  1.00  0.00     0.051 A 
ATOM     14  C   UNL     1      21.771  48.573  -0.061  1.00  0.00     0.157 A 
ATOM     15  C   UNL     1      20.501  46.972  -1.375  1.00  0.00     0.068 A 
ATOM     16  C   UNL     1      20.715  47.652  -0.166  1.00  0.00     0.158 A 
BRANCH  14  17
ATOM     17  O   UNL     1      22.006  49.267   1.125  1.00  0.00    -0.504 OA
ATOM     18  H   UNL     1      21.430  49.138   1.948  1.00  0.00     0.293 HD
ENDBRANCH  14  17
BRANCH  16  19
ATOM     19  O   UNL     1      19.887  47.410   0.929  1.00  0.00    -0.504 OA
ATOM     20  H   UNL     1      19.737  46.474   1.285  1.00  0.00     0.293 HD
ENDBRANCH  16  19
ENDBRANCH   1  11
BRANCH  10  21
ATOM     21  O   UNL     1      19.941  44.659  -2.684  1.00  0.00    -0.500 OA
ATOM     22  H   UNL     1      20.529  44.224  -1.981  1.00  0.00     0.294 HD
ENDBRANCH  10  21
BRANCH   5  23
ATOM     23  O   UNL     1      22.383  47.283  -9.568  1.00  0.00    -0.507 OA
ATOM     24  H   UNL     1      23.376  47.460  -9.669  1.00  0.00     0.293 HD
ENDBRANCH   5  23
BRANCH   7  25
ATOM     25  O   UNL     1      20.159  43.411  -7.762  1.00  0.00    -0.507 OA
ATOM     26  H   UNL     1      20.601  42.656  -8.266  1.00  0.00     0.293 HD
ENDBRANCH   7  25
TORSDOF 6
ENDMDL
MODEL 6
REMARK VINA RESULT:    -5.889      2.107      6.622
REMARK INTER + INTRA:          -7.404
REMARK INTER:                  -7.675
REMARK INTRA:                   0.271
REMARK UNBOUND:                -0.311
REMARK SMILES Oc1cc(O)c2cc(O)c(-c3ccc(O)c(O)c3)[o+]c2c1
REMARK SMILES IDX 10 1 19 2 20 3 21 4 2 5 3 6 4 7 6 8 7 9 8 10 11 11 12 12
REMARK SMILES IDX 13 13 14 14 18 15 16 16 15 17 17 19 9 21 1 23 5 25
REMARK H PARENT 15 18 17 20 9 22 1 24 5 26
REMARK Flexibility Score: inf
ROOT
ATOM      1  C   UNL     1      21.868  47.329  -4.216  1.00  0.00     0.402 A 
ATOM      2  O   UNL     1      21.294  46.150  -4.439  1.00  0.00    -0.202 OA
ATOM      3  C   UNL     1      21.197  45.602  -5.646  1.00  0.00     0.368 A 
ATOM      4  C   UNL     1      20.572  44.359  -5.780  1.00  0.00     0.162 A 
ATOM      5  C   UNL     1      20.453  43.762  -7.036  1.00  0.00     0.128 A 
ATOM      6  C   UNL     1      20.961  44.410  -8.167  1.00  0.00     0.093 A 
ATOM      7  C   UNL     1      21.591  45.656  -8.059  1.00  0.00     0.136 A 
ATOM      8  C   UNL     1      21.716  46.266  -6.783  1.00  0.00     0.125 A 
ATOM      9  C   UNL     1      22.344  47.506  -6.578  1.00  0.00     0.078 A 
ATOM     10  C   UNL     1      22.433  48.041  -5.289  1.00  0.00     0.223 A 
ENDROOT
BRANCH   1  11
ATOM     11  C   UNL     1      21.905  47.837  -2.826  1.00  0.00     0.087 A 
ATOM     12  C   UNL     1      22.982  48.636  -2.411  1.00  0.00     0.022 A 
ATOM     13  C   UNL     1      23.047  49.109  -1.098  1.00  0.00     0.051 A 
ATOM     14  C   UNL     1      22.048  48.782  -0.177  1.00  0.00     0.157 A 
ATOM     15  C   UNL     1      20.910  47.491  -1.892  1.00  0.00     0.068 A 
ATOM     16  C   UNL     1      20.976  47.966  -0.573  1.00  0.00     0.158 A 
BRANCH  14  17
ATOM     17  O   UNL     1      22.138  49.272   1.125  1.00  0.00    -0.504 OA
ATOM     18  H   UNL     1      22.063  50.260   1.336  1.00  0.00     0.293 HD
ENDBRANCH  14  17
BRANCH  16  19
ATOM     19  O   UNL     1      19.982  47.623   0.343  1.00  0.00    -0.504 OA
ATOM     20  H   UNL     1      20.178  47.030   1.141  1.00  0.00     0.293 HD
ENDBRANCH  16  19
ENDBRANCH   1  11
BRANCH  10  21
ATOM     21  O   UNL     1      23.100  49.248  -5.078  1.00  0.00    -0.500 OA
ATOM     22  H   UNL     1      23.251  49.617  -4.146  1.00  0.00     0.294 HD
ENDBRANCH  10  21
BRANCH   5  23
ATOM     23  O   UNL     1      19.827  42.522  -7.149  1.00  0.00    -0.507 OA
ATOM     24  H   UNL     1      19.628  42.109  -8.053  1.00  0.00     0.293 HD
ENDBRANCH   5  23
BRANCH   7  25
ATOM     25  O   UNL     1      22.068  46.240  -9.235  1.00  0.00    -0.507 OA
ATOM     26  H   UNL     1      22.871  46.850  -9.285  1.00  0.00     0.293 HD
ENDBRANCH   7  25
TORSDOF 6
ENDMDL
MODEL 7
REMARK VINA RESULT:    -5.259      1.373      6.876
REMARK INTER + INTRA:          -6.646
REMARK INTER:                  -6.680
REMARK INTRA:                   0.033
REMARK UNBOUND:                -0.311
REMARK SMILES Oc1cc(O)c2cc(O)c(-c3ccc(O)c(O)c3)[o+]c2c1
REMARK SMILES IDX 10 1 19 2 20 3 21 4 2 5 3 6 4 7 6 8 7 9 8 10 11 11 12 12
REMARK SMILES IDX 13 13 14 14 18 15 16 16 15 17 17 19 9 21 1 23 5 25
REMARK H PARENT 15 18 17 20 9 22 1 24 5 26
REMARK Flexibility Score: inf
ROOT
ATOM      1  C   UNL     1      21.242  46.125  -4.913  1.00  0.00     0.402 A 
ATOM      2  O   UNL     1      21.952  47.173  -5.319  1.00  0.00    -0.202 OA
ATOM      3  C   UNL     1      22.269  47.391  -6.591  1.00  0.00     0.368 A 
ATOM      4  C   UNL     1      23.023  48.521  -6.920  1.00  0.00     0.162 A 
ATOM      5  C   UNL     1      23.373  48.772  -8.248  1.00  0.00     0.128 A 
ATOM      6  C   UNL     1      22.969  47.888  -9.254  1.00  0.00     0.093 A 
ATOM      7  C   UNL     1      22.213  46.750  -8.951  1.00  0.00     0.136 A 
ATOM      8  C   UNL     1      21.853  46.492  -7.602  1.00  0.00     0.125 A 
ATOM      9  C   UNL     1      21.087  45.383  -7.206  1.00  0.00     0.078 A 
ATOM     10  C   UNL     1      20.767  45.198  -5.858  1.00  0.00     0.223 A 
ENDROOT
BRANCH   1  11
ATOM     11  C   UNL     1      20.962  45.988  -3.465  1.00  0.00     0.087 A 
ATOM     12  C   UNL     1      20.645  47.129  -2.712  1.00  0.00     0.022 A 
ATOM     13  C   UNL     1      20.397  47.027  -1.341  1.00  0.00     0.051 A 
ATOM     14  C   UNL     1      20.476  45.788  -0.698  1.00  0.00     0.157 A 
ATOM     15  C   UNL     1      21.061  44.745  -2.813  1.00  0.00     0.068 A 
ATOM     16  C   UNL     1      20.814  44.641  -1.436  1.00  0.00     0.158 A 
BRANCH  14  17
ATOM     17  O   UNL     1      20.220  45.716   0.670  1.00  0.00    -0.504 OA
ATOM     18  H   UNL     1      20.055  44.835   1.141  1.00  0.00     0.293 HD
ENDBRANCH  14  17
BRANCH  16  19
ATOM     19  O   UNL     1      20.908  43.404  -0.800  1.00  0.00    -0.504 OA
ATOM     20  H   UNL     1      20.407  42.592  -1.140  1.00  0.00     0.293 HD
ENDBRANCH  16  19
ENDBRANCH   1  11
BRANCH  10  21
ATOM     21  O   UNL     1      19.965  44.125  -5.470  1.00  0.00    -0.500 OA
ATOM     22  H   UNL     1      18.987  44.250  -5.229  1.00  0.00     0.294 HD
ENDBRANCH  10  21
BRANCH   5  23
ATOM     23  O   UNL     1      24.125  49.904  -8.556  1.00  0.00    -0.507 OA
ATOM     24  H   UNL     1      24.347  50.600  -7.853  1.00  0.00     0.293 HD
ENDBRANCH   5  23
BRANCH   7  25
ATOM     25  O   UNL     1      21.852  45.915 -10.011  1.00  0.00    -0.507 OA
ATOM     26  H   UNL     1      22.389  45.803 -10.859  1.00  0.00     0.293 HD
ENDBRANCH   7  25
TORSDOF 6
ENDMDL
MODEL 8
REMARK VINA RESULT:    -5.076      1.693      7.360
REMARK INTER + INTRA:          -6.425
REMARK INTER:                  -6.524
REMARK INTRA:                   0.099
REMARK UNBOUND:                -0.311
REMARK SMILES Oc1cc(O)c2cc(O)c(-c3ccc(O)c(O)c3)[o+]c2c1
REMARK SMILES IDX 10 1 19 2 20 3 21 4 2 5 3 6 4 7 6 8 7 9 8 10 11 11 12 12
REMARK SMILES IDX 13 13 14 14 18 15 16 16 15 17 17 19 9 21 1 23 5 25
REMARK H PARENT 15 18 17 20 9 22 1 24 5 26
REMARK Flexibility Score: inf
ROOT
ATOM      1  C   UNL     1      21.652  46.882  -3.647  1.00  0.00     0.402 A 
ATOM      2  O   UNL     1      21.363  46.257  -4.785  1.00  0.00    -0.202 OA
ATOM      3  C   UNL     1      21.798  46.666  -5.972  1.00  0.00     0.368 A 
ATOM      4  C   UNL     1      21.438  45.943  -7.113  1.00  0.00     0.162 A 
ATOM      5  C   UNL     1      21.877  46.352  -8.374  1.00  0.00     0.128 A 
ATOM      6  C   UNL     1      22.682  47.489  -8.496  1.00  0.00     0.093 A 
ATOM      7  C   UNL     1      23.057  48.230  -7.368  1.00  0.00     0.136 A 
ATOM      8  C   UNL     1      22.614  47.817  -6.085  1.00  0.00     0.125 A 
ATOM      9  C   UNL     1      22.951  48.489  -4.898  1.00  0.00     0.078 A 
ATOM     10  C   UNL     1      22.480  48.019  -3.668  1.00  0.00     0.223 A 
ENDROOT
BRANCH   1  11
ATOM     11  C   UNL     1      21.099  46.334  -2.387  1.00  0.00     0.087 A 
ATOM     12  C   UNL     1      20.959  44.945  -2.241  1.00  0.00     0.022 A 
ATOM     13  C   UNL     1      20.420  44.407  -1.070  1.00  0.00     0.051 A 
ATOM     14  C   UNL     1      20.001  45.246  -0.033  1.00  0.00     0.157 A 
ATOM     15  C   UNL     1      20.657  47.178  -1.352  1.00  0.00     0.068 A 
ATOM     16  C   UNL     1      20.115  46.639  -0.176  1.00  0.00     0.158 A 
BRANCH  14  17
ATOM     17  O   UNL     1      19.470  44.681   1.125  1.00  0.00    -0.504 OA
ATOM     18  H   UNL     1      18.969  45.231   1.812  1.00  0.00     0.293 HD
ENDBRANCH  14  17
BRANCH  16  19
ATOM     19  O   UNL     1      19.685  47.484   0.848  1.00  0.00    -0.504 OA
ATOM     20  H   UNL     1      19.704  48.491   0.747  1.00  0.00     0.293 HD
ENDBRANCH  16  19
ENDBRANCH   1  11
BRANCH  10  21
ATOM     21  O   UNL     1      22.855  48.657  -2.486  1.00  0.00    -0.500 OA
ATOM     22  H   UNL     1      22.429  48.422  -1.596  1.00  0.00     0.294 HD
ENDBRANCH  10  21
BRANCH   5  23
ATOM     23  O   UNL     1      21.508  45.618  -9.499  1.00  0.00    -0.507 OA
ATOM     24  H   UNL     1      20.538  45.387  -9.686  1.00  0.00     0.293 HD
ENDBRANCH   5  23
BRANCH   7  25
ATOM     25  O   UNL     1      23.859  49.355  -7.574  1.00  0.00    -0.507 OA
ATOM     26  H   UNL     1      23.604  50.295  -7.308  1.00  0.00     0.293 HD
ENDBRANCH   7  25
TORSDOF 6
ENDMDL
MODEL 9
REMARK VINA RESULT:    -4.713      1.515      7.322
REMARK INTER + INTRA:          -5.988
REMARK INTER:                  -6.262
REMARK INTRA:                   0.274
REMARK UNBOUND:                -0.311
REMARK SMILES Oc1cc(O)c2cc(O)c(-c3ccc(O)c(O)c3)[o+]c2c1
REMARK SMILES IDX 10 1 19 2 20 3 21 4 2 5 3 6 4 7 6 8 7 9 8 10 11 11 12 12
REMARK SMILES IDX 13 13 14 14 18 15 16 16 15 17 17 19 9 21 1 23 5 25
REMARK H PARENT 15 18 17 20 9 22 1 24 5 26
REMARK Flexibility Score: inf
ROOT
ATOM      1  C   UNL     1      22.119  47.333  -5.525  1.00  0.00     0.402 A 
ATOM      2  O   UNL     1      22.040  46.650  -6.664  1.00  0.00    -0.202 OA
ATOM      3  C   UNL     1      22.481  47.117  -7.827  1.00  0.00     0.368 A 
ATOM      4  C   UNL     1      22.350  46.325  -8.971  1.00  0.00     0.162 A 
ATOM      5  C   UNL     1      22.802  46.792 -10.207  1.00  0.00     0.128 A 
ATOM      6  C   UNL     1      23.389  48.059 -10.301  1.00  0.00     0.093 A 
ATOM      7  C   UNL     1      23.532  48.871  -9.170  1.00  0.00     0.136 A 
ATOM      8  C   UNL     1      23.075  48.399  -7.911  1.00  0.00     0.125 A 
ATOM      9  C   UNL     1      23.189  49.138  -6.722  1.00  0.00     0.078 A 
ATOM     10  C   UNL     1      22.721  48.604  -5.517  1.00  0.00     0.223 A 
ENDROOT
BRANCH   1  11
ATOM     11  C   UNL     1      21.582  46.707  -4.295  1.00  0.00     0.087 A 
ATOM     12  C   UNL     1      21.403  45.316  -4.249  1.00  0.00     0.022 A 
ATOM     13  C   UNL     1      20.879  44.707  -3.106  1.00  0.00     0.051 A 
ATOM     14  C   UNL     1      20.512  45.477  -1.999  1.00  0.00     0.157 A 
ATOM     15  C   UNL     1      21.193  47.484  -3.188  1.00  0.00     0.068 A 
ATOM     16  C   UNL     1      20.665  46.873  -2.040  1.00  0.00     0.158 A 
BRANCH  14  17
ATOM     17  O   UNL     1      19.994  44.842  -0.872  1.00  0.00    -0.504 OA
ATOM     18  H   UNL     1      20.240  45.128   0.068  1.00  0.00     0.293 HD
ENDBRANCH  14  17
BRANCH  16  19
ATOM     19  O   UNL     1      20.288  47.650  -0.945  1.00  0.00    -0.504 OA
ATOM     20  H   UNL     1      19.580  47.338  -0.292  1.00  0.00     0.293 HD
ENDBRANCH  16  19
ENDBRANCH   1  11
BRANCH  10  21
ATOM     21  O   UNL     1      22.878  49.317  -4.329  1.00  0.00    -0.500 OA
ATOM     22  H   UNL     1      23.516  50.103  -4.259  1.00  0.00     0.294 HD
ENDBRANCH  10  21
BRANCH   5  23
ATOM     23  O   UNL     1      22.662  45.988 -11.336  1.00  0.00    -0.507 OA
ATOM     24  H   UNL     1      23.457  45.749 -11.918  1.00  0.00     0.293 HD
ENDBRANCH   5  23
BRANCH   7  25
ATOM     25  O   UNL     1      24.125  50.124  -9.347  1.00  0.00    -0.507 OA
ATOM     26  H   UNL     1      24.839  50.508  -8.745  1.00  0.00     0.293 HD
ENDBRANCH   7  25
TORSDOF 6
ENDMDL
