MODEL 1
REMARK VINA RESULT:    -4.675      0.000      0.000
REMARK INTER + INTRA:          -7.648
REMARK INTER:                  -7.135
REMARK INTRA:                  -0.513
REMARK UNBOUND:                -0.513
REMARK SMILES O=C([O-])CCCCCCCCC(=O)[O-]
REMARK SMILES IDX 7 1 6 2 5 3 4 4 2 5 1 6 3 7 8 8 9 9 10 10 11 11 12 12 13 13
REMARK SMILES IDX 14 14
REMARK H PARENT
REMARK Flexibility Score: inf
ROOT
ATOM      1  C   UNL     1       6.388   2.840  -0.473  1.00  0.00     0.000 C 
ENDROOT
BRANCH   1   2
ATOM      2  C   UNL     1       6.058   1.349  -0.271  1.00  0.00     0.000 C 
BRANCH   2   3
ATOM      3  C   UNL     1       7.123   0.373  -0.802  1.00  0.00     0.006 C 
BRANCH   3   4
ATOM      4  C   UNL     1       7.874   0.915  -2.025  1.00  0.00     0.053 C 
BRANCH   4   5
ATOM      5  C   UNL     1       7.111   0.623  -3.278  1.00  0.00     0.041 C 
ATOM      6  O   UNL     1       6.250   1.439  -3.701  1.00  0.00    -0.550 OA
ATOM      7  O   UNL     1       7.384  -0.529  -4.006  1.00  0.00    -0.550 OA
ENDBRANCH   4   5
ENDBRANCH   3   4
ENDBRANCH   2   3
ENDBRANCH   1   2
BRANCH   1   8
ATOM      8  C   UNL     1       6.936   3.508   0.801  1.00  0.00     0.000 C 
BRANCH   8   9
ATOM      9  C   UNL     1       8.419   3.891   0.674  1.00  0.00     0.000 C 
BRANCH   9  10
ATOM     10  C   UNL     1       8.857   4.912   1.738  1.00  0.00     0.006 C 
BRANCH  10  11
ATOM     11  C   UNL     1       9.011   6.323   1.156  1.00  0.00     0.053 C 
BRANCH  11  12
ATOM     12  C   UNL     1       7.688   7.012   1.020  1.00  0.00     0.041 C 
ATOM     13  O   UNL     1       7.175   7.603   2.008  1.00  0.00    -0.550 OA
ATOM     14  O   UNL     1       7.005   6.974  -0.189  1.00  0.00    -0.550 OA
ENDBRANCH  11  12
ENDBRANCH  10  11
ENDBRANCH   9  10
ENDBRANCH   8   9
ENDBRANCH   1   8
TORSDOF 9
ENDMDL
MODEL 2
REMARK VINA RESULT:    -4.613      0.897      6.821
REMARK INTER + INTRA:          -7.554
REMARK INTER:                  -7.124
REMARK INTRA:                  -0.430
REMARK UNBOUND:                -0.513
REMARK SMILES O=C([O-])CCCCCCCCC(=O)[O-]
REMARK SMILES IDX 7 1 6 2 5 3 4 4 2 5 1 6 3 7 8 8 9 9 10 10 11 11 12 12 13 13
REMARK SMILES IDX 14 14
REMARK H PARENT
REMARK Flexibility Score: inf
ROOT
ATOM      1  C   UNL     1       7.015   3.810   0.782  1.00  0.00     0.000 C 
ENDROOT
BRANCH   1   2
ATOM      2  C   UNL     1       8.516   4.130   0.645  1.00  0.00     0.000 C 
BRANCH   2   3
ATOM      3  C   UNL     1       8.873   5.622   0.770  1.00  0.00     0.006 C 
BRANCH   3   4
ATOM      4  C   UNL     1       7.643   6.538   0.719  1.00  0.00     0.053 C 
BRANCH   4   5
ATOM      5  C   UNL     1       7.980   7.895   1.251  1.00  0.00     0.041 C 
ATOM      6  O   UNL     1       8.508   8.757   0.500  1.00  0.00    -0.550 OA
ATOM      7  O   UNL     1       7.668   8.225   2.564  1.00  0.00    -0.550 OA
ENDBRANCH   4   5
ENDBRANCH   3   4
ENDBRANCH   2   3
ENDBRANCH   1   2
BRANCH   1   8
ATOM      8  C   UNL     1       6.493   2.902  -0.346  1.00  0.00     0.000 C 
BRANCH   8   9
ATOM      9  C   UNL     1       5.934   1.571   0.179  1.00  0.00     0.000 C 
BRANCH   9  10
ATOM     10  C   UNL     1       6.077   0.428  -0.840  1.00  0.00     0.006 C 
BRANCH  10  11
ATOM     11  C   UNL     1       7.306   0.607  -1.742  1.00  0.00     0.053 C 
BRANCH  11  12
ATOM     12  C   UNL     1       6.933   0.604  -3.192  1.00  0.00     0.041 C 
ATOM     13  O   UNL     1       6.245   1.544  -3.673  1.00  0.00    -0.550 OA
ATOM     14  O   UNL     1       7.316  -0.454  -4.007  1.00  0.00    -0.550 OA
ENDBRANCH  11  12
ENDBRANCH  10  11
ENDBRANCH   9  10
ENDBRANCH   8   9
ENDBRANCH   1   8
TORSDOF 9
ENDMDL
MODEL 3
REMARK VINA RESULT:    -4.268      1.676      2.229
REMARK INTER + INTRA:          -7.026
REMARK INTER:                  -6.747
REMARK INTRA:                  -0.280
REMARK UNBOUND:                -0.513
REMARK SMILES O=C([O-])CCCCCCCCC(=O)[O-]
REMARK SMILES IDX 7 1 6 2 5 3 4 4 2 5 1 6 3 7 8 8 9 9 10 10 11 11 12 12 13 13
REMARK SMILES IDX 14 14
REMARK H PARENT
REMARK Flexibility Score: inf
ROOT
ATOM      1  C   UNL     1       6.917   3.645   0.480  1.00  0.00     0.000 C 
ENDROOT
BRANCH   1   2
ATOM      2  C   UNL     1       7.687   2.679  -0.441  1.00  0.00     0.000 C 
BRANCH   2   3
ATOM      3  C   UNL     1       6.844   1.533  -1.027  1.00  0.00     0.006 C 
BRANCH   3   4
ATOM      4  C   UNL     1       7.657   0.589  -1.921  1.00  0.00     0.053 C 
BRANCH   4   5
ATOM      5  C   UNL     1       7.045   0.504  -3.284  1.00  0.00     0.041 C 
ATOM      6  O   UNL     1       6.269   1.410  -3.687  1.00  0.00    -0.550 OA
ATOM      7  O   UNL     1       7.371  -0.550  -4.129  1.00  0.00    -0.550 OA
ENDBRANCH   4   5
ENDBRANCH   3   4
ENDBRANCH   2   3
ENDBRANCH   1   2
BRANCH   1   8
ATOM      8  C   UNL     1       7.793   4.797   1.003  1.00  0.00     0.000 C 
BRANCH   8   9
ATOM      9  C   UNL     1       7.274   6.177   0.568  1.00  0.00     0.000 C 
BRANCH   9  10
ATOM     10  C   UNL     1       7.751   7.306   1.498  1.00  0.00     0.006 C 
BRANCH  10  11
ATOM     11  C   UNL     1       9.011   6.917   2.282  1.00  0.00     0.053 C 
BRANCH  11  12
ATOM     12  C   UNL     1       8.814   7.071   3.759  1.00  0.00     0.041 C 
ATOM     13  O   UNL     1       8.396   8.161   4.233  1.00  0.00    -0.550 OA
ATOM     14  O   UNL     1       9.124   6.022   4.615  1.00  0.00    -0.550 OA
ENDBRANCH  11  12
ENDBRANCH  10  11
ENDBRANCH   9  10
ENDBRANCH   8   9
ENDBRANCH   1   8
TORSDOF 9
ENDMDL
MODEL 4
REMARK VINA RESULT:    -4.223      2.523      3.981
REMARK INTER + INTRA:          -6.958
REMARK INTER:                  -6.675
REMARK INTRA:                  -0.283
REMARK UNBOUND:                -0.513
REMARK SMILES O=C([O-])CCCCCCCCC(=O)[O-]
REMARK SMILES IDX 7 1 6 2 5 3 4 4 2 5 1 6 3 7 8 8 9 9 10 10 11 11 12 12 13 13
REMARK SMILES IDX 14 14
REMARK H PARENT
REMARK Flexibility Score: inf
ROOT
ATOM      1  C   UNL     1       7.338   6.360   0.516  1.00  0.00     0.000 C 
ENDROOT
BRANCH   1   2
ATOM      2  C   UNL     1       7.671   4.974   1.101  1.00  0.00     0.000 C 
BRANCH   2   3
ATOM      3  C   UNL     1       7.557   3.807   0.104  1.00  0.00     0.006 C 
BRANCH   3   4
ATOM      4  C   UNL     1       6.432   2.826   0.458  1.00  0.00     0.053 C 
BRANCH   4   5
ATOM      5  C   UNL     1       6.265   1.811  -0.628  1.00  0.00     0.041 C 
ATOM      6  O   UNL     1       5.789   0.675  -0.366  1.00  0.00    -0.550 OA
ATOM      7  O   UNL     1       6.588   2.135  -1.940  1.00  0.00    -0.550 OA
ENDBRANCH   4   5
ENDBRANCH   3   4
ENDBRANCH   2   3
ENDBRANCH   1   2
BRANCH   1   8
ATOM      8  C   UNL     1       8.249   7.473   1.065  1.00  0.00     0.000 C 
BRANCH   8   9
ATOM      9  C   UNL     1       8.046   7.713   2.569  1.00  0.00     0.000 C 
BRANCH   9  10
ATOM     10  C   UNL     1       8.502   9.115   3.010  1.00  0.00     0.006 C 
BRANCH  10  11
ATOM     11  C   UNL     1       7.317  10.046   3.295  1.00  0.00     0.053 C 
BRANCH  11  12
ATOM     12  C   UNL     1       6.318   9.406   4.210  1.00  0.00     0.041 C 
ATOM     13  O   UNL     1       6.641   9.102   5.389  1.00  0.00    -0.550 OA
ATOM     14  O   UNL     1       5.040   9.114   3.749  1.00  0.00    -0.550 OA
ENDBRANCH  11  12
ENDBRANCH  10  11
ENDBRANCH   9  10
ENDBRANCH   8   9
ENDBRANCH   1   8
TORSDOF 9
ENDMDL
MODEL 5
REMARK VINA RESULT:    -4.137     20.705     21.501
REMARK INTER + INTRA:          -6.827
REMARK INTER:                  -6.602
REMARK INTRA:                  -0.225
REMARK UNBOUND:                -0.513
REMARK SMILES O=C([O-])CCCCCCCCC(=O)[O-]
REMARK SMILES IDX 7 1 6 2 5 3 4 4 2 5 1 6 3 7 8 8 9 9 10 10 11 11 12 12 13 13
REMARK SMILES IDX 14 14
REMARK H PARENT
REMARK Flexibility Score: inf
ROOT
ATOM      1  C   UNL     1     -10.137  -4.903   6.818  1.00  0.00     0.000 C 
ENDROOT
BRANCH   1   2
ATOM      2  C   UNL     1     -10.763  -4.216   5.590  1.00  0.00     0.000 C 
BRANCH   2   3
ATOM      3  C   UNL     1     -10.914  -5.117   4.351  1.00  0.00     0.006 C 
BRANCH   3   4
ATOM      4  C   UNL     1     -11.091  -6.598   4.707  1.00  0.00     0.053 C 
BRANCH   4   5
ATOM      5  C   UNL     1      -9.871  -7.376   4.325  1.00  0.00     0.041 C 
ATOM      6  O   UNL     1      -9.056  -7.750   5.209  1.00  0.00    -0.550 OA
ATOM      7  O   UNL     1      -9.659  -7.730   2.999  1.00  0.00    -0.550 OA
ENDBRANCH   4   5
ENDBRANCH   3   4
ENDBRANCH   2   3
ENDBRANCH   1   2
BRANCH   1   8
ATOM      8  C   UNL     1     -11.123  -5.042   7.991  1.00  0.00     0.000 C 
BRANCH   8   9
ATOM      9  C   UNL     1     -10.433  -5.480   9.292  1.00  0.00     0.000 C 
BRANCH   9  10
ATOM     10  C   UNL     1     -10.883  -4.651  10.507  1.00  0.00     0.006 C 
BRANCH  10  11
ATOM     11  C   UNL     1      -9.899  -4.759  11.679  1.00  0.00     0.053 C 
BRANCH  11  12
ATOM     12  C   UNL     1      -9.693  -3.436  12.352  1.00  0.00     0.041 C 
ATOM     13  O   UNL     1     -10.614  -2.926  13.044  1.00  0.00    -0.550 OA
ATOM     14  O   UNL     1      -8.496  -2.751  12.187  1.00  0.00    -0.550 OA
ENDBRANCH  11  12
ENDBRANCH  10  11
ENDBRANCH   9  10
ENDBRANCH   8   9
ENDBRANCH   1   8
TORSDOF 9
ENDMDL
MODEL 6
REMARK VINA RESULT:    -4.023      2.522      7.915
REMARK INTER + INTRA:          -6.653
REMARK INTER:                  -6.377
REMARK INTRA:                  -0.277
REMARK UNBOUND:                -0.513
REMARK SMILES O=C([O-])CCCCCCCCC(=O)[O-]
REMARK SMILES IDX 7 1 6 2 5 3 4 4 2 5 1 6 3 7 8 8 9 9 10 10 11 11 12 12 13 13
REMARK SMILES IDX 14 14
REMARK H PARENT
REMARK Flexibility Score: inf
ROOT
ATOM      1  C   UNL     1       8.285   7.066   0.733  1.00  0.00     0.000 C 
ENDROOT
BRANCH   1   2
ATOM      2  C   UNL     1       7.565   7.500   2.023  1.00  0.00     0.000 C 
BRANCH   2   3
ATOM      3  C   UNL     1       7.939   8.904   2.532  1.00  0.00     0.006 C 
BRANCH   3   4
ATOM      4  C   UNL     1       7.557   9.129   4.001  1.00  0.00     0.053 C 
BRANCH   4   5
ATOM      5  C   UNL     1       6.260   9.869   4.095  1.00  0.00     0.041 C 
ATOM      6  O   UNL     1       6.246  11.085   4.423  1.00  0.00    -0.550 OA
ATOM      7  O   UNL     1       5.069   9.230   3.773  1.00  0.00    -0.550 OA
ENDBRANCH   4   5
ENDBRANCH   3   4
ENDBRANCH   2   3
ENDBRANCH   1   2
BRANCH   1   8
ATOM      8  C   UNL     1       8.762   5.603   0.779  1.00  0.00     0.000 C 
BRANCH   8   9
ATOM      9  C   UNL     1       7.651   4.634   1.212  1.00  0.00     0.000 C 
BRANCH   9  10
ATOM     10  C   UNL     1       7.033   3.876   0.025  1.00  0.00     0.006 C 
BRANCH  10  11
ATOM     11  C   UNL     1       6.331   2.585   0.464  1.00  0.00     0.053 C 
BRANCH  11  12
ATOM     12  C   UNL     1       6.218   1.605  -0.663  1.00  0.00     0.041 C 
ATOM     13  O   UNL     1       6.141   0.370  -0.426  1.00  0.00    -0.550 OA
ATOM     14  O   UNL     1       6.230   2.054  -1.978  1.00  0.00    -0.550 OA
ENDBRANCH  11  12
ENDBRANCH  10  11
ENDBRANCH   9  10
ENDBRANCH   8   9
ENDBRANCH   1   8
TORSDOF 9
ENDMDL
MODEL 7
REMARK VINA RESULT:    -4.006     11.328     13.246
REMARK INTER + INTRA:          -6.626
REMARK INTER:                  -5.959
REMARK INTRA:                  -0.668
REMARK UNBOUND:                -0.513
REMARK SMILES O=C([O-])CCCCCCCCC(=O)[O-]
REMARK SMILES IDX 7 1 6 2 5 3 4 4 2 5 1 6 3 7 8 8 9 9 10 10 11 11 12 12 13 13
REMARK SMILES IDX 14 14
REMARK H PARENT
REMARK Flexibility Score: inf
ROOT
ATOM      1  C   UNL     1       0.894   7.066  10.730  1.00  0.00     0.000 C 
ENDROOT
BRANCH   1   2
ATOM      2  C   UNL     1       0.671   8.425  10.039  1.00  0.00     0.000 C 
BRANCH   2   3
ATOM      3  C   UNL     1       1.210   8.515   8.600  1.00  0.00     0.006 C 
BRANCH   3   4
ATOM      4  C   UNL     1       2.279   9.602   8.429  1.00  0.00     0.053 C 
BRANCH   4   5
ATOM      5  C   UNL     1       3.627   8.981   8.233  1.00  0.00     0.041 C 
ATOM      6  O   UNL     1       4.004   8.037   8.975  1.00  0.00    -0.550 OA
ATOM      7  O   UNL     1       4.448   9.413   7.198  1.00  0.00    -0.550 OA
ENDBRANCH   4   5
ENDBRANCH   3   4
ENDBRANCH   2   3
ENDBRANCH   1   2
BRANCH   1   8
ATOM      8  C   UNL     1       1.287   5.952   9.743  1.00  0.00     0.000 C 
BRANCH   8   9
ATOM      9  C   UNL     1       2.435   5.077  10.269  1.00  0.00     0.000 C 
BRANCH   9  10
ATOM     10  C   UNL     1       2.153   4.516  11.674  1.00  0.00     0.006 C 
BRANCH  10  11
ATOM     11  C   UNL     1       1.209   3.308  11.636  1.00  0.00     0.053 C 
BRANCH  11  12
ATOM     12  C   UNL     1       1.800   2.168  10.863  1.00  0.00     0.041 C 
ATOM     13  O   UNL     1       1.292   1.816   9.765  1.00  0.00    -0.550 OA
ATOM     14  O   UNL     1       2.890   1.474  11.372  1.00  0.00    -0.550 OA
ENDBRANCH  11  12
ENDBRANCH  10  11
ENDBRANCH   9  10
ENDBRANCH   8   9
ENDBRANCH   1   8
TORSDOF 9
ENDMDL
MODEL 8
REMARK VINA RESULT:    -3.994     20.375     22.335
REMARK INTER + INTRA:          -6.608
REMARK INTER:                  -6.280
REMARK INTRA:                  -0.328
REMARK UNBOUND:                -0.513
REMARK SMILES O=C([O-])CCCCCCCCC(=O)[O-]
REMARK SMILES IDX 7 1 6 2 5 3 4 4 2 5 1 6 3 7 8 8 9 9 10 10 11 11 12 12 13 13
REMARK SMILES IDX 14 14
REMARK H PARENT
REMARK Flexibility Score: inf
ROOT
ATOM      1  C   UNL     1     -10.558  -5.368   8.288  1.00  0.00     0.000 C 
ENDROOT
BRANCH   1   2
ATOM      2  C   UNL     1     -11.121  -4.854   9.627  1.00  0.00     0.000 C 
BRANCH   2   3
ATOM      3  C   UNL     1     -10.246  -5.157  10.856  1.00  0.00     0.006 C 
BRANCH   3   4
ATOM      4  C   UNL     1     -10.417  -4.127  11.980  1.00  0.00     0.053 C 
BRANCH   4   5
ATOM      5  C   UNL     1      -9.084  -3.726  12.528  1.00  0.00     0.041 C 
ATOM      6  O   UNL     1      -8.363  -4.569  13.123  1.00  0.00    -0.550 OA
ATOM      7  O   UNL     1      -8.615  -2.432  12.339  1.00  0.00    -0.550 OA
ENDBRANCH   4   5
ENDBRANCH   3   4
ENDBRANCH   2   3
ENDBRANCH   1   2
BRANCH   1   8
ATOM      8  C   UNL     1     -11.120  -4.608   7.074  1.00  0.00     0.000 C 
BRANCH   8   9
ATOM      9  C   UNL     1     -10.121  -4.536   5.909  1.00  0.00     0.000 C 
BRANCH   9  10
ATOM     10  C   UNL     1     -10.715  -5.055   4.588  1.00  0.00     0.006 C 
BRANCH  10  11
ATOM     11  C   UNL     1     -11.119  -6.532   4.677  1.00  0.00     0.053 C 
BRANCH  11  12
ATOM     12  C   UNL     1      -9.922  -7.432   4.699  1.00  0.00     0.041 C 
ATOM     13  O   UNL     1      -9.929  -8.481   5.396  1.00  0.00    -0.550 OA
ATOM     14  O   UNL     1      -8.784  -7.095   3.976  1.00  0.00    -0.550 OA
ENDBRANCH  11  12
ENDBRANCH  10  11
ENDBRANCH   9  10
ENDBRANCH   8   9
ENDBRANCH   1   8
TORSDOF 9
ENDMDL
MODEL 9
REMARK VINA RESULT:    -3.921     11.565     12.873
REMARK INTER + INTRA:          -6.497
REMARK INTER:                  -5.806
REMARK INTRA:                  -0.690
REMARK UNBOUND:                -0.513
REMARK SMILES O=C([O-])CCCCCCCCC(=O)[O-]
REMARK SMILES IDX 7 1 6 2 5 3 4 4 2 5 1 6 3 7 8 8 9 9 10 10 11 11 12 12 13 13
REMARK SMILES IDX 14 14
REMARK H PARENT
REMARK Flexibility Score: inf
ROOT
ATOM      1  C   UNL     1       2.644   6.263  11.638  1.00  0.00     0.000 C 
ENDROOT
BRANCH   1   2
ATOM      2  C   UNL     1       2.981   5.086  12.573  1.00  0.00     0.000 C 
BRANCH   2   3
ATOM      3  C   UNL     1       1.939   3.953  12.589  1.00  0.00     0.006 C 
BRANCH   3   4
ATOM      4  C   UNL     1       1.341   3.671  11.205  1.00  0.00     0.053 C 
BRANCH   4   5
ATOM      5  C   UNL     1       2.246   2.775  10.419  1.00  0.00     0.041 C 
ATOM      6  O   UNL     1       2.199   1.527  10.581  1.00  0.00    -0.550 OA
ATOM      7  O   UNL     1       3.107   3.314   9.472  1.00  0.00    -0.550 OA
ENDBRANCH   4   5
ENDBRANCH   3   4
ENDBRANCH   2   3
ENDBRANCH   1   2
BRANCH   1   8
ATOM      8  C   UNL     1       1.689   7.283  12.284  1.00  0.00     0.000 C 
BRANCH   8   9
ATOM      9  C   UNL     1       0.569   7.727  11.331  1.00  0.00     0.000 C 
BRANCH   9  10
ATOM     10  C   UNL     1       0.921   7.486   9.853  1.00  0.00     0.006 C 
BRANCH  10  11
ATOM     11  C   UNL     1       0.918   8.785   9.037  1.00  0.00     0.053 C 
BRANCH  11  12
ATOM     12  C   UNL     1       2.120   8.883   8.149  1.00  0.00     0.041 C 
ATOM     13  O   UNL     1       2.687   7.838   7.730  1.00  0.00    -0.550 OA
ATOM     14  O   UNL     1       2.635  10.128   7.810  1.00  0.00    -0.550 OA
ENDBRANCH  11  12
ENDBRANCH  10  11
ENDBRANCH   9  10
ENDBRANCH   8   9
ENDBRANCH   1   8
TORSDOF 9
ENDMDL
