MODEL 1
REMARK VINA RESULT:    -6.435      0.000      0.000
REMARK INTER + INTRA:          -7.005
REMARK INTER:                  -6.999
REMARK INTRA:                  -0.006
REMARK UNBOUND:                -0.006
REMARK SMILES C[C@@H]1[C@@H](C)CC[C@@]2(C(=O)[O-])CC[C@@]3(C)C(=CC[C@H]4[C@@]5(C)CC[C@@H](O)C(C)(C)[C@H]5CC[C@]43C)[C@@H]12
REMARK SMILES IDX 7 1 6 2 11 3 33 4 5 5 12 6 15 7 2 8 3 9 13 10 16 11 1 12
REMARK SMILES IDX 4 13 14 14 31 15 17 16 18 17 30 18 32 19 19 20 29 21 28 22
REMARK SMILES IDX 21 23 20 24 25 25 22 26 23 27 26 28 27 29 8 30 9 31 10 32
REMARK SMILES IDX 24 33
REMARK H PARENT 24 34
REMARK Flexibility Score: inf
ROOT
ATOM      1  C   UNL     1     -30.484 -28.537 -41.381  1.00  0.00     0.017 C 
ATOM      2  C   UNL     1     -29.876 -27.389 -40.523  1.00  0.00     0.014 C 
ATOM      3  C   UNL     1     -30.758 -29.754 -40.436  1.00  0.00     0.014 C 
ATOM      4  C   UNL     1     -31.788 -28.015 -42.114  1.00  0.00     0.030 C 
ATOM      5  C   UNL     1     -29.582 -26.113 -41.318  1.00  0.00     0.004 C 
ATOM      6  C   UNL     1     -32.152 -30.363 -40.595  1.00  0.00     0.013 C 
ATOM      7  C   UNL     1     -33.076 -28.112 -41.237  1.00  0.00    -0.063 C 
ATOM      8  C   UNL     1     -31.539 -26.652 -42.884  1.00  0.00    -0.003 C 
ATOM      9  C   UNL     1     -30.834 -25.563 -42.023  1.00  0.00    -0.011 C 
ATOM     10  C   UNL     1     -33.308 -29.336 -40.338  1.00  0.00    -0.006 C 
ATOM     11  C   UNL     1     -34.103 -27.249 -41.388  1.00  0.00    -0.027 C 
ATOM     12  C   UNL     1     -30.781 -26.853 -44.215  1.00  0.00     0.008 C 
ATOM     13  C   UNL     1     -31.780 -24.875 -41.026  1.00  0.00     0.008 C 
ATOM     14  C   UNL     1     -33.197 -28.837 -38.862  1.00  0.00     0.017 C 
ATOM     15  C   UNL     1     -34.761 -29.998 -40.605  1.00  0.00    -0.020 C 
ATOM     16  C   UNL     1     -35.542 -27.662 -41.340  1.00  0.00     0.032 C 
ATOM     17  C   UNL     1     -35.903 -28.916 -40.496  1.00  0.00     0.006 C 
ATOM     18  C   UNL     1     -34.821 -30.626 -42.037  1.00  0.00     0.008 C 
ATOM     19  C   UNL     1     -35.003 -31.112 -39.526  1.00  0.00     0.012 C 
ATOM     20  C   UNL     1     -37.404 -29.478 -40.761  1.00  0.00    -0.025 C 
ATOM     21  C   UNL     1     -36.199 -30.615 -42.749  1.00  0.00     0.005 C 
ATOM     22  C   UNL     1     -37.413 -30.705 -41.789  1.00  0.00     0.003 C 
ATOM     23  C   UNL     1     -38.343 -28.316 -41.262  1.00  0.00     0.010 C 
ATOM     24  C   UNL     1     -37.986 -29.945 -39.381  1.00  0.00     0.012 C 
ATOM     25  C   UNL     1     -38.805 -31.029 -42.509  1.00  0.00    -0.006 C 
ATOM     26  C   UNL     1     -39.712 -28.755 -41.782  1.00  0.00     0.033 C 
ATOM     27  C   UNL     1     -39.560 -29.739 -42.941  1.00  0.00     0.120 C 
ATOM     28  C   UNL     1     -39.714 -31.867 -41.562  1.00  0.00     0.014 C 
ATOM     29  C   UNL     1     -38.629 -31.929 -43.766  1.00  0.00     0.014 C 
ENDROOT
BRANCH   1  30
ATOM     30  C   UNL     1     -29.460 -29.030 -42.403  1.00  0.00     0.048 C 
ATOM     31  O   UNL     1     -29.786 -29.895 -43.262  1.00  0.00    -0.550 OA
ATOM     32  O   UNL     1     -28.127 -28.637 -42.329  1.00  0.00    -0.550 OA
ENDBRANCH   1  30
BRANCH  27  33
ATOM     33  O   UNL     1     -38.888 -29.097 -43.998  1.00  0.00    -0.393 OA
ATOM     34  H   UNL     1     -38.020 -29.559 -44.129  1.00  0.00     0.210 HD
ENDBRANCH  27  33
TORSDOF 2
ENDMDL
MODEL 2
REMARK VINA RESULT:    -6.377      8.306     11.965
REMARK INTER + INTRA:          -6.942
REMARK INTER:                  -6.935
REMARK INTRA:                  -0.007
REMARK UNBOUND:                -0.006
REMARK SMILES C[C@@H]1[C@@H](C)CC[C@@]2(C(=O)[O-])CC[C@@]3(C)C(=CC[C@H]4[C@@]5(C)CC[C@@H](O)C(C)(C)[C@H]5CC[C@]43C)[C@@H]12
REMARK SMILES IDX 7 1 6 2 11 3 33 4 5 5 12 6 15 7 2 8 3 9 13 10 16 11 1 12
REMARK SMILES IDX 4 13 14 14 31 15 17 16 18 17 30 18 32 19 19 20 29 21 28 22
REMARK SMILES IDX 21 23 20 24 25 25 22 26 23 27 26 28 27 29 8 30 9 31 10 32
REMARK SMILES IDX 24 33
REMARK H PARENT 24 34
REMARK Flexibility Score: inf
ROOT
ATOM      1  C   UNL     1     -44.065 -28.924 -40.064  1.00  0.00     0.017 C 
ATOM      2  C   UNL     1     -44.879 -27.927 -40.941  1.00  0.00     0.014 C 
ATOM      3  C   UNL     1     -42.550 -28.750 -40.416  1.00  0.00     0.014 C 
ATOM      4  C   UNL     1     -44.381 -28.660 -38.533  1.00  0.00     0.030 C 
ATOM      5  C   UNL     1     -46.388 -27.966 -40.679  1.00  0.00     0.004 C 
ATOM      6  C   UNL     1     -41.638 -28.620 -39.194  1.00  0.00     0.013 C 
ATOM      7  C   UNL     1     -43.505 -27.531 -37.903  1.00  0.00    -0.063 C 
ATOM      8  C   UNL     1     -45.937 -28.616 -38.241  1.00  0.00    -0.003 C 
ATOM      9  C   UNL     1     -46.732 -27.689 -39.207  1.00  0.00    -0.011 C 
ATOM     10  C   UNL     1     -42.017 -27.414 -38.266  1.00  0.00    -0.006 C 
ATOM     11  C   UNL     1     -43.958 -26.769 -36.886  1.00  0.00    -0.027 C 
ATOM     12  C   UNL     1     -46.575 -30.023 -38.207  1.00  0.00     0.008 C 
ATOM     13  C   UNL     1     -46.585 -26.197 -38.869  1.00  0.00     0.008 C 
ATOM     14  C   UNL     1     -41.860 -26.097 -39.092  1.00  0.00     0.017 C 
ATOM     15  C   UNL     1     -41.087 -27.368 -36.943  1.00  0.00    -0.020 C 
ATOM     16  C   UNL     1     -43.112 -26.363 -35.718  1.00  0.00     0.032 C 
ATOM     17  C   UNL     1     -41.578 -26.249 -35.946  1.00  0.00     0.006 C 
ATOM     18  C   UNL     1     -41.134 -28.740 -36.193  1.00  0.00     0.008 C 
ATOM     19  C   UNL     1     -39.614 -27.054 -37.383  1.00  0.00     0.012 C 
ATOM     20  C   UNL     1     -40.716 -26.128 -34.574  1.00  0.00    -0.025 C 
ATOM     21  C   UNL     1     -40.984 -28.702 -34.651  1.00  0.00     0.005 C 
ATOM     22  C   UNL     1     -40.105 -27.538 -34.125  1.00  0.00     0.003 C 
ATOM     23  C   UNL     1     -41.597 -25.504 -33.427  1.00  0.00     0.010 C 
ATOM     24  C   UNL     1     -39.552 -25.110 -34.834  1.00  0.00     0.012 C 
ATOM     25  C   UNL     1     -39.670 -27.676 -32.591  1.00  0.00    -0.006 C 
ATOM     26  C   UNL     1     -40.989 -25.564 -32.025  1.00  0.00     0.033 C 
ATOM     27  C   UNL     1     -40.691 -27.008 -31.626  1.00  0.00     0.120 C 
ATOM     28  C   UNL     1     -38.265 -27.041 -32.375  1.00  0.00     0.014 C 
ATOM     29  C   UNL     1     -39.492 -29.158 -32.155  1.00  0.00     0.014 C 
ENDROOT
BRANCH   1  30
ATOM     30  C   UNL     1     -44.414 -30.364 -40.440  1.00  0.00     0.048 C 
ATOM     31  O   UNL     1     -43.919 -31.326 -39.793  1.00  0.00    -0.550 OA
ATOM     32  O   UNL     1     -45.173 -30.644 -41.572  1.00  0.00    -0.550 OA
ENDBRANCH   1  30
BRANCH  27  33
ATOM     33  O   UNL     1     -41.899 -27.730 -31.598  1.00  0.00    -0.393 OA
ATOM     34  H   UNL     1     -41.746 -28.594 -32.062  1.00  0.00     0.210 HD
ENDBRANCH  27  33
TORSDOF 2
ENDMDL
MODEL 3
REMARK VINA RESULT:    -6.004      5.408     10.861
REMARK INTER + INTRA:          -6.537
REMARK INTER:                  -6.533
REMARK INTRA:                  -0.004
REMARK UNBOUND:                -0.006
REMARK SMILES C[C@@H]1[C@@H](C)CC[C@@]2(C(=O)[O-])CC[C@@]3(C)C(=CC[C@H]4[C@@]5(C)CC[C@@H](O)C(C)(C)[C@H]5CC[C@]43C)[C@@H]12
REMARK SMILES IDX 7 1 6 2 11 3 33 4 5 5 12 6 15 7 2 8 3 9 13 10 16 11 1 12
REMARK SMILES IDX 4 13 14 14 31 15 17 16 18 17 30 18 32 19 19 20 29 21 28 22
REMARK SMILES IDX 21 23 20 24 25 25 22 26 23 27 26 28 27 29 8 30 9 31 10 32
REMARK SMILES IDX 24 33
REMARK H PARENT 24 34
REMARK Flexibility Score: inf
ROOT
ATOM      1  C   UNL     1     -44.710 -27.221 -36.844  1.00  0.00     0.017 C 
ATOM      2  C   UNL     1     -46.077 -27.966 -36.893  1.00  0.00     0.014 C 
ATOM      3  C   UNL     1     -43.743 -28.046 -35.931  1.00  0.00     0.014 C 
ATOM      4  C   UNL     1     -44.160 -27.030 -38.318  1.00  0.00     0.030 C 
ATOM      5  C   UNL     1     -47.121 -27.282 -37.781  1.00  0.00     0.004 C 
ATOM      6  C   UNL     1     -42.361 -28.283 -36.544  1.00  0.00     0.013 C 
ATOM      7  C   UNL     1     -43.366 -28.265 -38.851  1.00  0.00    -0.063 C 
ATOM      8  C   UNL     1     -45.244 -26.397 -39.285  1.00  0.00    -0.003 C 
ATOM      9  C   UNL     1     -46.630 -27.104 -39.227  1.00  0.00    -0.011 C 
ATOM     10  C   UNL     1     -42.415 -29.032 -37.920  1.00  0.00    -0.006 C 
ATOM     11  C   UNL     1     -43.328 -28.569 -40.165  1.00  0.00    -0.027 C 
ATOM     12  C   UNL     1     -45.412 -24.875 -39.071  1.00  0.00     0.008 C 
ATOM     13  C   UNL     1     -46.662 -28.433 -39.997  1.00  0.00     0.008 C 
ATOM     14  C   UNL     1     -43.053 -30.438 -37.685  1.00  0.00     0.017 C 
ATOM     15  C   UNL     1     -40.941 -29.180 -38.572  1.00  0.00    -0.020 C 
ATOM     16  C   UNL     1     -42.091 -29.038 -40.868  1.00  0.00     0.032 C 
ATOM     17  C   UNL     1     -41.026 -29.792 -40.024  1.00  0.00     0.006 C 
ATOM     18  C   UNL     1     -40.245 -27.782 -38.676  1.00  0.00     0.008 C 
ATOM     19  C   UNL     1     -40.089 -30.132 -37.662  1.00  0.00     0.012 C 
ATOM     20  C   UNL     1     -39.596 -29.971 -40.775  1.00  0.00    -0.025 C 
ATOM     21  C   UNL     1     -39.267 -27.572 -39.860  1.00  0.00     0.005 C 
ATOM     22  C   UNL     1     -38.537 -28.860 -40.319  1.00  0.00     0.003 C 
ATOM     23  C   UNL     1     -39.793 -29.955 -42.338  1.00  0.00     0.010 C 
ATOM     24  C   UNL     1     -39.048 -31.396 -40.418  1.00  0.00     0.012 C 
ATOM     25  C   UNL     1     -37.297 -28.606 -41.299  1.00  0.00    -0.006 C 
ATOM     26  C   UNL     1     -38.508 -29.866 -43.162  1.00  0.00     0.033 C 
ATOM     27  C   UNL     1     -37.718 -28.610 -42.797  1.00  0.00     0.120 C 
ATOM     28  C   UNL     1     -36.203 -29.689 -41.068  1.00  0.00     0.014 C 
ATOM     29  C   UNL     1     -36.573 -27.261 -41.005  1.00  0.00     0.014 C 
ENDROOT
BRANCH   1  30
ATOM     30  C   UNL     1     -44.872 -25.866 -36.156  1.00  0.00     0.048 C 
ATOM     31  O   UNL     1     -43.889 -25.082 -36.060  1.00  0.00    -0.550 OA
ATOM     32  O   UNL     1     -46.059 -25.526 -35.515  1.00  0.00    -0.550 OA
ENDBRANCH   1  30
BRANCH  27  33
ATOM     33  O   UNL     1     -38.499 -27.479 -43.100  1.00  0.00    -0.393 OA
ATOM     34  H   UNL     1     -37.920 -26.832 -43.582  1.00  0.00     0.210 HD
ENDBRANCH  27  33
TORSDOF 2
ENDMDL
MODEL 4
REMARK VINA RESULT:    -5.965      3.853      7.541
REMARK INTER + INTRA:          -6.494
REMARK INTER:                  -6.489
REMARK INTRA:                  -0.006
REMARK UNBOUND:                -0.006
REMARK SMILES C[C@@H]1[C@@H](C)CC[C@@]2(C(=O)[O-])CC[C@@]3(C)C(=CC[C@H]4[C@@]5(C)CC[C@@H](O)C(C)(C)[C@H]5CC[C@]43C)[C@@H]12
REMARK SMILES IDX 7 1 6 2 11 3 33 4 5 5 12 6 15 7 2 8 3 9 13 10 16 11 1 12
REMARK SMILES IDX 4 13 14 14 31 15 17 16 18 17 30 18 32 19 19 20 29 21 28 22
REMARK SMILES IDX 21 23 20 24 25 25 22 26 23 27 26 28 27 29 8 30 9 31 10 32
REMARK SMILES IDX 24 33
REMARK H PARENT 24 34
REMARK Flexibility Score: inf
ROOT
ATOM      1  C   UNL     1     -32.122 -34.323 -37.955  1.00  0.00     0.017 C 
ATOM      2  C   UNL     1     -33.463 -35.092 -37.767  1.00  0.00     0.014 C 
ATOM      3  C   UNL     1     -31.639 -34.546 -39.426  1.00  0.00     0.014 C 
ATOM      4  C   UNL     1     -32.337 -32.793 -37.597  1.00  0.00     0.030 C 
ATOM      5  C   UNL     1     -34.073 -34.938 -36.370  1.00  0.00     0.004 C 
ATOM      6  C   UNL     1     -31.221 -33.261 -40.145  1.00  0.00     0.013 C 
ATOM      7  C   UNL     1     -32.885 -31.947 -38.789  1.00  0.00    -0.063 C 
ATOM      8  C   UNL     1     -33.039 -32.599 -36.190  1.00  0.00    -0.003 C 
ATOM      9  C   UNL     1     -34.318 -33.466 -36.000  1.00  0.00    -0.011 C 
ATOM     10  C   UNL     1     -32.365 -32.192 -40.214  1.00  0.00    -0.006 C 
ATOM     11  C   UNL     1     -33.658 -30.859 -38.588  1.00  0.00    -0.027 C 
ATOM     12  C   UNL     1     -32.068 -32.816 -35.008  1.00  0.00     0.008 C 
ATOM     13  C   UNL     1     -35.544 -32.901 -36.735  1.00  0.00     0.008 C 
ATOM     14  C   UNL     1     -33.553 -32.800 -41.026  1.00  0.00     0.017 C 
ATOM     15  C   UNL     1     -31.854 -30.819 -40.901  1.00  0.00    -0.020 C 
ATOM     16  C   UNL     1     -33.521 -29.592 -39.375  1.00  0.00     0.032 C 
ATOM     17  C   UNL     1     -32.963 -29.701 -40.823  1.00  0.00     0.006 C 
ATOM     18  C   UNL     1     -30.576 -30.286 -40.172  1.00  0.00     0.008 C 
ATOM     19  C   UNL     1     -31.524 -31.111 -42.407  1.00  0.00     0.012 C 
ATOM     20  C   UNL     1     -32.543 -28.273 -41.475  1.00  0.00    -0.025 C 
ATOM     21  C   UNL     1     -30.382 -28.748 -40.132  1.00  0.00     0.005 C 
ATOM     22  C   UNL     1     -30.970 -27.999 -41.356  1.00  0.00     0.003 C 
ATOM     23  C   UNL     1     -33.370 -27.105 -40.816  1.00  0.00     0.010 C 
ATOM     24  C   UNL     1     -32.958 -28.303 -42.987  1.00  0.00     0.012 C 
ATOM     25  C   UNL     1     -30.493 -26.478 -41.495  1.00  0.00    -0.006 C 
ATOM     26  C   UNL     1     -32.900 -25.691 -41.159  1.00  0.00     0.033 C 
ATOM     27  C   UNL     1     -31.441 -25.492 -40.752  1.00  0.00     0.120 C 
ATOM     28  C   UNL     1     -30.410 -26.079 -42.997  1.00  0.00     0.014 C 
ATOM     29  C   UNL     1     -29.050 -26.256 -40.958  1.00  0.00     0.014 C 
ENDROOT
BRANCH   1  30
ATOM     30  C   UNL     1     -31.036 -34.930 -37.067  1.00  0.00     0.048 C 
ATOM     31  O   UNL     1     -29.912 -34.368 -36.965  1.00  0.00    -0.550 OA
ATOM     32  O   UNL     1     -31.217 -36.169 -36.461  1.00  0.00    -0.550 OA
ENDBRANCH   1  30
BRANCH  27  33
ATOM     33  O   UNL     1     -31.333 -25.650 -39.357  1.00  0.00    -0.393 OA
ATOM     34  H   UNL     1     -30.368 -25.661 -39.128  1.00  0.00     0.210 HD
ENDBRANCH  27  33
TORSDOF 2
ENDMDL
MODEL 5
REMARK VINA RESULT:    -5.939      6.116     10.345
REMARK INTER + INTRA:          -6.466
REMARK INTER:                  -6.462
REMARK INTRA:                  -0.004
REMARK UNBOUND:                -0.006
REMARK SMILES C[C@@H]1[C@@H](C)CC[C@@]2(C(=O)[O-])CC[C@@]3(C)C(=CC[C@H]4[C@@]5(C)CC[C@@H](O)C(C)(C)[C@H]5CC[C@]43C)[C@@H]12
REMARK SMILES IDX 7 1 6 2 11 3 33 4 5 5 12 6 15 7 2 8 3 9 13 10 16 11 1 12
REMARK SMILES IDX 4 13 14 14 31 15 17 16 18 17 30 18 32 19 19 20 29 21 28 22
REMARK SMILES IDX 21 23 20 24 25 25 22 26 23 27 26 28 27 29 8 30 9 31 10 32
REMARK SMILES IDX 24 33
REMARK H PARENT 24 34
REMARK Flexibility Score: inf
ROOT
ATOM      1  C   UNL     1     -42.027 -26.029 -33.770  1.00  0.00     0.017 C 
ATOM      2  C   UNL     1     -41.062 -25.692 -32.595  1.00  0.00     0.014 C 
ATOM      3  C   UNL     1     -41.930 -24.875 -34.822  1.00  0.00     0.014 C 
ATOM      4  C   UNL     1     -41.653 -27.448 -34.369  1.00  0.00     0.030 C 
ATOM      5  C   UNL     1     -41.032 -26.758 -31.496  1.00  0.00     0.004 C 
ATOM      6  C   UNL     1     -41.751 -25.360 -36.263  1.00  0.00     0.013 C 
ATOM      7  C   UNL     1     -40.516 -27.392 -35.438  1.00  0.00    -0.063 C 
ATOM      8  C   UNL     1     -41.535 -28.561 -33.247  1.00  0.00    -0.003 C 
ATOM      9  C   UNL     1     -40.647 -28.144 -32.039  1.00  0.00    -0.011 C 
ATOM     10  C   UNL     1     -40.475 -26.248 -36.462  1.00  0.00    -0.006 C 
ATOM     11  C   UNL     1     -39.674 -28.429 -35.630  1.00  0.00    -0.027 C 
ATOM     12  C   UNL     1     -42.915 -29.051 -32.751  1.00  0.00     0.008 C 
ATOM     13  C   UNL     1     -39.142 -28.230 -32.338  1.00  0.00     0.008 C 
ATOM     14  C   UNL     1     -39.221 -25.382 -36.116  1.00  0.00     0.017 C 
ATOM     15  C   UNL     1     -40.374 -26.811 -37.976  1.00  0.00    -0.020 C 
ATOM     16  C   UNL     1     -39.221 -28.885 -36.984  1.00  0.00     0.032 C 
ATOM     17  C   UNL     1     -39.176 -27.826 -38.122  1.00  0.00     0.006 C 
ATOM     18  C   UNL     1     -41.692 -27.557 -38.370  1.00  0.00     0.008 C 
ATOM     19  C   UNL     1     -40.141 -25.597 -38.942  1.00  0.00     0.012 C 
ATOM     20  C   UNL     1     -38.996 -28.462 -39.606  1.00  0.00    -0.025 C 
ATOM     21  C   UNL     1     -41.558 -28.740 -39.363  1.00  0.00     0.005 C 
ATOM     22  C   UNL     1     -40.393 -28.592 -40.376  1.00  0.00     0.003 C 
ATOM     23  C   UNL     1     -38.267 -29.856 -39.519  1.00  0.00     0.010 C 
ATOM     24  C   UNL     1     -38.037 -27.519 -40.413  1.00  0.00     0.012 C 
ATOM     25  C   UNL     1     -40.445 -29.621 -41.600  1.00  0.00    -0.006 C 
ATOM     26  C   UNL     1     -38.256 -30.674 -40.811  1.00  0.00     0.033 C 
ATOM     27  C   UNL     1     -39.680 -30.941 -41.295  1.00  0.00     0.120 C 
ATOM     28  C   UNL     1     -39.847 -28.963 -42.878  1.00  0.00     0.014 C 
ATOM     29  C   UNL     1     -41.901 -29.990 -42.006  1.00  0.00     0.014 C 
ENDROOT
BRANCH   1  30
ATOM     30  C   UNL     1     -43.476 -26.022 -33.282  1.00  0.00     0.048 C 
ATOM     31  O   UNL     1     -44.410 -26.353 -34.062  1.00  0.00    -0.550 OA
ATOM     32  O   UNL     1     -43.804 -25.533 -32.022  1.00  0.00    -0.550 OA
ENDBRANCH   1  30
BRANCH  27  33
ATOM     33  O   UNL     1     -40.357 -31.697 -40.318  1.00  0.00    -0.393 OA
ATOM     34  H   UNL     1     -40.366 -31.167 -39.479  1.00  0.00     0.210 HD
ENDBRANCH  27  33
TORSDOF 2
ENDMDL
MODEL 6
REMARK VINA RESULT:    -5.887      2.190      7.767
REMARK INTER + INTRA:          -6.410
REMARK INTER:                  -6.407
REMARK INTRA:                  -0.003
REMARK UNBOUND:                -0.006
REMARK SMILES C[C@@H]1[C@@H](C)CC[C@@]2(C(=O)[O-])CC[C@@]3(C)C(=CC[C@H]4[C@@]5(C)CC[C@@H](O)C(C)(C)[C@H]5CC[C@]43C)[C@@H]12
REMARK SMILES IDX 7 1 6 2 11 3 33 4 5 5 12 6 15 7 2 8 3 9 13 10 16 11 1 12
REMARK SMILES IDX 4 13 14 14 31 15 17 16 18 17 30 18 32 19 19 20 29 21 28 22
REMARK SMILES IDX 21 23 20 24 25 25 22 26 23 27 26 28 27 29 8 30 9 31 10 32
REMARK SMILES IDX 24 33
REMARK H PARENT 24 34
REMARK Flexibility Score: inf
ROOT
ATOM      1  C   UNL     1     -37.699 -31.407 -39.706  1.00  0.00     0.017 C 
ATOM      2  C   UNL     1     -38.364 -32.397 -40.707  1.00  0.00     0.014 C 
ATOM      3  C   UNL     1     -36.485 -32.137 -39.040  1.00  0.00     0.014 C 
ATOM      4  C   UNL     1     -37.283 -30.083 -40.471  1.00  0.00     0.030 C 
ATOM      5  C   UNL     1     -39.559 -31.803 -41.460  1.00  0.00     0.004 C 
ATOM      6  C   UNL     1     -35.194 -31.314 -39.029  1.00  0.00     0.013 C 
ATOM      7  C   UNL     1     -35.887 -30.177 -41.165  1.00  0.00    -0.063 C 
ATOM      8  C   UNL     1     -38.475 -29.484 -41.325  1.00  0.00    -0.003 C 
ATOM      9  C   UNL     1     -39.184 -30.529 -42.236  1.00  0.00    -0.011 C 
ATOM     10  C   UNL     1     -34.721 -30.889 -40.462  1.00  0.00    -0.006 C 
ATOM     11  C   UNL     1     -35.604 -29.477 -42.284  1.00  0.00    -0.027 C 
ATOM     12  C   UNL     1     -39.515 -28.743 -40.454  1.00  0.00     0.008 C 
ATOM     13  C   UNL     1     -38.387 -30.861 -43.507  1.00  0.00     0.008 C 
ATOM     14  C   UNL     1     -34.427 -32.185 -41.283  1.00  0.00     0.017 C 
ATOM     15  C   UNL     1     -33.407 -29.947 -40.397  1.00  0.00    -0.020 C 
ATOM     16  C   UNL     1     -34.289 -28.799 -42.522  1.00  0.00     0.032 C 
ATOM     17  C   UNL     1     -33.034 -29.399 -41.828  1.00  0.00     0.006 C 
ATOM     18  C   UNL     1     -33.658 -28.721 -39.458  1.00  0.00     0.008 C 
ATOM     19  C   UNL     1     -32.211 -30.802 -39.847  1.00  0.00     0.012 C 
ATOM     20  C   UNL     1     -31.732 -28.428 -41.871  1.00  0.00    -0.025 C 
ATOM     21  C   UNL     1     -32.923 -27.403 -39.815  1.00  0.00     0.005 C 
ATOM     22  C   UNL     1     -31.552 -27.605 -40.510  1.00  0.00     0.003 C 
ATOM     23  C   UNL     1     -31.812 -27.459 -43.110  1.00  0.00     0.010 C 
ATOM     24  C   UNL     1     -30.473 -29.335 -42.107  1.00  0.00     0.012 C 
ATOM     25  C   UNL     1     -30.644 -26.290 -40.581  1.00  0.00    -0.006 C 
ATOM     26  C   UNL     1     -30.779 -26.331 -43.131  1.00  0.00     0.033 C 
ATOM     27  C   UNL     1     -30.897 -25.467 -41.877  1.00  0.00     0.120 C 
ATOM     28  C   UNL     1     -29.138 -26.675 -40.501  1.00  0.00     0.014 C 
ATOM     29  C   UNL     1     -30.864 -25.349 -39.362  1.00  0.00     0.014 C 
ENDROOT
BRANCH   1  30
ATOM     30  C   UNL     1     -38.662 -31.083 -38.565  1.00  0.00     0.048 C 
ATOM     31  O   UNL     1     -38.381 -30.176 -37.735  1.00  0.00    -0.550 OA
ATOM     32  O   UNL     1     -39.796 -31.858 -38.343  1.00  0.00    -0.550 OA
ENDBRANCH   1  30
BRANCH  27  33
ATOM     33  O   UNL     1     -32.174 -24.875 -41.852  1.00  0.00    -0.393 OA
ATOM     34  H   UNL     1     -32.530 -24.885 -42.779  1.00  0.00     0.210 HD
ENDBRANCH  27  33
TORSDOF 2
ENDMDL
MODEL 7
REMARK VINA RESULT:    -5.873      3.245      6.325
REMARK INTER + INTRA:          -6.394
REMARK INTER:                  -6.388
REMARK INTRA:                  -0.006
REMARK UNBOUND:                -0.006
REMARK SMILES C[C@@H]1[C@@H](C)CC[C@@]2(C(=O)[O-])CC[C@@]3(C)C(=CC[C@H]4[C@@]5(C)CC[C@@H](O)C(C)(C)[C@H]5CC[C@]43C)[C@@H]12
REMARK SMILES IDX 7 1 6 2 11 3 33 4 5 5 12 6 15 7 2 8 3 9 13 10 16 11 1 12
REMARK SMILES IDX 4 13 14 14 31 15 17 16 18 17 30 18 32 19 19 20 29 21 28 22
REMARK SMILES IDX 21 23 20 24 25 25 22 26 23 27 26 28 27 29 8 30 9 31 10 32
REMARK SMILES IDX 24 33
REMARK H PARENT 24 34
REMARK Flexibility Score: inf
ROOT
ATOM      1  C   UNL     1     -35.411 -30.957 -41.879  1.00  0.00     0.017 C 
ATOM      2  C   UNL     1     -35.074 -32.475 -41.793  1.00  0.00     0.014 C 
ATOM      3  C   UNL     1     -36.471 -30.761 -43.013  1.00  0.00     0.014 C 
ATOM      4  C   UNL     1     -35.914 -30.448 -40.465  1.00  0.00     0.030 C 
ATOM      5  C   UNL     1     -34.062 -32.822 -40.695  1.00  0.00     0.004 C 
ATOM      6  C   UNL     1     -37.665 -29.894 -42.607  1.00  0.00     0.013 C 
ATOM      7  C   UNL     1     -37.440 -30.681 -40.226  1.00  0.00    -0.063 C 
ATOM      8  C   UNL     1     -34.929 -30.858 -39.294  1.00  0.00    -0.003 C 
ATOM      9  C   UNL     1     -34.531 -32.363 -39.305  1.00  0.00    -0.011 C 
ATOM     10  C   UNL     1     -38.443 -30.457 -41.368  1.00  0.00    -0.006 C 
ATOM     11  C   UNL     1     -37.941 -30.879 -38.989  1.00  0.00    -0.027 C 
ATOM     12  C   UNL     1     -33.664 -29.972 -39.246  1.00  0.00     0.008 C 
ATOM     13  C   UNL     1     -35.633 -33.283 -38.754  1.00  0.00     0.008 C 
ATOM     14  C   UNL     1     -39.011 -31.862 -41.747  1.00  0.00     0.017 C 
ATOM     15  C   UNL     1     -39.639 -29.464 -40.918  1.00  0.00    -0.020 C 
ATOM     16  C   UNL     1     -39.227 -30.276 -38.513  1.00  0.00     0.032 C 
ATOM     17  C   UNL     1     -40.312 -29.961 -39.581  1.00  0.00     0.006 C 
ATOM     18  C   UNL     1     -39.089 -28.020 -40.676  1.00  0.00     0.008 C 
ATOM     19  C   UNL     1     -40.717 -29.439 -42.058  1.00  0.00     0.012 C 
ATOM     20  C   UNL     1     -41.521 -29.023 -39.034  1.00  0.00    -0.025 C 
ATOM     21  C   UNL     1     -39.802 -27.171 -39.593  1.00  0.00     0.005 C 
ATOM     22  C   UNL     1     -41.311 -27.485 -39.427  1.00  0.00     0.003 C 
ATOM     23  C   UNL     1     -41.682 -29.191 -37.476  1.00  0.00     0.010 C 
ATOM     24  C   UNL     1     -42.855 -29.550 -39.670  1.00  0.00     0.012 C 
ATOM     25  C   UNL     1     -42.123 -26.407 -38.566  1.00  0.00    -0.006 C 
ATOM     26  C   UNL     1     -42.614 -28.185 -36.799  1.00  0.00     0.033 C 
ATOM     27  C   UNL     1     -42.140 -26.755 -37.050  1.00  0.00     0.120 C 
ATOM     28  C   UNL     1     -43.586 -26.300 -39.087  1.00  0.00     0.014 C 
ATOM     29  C   UNL     1     -41.553 -24.969 -38.725  1.00  0.00     0.014 C 
ENDROOT
BRANCH   1  30
ATOM     30  C   UNL     1     -34.180 -30.168 -42.323  1.00  0.00     0.048 C 
ATOM     31  O   UNL     1     -34.207 -28.907 -42.339  1.00  0.00    -0.550 OA
ATOM     32  O   UNL     1     -33.061 -30.815 -42.835  1.00  0.00    -0.550 OA
ENDBRANCH   1  30
BRANCH  27  33
ATOM     33  O   UNL     1     -40.860 -26.596 -36.486  1.00  0.00    -0.393 OA
ATOM     34  H   UNL     1     -40.779 -25.655 -36.180  1.00  0.00     0.210 HD
ENDBRANCH  27  33
TORSDOF 2
ENDMDL
MODEL 8
REMARK VINA RESULT:    -5.839      4.448      7.518
REMARK INTER + INTRA:          -6.357
REMARK INTER:                  -6.364
REMARK INTRA:                   0.007
REMARK UNBOUND:                -0.006
REMARK SMILES C[C@@H]1[C@@H](C)CC[C@@]2(C(=O)[O-])CC[C@@]3(C)C(=CC[C@H]4[C@@]5(C)CC[C@@H](O)C(C)(C)[C@H]5CC[C@]43C)[C@@H]12
REMARK SMILES IDX 7 1 6 2 11 3 33 4 5 5 12 6 15 7 2 8 3 9 13 10 16 11 1 12
REMARK SMILES IDX 4 13 14 14 31 15 17 16 18 17 30 18 32 19 19 20 29 21 28 22
REMARK SMILES IDX 21 23 20 24 25 25 22 26 23 27 26 28 27 29 8 30 9 31 10 32
REMARK SMILES IDX 24 33
REMARK H PARENT 24 34
REMARK Flexibility Score: inf
ROOT
ATOM      1  C   UNL     1     -37.905 -30.058 -41.447  1.00  0.00     0.017 C 
ATOM      2  C   UNL     1     -36.633 -29.378 -40.859  1.00  0.00     0.014 C 
ATOM      3  C   UNL     1     -38.293 -31.250 -40.510  1.00  0.00     0.014 C 
ATOM      4  C   UNL     1     -39.059 -28.981 -41.591  1.00  0.00     0.030 C 
ATOM      5  C   UNL     1     -36.152 -28.167 -41.664  1.00  0.00     0.004 C 
ATOM      6  C   UNL     1     -39.774 -31.284 -40.128  1.00  0.00     0.013 C 
ATOM      7  C   UNL     1     -39.884 -28.774 -40.282  1.00  0.00    -0.063 C 
ATOM      8  C   UNL     1     -38.573 -27.678 -42.351  1.00  0.00    -0.003 C 
ATOM      9  C   UNL     1     -37.241 -27.089 -41.802  1.00  0.00    -0.011 C 
ATOM     10  C   UNL     1     -40.256 -29.980 -39.405  1.00  0.00    -0.006 C 
ATOM     11  C   UNL     1     -40.464 -27.591 -39.989  1.00  0.00    -0.027 C 
ATOM     12  C   UNL     1     -38.474 -27.886 -43.879  1.00  0.00     0.008 C 
ATOM     13  C   UNL     1     -37.422 -26.306 -40.492  1.00  0.00     0.008 C 
ATOM     14  C   UNL     1     -39.448 -29.833 -38.076  1.00  0.00     0.017 C 
ATOM     15  C   UNL     1     -41.845 -30.023 -39.100  1.00  0.00    -0.020 C 
ATOM     16  C   UNL     1     -41.833 -27.468 -39.393  1.00  0.00     0.032 C 
ATOM     17  C   UNL     1     -42.345 -28.646 -38.517  1.00  0.00     0.006 C 
ATOM     18  C   UNL     1     -42.645 -30.312 -40.413  1.00  0.00     0.008 C 
ATOM     19  C   UNL     1     -42.118 -31.156 -38.050  1.00  0.00     0.012 C 
ATOM     20  C   UNL     1     -43.935 -28.579 -38.188  1.00  0.00    -0.025 C 
ATOM     21  C   UNL     1     -44.058 -29.683 -40.526  1.00  0.00     0.005 C 
ATOM     22  C   UNL     1     -44.789 -29.512 -39.170  1.00  0.00     0.003 C 
ATOM     23  C   UNL     1     -44.443 -27.089 -38.242  1.00  0.00     0.010 C 
ATOM     24  C   UNL     1     -44.133 -29.055 -36.707  1.00  0.00     0.012 C 
ATOM     25  C   UNL     1     -46.350 -29.183 -39.295  1.00  0.00    -0.006 C 
ATOM     26  C   UNL     1     -45.961 -26.910 -38.197  1.00  0.00     0.033 C 
ATOM     27  C   UNL     1     -46.628 -27.653 -39.353  1.00  0.00     0.120 C 
ATOM     28  C   UNL     1     -47.125 -29.802 -38.095  1.00  0.00     0.014 C 
ATOM     29  C   UNL     1     -46.997 -29.838 -40.548  1.00  0.00     0.014 C 
ENDROOT
BRANCH   1  30
ATOM     30  C   UNL     1     -37.589 -30.685 -42.804  1.00  0.00     0.048 C 
ATOM     31  O   UNL     1     -38.523 -31.079 -43.554  1.00  0.00    -0.550 OA
ATOM     32  O   UNL     1     -36.276 -30.949 -43.183  1.00  0.00    -0.550 OA
ENDBRANCH   1  30
BRANCH  27  33
ATOM     33  O   UNL     1     -46.170 -27.107 -40.568  1.00  0.00    -0.393 OA
ATOM     34  H   UNL     1     -46.454 -27.715 -41.299  1.00  0.00     0.210 HD
ENDBRANCH  27  33
TORSDOF 2
ENDMDL
MODEL 9
REMARK VINA RESULT:    -5.833      3.426      9.088
REMARK INTER + INTRA:          -6.350
REMARK INTER:                  -6.345
REMARK INTRA:                  -0.005
REMARK UNBOUND:                -0.006
REMARK SMILES C[C@@H]1[C@@H](C)CC[C@@]2(C(=O)[O-])CC[C@@]3(C)C(=CC[C@H]4[C@@]5(C)CC[C@@H](O)C(C)(C)[C@H]5CC[C@]43C)[C@@H]12
REMARK SMILES IDX 7 1 6 2 11 3 33 4 5 5 12 6 15 7 2 8 3 9 13 10 16 11 1 12
REMARK SMILES IDX 4 13 14 14 31 15 17 16 18 17 30 18 32 19 19 20 29 21 28 22
REMARK SMILES IDX 21 23 20 24 25 25 22 26 23 27 26 28 27 29 8 30 9 31 10 32
REMARK SMILES IDX 24 33
REMARK H PARENT 24 34
REMARK Flexibility Score: inf
ROOT
ATOM      1  C   UNL     1     -42.670 -29.940 -40.220  1.00  0.00     0.017 C 
ATOM      2  C   UNL     1     -43.427 -28.627 -40.580  1.00  0.00     0.014 C 
ATOM      3  C   UNL     1     -42.301 -30.667 -41.555  1.00  0.00     0.014 C 
ATOM      4  C   UNL     1     -41.404 -29.593 -39.331  1.00  0.00     0.030 C 
ATOM      5  C   UNL     1     -43.827 -27.791 -39.361  1.00  0.00     0.004 C 
ATOM      6  C   UNL     1     -40.844 -31.131 -41.629  1.00  0.00     0.013 C 
ATOM      7  C   UNL     1     -40.145 -29.204 -40.168  1.00  0.00    -0.063 C 
ATOM      8  C   UNL     1     -41.771 -28.662 -38.103  1.00  0.00    -0.003 C 
ATOM      9  C   UNL     1     -42.618 -27.414 -38.489  1.00  0.00    -0.011 C 
ATOM     10  C   UNL     1     -39.815 -29.960 -41.464  1.00  0.00    -0.006 C 
ATOM     11  C   UNL     1     -39.212 -28.354 -39.690  1.00  0.00    -0.027 C 
ATOM     12  C   UNL     1     -42.456 -29.437 -36.955  1.00  0.00     0.008 C 
ATOM     13  C   UNL     1     -41.786 -26.297 -39.139  1.00  0.00     0.008 C 
ATOM     14  C   UNL     1     -40.030 -28.953 -42.639  1.00  0.00     0.017 C 
ATOM     15  C   UNL     1     -38.291 -30.507 -41.458  1.00  0.00    -0.020 C 
ATOM     16  C   UNL     1     -37.739 -28.553 -39.879  1.00  0.00     0.032 C 
ATOM     17  C   UNL     1     -37.276 -29.344 -41.135  1.00  0.00     0.006 C 
ATOM     18  C   UNL     1     -38.114 -31.620 -40.373  1.00  0.00     0.008 C 
ATOM     19  C   UNL     1     -37.969 -31.092 -42.877  1.00  0.00     0.012 C 
ATOM     20  C   UNL     1     -35.715 -29.792 -41.092  1.00  0.00    -0.025 C 
ATOM     21  C   UNL     1     -36.722 -31.727 -39.699  1.00  0.00     0.005 C 
ATOM     22  C   UNL     1     -35.539 -31.309 -40.610  1.00  0.00     0.003 C 
ATOM     23  C   UNL     1     -34.889 -28.811 -40.177  1.00  0.00     0.010 C 
ATOM     24  C   UNL     1     -35.135 -29.631 -42.540  1.00  0.00     0.012 C 
ATOM     25  C   UNL     1     -34.097 -31.724 -40.056  1.00  0.00    -0.006 C 
ATOM     26  C   UNL     1     -33.463 -29.258 -39.852  1.00  0.00     0.033 C 
ATOM     27  C   UNL     1     -33.469 -30.619 -39.158  1.00  0.00     0.120 C 
ATOM     28  C   UNL     1     -33.136 -32.031 -41.242  1.00  0.00     0.014 C 
ATOM     29  C   UNL     1     -34.132 -33.047 -39.239  1.00  0.00     0.014 C 
ENDROOT
BRANCH   1  30
ATOM     30  C   UNL     1     -43.600 -30.896 -39.472  1.00  0.00     0.048 C 
ATOM     31  O   UNL     1     -43.151 -31.973 -38.995  1.00  0.00    -0.550 OA
ATOM     32  O   UNL     1     -44.970 -30.663 -39.415  1.00  0.00    -0.550 OA
ENDBRANCH   1  30
BRANCH  27  33
ATOM     33  O   UNL     1     -34.168 -30.506 -37.941  1.00  0.00    -0.393 OA
ATOM     34  H   UNL     1     -33.499 -30.393 -37.217  1.00  0.00     0.210 HD
ENDBRANCH  27  33
TORSDOF 2
ENDMDL
