MODEL 1
REMARK VINA RESULT:    -4.812      0.000      0.000
REMARK INTER + INTRA:          -6.601
REMARK INTER:                  -6.500
REMARK INTRA:                  -0.102
REMARK UNBOUND:                -0.102
REMARK SMILES O=C[C@@H](O)[C@H](O)[C@H](O)CO
REMARK SMILES IDX 7 1 9 2 10 3 5 5 3 6 2 7 1 8 4 9 6 11 8 13
REMARK H PARENT 10 4 4 10 6 12 8 14
REMARK Flexibility Score: inf
ROOT
ATOM      1  C   UNL     1       6.525   5.459   2.103  1.00  0.00     0.171 C 
ENDROOT
BRANCH   1   2
ATOM      2  C   UNL     1       5.798   4.207   1.582  1.00  0.00     0.190 C 
BRANCH   2   3
ATOM      3  O   UNL     1       6.373   3.770   0.381  1.00  0.00    -0.394 OA
ATOM      4  H   UNL     1       6.817   4.563  -0.017  1.00  0.00     0.210 HD
ENDBRANCH   2   3
ENDBRANCH   1   2
BRANCH   1   5
ATOM      5  C   UNL     1       5.580   6.664   2.363  1.00  0.00     0.181 C 
BRANCH   5   6
ATOM      6  C   UNL     1       4.135   6.466   1.831  1.00  0.00     0.209 C 
BRANCH   6   7
ATOM      7  C   UNL     1       3.147   6.198   2.939  1.00  0.00     0.258 C 
ATOM      8  O   UNL     1       2.317   5.308   2.833  1.00  0.00    -0.300 OA
ENDBRANCH   6   7
BRANCH   6   9
ATOM      9  O   UNL     1       3.719   7.581   1.083  1.00  0.00    -0.383 OA
ATOM     10  H   UNL     1       3.208   7.249   0.299  1.00  0.00     0.211 HD
ENDBRANCH   6   9
ENDBRANCH   5   6
BRANCH   5  11
ATOM     11  O   UNL     1       6.139   7.822   1.793  1.00  0.00    -0.387 OA
ATOM     12  H   UNL     1       5.520   8.124   1.077  1.00  0.00     0.211 HD
ENDBRANCH   5  11
ENDBRANCH   1   5
BRANCH   1  13
ATOM     13  O   UNL     1       7.492   5.832   1.155  1.00  0.00    -0.388 OA
ATOM     14  H   UNL     1       8.173   5.109   1.134  1.00  0.00     0.211 HD
ENDBRANCH   1  13
TORSDOF 8
ENDMDL
MODEL 2
REMARK VINA RESULT:    -4.734      1.529      2.014
REMARK INTER + INTRA:          -6.496
REMARK INTER:                  -5.734
REMARK INTRA:                  -0.762
REMARK UNBOUND:                -0.102
REMARK SMILES O=C[C@@H](O)[C@H](O)[C@H](O)CO
REMARK SMILES IDX 7 1 9 2 10 3 5 5 3 6 2 7 1 8 4 9 6 11 8 13
REMARK H PARENT 10 4 4 10 6 12 8 14
REMARK Flexibility Score: inf
ROOT
ATOM      1  C   UNL     1       5.924   5.700   2.375  1.00  0.00     0.171 C 
ENDROOT
BRANCH   1   2
ATOM      2  C   UNL     1       6.498   4.382   1.827  1.00  0.00     0.190 C 
BRANCH   2   3
ATOM      3  O   UNL     1       5.664   3.861   0.828  1.00  0.00    -0.394 OA
ATOM      4  H   UNL     1       5.965   4.271  -0.024  1.00  0.00     0.210 HD
ENDBRANCH   2   3
ENDBRANCH   1   2
BRANCH   1   5
ATOM      5  C   UNL     1       4.374   5.785   2.295  1.00  0.00     0.181 C 
BRANCH   5   6
ATOM      6  C   UNL     1       3.766   7.016   3.020  1.00  0.00     0.209 C 
BRANCH   6   7
ATOM      7  C   UNL     1       4.221   7.121   4.453  1.00  0.00     0.258 C 
ATOM      8  O   UNL     1       3.901   6.274   5.273  1.00  0.00    -0.300 OA
ENDBRANCH   6   7
BRANCH   6   9
ATOM      9  O   UNL     1       4.075   8.204   2.333  1.00  0.00    -0.383 OA
ATOM     10  H   UNL     1       3.547   8.216   1.493  1.00  0.00     0.211 HD
ENDBRANCH   6   9
ENDBRANCH   5   6
BRANCH   5  11
ATOM     11  O   UNL     1       3.818   4.605   2.821  1.00  0.00    -0.387 OA
ATOM     12  H   UNL     1       4.437   3.862   2.592  1.00  0.00     0.211 HD
ENDBRANCH   5  11
ENDBRANCH   1   5
BRANCH   1  13
ATOM     13  O   UNL     1       6.478   6.761   1.640  1.00  0.00    -0.388 OA
ATOM     14  H   UNL     1       5.728   7.215   1.173  1.00  0.00     0.211 HD
ENDBRANCH   1  13
TORSDOF 8
ENDMDL
MODEL 3
REMARK VINA RESULT:    -4.731      1.501      4.012
REMARK INTER + INTRA:          -6.491
REMARK INTER:                  -6.135
REMARK INTRA:                  -0.357
REMARK UNBOUND:                -0.102
REMARK SMILES O=C[C@@H](O)[C@H](O)[C@H](O)CO
REMARK SMILES IDX 7 1 9 2 10 3 5 5 3 6 2 7 1 8 4 9 6 11 8 13
REMARK H PARENT 10 4 4 10 6 12 8 14
REMARK Flexibility Score: inf
ROOT
ATOM      1  C   UNL     1       4.404   5.695   2.953  1.00  0.00     0.171 C 
ENDROOT
BRANCH   1   2
ATOM      2  C   UNL     1       4.409   7.107   2.341  1.00  0.00     0.190 C 
BRANCH   2   3
ATOM      3  O   UNL     1       3.916   7.075   1.030  1.00  0.00    -0.394 OA
ATOM      4  H   UNL     1       2.993   7.438   1.073  1.00  0.00     0.210 HD
ENDBRANCH   2   3
ENDBRANCH   1   2
BRANCH   1   5
ATOM      5  C   UNL     1       5.522   4.771   2.397  1.00  0.00     0.181 C 
BRANCH   5   6
ATOM      6  C   UNL     1       6.928   5.429   2.353  1.00  0.00     0.209 C 
BRANCH   6   7
ATOM      7  C   UNL     1       7.901   4.767   3.296  1.00  0.00     0.258 C 
ATOM      8  O   UNL     1       8.108   5.231   4.406  1.00  0.00    -0.300 OA
ENDBRANCH   6   7
BRANCH   6   9
ATOM      9  O   UNL     1       7.446   5.416   1.046  1.00  0.00    -0.383 OA
ATOM     10  H   UNL     1       7.374   6.336   0.681  1.00  0.00     0.211 HD
ENDBRANCH   6   9
ENDBRANCH   5   6
BRANCH   5  11
ATOM     11  O   UNL     1       5.164   4.335   1.109  1.00  0.00    -0.387 OA
ATOM     12  H   UNL     1       5.627   3.470   0.953  1.00  0.00     0.211 HD
ENDBRANCH   5  11
ENDBRANCH   1   5
BRANCH   1  13
ATOM     13  O   UNL     1       3.154   5.108   2.693  1.00  0.00    -0.388 OA
ATOM     14  H   UNL     1       2.578   5.290   3.482  1.00  0.00     0.211 HD
ENDBRANCH   1  13
TORSDOF 8
ENDMDL
MODEL 4
REMARK VINA RESULT:    -4.726      0.976      3.542
REMARK INTER + INTRA:          -6.486
REMARK INTER:                  -6.088
REMARK INTRA:                  -0.398
REMARK UNBOUND:                -0.102
REMARK SMILES O=C[C@@H](O)[C@H](O)[C@H](O)CO
REMARK SMILES IDX 7 1 9 2 10 3 5 5 3 6 2 7 1 8 4 9 6 11 8 13
REMARK H PARENT 10 4 4 10 6 12 8 14
REMARK Flexibility Score: inf
ROOT
ATOM      1  C   UNL     1       4.362   6.337   1.809  1.00  0.00     0.171 C 
ENDROOT
BRANCH   1   2
ATOM      2  C   UNL     1       3.174   6.067   2.749  1.00  0.00     0.190 C 
BRANCH   2   3
ATOM      3  O   UNL     1       3.037   4.693   2.982  1.00  0.00    -0.394 OA
ATOM      4  H   UNL     1       2.545   4.605   3.840  1.00  0.00     0.210 HD
ENDBRANCH   2   3
ENDBRANCH   1   2
BRANCH   1   5
ATOM      5  C   UNL     1       5.724   6.460   2.546  1.00  0.00     0.181 C 
BRANCH   5   6
ATOM      6  C   UNL     1       6.840   5.541   1.979  1.00  0.00     0.209 C 
BRANCH   6   7
ATOM      7  C   UNL     1       6.287   4.280   1.365  1.00  0.00     0.258 C 
ATOM      8  O   UNL     1       6.506   4.007   0.195  1.00  0.00    -0.300 OA
ENDBRANCH   6   7
BRANCH   6   9
ATOM      9  O   UNL     1       7.622   6.229   1.034  1.00  0.00    -0.383 OA
ATOM     10  H   UNL     1       8.537   6.324   1.407  1.00  0.00     0.211 HD
ENDBRANCH   6   9
ENDBRANCH   5   6
BRANCH   5  11
ATOM     11  O   UNL     1       5.537   6.187   3.913  1.00  0.00    -0.387 OA
ATOM     12  H   UNL     1       4.903   5.424   3.976  1.00  0.00     0.211 HD
ENDBRANCH   5  11
ENDBRANCH   1   5
BRANCH   1  13
ATOM     13  O   UNL     1       4.110   7.532   1.113  1.00  0.00    -0.388 OA
ATOM     14  H   UNL     1       4.367   8.279   1.716  1.00  0.00     0.211 HD
ENDBRANCH   1  13
TORSDOF 8
ENDMDL
MODEL 5
REMARK VINA RESULT:    -4.691      1.231      2.357
REMARK INTER + INTRA:          -6.438
REMARK INTER:                  -5.972
REMARK INTRA:                  -0.466
REMARK UNBOUND:                -0.102
REMARK SMILES O=C[C@@H](O)[C@H](O)[C@H](O)CO
REMARK SMILES IDX 7 1 9 2 10 3 5 5 3 6 2 7 1 8 4 9 6 11 8 13
REMARK H PARENT 10 4 4 10 6 12 8 14
REMARK Flexibility Score: inf
ROOT
ATOM      1  C   UNL     1       5.625   5.013   1.877  1.00  0.00     0.171 C 
ENDROOT
BRANCH   1   2
ATOM      2  C   UNL     1       7.157   4.973   2.020  1.00  0.00     0.190 C 
BRANCH   2   3
ATOM      3  O   UNL     1       7.758   5.834   1.093  1.00  0.00    -0.394 OA
ATOM      4  H   UNL     1       8.431   5.290   0.607  1.00  0.00     0.210 HD
ENDBRANCH   2   3
ENDBRANCH   1   2
BRANCH   1   5
ATOM      5  C   UNL     1       4.890   5.449   3.175  1.00  0.00     0.181 C 
BRANCH   5   6
ATOM      6  C   UNL     1       3.472   6.035   2.937  1.00  0.00     0.209 C 
BRANCH   6   7
ATOM      7  C   UNL     1       3.427   6.961   1.747  1.00  0.00     0.258 C 
ATOM      8  O   UNL     1       3.928   8.073   1.802  1.00  0.00    -0.300 OA
ENDBRANCH   6   7
BRANCH   6   9
ATOM      9  O   UNL     1       2.526   5.008   2.779  1.00  0.00    -0.383 OA
ATOM     10  H   UNL     1       1.696   5.412   2.412  1.00  0.00     0.211 HD
ENDBRANCH   6   9
ENDBRANCH   5   6
BRANCH   5  11
ATOM     11  O   UNL     1       5.681   6.388   3.861  1.00  0.00    -0.387 OA
ATOM     12  H   UNL     1       5.846   7.144   3.239  1.00  0.00     0.211 HD
ENDBRANCH   5  11
ENDBRANCH   1   5
BRANCH   1  13
ATOM     13  O   UNL     1       5.183   3.730   1.511  1.00  0.00    -0.388 OA
ATOM     14  H   UNL     1       4.474   3.852   0.826  1.00  0.00     0.211 HD
ENDBRANCH   1  13
TORSDOF 8
ENDMDL
MODEL 6
REMARK VINA RESULT:    -4.600      1.875      4.108
REMARK INTER + INTRA:          -6.315
REMARK INTER:                  -5.794
REMARK INTRA:                  -0.521
REMARK UNBOUND:                -0.102
REMARK SMILES O=C[C@@H](O)[C@H](O)[C@H](O)CO
REMARK SMILES IDX 7 1 9 2 10 3 5 5 3 6 2 7 1 8 4 9 6 11 8 13
REMARK H PARENT 10 4 4 10 6 12 8 14
REMARK Flexibility Score: inf
ROOT
ATOM      1  C   UNL     1       2.654   5.560   3.714  1.00  0.00     0.171 C 
ENDROOT
BRANCH   1   2
ATOM      2  C   UNL     1       1.716   5.718   4.924  1.00  0.00     0.190 C 
BRANCH   2   3
ATOM      3  O   UNL     1       2.292   5.149   6.068  1.00  0.00    -0.394 OA
ATOM      4  H   UNL     1       3.199   5.545   6.146  1.00  0.00     0.210 HD
ENDBRANCH   2   3
ENDBRANCH   1   2
BRANCH   1   5
ATOM      5  C   UNL     1       3.688   6.711   3.575  1.00  0.00     0.181 C 
BRANCH   5   6
ATOM      6  C   UNL     1       4.660   6.551   2.374  1.00  0.00     0.209 C 
BRANCH   6   7
ATOM      7  C   UNL     1       5.216   5.153   2.269  1.00  0.00     0.258 C 
ATOM      8  O   UNL     1       5.228   4.566   1.198  1.00  0.00    -0.300 OA
ENDBRANCH   6   7
BRANCH   6   9
ATOM      9  O   UNL     1       4.029   6.905   1.169  1.00  0.00    -0.383 OA
ATOM     10  H   UNL     1       3.862   6.072   0.656  1.00  0.00     0.211 HD
ENDBRANCH   6   9
ENDBRANCH   5   6
BRANCH   5  11
ATOM     11  O   UNL     1       4.425   6.818   4.768  1.00  0.00    -0.387 OA
ATOM     12  H   UNL     1       5.098   6.088   4.764  1.00  0.00     0.211 HD
ENDBRANCH   5  11
ENDBRANCH   1   5
BRANCH   1  13
ATOM     13  O   UNL     1       1.867   5.509   2.551  1.00  0.00    -0.388 OA
ATOM     14  H   UNL     1       2.441   5.809   1.798  1.00  0.00     0.211 HD
ENDBRANCH   1  13
TORSDOF 8
ENDMDL
MODEL 7
REMARK VINA RESULT:    -4.599      1.796      4.361
REMARK INTER + INTRA:          -6.314
REMARK INTER:                  -5.828
REMARK INTRA:                  -0.486
REMARK UNBOUND:                -0.102
REMARK SMILES O=C[C@@H](O)[C@H](O)[C@H](O)CO
REMARK SMILES IDX 7 1 9 2 10 3 5 5 3 6 2 7 1 8 4 9 6 11 8 13
REMARK H PARENT 10 4 4 10 6 12 8 14
REMARK Flexibility Score: inf
ROOT
ATOM      1  C   UNL     1       2.978   6.328   3.884  1.00  0.00     0.171 C 
ENDROOT
BRANCH   1   2
ATOM      2  C   UNL     1       2.263   6.028   5.213  1.00  0.00     0.190 C 
BRANCH   2   3
ATOM      3  O   UNL     1       0.915   6.405   5.141  1.00  0.00    -0.394 OA
ATOM      4  H   UNL     1       0.414   5.589   4.880  1.00  0.00     0.210 HD
ENDBRANCH   2   3
ENDBRANCH   1   2
BRANCH   1   5
ATOM      5  C   UNL     1       3.994   5.231   3.463  1.00  0.00     0.181 C 
BRANCH   5   6
ATOM      6  C   UNL     1       5.065   5.711   2.447  1.00  0.00     0.209 C 
BRANCH   6   7
ATOM      7  C   UNL     1       5.849   4.566   1.856  1.00  0.00     0.258 C 
ATOM      8  O   UNL     1       5.496   4.042   0.811  1.00  0.00    -0.300 OA
ENDBRANCH   6   7
BRANCH   6   9
ATOM      9  O   UNL     1       4.475   6.466   1.418  1.00  0.00    -0.383 OA
ATOM     10  H   UNL     1       4.249   7.360   1.787  1.00  0.00     0.211 HD
ENDBRANCH   6   9
ENDBRANCH   5   6
BRANCH   5  11
ATOM     11  O   UNL     1       3.295   4.133   2.930  1.00  0.00    -0.387 OA
ATOM     12  H   UNL     1       3.485   3.352   3.513  1.00  0.00     0.211 HD
ENDBRANCH   5  11
ENDBRANCH   1   5
BRANCH   1  13
ATOM     13  O   UNL     1       3.655   7.552   4.015  1.00  0.00    -0.388 OA
ATOM     14  H   UNL     1       4.574   7.415   3.662  1.00  0.00     0.211 HD
ENDBRANCH   1  13
TORSDOF 8
ENDMDL
MODEL 8
REMARK VINA RESULT:    -4.590      1.394      2.301
REMARK INTER + INTRA:          -6.301
REMARK INTER:                  -5.981
REMARK INTRA:                  -0.320
REMARK UNBOUND:                -0.102
REMARK SMILES O=C[C@@H](O)[C@H](O)[C@H](O)CO
REMARK SMILES IDX 7 1 9 2 10 3 5 5 3 6 2 7 1 8 4 9 6 11 8 13
REMARK H PARENT 10 4 4 10 6 12 8 14
REMARK Flexibility Score: inf
ROOT
ATOM      1  C   UNL     1       5.228   6.364   2.795  1.00  0.00     0.171 C 
ENDROOT
BRANCH   1   2
ATOM      2  C   UNL     1       5.456   4.874   2.485  1.00  0.00     0.190 C 
BRANCH   2   3
ATOM      3  O   UNL     1       5.202   4.610   1.133  1.00  0.00    -0.394 OA
ATOM      4  H   UNL     1       5.409   3.649   0.995  1.00  0.00     0.210 HD
ENDBRANCH   2   3
ENDBRANCH   1   2
BRANCH   1   5
ATOM      5  C   UNL     1       3.729   6.763   2.866  1.00  0.00     0.181 C 
BRANCH   5   6
ATOM      6  C   UNL     1       2.816   5.692   3.523  1.00  0.00     0.209 C 
BRANCH   6   7
ATOM      7  C   UNL     1       2.314   6.120   4.879  1.00  0.00     0.258 C 
ATOM      8  O   UNL     1       1.148   6.448   5.038  1.00  0.00    -0.300 OA
ENDBRANCH   6   7
BRANCH   6   9
ATOM      9  O   UNL     1       1.729   5.381   2.688  1.00  0.00    -0.383 OA
ATOM     10  H   UNL     1       0.923   5.830   3.056  1.00  0.00     0.211 HD
ENDBRANCH   6   9
ENDBRANCH   5   6
BRANCH   5  11
ATOM     11  O   UNL     1       3.264   7.049   1.571  1.00  0.00    -0.387 OA
ATOM     12  H   UNL     1       2.840   6.222   1.221  1.00  0.00     0.211 HD
ENDBRANCH   5  11
ENDBRANCH   1   5
BRANCH   1  13
ATOM     13  O   UNL     1       5.856   7.123   1.792  1.00  0.00    -0.388 OA
ATOM     14  H   UNL     1       5.164   7.333   1.111  1.00  0.00     0.211 HD
ENDBRANCH   1  13
TORSDOF 8
ENDMDL
MODEL 9
REMARK VINA RESULT:    -4.532      1.260      2.379
REMARK INTER + INTRA:          -6.223
REMARK INTER:                  -5.809
REMARK INTRA:                  -0.414
REMARK UNBOUND:                -0.102
REMARK SMILES O=C[C@@H](O)[C@H](O)[C@H](O)CO
REMARK SMILES IDX 7 1 9 2 10 3 5 5 3 6 2 7 1 8 4 9 6 11 8 13
REMARK H PARENT 10 4 4 10 6 12 8 14
REMARK Flexibility Score: inf
ROOT
ATOM      1  C   UNL     1       6.006   7.664   2.702  1.00  0.00     0.171 C 
ENDROOT
BRANCH   1   2
ATOM      2  C   UNL     1       7.274   6.831   2.444  1.00  0.00     0.190 C 
BRANCH   2   3
ATOM      3  O   UNL     1       7.429   6.585   1.074  1.00  0.00    -0.394 OA
ATOM      4  H   UNL     1       7.745   5.648   0.995  1.00  0.00     0.210 HD
ENDBRANCH   2   3
ENDBRANCH   1   2
BRANCH   1   5
ATOM      5  C   UNL     1       4.687   6.888   2.433  1.00  0.00     0.181 C 
BRANCH   5   6
ATOM      6  C   UNL     1       4.788   5.358   2.674  1.00  0.00     0.209 C 
BRANCH   6   7
ATOM      7  C   UNL     1       3.537   4.792   3.299  1.00  0.00     0.258 C 
ATOM      8  O   UNL     1       2.433   5.129   2.900  1.00  0.00    -0.300 OA
ENDBRANCH   6   7
BRANCH   6   9
ATOM      9  O   UNL     1       5.071   4.680   1.476  1.00  0.00    -0.383 OA
ATOM     10  H   UNL     1       5.986   4.937   1.189  1.00  0.00     0.211 HD
ENDBRANCH   6   9
ENDBRANCH   5   6
BRANCH   5  11
ATOM     11  O   UNL     1       4.267   7.132   1.113  1.00  0.00    -0.387 OA
ATOM     12  H   UNL     1       3.683   7.935   1.135  1.00  0.00     0.211 HD
ENDBRANCH   5  11
ENDBRANCH   1   5
BRANCH   1  13
ATOM     13  O   UNL     1       6.047   8.797   1.872  1.00  0.00    -0.388 OA
ATOM     14  H   UNL     1       5.135   9.191   1.873  1.00  0.00     0.211 HD
ENDBRANCH   1  13
TORSDOF 8
ENDMDL
