MODEL 1
REMARK VINA RESULT:    -4.258      0.000      0.000
REMARK INTER + INTRA:          -6.699
REMARK INTER:                  -5.877
REMARK INTRA:                  -0.823
REMARK UNBOUND:                -0.823
REMARK SMILES OC[C@H](O)C(O)[C@@H](O)CO
REMARK SMILES IDX 5 1 7 2 9 3 10 4 8 6 3 8 2 9 1 10 4 12 6 14
REMARK H PARENT 10 5 8 7 1 11 4 13 6 15
REMARK Flexibility Score: inf
ROOT
ATOM      1  C   UNL     1      -9.599   3.748 -10.100  1.00  0.00     0.176 C 
ENDROOT
BRANCH   1   2
ATOM      2  C   UNL     1     -10.398   3.869  -8.771  1.00  0.00     0.171 C 
BRANCH   2   3
ATOM      3  C   UNL     1     -11.382   2.707  -8.543  1.00  0.00     0.190 C 
BRANCH   3   4
ATOM      4  O   UNL     1     -10.724   1.549  -8.101  1.00  0.00    -0.394 OA
ATOM      5  H   UNL     1     -10.897   1.474  -7.125  1.00  0.00     0.210 HD
ENDBRANCH   3   4
ENDBRANCH   2   3
BRANCH   2   6
ATOM      6  O   UNL     1     -11.084   5.094  -8.696  1.00  0.00    -0.388 OA
ATOM      7  H   UNL     1     -11.962   4.915  -8.269  1.00  0.00     0.211 HD
ENDBRANCH   2   6
ENDBRANCH   1   2
BRANCH   1   8
ATOM      8  C   UNL     1      -8.059   3.904  -9.953  1.00  0.00     0.171 C 
BRANCH   8   9
ATOM      9  C   UNL     1      -7.524   3.141  -8.727  1.00  0.00     0.190 C 
BRANCH   9  10
ATOM     10  O   UNL     1      -7.761   1.764  -8.848  1.00  0.00    -0.394 OA
ATOM     11  H   UNL     1      -8.338   1.644  -9.646  1.00  0.00     0.210 HD
ENDBRANCH   9  10
ENDBRANCH   8   9
BRANCH   8  12
ATOM     12  O   UNL     1      -7.719   5.262  -9.839  1.00  0.00    -0.388 OA
ATOM     13  H   UNL     1      -6.730   5.319  -9.901  1.00  0.00     0.211 HD
ENDBRANCH   8  12
ENDBRANCH   1   8
BRANCH   1  14
ATOM     14  O   UNL     1      -9.929   2.545 -10.752  1.00  0.00    -0.388 OA
ATOM     15  H   UNL     1     -10.686   2.131 -10.264  1.00  0.00     0.211 HD
ENDBRANCH   1  14
TORSDOF 9
ENDMDL
MODEL 2
REMARK VINA RESULT:    -4.220      1.428      1.692
REMARK INTER + INTRA:          -6.647
REMARK INTER:                  -5.946
REMARK INTRA:                  -0.701
REMARK UNBOUND:                -0.823
REMARK SMILES OC[C@H](O)C(O)[C@@H](O)CO
REMARK SMILES IDX 5 1 7 2 9 3 10 4 8 6 3 8 2 9 1 10 4 12 6 14
REMARK H PARENT 10 5 8 7 1 11 4 13 6 15
REMARK Flexibility Score: inf
ROOT
ATOM      1  C   UNL     1      -8.527   3.216  -9.744  1.00  0.00     0.176 C 
ENDROOT
BRANCH   1   2
ATOM      2  C   UNL     1      -9.770   4.115  -9.482  1.00  0.00     0.171 C 
BRANCH   2   3
ATOM      3  C   UNL     1     -11.062   3.312  -9.239  1.00  0.00     0.190 C 
BRANCH   3   4
ATOM      4  O   UNL     1     -11.069   2.110  -9.961  1.00  0.00    -0.394 OA
ATOM      5  H   UNL     1     -10.367   2.188 -10.660  1.00  0.00     0.210 HD
ENDBRANCH   3   4
ENDBRANCH   2   3
BRANCH   2   6
ATOM      6  O   UNL     1      -9.970   5.031 -10.530  1.00  0.00    -0.388 OA
ATOM      7  H   UNL     1      -9.405   5.824 -10.340  1.00  0.00     0.211 HD
ENDBRANCH   2   6
ENDBRANCH   1   2
BRANCH   1   8
ATOM      8  C   UNL     1      -7.170   3.973  -9.772  1.00  0.00     0.171 C 
BRANCH   8   9
ATOM      9  C   UNL     1      -6.236   3.511  -8.637  1.00  0.00     0.190 C 
BRANCH   9  10
ATOM     10  O   UNL     1      -6.713   3.937  -7.388  1.00  0.00    -0.394 OA
ATOM     11  H   UNL     1      -6.722   3.137  -6.801  1.00  0.00     0.210 HD
ENDBRANCH   9  10
ENDBRANCH   8   9
BRANCH   8  12
ATOM     12  O   UNL     1      -7.384   5.357  -9.663  1.00  0.00    -0.388 OA
ATOM     13  H   UNL     1      -7.981   5.497  -8.883  1.00  0.00     0.211 HD
ENDBRANCH   8  12
ENDBRANCH   1   8
BRANCH   1  14
ATOM     14  O   UNL     1      -8.499   2.153  -8.822  1.00  0.00    -0.388 OA
ATOM     15  H   UNL     1      -9.352   2.165  -8.317  1.00  0.00     0.211 HD
ENDBRANCH   1  14
TORSDOF 9
ENDMDL
MODEL 3
REMARK VINA RESULT:    -4.105      1.117      3.900
REMARK INTER + INTRA:          -6.487
REMARK INTER:                  -5.751
REMARK INTRA:                  -0.736
REMARK UNBOUND:                -0.823
REMARK SMILES OC[C@H](O)C(O)[C@@H](O)CO
REMARK SMILES IDX 5 1 7 2 9 3 10 4 8 6 3 8 2 9 1 10 4 12 6 14
REMARK H PARENT 10 5 8 7 1 11 4 13 6 15
REMARK Flexibility Score: inf
ROOT
ATOM      1  C   UNL     1      -9.757   3.671 -10.097  1.00  0.00     0.176 C 
ENDROOT
BRANCH   1   2
ATOM      2  C   UNL     1      -8.527   3.467  -9.167  1.00  0.00     0.171 C 
BRANCH   2   3
ATOM      3  C   UNL     1      -7.236   4.106  -9.714  1.00  0.00     0.190 C 
BRANCH   3   4
ATOM      4  O   UNL     1      -7.268   5.505  -9.614  1.00  0.00    -0.394 OA
ATOM      5  H   UNL     1      -6.769   5.861 -10.395  1.00  0.00     0.210 HD
ENDBRANCH   3   4
ENDBRANCH   2   3
BRANCH   2   6
ATOM      6  O   UNL     1      -8.306   2.104  -8.901  1.00  0.00    -0.388 OA
ATOM      7  H   UNL     1      -7.324   1.960  -8.893  1.00  0.00     0.211 HD
ENDBRANCH   2   6
ENDBRANCH   1   2
BRANCH   1   8
ATOM      8  C   UNL     1     -11.111   3.190  -9.503  1.00  0.00     0.171 C 
BRANCH   8   9
ATOM      9  C   UNL     1     -11.351   3.764  -8.094  1.00  0.00     0.190 C 
BRANCH   9  10
ATOM     10  O   UNL     1     -11.432   5.164  -8.127  1.00  0.00    -0.394 OA
ATOM     11  H   UNL     1     -12.395   5.391  -8.197  1.00  0.00     0.210 HD
ENDBRANCH   9  10
ENDBRANCH   8   9
BRANCH   8  12
ATOM     12  O   UNL     1     -11.144   1.787  -9.445  1.00  0.00    -0.388 OA
ATOM     13  H   UNL     1     -11.394   1.466 -10.351  1.00  0.00     0.211 HD
ENDBRANCH   8  12
ENDBRANCH   1   8
BRANCH   1  14
ATOM     14  O   UNL     1      -9.830   5.014 -10.511  1.00  0.00    -0.388 OA
ATOM     15  H   UNL     1     -10.356   5.513  -9.835  1.00  0.00     0.211 HD
ENDBRANCH   1  14
TORSDOF 9
ENDMDL
MODEL 4
REMARK VINA RESULT:    -4.080      0.645      1.794
REMARK INTER + INTRA:          -6.454
REMARK INTER:                  -6.104
REMARK INTRA:                  -0.350
REMARK UNBOUND:                -0.823
REMARK SMILES OC[C@H](O)C(O)[C@@H](O)CO
REMARK SMILES IDX 5 1 7 2 9 3 10 4 8 6 3 8 2 9 1 10 4 12 6 14
REMARK H PARENT 10 5 8 7 1 11 4 13 6 15
REMARK Flexibility Score: inf
ROOT
ATOM      1  C   UNL     1      -9.500   3.452  -9.501  1.00  0.00     0.176 C 
ENDROOT
BRANCH   1   2
ATOM      2  C   UNL     1     -10.663   3.498  -8.469  1.00  0.00     0.171 C 
BRANCH   2   3
ATOM      3  C   UNL     1     -11.839   2.573  -8.834  1.00  0.00     0.190 C 
BRANCH   3   4
ATOM      4  O   UNL     1     -11.512   1.221  -8.653  1.00  0.00    -0.394 OA
ATOM      5  H   UNL     1     -12.000   0.709  -9.351  1.00  0.00     0.210 HD
ENDBRANCH   3   4
ENDBRANCH   2   3
BRANCH   2   6
ATOM      6  O   UNL     1     -11.131   4.810  -8.283  1.00  0.00    -0.388 OA
ATOM      7  H   UNL     1     -11.099   5.263  -9.165  1.00  0.00     0.211 HD
ENDBRANCH   2   6
ENDBRANCH   1   2
BRANCH   1   8
ATOM      8  C   UNL     1      -8.095   3.187  -8.890  1.00  0.00     0.171 C 
BRANCH   8   9
ATOM      9  C   UNL     1      -7.010   4.049  -9.562  1.00  0.00     0.190 C 
BRANCH   9  10
ATOM     10  O   UNL     1      -7.469   5.356  -9.783  1.00  0.00    -0.394 OA
ATOM     11  H   UNL     1      -8.200   5.290 -10.451  1.00  0.00     0.210 HD
ENDBRANCH   9  10
ENDBRANCH   8   9
BRANCH   8  12
ATOM     12  O   UNL     1      -7.758   1.830  -9.020  1.00  0.00    -0.388 OA
ATOM     13  H   UNL     1      -6.773   1.765  -8.912  1.00  0.00     0.211 HD
ENDBRANCH   8  12
ENDBRANCH   1   8
BRANCH   1  14
ATOM     14  O   UNL     1      -9.796   2.526 -10.518  1.00  0.00    -0.388 OA
ATOM     15  H   UNL     1     -10.769   2.573 -10.701  1.00  0.00     0.211 HD
ENDBRANCH   1  14
TORSDOF 9
ENDMDL
MODEL 5
REMARK VINA RESULT:    -4.075      0.712      2.416
REMARK INTER + INTRA:          -6.446
REMARK INTER:                  -5.900
REMARK INTRA:                  -0.547
REMARK UNBOUND:                -0.823
REMARK SMILES OC[C@H](O)C(O)[C@@H](O)CO
REMARK SMILES IDX 5 1 7 2 9 3 10 4 8 6 3 8 2 9 1 10 4 12 6 14
REMARK H PARENT 10 5 8 7 1 11 4 13 6 15
REMARK Flexibility Score: inf
ROOT
ATOM      1  C   UNL     1      -9.673   3.268  -9.475  1.00  0.00     0.176 C 
ENDROOT
BRANCH   1   2
ATOM      2  C   UNL     1     -10.796   2.665  -8.584  1.00  0.00     0.171 C 
BRANCH   2   3
ATOM      3  C   UNL     1     -11.659   3.732  -7.885  1.00  0.00     0.190 C 
BRANCH   3   4
ATOM      4  O   UNL     1     -11.253   5.031  -8.226  1.00  0.00    -0.394 OA
ATOM      5  H   UNL     1     -11.432   5.144  -9.196  1.00  0.00     0.210 HD
ENDBRANCH   3   4
ENDBRANCH   2   3
BRANCH   2   6
ATOM      6  O   UNL     1     -10.272   1.777  -7.629  1.00  0.00    -0.388 OA
ATOM      7  H   UNL     1      -9.294   1.941  -7.579  1.00  0.00     0.211 HD
ENDBRANCH   2   6
ENDBRANCH   1   2
BRANCH   1   8
ATOM      8  C   UNL     1      -8.248   3.215  -8.854  1.00  0.00     0.171 C 
BRANCH   8   9
ATOM      9  C   UNL     1      -7.306   4.248  -9.500  1.00  0.00     0.190 C 
BRANCH   9  10
ATOM     10  O   UNL     1      -8.032   5.220 -10.205  1.00  0.00    -0.394 OA
ATOM     11  H   UNL     1      -8.866   5.379  -9.692  1.00  0.00     0.210 HD
ENDBRANCH   9  10
ENDBRANCH   8   9
BRANCH   8  12
ATOM     12  O   UNL     1      -7.702   1.930  -9.005  1.00  0.00    -0.388 OA
ATOM     13  H   UNL     1      -7.080   1.969  -9.778  1.00  0.00     0.211 HD
ENDBRANCH   8  12
ENDBRANCH   1   8
BRANCH   1  14
ATOM     14  O   UNL     1      -9.696   2.671 -10.749  1.00  0.00    -0.388 OA
ATOM     15  H   UNL     1      -9.464   1.713 -10.641  1.00  0.00     0.211 HD
ENDBRANCH   1  14
TORSDOF 9
ENDMDL
MODEL 6
REMARK VINA RESULT:    -4.001      1.214      1.918
REMARK INTER + INTRA:          -6.345
REMARK INTER:                  -5.754
REMARK INTRA:                  -0.591
REMARK UNBOUND:                -0.823
REMARK SMILES OC[C@H](O)C(O)[C@@H](O)CO
REMARK SMILES IDX 5 1 7 2 9 3 10 4 8 6 3 8 2 9 1 10 4 12 6 14
REMARK H PARENT 10 5 8 7 1 11 4 13 6 15
REMARK Flexibility Score: inf
ROOT
ATOM      1  C   UNL     1      -9.028   4.194  -9.801  1.00  0.00     0.176 C 
ENDROOT
BRANCH   1   2
ATOM      2  C   UNL     1     -10.440   3.684 -10.209  1.00  0.00     0.171 C 
BRANCH   2   3
ATOM      3  C   UNL     1     -11.492   3.849  -9.096  1.00  0.00     0.190 C 
BRANCH   3   4
ATOM      4  O   UNL     1     -10.920   3.737  -7.820  1.00  0.00    -0.394 OA
ATOM      5  H   UNL     1     -11.611   3.341  -7.227  1.00  0.00     0.210 HD
ENDBRANCH   3   4
ENDBRANCH   2   3
BRANCH   2   6
ATOM      6  O   UNL     1     -10.399   2.343 -10.629  1.00  0.00    -0.388 OA
ATOM      7  H   UNL     1      -9.652   2.259 -11.276  1.00  0.00     0.211 HD
ENDBRANCH   2   6
ENDBRANCH   1   2
BRANCH   1   8
ATOM      8  C   UNL     1      -7.902   3.124  -9.874  1.00  0.00     0.171 C 
BRANCH   8   9
ATOM      9  C   UNL     1      -7.605   2.514  -8.491  1.00  0.00     0.190 C 
BRANCH   9  10
ATOM     10  O   UNL     1      -8.703   1.781  -8.017  1.00  0.00    -0.394 OA
ATOM     11  H   UNL     1      -9.107   1.334  -8.805  1.00  0.00     0.210 HD
ENDBRANCH   9  10
ENDBRANCH   8   9
BRANCH   8  12
ATOM     12  O   UNL     1      -6.727   3.692 -10.393  1.00  0.00    -0.388 OA
ATOM     13  H   UNL     1      -6.971   4.130 -11.250  1.00  0.00     0.211 HD
ENDBRANCH   8  12
ENDBRANCH   1   8
BRANCH   1  14
ATOM     14  O   UNL     1      -8.694   5.337 -10.551  1.00  0.00    -0.388 OA
ATOM     15  H   UNL     1      -8.556   5.055 -11.491  1.00  0.00     0.211 HD
ENDBRANCH   1  14
TORSDOF 9
ENDMDL
MODEL 7
REMARK VINA RESULT:    -4.000      1.289      3.527
REMARK INTER + INTRA:          -6.343
REMARK INTER:                  -5.630
REMARK INTRA:                  -0.712
REMARK UNBOUND:                -0.823
REMARK SMILES OC[C@H](O)C(O)[C@@H](O)CO
REMARK SMILES IDX 5 1 7 2 9 3 10 4 8 6 3 8 2 9 1 10 4 12 6 14
REMARK H PARENT 10 5 8 7 1 11 4 13 6 15
REMARK Flexibility Score: inf
ROOT
ATOM      1  C   UNL     1      -9.498   4.209  -9.373  1.00  0.00     0.176 C 
ENDROOT
BRANCH   1   2
ATOM      2  C   UNL     1      -8.000   4.151  -9.790  1.00  0.00     0.171 C 
BRANCH   2   3
ATOM      3  C   UNL     1      -7.183   3.120  -8.990  1.00  0.00     0.190 C 
BRANCH   3   4
ATOM      4  O   UNL     1      -7.736   1.834  -9.085  1.00  0.00    -0.394 OA
ATOM      5  H   UNL     1      -8.687   1.907  -8.806  1.00  0.00     0.210 HD
ENDBRANCH   3   4
ENDBRANCH   2   3
BRANCH   2   6
ATOM      6  O   UNL     1      -7.393   5.416  -9.694  1.00  0.00    -0.388 OA
ATOM      7  H   UNL     1      -8.072   6.043  -9.332  1.00  0.00     0.211 HD
ENDBRANCH   2   6
ENDBRANCH   1   2
BRANCH   1   8
ATOM      8  C   UNL     1     -10.498   3.734 -10.465  1.00  0.00     0.171 C 
BRANCH   8   9
ATOM      9  C   UNL     1     -11.960   3.920 -10.018  1.00  0.00     0.190 C 
BRANCH   9  10
ATOM     10  O   UNL     1     -12.360   2.885  -9.159  1.00  0.00    -0.394 OA
ATOM     11  H   UNL     1     -12.338   2.049  -9.693  1.00  0.00     0.210 HD
ENDBRANCH   9  10
ENDBRANCH   8   9
BRANCH   8  12
ATOM     12  O   UNL     1     -10.274   2.382 -10.772  1.00  0.00    -0.388 OA
ATOM     13  H   UNL     1     -10.655   1.849 -10.026  1.00  0.00     0.211 HD
ENDBRANCH   8  12
ENDBRANCH   1   8
BRANCH   1  14
ATOM     14  O   UNL     1      -9.689   3.508  -8.168  1.00  0.00    -0.388 OA
ATOM     15  H   UNL     1     -10.538   3.002  -8.241  1.00  0.00     0.211 HD
ENDBRANCH   1  14
TORSDOF 9
ENDMDL
MODEL 8
REMARK VINA RESULT:    -3.808      1.232      3.910
REMARK INTER + INTRA:          -6.078
REMARK INTER:                  -5.796
REMARK INTRA:                  -0.282
REMARK UNBOUND:                -0.823
REMARK SMILES OC[C@H](O)C(O)[C@@H](O)CO
REMARK SMILES IDX 5 1 7 2 9 3 10 4 8 6 3 8 2 9 1 10 4 12 6 14
REMARK H PARENT 10 5 8 7 1 11 4 13 6 15
REMARK Flexibility Score: inf
ROOT
ATOM      1  C   UNL     1      -9.654   3.260  -8.950  1.00  0.00     0.176 C 
ENDROOT
BRANCH   1   2
ATOM      2  C   UNL     1      -8.854   3.951 -10.092  1.00  0.00     0.171 C 
BRANCH   2   3
ATOM      3  C   UNL     1      -7.372   4.186  -9.743  1.00  0.00     0.190 C 
BRANCH   3   4
ATOM      4  O   UNL     1      -7.127   5.524  -9.400  1.00  0.00    -0.394 OA
ATOM      5  H   UNL     1      -7.446   6.080 -10.159  1.00  0.00     0.210 HD
ENDBRANCH   3   4
ENDBRANCH   2   3
BRANCH   2   6
ATOM      6  O   UNL     1      -9.450   5.165 -10.474  1.00  0.00    -0.388 OA
ATOM      7  H   UNL     1      -8.847   5.896 -10.179  1.00  0.00     0.211 HD
ENDBRANCH   2   6
ENDBRANCH   1   2
BRANCH   1   8
ATOM      8  C   UNL     1     -11.128   2.914  -9.303  1.00  0.00     0.171 C 
BRANCH   8   9
ATOM      9  C   UNL     1     -12.117   3.883  -8.629  1.00  0.00     0.190 C 
BRANCH   9  10
ATOM     10  O   UNL     1     -11.445   4.978  -8.064  1.00  0.00    -0.394 OA
ATOM     11  H   UNL     1     -11.373   5.665  -8.776  1.00  0.00     0.210 HD
ENDBRANCH   9  10
ENDBRANCH   8   9
BRANCH   8  12
ATOM     12  O   UNL     1     -11.424   1.599  -8.909  1.00  0.00    -0.388 OA
ATOM     13  H   UNL     1     -11.034   1.473  -8.005  1.00  0.00     0.211 HD
ENDBRANCH   8  12
ENDBRANCH   1   8
BRANCH   1  14
ATOM     14  O   UNL     1      -8.959   2.125  -8.494  1.00  0.00    -0.388 OA
ATOM     15  H   UNL     1      -9.058   2.082  -7.509  1.00  0.00     0.211 HD
ENDBRANCH   1  14
TORSDOF 9
ENDMDL
MODEL 9
REMARK VINA RESULT:    -3.764      1.000      3.198
REMARK INTER + INTRA:          -6.017
REMARK INTER:                  -5.526
REMARK INTRA:                  -0.491
REMARK UNBOUND:                -0.823
REMARK SMILES OC[C@H](O)C(O)[C@@H](O)CO
REMARK SMILES IDX 5 1 7 2 9 3 10 4 8 6 3 8 2 9 1 10 4 12 6 14
REMARK H PARENT 10 5 8 7 1 11 4 13 6 15
REMARK Flexibility Score: inf
ROOT
ATOM      1  C   UNL     1     -10.254   2.882  -9.819  1.00  0.00     0.176 C 
ENDROOT
BRANCH   1   2
ATOM      2  C   UNL     1      -8.939   3.618 -10.206  1.00  0.00     0.171 C 
BRANCH   2   3
ATOM      3  C   UNL     1      -7.776   3.339  -9.237  1.00  0.00     0.190 C 
BRANCH   3   4
ATOM      4  O   UNL     1      -7.579   1.963  -9.047  1.00  0.00    -0.394 OA
ATOM      5  H   UNL     1      -8.479   1.551  -8.965  1.00  0.00     0.210 HD
ENDBRANCH   3   4
ENDBRANCH   2   3
BRANCH   2   6
ATOM      6  O   UNL     1      -9.142   5.005 -10.318  1.00  0.00    -0.388 OA
ATOM      7  H   UNL     1      -9.495   5.323  -9.446  1.00  0.00     0.211 HD
ENDBRANCH   2   6
ENDBRANCH   1   2
BRANCH   1   8
ATOM      8  C   UNL     1     -10.795   3.215  -8.401  1.00  0.00     0.171 C 
BRANCH   8   9
ATOM      9  C   UNL     1     -12.009   2.341  -8.034  1.00  0.00     0.190 C 
BRANCH   9  10
ATOM     10  O   UNL     1     -11.831   1.021  -8.474  1.00  0.00    -0.394 OA
ATOM     11  H   UNL     1     -11.608   0.482  -7.672  1.00  0.00     0.210 HD
ENDBRANCH   9  10
ENDBRANCH   8   9
BRANCH   8  12
ATOM     12  O   UNL     1     -11.160   4.570  -8.327  1.00  0.00    -0.388 OA
ATOM     13  H   UNL     1     -11.554   4.812  -9.206  1.00  0.00     0.211 HD
ENDBRANCH   8  12
ENDBRANCH   1   8
BRANCH   1  14
ATOM     14  O   UNL     1     -11.236   3.101 -10.804  1.00  0.00    -0.388 OA
ATOM     15  H   UNL     1     -11.755   2.263 -10.908  1.00  0.00     0.211 HD
ENDBRANCH   1  14
TORSDOF 9
ENDMDL
