MODEL 1
REMARK VINA RESULT:    -3.217      0.000      0.000
REMARK INTER + INTRA:          -5.049
REMARK INTER:                  -4.909
REMARK INTRA:                  -0.139
REMARK UNBOUND:                -0.139
REMARK SMILES CC1=CCC[C@H](C)C(=O)C[C@H](C(C)C)C(=O)C1
REMARK SMILES IDX 8 1 9 2 6 3 7 4 5 5 4 6 3 7 2 8 1 9 10 11 11 12 15 13 16 14
REMARK SMILES IDX 17 15 12 17 13 18 14 19
REMARK H PARENT
REMARK Flexibility Score: 70.00
ROOT
ATOM      1  C   UNL     1     151.659 159.953 201.340  1.00  0.00     0.136 C 
ATOM      2  O   UNL     1     150.970 159.827 202.340  1.00  0.00    -0.299 OA
ENDROOT
BRANCH   1   3
ATOM      3  C   UNL     1     152.570 161.165 201.236  1.00  0.00     0.053 C 
ATOM      4  C   UNL     1     152.285 162.117 202.408  1.00  0.00     0.016 C 
BRANCH   3   5
ATOM      5  C   UNL     1     154.066 160.734 201.223  1.00  0.00     0.015 C 
BRANCH   5   6
ATOM      6  C   UNL     1     154.723 160.544 199.831  1.00  0.00     0.028 C 
BRANCH   6   7
ATOM      7  C   UNL     1     155.043 159.126 199.418  1.00  0.00    -0.028 C 
ATOM      8  C   UNL     1     154.544 158.494 198.334  1.00  0.00    -0.070 CG0
ATOM      9  C   UNL     1     154.857 157.023 198.181  1.00  0.00     0.039 C 
ATOM     10  G   UNL     1     153.593 159.170 197.364  1.00  0.00     0.000 G0
ENDBRANCH   6   7
ENDBRANCH   5   6
ENDBRANCH   3   5
ENDBRANCH   1   3
BRANCH   1  11
ATOM     11  C   UNL     1     151.464 159.009 200.174  1.00  0.00     0.087 C 
BRANCH  11  12
ATOM     12  C   UNL     1     151.356 159.619 198.739  1.00  0.00     0.066 C 
BRANCH  12  13
ATOM     13  C   UNL     1     152.146 158.906 197.649  1.00  0.00     0.140 C 
ATOM     14  O   UNL     1     151.577 158.039 197.001  1.00  0.00    -0.299 OA
BRANCH  13  15
ATOM     15  C   UNL     1     153.593 159.188 197.337  1.00  0.00     0.106 CG0
ATOM     16  G   UNL     1     154.534 158.515 198.320  1.00  0.00     0.000 G0
ENDBRANCH  13  15
ENDBRANCH  12  13
BRANCH  12  17
ATOM     17  C   UNL     1     149.944 160.063 198.226  1.00  0.00    -0.006 C 
ATOM     18  C   UNL     1     149.997 161.197 197.192  1.00  0.00     0.008 C 
ATOM     19  C   UNL     1     148.917 160.356 199.336  1.00  0.00     0.008 C 
ENDBRANCH  12  17
ENDBRANCH  11  12
ENDBRANCH   1  11
TORSDOF 1
ENDMDL
MODEL 2
REMARK VINA RESULT:    -3.204      2.525      3.483
REMARK INTER + INTRA:          -5.029
REMARK INTER:                  -4.700
REMARK INTRA:                  -0.330
REMARK UNBOUND:                -0.139
REMARK SMILES CC1=CCC[C@H](C)C(=O)C[C@H](C(C)C)C(=O)C1
REMARK SMILES IDX 8 1 9 2 6 3 7 4 5 5 4 6 3 7 2 8 1 9 10 11 11 12 15 13 16 14
REMARK SMILES IDX 17 15 12 17 13 18 14 19
REMARK H PARENT
REMARK Flexibility Score: 70.00
ROOT
ATOM      1  C   UNL     1     152.393 157.420 201.580  1.00  0.00     0.136 C 
ATOM      2  O   UNL     1     151.685 156.427 201.536  1.00  0.00    -0.299 OA
ENDROOT
BRANCH   1   3
ATOM      3  C   UNL     1     153.323 157.595 202.771  1.00  0.00     0.053 C 
ATOM      4  C   UNL     1     152.723 156.882 203.992  1.00  0.00     0.016 C 
BRANCH   3   5
ATOM      5  C   UNL     1     154.743 157.043 202.449  1.00  0.00     0.015 C 
BRANCH   5   6
ATOM      6  C   UNL     1     155.852 158.092 202.178  1.00  0.00     0.028 C 
BRANCH   6   7
ATOM      7  C   UNL     1     156.323 158.229 200.749  1.00  0.00    -0.028 C 
ATOM      8  C   UNL     1     156.085 159.286 199.942  1.00  0.00    -0.070 CG0
ATOM      9  C   UNL     1     156.500 159.164 198.495  1.00  0.00     0.039 C 
ATOM     10  G   UNL     1     155.311 160.506 200.408  1.00  0.00     0.000 G0
ENDBRANCH   6   7
ENDBRANCH   5   6
ENDBRANCH   3   5
ENDBRANCH   1   3
BRANCH   1  11
ATOM     11  C   UNL     1     152.206 158.519 200.557  1.00  0.00     0.087 C 
BRANCH  11  12
ATOM     12  C   UNL     1     152.742 159.947 200.900  1.00  0.00     0.066 C 
BRANCH  12  13
ATOM     13  C   UNL     1     153.849 160.478 199.999  1.00  0.00     0.140 C 
ATOM     14  O   UNL     1     153.542 160.877 198.884  1.00  0.00    -0.299 OA
BRANCH  13  15
ATOM     15  C   UNL     1     155.304 160.520 200.389  1.00  0.00     0.106 CG0
ATOM     16  G   UNL     1     156.055 159.281 199.938  1.00  0.00     0.000 G0
ENDBRANCH  13  15
ENDBRANCH  12  13
BRANCH  12  17
ATOM     17  C   UNL     1     151.702 161.065 201.250  1.00  0.00    -0.006 C 
ATOM     18  C   UNL     1     152.100 161.913 202.466  1.00  0.00     0.008 C 
ATOM     19  C   UNL     1     150.242 160.581 201.350  1.00  0.00     0.008 C 
ENDBRANCH  12  17
ENDBRANCH  11  12
ENDBRANCH   1  11
TORSDOF 1
ENDMDL
MODEL 3
REMARK VINA RESULT:    -3.047      2.390      4.158
REMARK INTER + INTRA:          -4.789
REMARK INTER:                  -4.624
REMARK INTRA:                  -0.165
REMARK UNBOUND:                -0.139
REMARK SMILES CC1=CCC[C@H](C)C(=O)C[C@H](C(C)C)C(=O)C1
REMARK SMILES IDX 8 1 9 2 6 3 7 4 5 5 4 6 3 7 2 8 1 9 10 11 11 12 15 13 16 14
REMARK SMILES IDX 17 15 12 17 13 18 14 19
REMARK H PARENT
REMARK Flexibility Score: 70.00
ROOT
ATOM      1  C   UNL     1     155.322 160.426 200.401  1.00  0.00     0.136 C 
ATOM      2  O   UNL     1     154.926 161.050 199.430  1.00  0.00    -0.299 OA
ENDROOT
BRANCH   1   3
ATOM      3  C   UNL     1     156.557 159.552 200.247  1.00  0.00     0.053 C 
ATOM      4  C   UNL     1     156.820 158.808 201.566  1.00  0.00     0.016 C 
BRANCH   3   5
ATOM      5  C   UNL     1     156.381 158.549 199.070  1.00  0.00     0.015 C 
BRANCH   5   6
ATOM      6  C   UNL     1     155.532 157.283 199.357  1.00  0.00     0.028 C 
BRANCH   6   7
ATOM      7  C   UNL     1     154.065 157.356 199.004  1.00  0.00    -0.028 C 
ATOM      8  C   UNL     1     153.042 157.298 199.885  1.00  0.00    -0.070 CG0
ATOM      9  C   UNL     1     151.642 157.223 199.321  1.00  0.00     0.039 C 
ATOM     10  G   UNL     1     153.264 157.174 201.381  1.00  0.00     0.000 G0
ENDBRANCH   6   7
ENDBRANCH   5   6
ENDBRANCH   3   5
ENDBRANCH   1   3
BRANCH   1  11
ATOM     11  C   UNL     1     154.490 160.401 201.665  1.00  0.00     0.087 C 
BRANCH  11  12
ATOM     12  C   UNL     1     153.035 159.836 201.580  1.00  0.00     0.066 C 
BRANCH  12  13
ATOM     13  C   UNL     1     152.833 158.429 202.126  1.00  0.00     0.140 C 
ATOM     14  O   UNL     1     152.335 158.309 203.236  1.00  0.00    -0.299 OA
BRANCH  13  15
ATOM     15  C   UNL     1     153.232 157.175 201.391  1.00  0.00     0.106 CG0
ATOM     16  G   UNL     1     153.028 157.299 199.892  1.00  0.00     0.000 G0
ENDBRANCH  13  15
ENDBRANCH  12  13
BRANCH  12  17
ATOM     17  C   UNL     1     151.849 160.780 201.974  1.00  0.00    -0.006 C 
ATOM     18  C   UNL     1     150.692 160.765 200.964  1.00  0.00     0.008 C 
ATOM     19  C   UNL     1     152.262 162.218 202.341  1.00  0.00     0.008 C 
ENDBRANCH  12  17
ENDBRANCH  11  12
ENDBRANCH   1  11
TORSDOF 1
ENDMDL
MODEL 4
REMARK VINA RESULT:    -3.031      2.811      4.445
REMARK INTER + INTRA:          -4.766
REMARK INTER:                  -4.525
REMARK INTRA:                  -0.240
REMARK UNBOUND:                -0.139
REMARK SMILES CC1=CCC[C@H](C)C(=O)C[C@H](C(C)C)C(=O)C1
REMARK SMILES IDX 8 1 9 2 6 3 7 4 5 5 4 6 3 7 2 8 1 9 10 11 11 12 15 13 16 14
REMARK SMILES IDX 17 15 12 17 13 18 14 19
REMARK H PARENT
REMARK Flexibility Score: 70.00
ROOT
ATOM      1  C   UNL     1     152.434 160.858 200.428  1.00  0.00     0.136 C 
ATOM      2  O   UNL     1     151.985 161.799 199.793  1.00  0.00    -0.299 OA
ENDROOT
BRANCH   1   3
ATOM      3  C   UNL     1     152.478 160.961 201.944  1.00  0.00     0.053 C 
ATOM      4  C   UNL     1     152.204 162.414 202.362  1.00  0.00     0.016 C 
BRANCH   3   5
ATOM      5  C   UNL     1     151.447 159.994 202.595  1.00  0.00     0.015 C 
BRANCH   5   6
ATOM      6  C   UNL     1     152.022 158.748 203.317  1.00  0.00     0.028 C 
BRANCH   6   7
ATOM      7  C   UNL     1     151.769 157.408 202.666  1.00  0.00    -0.028 C 
ATOM      8  C   UNL     1     152.697 156.653 202.038  1.00  0.00    -0.070 CG0
ATOM      9  C   UNL     1     152.214 155.421 201.310  1.00  0.00     0.039 C 
ATOM     10  G   UNL     1     154.152 157.072 201.936  1.00  0.00     0.000 G0
ENDBRANCH   6   7
ENDBRANCH   5   6
ENDBRANCH   3   5
ENDBRANCH   1   3
BRANCH   1  11
ATOM     11  C   UNL     1     153.084 159.704 199.696  1.00  0.00     0.087 C 
BRANCH  11  12
ATOM     12  C   UNL     1     154.436 159.147 200.248  1.00  0.00     0.066 C 
BRANCH  12  13
ATOM     13  C   UNL     1     154.468 157.655 200.553  1.00  0.00     0.140 C 
ATOM     14  O   UNL     1     154.745 156.888 199.643  1.00  0.00    -0.299 OA
BRANCH  13  15
ATOM     15  C   UNL     1     154.155 157.065 201.905  1.00  0.00     0.106 CG0
ATOM     16  G   UNL     1     152.701 156.646 202.026  1.00  0.00     0.000 G0
ENDBRANCH  13  15
ENDBRANCH  12  13
BRANCH  12  17
ATOM     17  C   UNL     1     155.766 159.622 199.571  1.00  0.00    -0.006 C 
ATOM     18  C   UNL     1     156.969 159.635 200.526  1.00  0.00     0.008 C 
ATOM     19  C   UNL     1     155.654 160.941 198.782  1.00  0.00     0.008 C 
ENDBRANCH  12  17
ENDBRANCH  11  12
ENDBRANCH   1  11
TORSDOF 1
ENDMDL
MODEL 5
REMARK VINA RESULT:    -2.949      2.092      3.477
REMARK INTER + INTRA:          -4.640
REMARK INTER:                  -4.653
REMARK INTRA:                   0.013
REMARK UNBOUND:                -0.139
REMARK SMILES CC1=CCC[C@H](C)C(=O)C[C@H](C(C)C)C(=O)C1
REMARK SMILES IDX 8 1 9 2 6 3 7 4 5 5 4 6 3 7 2 8 1 9 10 11 11 12 15 13 16 14
REMARK SMILES IDX 17 15 12 17 13 18 14 19
REMARK H PARENT
REMARK Flexibility Score: 70.00
ROOT
ATOM      1  C   UNL     1     152.016 159.285 202.380  1.00  0.00     0.136 C 
ATOM      2  O   UNL     1     151.521 158.792 203.381  1.00  0.00    -0.299 OA
ENDROOT
BRANCH   1   3
ATOM      3  C   UNL     1     151.404 160.559 201.821  1.00  0.00     0.053 C 
ATOM      4  C   UNL     1     152.390 161.722 202.011  1.00  0.00     0.016 C 
BRANCH   3   5
ATOM      5  C   UNL     1     151.038 160.384 200.318  1.00  0.00     0.015 C 
BRANCH   5   6
ATOM      6  C   UNL     1     151.948 161.106 199.292  1.00  0.00     0.028 C 
BRANCH   6   7
ATOM      7  C   UNL     1     152.087 160.458 197.933  1.00  0.00    -0.028 C 
ATOM      8  C   UNL     1     152.905 159.425 197.637  1.00  0.00    -0.070 CG0
ATOM      9  C   UNL     1     153.021 159.024 196.185  1.00  0.00     0.039 C 
ATOM     10  G   UNL     1     153.788 158.762 198.678  1.00  0.00     0.000 G0
ENDBRANCH   6   7
ENDBRANCH   5   6
ENDBRANCH   3   5
ENDBRANCH   1   3
BRANCH   1  11
ATOM     11  C   UNL     1     153.098 158.534 201.634  1.00  0.00     0.087 C 
BRANCH  11  12
ATOM     12  C   UNL     1     152.666 157.385 200.666  1.00  0.00     0.066 C 
BRANCH  12  13
ATOM     13  C   UNL     1     153.165 157.497 199.232  1.00  0.00     0.140 C 
ATOM     14  O   UNL     1     153.064 156.516 198.509  1.00  0.00    -0.299 OA
BRANCH  13  15
ATOM     15  C   UNL     1     153.798 158.738 198.656  1.00  0.00     0.106 CG0
ATOM     16  G   UNL     1     152.905 159.417 197.634  1.00  0.00     0.000 G0
ENDBRANCH  13  15
ENDBRANCH  12  13
BRANCH  12  17
ATOM     17  C   UNL     1     152.744 155.910 201.187  1.00  0.00    -0.006 C 
ATOM     18  C   UNL     1     151.377 155.215 201.265  1.00  0.00     0.008 C 
ATOM     19  C   UNL     1     153.549 155.725 202.488  1.00  0.00     0.008 C 
ENDBRANCH  12  17
ENDBRANCH  11  12
ENDBRANCH   1  11
TORSDOF 1
ENDMDL
MODEL 6
REMARK VINA RESULT:    -2.914      1.738      2.609
REMARK INTER + INTRA:          -4.587
REMARK INTER:                  -4.287
REMARK INTRA:                  -0.299
REMARK UNBOUND:                -0.139
REMARK SMILES CC1=CCC[C@H](C)C(=O)C[C@H](C(C)C)C(=O)C1
REMARK SMILES IDX 8 1 9 2 6 3 7 4 5 5 4 6 3 7 2 8 1 9 10 11 11 12 15 13 16 14
REMARK SMILES IDX 17 15 12 17 13 18 14 19
REMARK H PARENT
REMARK Flexibility Score: 70.00
ROOT
ATOM      1  C   UNL     1     150.608 160.020 199.641  1.00  0.00     0.136 C 
ATOM      2  O   UNL     1     149.781 160.528 198.901  1.00  0.00    -0.299 OA
ENDROOT
BRANCH   1   3
ATOM      3  C   UNL     1     150.972 160.745 200.927  1.00  0.00     0.053 C 
ATOM      4  C   UNL     1     150.950 159.747 202.096  1.00  0.00     0.016 C 
BRANCH   3   5
ATOM      5  C   UNL     1     152.368 161.423 200.804  1.00  0.00     0.015 C 
BRANCH   5   6
ATOM      6  C   UNL     1     153.543 160.735 201.547  1.00  0.00     0.028 C 
BRANCH   6   7
ATOM      7  C   UNL     1     154.864 160.672 200.816  1.00  0.00    -0.028 C 
ATOM      8  C   UNL     1     155.294 159.639 200.059  1.00  0.00    -0.070 CG0
ATOM      9  C   UNL     1     156.713 159.697 199.543  1.00  0.00     0.039 C 
ATOM     10  G   UNL     1     154.456 158.394 199.832  1.00  0.00     0.000 G0
ENDBRANCH   6   7
ENDBRANCH   5   6
ENDBRANCH   3   5
ENDBRANCH   1   3
BRANCH   1  11
ATOM     11  C   UNL     1     151.366 158.792 199.185  1.00  0.00     0.087 C 
BRANCH  11  12
ATOM     12  C   UNL     1     152.481 158.972 198.103  1.00  0.00     0.066 C 
BRANCH  12  13
ATOM     13  C   UNL     1     153.836 158.361 198.434  1.00  0.00     0.140 C 
ATOM     14  O   UNL     1     154.450 157.804 197.536  1.00  0.00    -0.299 OA
BRANCH  13  15
ATOM     15  C   UNL     1     154.455 158.382 199.808  1.00  0.00     0.106 CG0
ATOM     16  G   UNL     1     155.286 159.630 200.045  1.00  0.00     0.000 G0
ENDBRANCH  13  15
ENDBRANCH  12  13
BRANCH  12  17
ATOM     17  C   UNL     1     152.100 158.742 196.602  1.00  0.00    -0.006 C 
ATOM     18  C   UNL     1     151.608 160.012 195.893  1.00  0.00     0.008 C 
ATOM     19  C   UNL     1     151.155 157.551 196.349  1.00  0.00     0.008 C 
ENDBRANCH  12  17
ENDBRANCH  11  12
ENDBRANCH   1  11
TORSDOF 1
ENDMDL
MODEL 7
REMARK VINA RESULT:    -2.886      1.893      3.973
REMARK INTER + INTRA:          -4.543
REMARK INTER:                  -4.695
REMARK INTRA:                   0.152
REMARK UNBOUND:                -0.139
REMARK SMILES CC1=CCC[C@H](C)C(=O)C[C@H](C(C)C)C(=O)C1
REMARK SMILES IDX 8 1 9 2 6 3 7 4 5 5 4 6 3 7 2 8 1 9 10 11 11 12 15 13 16 14
REMARK SMILES IDX 17 15 12 17 13 18 14 19
REMARK H PARENT
REMARK Flexibility Score: 70.00
ROOT
ATOM      1  C   UNL     1     152.717 161.113 201.638  1.00  0.00     0.136 C 
ATOM      2  O   UNL     1     152.519 162.088 202.345  1.00  0.00    -0.299 OA
ENDROOT
BRANCH   1   3
ATOM      3  C   UNL     1     151.529 160.246 201.251  1.00  0.00     0.053 C 
ATOM      4  C   UNL     1     150.539 160.186 202.425  1.00  0.00     0.016 C 
BRANCH   3   5
ATOM      5  C   UNL     1     150.837 160.797 199.970  1.00  0.00     0.015 C 
BRANCH   5   6
ATOM      6  C   UNL     1     150.520 159.769 198.853  1.00  0.00     0.028 C 
BRANCH   6   7
ATOM      7  C   UNL     1     151.184 158.416 198.968  1.00  0.00    -0.028 C 
ATOM      8  C   UNL     1     152.436 158.119 198.556  1.00  0.00    -0.070 CG0
ATOM      9  C   UNL     1     152.860 156.669 198.610  1.00  0.00     0.039 C 
ATOM     10  G   UNL     1     153.354 159.154 197.934  1.00  0.00     0.000 G0
ENDBRANCH   6   7
ENDBRANCH   5   6
ENDBRANCH   3   5
ENDBRANCH   1   3
BRANCH   1  11
ATOM     11  C   UNL     1     154.135 160.698 201.315  1.00  0.00     0.087 C 
BRANCH  11  12
ATOM     12  C   UNL     1     154.350 159.449 200.400  1.00  0.00     0.066 C 
BRANCH  12  13
ATOM     13  C   UNL     1     154.373 159.717 198.901  1.00  0.00     0.140 C 
ATOM     14  O   UNL     1     155.251 160.445 198.460  1.00  0.00    -0.299 OA
BRANCH  13  15
ATOM     15  C   UNL     1     153.365 159.155 197.930  1.00  0.00     0.106 CG0
ATOM     16  G   UNL     1     152.449 158.136 198.580  1.00  0.00     0.000 G0
ENDBRANCH  13  15
ENDBRANCH  12  13
BRANCH  12  17
ATOM     17  C   UNL     1     155.444 158.407 200.813  1.00  0.00    -0.006 C 
ATOM     18  C   UNL     1     154.973 157.419 201.891  1.00  0.00     0.008 C 
ATOM     19  C   UNL     1     156.816 159.015 201.163  1.00  0.00     0.008 C 
ENDBRANCH  12  17
ENDBRANCH  11  12
ENDBRANCH   1  11
TORSDOF 1
ENDMDL
MODEL 8
REMARK VINA RESULT:    -2.817      2.770      4.003
REMARK INTER + INTRA:          -4.439
REMARK INTER:                  -4.024
REMARK INTRA:                  -0.416
REMARK UNBOUND:                -0.139
REMARK SMILES CC1=CCC[C@H](C)C(=O)C[C@H](C(C)C)C(=O)C1
REMARK SMILES IDX 8 1 9 2 6 3 7 4 5 5 4 6 3 7 2 8 1 9 10 11 11 12 15 13 16 14
REMARK SMILES IDX 17 15 12 17 13 18 14 19
REMARK H PARENT
REMARK Flexibility Score: 70.00
ROOT
ATOM      1  C   UNL     1     151.900 159.532 201.780  1.00  0.00     0.136 C 
ATOM      2  O   UNL     1     151.199 160.290 202.432  1.00  0.00    -0.299 OA
ENDROOT
BRANCH   1   3
ATOM      3  C   UNL     1     152.296 159.944 200.371  1.00  0.00     0.053 C 
ATOM      4  C   UNL     1     151.043 160.393 199.602  1.00  0.00     0.016 C 
BRANCH   3   5
ATOM      5  C   UNL     1     153.361 161.077 200.404  1.00  0.00     0.015 C 
BRANCH   5   6
ATOM      6  C   UNL     1     154.655 160.793 201.211  1.00  0.00     0.028 C 
BRANCH   6   7
ATOM      7  C   UNL     1     155.683 159.901 200.555  1.00  0.00    -0.028 C 
ATOM      8  C   UNL     1     156.064 158.683 201.000  1.00  0.00    -0.070 CG0
ATOM      9  C   UNL     1     157.223 158.017 200.296  1.00  0.00     0.039 C 
ATOM     10  G   UNL     1     155.462 158.045 202.238  1.00  0.00     0.000 G0
ENDBRANCH   6   7
ENDBRANCH   5   6
ENDBRANCH   3   5
ENDBRANCH   1   3
BRANCH   1  11
ATOM     11  C   UNL     1     152.206 158.150 202.315  1.00  0.00     0.087 C 
BRANCH  11  12
ATOM     12  C   UNL     1     153.065 157.189 201.430  1.00  0.00     0.066 C 
BRANCH  12  13
ATOM     13  C   UNL     1     154.490 156.940 201.904  1.00  0.00     0.140 C 
ATOM     14  O   UNL     1     154.859 155.781 202.034  1.00  0.00    -0.299 OA
BRANCH  13  15
ATOM     15  C   UNL     1     155.467 158.036 202.246  1.00  0.00     0.106 CG0
ATOM     16  G   UNL     1     156.058 158.685 201.008  1.00  0.00     0.000 G0
ENDBRANCH  13  15
ENDBRANCH  12  13
BRANCH  12  17
ATOM     17  C   UNL     1     152.397 155.874 200.903  1.00  0.00    -0.006 C 
ATOM     18  C   UNL     1     151.791 156.014 199.499  1.00  0.00     0.008 C 
ATOM     19  C   UNL     1     151.409 155.213 201.883  1.00  0.00     0.008 C 
ENDBRANCH  12  17
ENDBRANCH  11  12
ENDBRANCH   1  11
TORSDOF 1
ENDMDL
MODEL 9
REMARK VINA RESULT:    -2.764      1.856      4.056
REMARK INTER + INTRA:          -4.357
REMARK INTER:                  -3.978
REMARK INTRA:                  -0.380
REMARK UNBOUND:                -0.139
REMARK SMILES CC1=CCC[C@H](C)C(=O)C[C@H](C(C)C)C(=O)C1
REMARK SMILES IDX 8 1 9 2 6 3 7 4 5 5 4 6 3 7 2 8 1 9 10 11 11 12 15 13 16 14
REMARK SMILES IDX 17 15 12 17 13 18 14 19
REMARK H PARENT
REMARK Flexibility Score: 70.00
ROOT
ATOM      1  C   UNL     1     152.033 160.256 197.969  1.00  0.00     0.136 C 
ATOM      2  O   UNL     1     151.937 161.022 197.024  1.00  0.00    -0.299 OA
ENDROOT
BRANCH   1   3
ATOM      3  C   UNL     1     151.033 159.117 198.083  1.00  0.00     0.053 C 
ATOM      4  C   UNL     1     149.616 159.659 197.840  1.00  0.00     0.016 C 
BRANCH   3   5
ATOM      5  C   UNL     1     151.372 157.980 197.076  1.00  0.00     0.015 C 
BRANCH   5   6
ATOM      6  C   UNL     1     152.267 156.828 197.602  1.00  0.00     0.028 C 
BRANCH   6   7
ATOM      7  C   UNL     1     153.760 157.006 197.454  1.00  0.00    -0.028 C 
ATOM      8  C   UNL     1     154.629 157.216 198.466  1.00  0.00    -0.070 CG0
ATOM      9  C   UNL     1     156.061 157.531 198.100  1.00  0.00     0.039 C 
ATOM     10  G   UNL     1     154.189 157.274 199.917  1.00  0.00     0.000 G0
ENDBRANCH   6   7
ENDBRANCH   5   6
ENDBRANCH   3   5
ENDBRANCH   1   3
BRANCH   1  11
ATOM     11  C   UNL     1     153.018 160.556 199.078  1.00  0.00     0.087 C 
BRANCH  11  12
ATOM     12  C   UNL     1     153.009 159.638 200.343  1.00  0.00     0.066 C 
BRANCH  12  13
ATOM     13  C   UNL     1     154.180 158.673 200.475  1.00  0.00     0.140 C 
ATOM     14  O   UNL     1     155.185 159.064 201.051  1.00  0.00    -0.299 OA
BRANCH  13  15
ATOM     15  C   UNL     1     154.182 157.272 199.919  1.00  0.00     0.106 CG0
ATOM     16  G   UNL     1     154.628 157.231 198.469  1.00  0.00     0.000 G0
ENDBRANCH  13  15
ENDBRANCH  12  13
BRANCH  12  17
ATOM     17  C   UNL     1     152.637 160.280 201.722  1.00  0.00    -0.006 C 
ATOM     18  C   UNL     1     151.997 159.290 202.707  1.00  0.00     0.008 C 
ATOM     19  C   UNL     1     151.828 161.588 201.629  1.00  0.00     0.008 C 
ENDBRANCH  12  17
ENDBRANCH  11  12
ENDBRANCH   1  11
TORSDOF 1
ENDMDL
