MODEL 1
REMARK VINA RESULT:    -5.780      0.000      0.000
REMARK INTER + INTRA:          -6.471
REMARK INTER:                  -6.287
REMARK INTRA:                  -0.184
REMARK UNBOUND:                -0.184
REMARK SMILES CC(=O)[C@@H]1CC[C@@H]2[C@H]3CC=C4C[C@@H](O)CC[C@]4(C)[C@@H]3CC[C@@]21C
REMARK SMILES IDX 4 1 5 2 6 3 7 4 22 5 21 6 20 7 19 8 8 9 9 10 10 11 11 12
REMARK SMILES IDX 17 13 16 14 15 15 13 16 12 17 18 18 23 19 2 20 1 21 3 22
REMARK SMILES IDX 14 23
REMARK H PARENT 14 24
REMARK Flexibility Score: inf
ROOT
ATOM      1  C   UNL     1       4.869  -7.469  -6.700  1.00  0.00     0.062 C 
ATOM      2  C   UNL     1       5.108  -6.068  -6.168  1.00  0.00     0.012 C 
ATOM      3  C   UNL     1       5.307  -5.230  -7.413  1.00  0.00     0.005 C 
ATOM      4  C   UNL     1       4.403  -5.845  -8.504  1.00  0.00    -0.001 C 
ATOM      5  C   UNL     1       4.031  -7.281  -8.001  1.00  0.00    -0.020 C 
ATOM      6  C   UNL     1       2.505  -7.393  -7.735  1.00  0.00     0.008 C 
ATOM      7  C   UNL     1       1.671  -7.021  -8.963  1.00  0.00     0.005 C 
ATOM      8  C   UNL     1       2.033  -5.627  -9.561  1.00  0.00     0.003 C 
ATOM      9  C   UNL     1       3.186  -4.909  -8.809  1.00  0.00     0.000 C 
ATOM     10  C   UNL     1       3.648  -3.720  -9.672  1.00  0.00     0.031 C 
ATOM     11  C   UNL     1       2.509  -2.820 -10.038  1.00  0.00    -0.027 C 
ATOM     12  C   UNL     1       1.235  -3.246 -10.168  1.00  0.00    -0.065 C 
ATOM     13  C   UNL     1       0.789  -4.668  -9.775  1.00  0.00    -0.008 C 
ATOM     14  C   UNL     1      -0.084  -4.513  -8.482  1.00  0.00     0.014 C 
ATOM     15  C   UNL     1      -1.182  -3.430  -8.592  1.00  0.00     0.033 C 
ATOM     16  C   UNL     1      -0.626  -2.069  -9.035  1.00  0.00     0.118 C 
ATOM     17  C   UNL     1       0.154  -2.203 -10.350  1.00  0.00     0.063 C 
ATOM     18  C   UNL     1      -0.066  -5.267 -10.924  1.00  0.00     0.016 C 
ATOM     19  C   UNL     1       4.463  -8.351  -9.038  1.00  0.00     0.012 C 
ENDROOT
BRANCH   1  20
ATOM     20  C   UNL     1       4.292  -8.406  -5.653  1.00  0.00     0.133 C 
ATOM     21  C   UNL     1       4.488  -9.887  -5.781  1.00  0.00     0.088 C 
ATOM     22  O   UNL     1       3.697  -7.963  -4.681  1.00  0.00    -0.300 OA
ENDBRANCH   1  20
BRANCH  16  23
ATOM     23  O   UNL     1      -1.691  -1.170  -9.200  1.00  0.00    -0.393 OA
ATOM     24  H   UNL     1      -2.216  -1.191  -8.357  1.00  0.00     0.210 HD
ENDBRANCH  16  23
TORSDOF 2
ENDMDL
MODEL 2
REMARK VINA RESULT:    -4.817      1.547      1.905
REMARK INTER + INTRA:          -5.424
REMARK INTER:                  -5.217
REMARK INTRA:                  -0.207
REMARK UNBOUND:                -0.184
REMARK SMILES CC(=O)[C@@H]1CC[C@@H]2[C@H]3CC=C4C[C@@H](O)CC[C@]4(C)[C@@H]3CC[C@@]21C
REMARK SMILES IDX 4 1 5 2 6 3 7 4 22 5 21 6 20 7 19 8 8 9 9 10 10 11 11 12
REMARK SMILES IDX 17 13 16 14 15 15 13 16 12 17 18 18 23 19 2 20 1 21 3 22
REMARK SMILES IDX 14 23
REMARK H PARENT 14 24
REMARK Flexibility Score: inf
ROOT
ATOM      1  C   UNL     1       5.040  -6.760  -7.709  1.00  0.00     0.062 C 
ATOM      2  C   UNL     1       4.767  -5.441  -7.008  1.00  0.00     0.012 C 
ATOM      3  C   UNL     1       4.374  -4.502  -8.129  1.00  0.00     0.005 C 
ATOM      4  C   UNL     1       3.627  -5.358  -9.176  1.00  0.00    -0.001 C 
ATOM      5  C   UNL     1       3.981  -6.848  -8.850  1.00  0.00    -0.020 C 
ATOM      6  C   UNL     1       2.714  -7.633  -8.413  1.00  0.00     0.008 C 
ATOM      7  C   UNL     1       1.596  -7.561  -9.454  1.00  0.00     0.005 C 
ATOM      8  C   UNL     1       1.233  -6.105  -9.877  1.00  0.00     0.003 C 
ATOM      9  C   UNL     1       2.099  -5.021  -9.180  1.00  0.00     0.000 C 
ATOM     10  C   UNL     1       1.862  -3.684  -9.906  1.00  0.00     0.031 C 
ATOM     11  C   UNL     1       0.407  -3.341  -9.985  1.00  0.00    -0.027 C 
ATOM     12  C   UNL     1      -0.576  -4.266 -10.014  1.00  0.00    -0.065 C 
ATOM     13  C   UNL     1      -0.313  -5.766  -9.786  1.00  0.00    -0.008 C 
ATOM     14  C   UNL     1      -0.925  -6.111  -8.383  1.00  0.00     0.014 C 
ATOM     15  C   UNL     1      -2.373  -5.607  -8.189  1.00  0.00     0.033 C 
ATOM     16  C   UNL     1      -2.521  -4.108  -8.490  1.00  0.00     0.118 C 
ATOM     17  C   UNL     1      -2.005  -3.783  -9.898  1.00  0.00     0.063 C 
ATOM     18  C   UNL     1      -1.033  -6.582 -10.892  1.00  0.00     0.016 C 
ATOM     19  C   UNL     1       4.625  -7.537 -10.083  1.00  0.00     0.012 C 
ENDROOT
BRANCH   1  20
ATOM     20  C   UNL     1       5.102  -7.935  -6.750  1.00  0.00     0.133 C 
ATOM     21  C   UNL     1       4.444  -7.842  -5.406  1.00  0.00     0.088 C 
ATOM     22  O   UNL     1       5.655  -8.976  -7.075  1.00  0.00    -0.300 OA
ENDBRANCH   1  20
BRANCH  16  23
ATOM     23  O   UNL     1      -3.873  -3.750  -8.381  1.00  0.00    -0.393 OA
ATOM     24  H   UNL     1      -3.933  -3.073  -7.657  1.00  0.00     0.210 HD
ENDBRANCH  16  23
TORSDOF 2
ENDMDL
MODEL 3
REMARK VINA RESULT:    -4.538      5.131     10.212
REMARK INTER + INTRA:          -5.120
REMARK INTER:                  -4.937
REMARK INTRA:                  -0.184
REMARK UNBOUND:                -0.184
REMARK SMILES CC(=O)[C@@H]1CC[C@@H]2[C@H]3CC=C4C[C@@H](O)CC[C@]4(C)[C@@H]3CC[C@@]21C
REMARK SMILES IDX 4 1 5 2 6 3 7 4 22 5 21 6 20 7 19 8 8 9 9 10 10 11 11 12
REMARK SMILES IDX 17 13 16 14 15 15 13 16 12 17 18 18 23 19 2 20 1 21 3 22
REMARK SMILES IDX 14 23
REMARK H PARENT 14 24
REMARK Flexibility Score: inf
ROOT
ATOM      1  C   UNL     1      -7.757  -0.636  -8.868  1.00  0.00     0.062 C 
ATOM      2  C   UNL     1      -7.579  -1.099  -7.433  1.00  0.00     0.012 C 
ATOM      3  C   UNL     1      -7.663  -2.609  -7.521  1.00  0.00     0.005 C 
ATOM      4  C   UNL     1      -7.046  -3.004  -8.881  1.00  0.00    -0.001 C 
ATOM      5  C   UNL     1      -7.015  -1.694  -9.740  1.00  0.00    -0.020 C 
ATOM      6  C   UNL     1      -5.552  -1.274 -10.051  1.00  0.00     0.008 C 
ATOM      7  C   UNL     1      -4.761  -2.388 -10.740  1.00  0.00     0.005 C 
ATOM      8  C   UNL     1      -4.801  -3.745  -9.973  1.00  0.00     0.003 C 
ATOM      9  C   UNL     1      -5.661  -3.703  -8.681  1.00  0.00     0.000 C 
ATOM     10  C   UNL     1      -5.873  -5.152  -8.204  1.00  0.00     0.031 C 
ATOM     11  C   UNL     1      -4.576  -5.884  -8.047  1.00  0.00    -0.027 C 
ATOM     12  C   UNL     1      -3.472  -5.606  -8.772  1.00  0.00    -0.065 C 
ATOM     13  C   UNL     1      -3.376  -4.385  -9.706  1.00  0.00    -0.008 C 
ATOM     14  C   UNL     1      -2.383  -3.383  -9.020  1.00  0.00     0.014 C 
ATOM     15  C   UNL     1      -1.057  -4.031  -8.561  1.00  0.00     0.033 C 
ATOM     16  C   UNL     1      -1.279  -5.265  -7.673  1.00  0.00     0.118 C 
ATOM     17  C   UNL     1      -2.179  -6.287  -8.380  1.00  0.00     0.063 C 
ATOM     18  C   UNL     1      -2.807  -4.839 -11.078  1.00  0.00     0.016 C 
ATOM     19  C   UNL     1      -7.797  -1.893 -11.065  1.00  0.00     0.012 C 
ENDROOT
BRANCH   1  20
ATOM     20  C   UNL     1      -7.353   0.813  -9.072  1.00  0.00     0.133 C 
ATOM     21  C   UNL     1      -7.851   1.570 -10.267  1.00  0.00     0.088 C 
ATOM     22  O   UNL     1      -6.650   1.386  -8.252  1.00  0.00    -0.300 OA
ENDBRANCH   1  20
BRANCH  16  23
ATOM     23  O   UNL     1      -0.037  -5.845  -7.375  1.00  0.00    -0.393 OA
ATOM     24  H   UNL     1       0.269  -6.307  -8.199  1.00  0.00     0.210 HD
ENDBRANCH  16  23
TORSDOF 2
ENDMDL
MODEL 4
REMARK VINA RESULT:    -4.354      1.427      6.840
REMARK INTER + INTRA:          -4.920
REMARK INTER:                  -4.786
REMARK INTRA:                  -0.133
REMARK UNBOUND:                -0.184
REMARK SMILES CC(=O)[C@@H]1CC[C@@H]2[C@H]3CC=C4C[C@@H](O)CC[C@]4(C)[C@@H]3CC[C@@]21C
REMARK SMILES IDX 4 1 5 2 6 3 7 4 22 5 21 6 20 7 19 8 8 9 9 10 10 11 11 12
REMARK SMILES IDX 17 13 16 14 15 15 13 16 12 17 18 18 23 19 2 20 1 21 3 22
REMARK SMILES IDX 14 23
REMARK H PARENT 14 24
REMARK Flexibility Score: inf
ROOT
ATOM      1  C   UNL     1      -0.583  -4.565  -9.240  1.00  0.00     0.062 C 
ATOM      2  C   UNL     1      -1.237  -5.308  -8.089  1.00  0.00     0.012 C 
ATOM      3  C   UNL     1      -1.002  -6.768  -8.412  1.00  0.00     0.005 C 
ATOM      4  C   UNL     1       0.367  -6.846  -9.124  1.00  0.00    -0.001 C 
ATOM      5  C   UNL     1       0.697  -5.386  -9.588  1.00  0.00    -0.020 C 
ATOM      6  C   UNL     1       1.955  -4.846  -8.855  1.00  0.00     0.008 C 
ATOM      7  C   UNL     1       3.171  -5.757  -9.038  1.00  0.00     0.005 C 
ATOM      8  C   UNL     1       2.898  -7.243  -8.658  1.00  0.00     0.003 C 
ATOM      9  C   UNL     1       1.439  -7.509  -8.197  1.00  0.00     0.000 C 
ATOM     10  C   UNL     1       1.222  -9.033  -8.159  1.00  0.00     0.031 C 
ATOM     11  C   UNL     1       2.257  -9.723  -7.325  1.00  0.00    -0.027 C 
ATOM     12  C   UNL     1       3.510  -9.252  -7.153  1.00  0.00    -0.065 C 
ATOM     13  C   UNL     1       3.951  -7.861  -7.646  1.00  0.00    -0.008 C 
ATOM     14  C   UNL     1       4.144  -6.981  -6.363  1.00  0.00     0.014 C 
ATOM     15  C   UNL     1       5.004  -7.650  -5.267  1.00  0.00     0.033 C 
ATOM     16  C   UNL     1       4.496  -9.050  -4.890  1.00  0.00     0.118 C 
ATOM     17  C   UNL     1       4.391  -9.942  -6.135  1.00  0.00     0.063 C 
ATOM     18  C   UNL     1       5.299  -7.995  -8.405  1.00  0.00     0.016 C 
ATOM     19  C   UNL     1       0.923  -5.340 -11.122  1.00  0.00     0.012 C 
ENDROOT
BRANCH   1  20
ATOM     20  C   UNL     1      -0.381  -3.089  -8.949  1.00  0.00     0.133 C 
ATOM     21  C   UNL     1       0.008  -2.153 -10.054  1.00  0.00     0.088 C 
ATOM     22  O   UNL     1      -0.569  -2.644  -7.826  1.00  0.00    -0.300 OA
ENDBRANCH   1  20
BRANCH  16  23
ATOM     23  O   UNL     1       5.377  -9.624  -3.962  1.00  0.00    -0.393 OA
ATOM     24  H   UNL     1       4.862  -9.759  -3.124  1.00  0.00     0.210 HD
ENDBRANCH  16  23
TORSDOF 2
ENDMDL
MODEL 5
REMARK VINA RESULT:    -4.329      5.367      7.308
REMARK INTER + INTRA:          -4.893
REMARK INTER:                  -4.717
REMARK INTRA:                  -0.176
REMARK UNBOUND:                -0.184
REMARK SMILES CC(=O)[C@@H]1CC[C@@H]2[C@H]3CC=C4C[C@@H](O)CC[C@]4(C)[C@@H]3CC[C@@]21C
REMARK SMILES IDX 4 1 5 2 6 3 7 4 22 5 21 6 20 7 19 8 8 9 9 10 10 11 11 12
REMARK SMILES IDX 17 13 16 14 15 15 13 16 12 17 18 18 23 19 2 20 1 21 3 22
REMARK SMILES IDX 14 23
REMARK H PARENT 14 24
REMARK Flexibility Score: inf
ROOT
ATOM      1  C   UNL     1      -0.033  -5.877  -9.248  1.00  0.00     0.062 C 
ATOM      2  C   UNL     1      -0.519  -4.908  -8.185  1.00  0.00     0.012 C 
ATOM      3  C   UNL     1      -1.961  -4.643  -8.560  1.00  0.00     0.005 C 
ATOM      4  C   UNL     1      -2.503  -5.952  -9.173  1.00  0.00    -0.001 C 
ATOM      5  C   UNL     1      -1.246  -6.812  -9.541  1.00  0.00    -0.020 C 
ATOM      6  C   UNL     1      -1.201  -8.112  -8.693  1.00  0.00     0.008 C 
ATOM      7  C   UNL     1      -2.479  -8.942  -8.831  1.00  0.00     0.005 C 
ATOM      8  C   UNL     1      -3.780  -8.133  -8.544  1.00  0.00     0.003 C 
ATOM      9  C   UNL     1      -3.521  -6.640  -8.204  1.00  0.00     0.000 C 
ATOM     10  C   UNL     1      -4.870  -5.900  -8.255  1.00  0.00     0.031 C 
ATOM     11  C   UNL     1      -5.898  -6.552  -7.383  1.00  0.00    -0.027 C 
ATOM     12  C   UNL     1      -5.904  -7.871  -7.097  1.00  0.00    -0.065 C 
ATOM     13  C   UNL     1      -4.750  -8.813  -7.490  1.00  0.00    -0.008 C 
ATOM     14  C   UNL     1      -4.020  -9.193  -6.155  1.00  0.00     0.014 C 
ATOM     15  C   UNL     1      -4.971  -9.667  -5.032  1.00  0.00     0.033 C 
ATOM     16  C   UNL     1      -6.108  -8.669  -4.762  1.00  0.00     0.118 C 
ATOM     17  C   UNL     1      -6.881  -8.364  -6.052  1.00  0.00     0.063 C 
ATOM     18  C   UNL     1      -5.337 -10.087  -8.154  1.00  0.00     0.016 C 
ATOM     19  C   UNL     1      -1.253  -7.169 -11.051  1.00  0.00     0.012 C 
ENDROOT
BRANCH   1  20
ATOM     20  C   UNL     1       1.271  -6.558  -8.872  1.00  0.00     0.133 C 
ATOM     21  C   UNL     1       2.199  -7.045  -9.944  1.00  0.00     0.088 C 
ATOM     22  O   UNL     1       1.592  -6.684  -7.699  1.00  0.00    -0.300 OA
ENDBRANCH   1  20
BRANCH  16  23
ATOM     23  O   UNL     1      -6.974  -9.211  -3.801  1.00  0.00    -0.393 OA
ATOM     24  H   UNL     1      -6.867  -8.665  -2.978  1.00  0.00     0.210 HD
ENDBRANCH  16  23
TORSDOF 2
ENDMDL
MODEL 6
REMARK VINA RESULT:    -4.309      4.395      6.954
REMARK INTER + INTRA:          -4.871
REMARK INTER:                  -4.952
REMARK INTRA:                   0.081
REMARK UNBOUND:                -0.184
REMARK SMILES CC(=O)[C@@H]1CC[C@@H]2[C@H]3CC=C4C[C@@H](O)CC[C@]4(C)[C@@H]3CC[C@@]21C
REMARK SMILES IDX 4 1 5 2 6 3 7 4 22 5 21 6 20 7 19 8 8 9 9 10 10 11 11 12
REMARK SMILES IDX 17 13 16 14 15 15 13 16 12 17 18 18 23 19 2 20 1 21 3 22
REMARK SMILES IDX 14 23
REMARK H PARENT 14 24
REMARK Flexibility Score: inf
ROOT
ATOM      1  C   UNL     1      -0.536  -4.649  -8.916  1.00  0.00     0.062 C 
ATOM      2  C   UNL     1      -0.512  -3.356  -8.121  1.00  0.00     0.012 C 
ATOM      3  C   UNL     1      -1.103  -2.332  -9.066  1.00  0.00     0.005 C 
ATOM      4  C   UNL     1      -2.161  -3.075  -9.913  1.00  0.00    -0.001 C 
ATOM      5  C   UNL     1      -1.856  -4.602  -9.744  1.00  0.00    -0.020 C 
ATOM      6  C   UNL     1      -3.027  -5.321  -9.019  1.00  0.00     0.008 C 
ATOM      7  C   UNL     1      -4.366  -5.115  -9.730  1.00  0.00     0.005 C 
ATOM      8  C   UNL     1      -4.707  -3.616  -9.992  1.00  0.00     0.003 C 
ATOM      9  C   UNL     1      -3.606  -2.635  -9.506  1.00  0.00     0.000 C 
ATOM     10  C   UNL     1      -3.913  -1.246 -10.098  1.00  0.00     0.031 C 
ATOM     11  C   UNL     1      -5.307  -0.800  -9.782  1.00  0.00    -0.027 C 
ATOM     12  C   UNL     1      -6.336  -1.652  -9.587  1.00  0.00    -0.065 C 
ATOM     13  C   UNL     1      -6.145  -3.177  -9.489  1.00  0.00    -0.008 C 
ATOM     14  C   UNL     1      -6.401  -3.556  -7.989  1.00  0.00     0.014 C 
ATOM     15  C   UNL     1      -7.705  -2.966  -7.407  1.00  0.00     0.033 C 
ATOM     16  C   UNL     1      -7.805  -1.445  -7.605  1.00  0.00     0.118 C 
ATOM     17  C   UNL     1      -7.644  -1.080  -9.087  1.00  0.00     0.063 C 
ATOM     18  C   UNL     1      -7.189  -3.880 -10.399  1.00  0.00     0.016 C 
ATOM     19  C   UNL     1      -1.609  -5.264 -11.125  1.00  0.00     0.012 C 
ENDROOT
BRANCH   1  20
ATOM     20  C   UNL     1      -0.324  -5.877  -8.048  1.00  0.00     0.133 C 
ATOM     21  C   UNL     1       0.700  -6.901  -8.434  1.00  0.00     0.088 C 
ATOM     22  O   UNL     1      -0.959  -6.025  -7.013  1.00  0.00    -0.300 OA
ENDBRANCH   1  20
BRANCH  16  23
ATOM     23  O   UNL     1      -9.050  -1.002  -7.135  1.00  0.00    -0.393 OA
ATOM     24  H   UNL     1      -9.389  -1.702  -6.518  1.00  0.00     0.210 HD
ENDBRANCH  16  23
TORSDOF 2
ENDMDL
MODEL 7
REMARK VINA RESULT:    -4.240      3.883      6.202
REMARK INTER + INTRA:          -4.796
REMARK INTER:                  -4.616
REMARK INTRA:                  -0.180
REMARK UNBOUND:                -0.184
REMARK SMILES CC(=O)[C@@H]1CC[C@@H]2[C@H]3CC=C4C[C@@H](O)CC[C@]4(C)[C@@H]3CC[C@@]21C
REMARK SMILES IDX 4 1 5 2 6 3 7 4 22 5 21 6 20 7 19 8 8 9 9 10 10 11 11 12
REMARK SMILES IDX 17 13 16 14 15 15 13 16 12 17 18 18 23 19 2 20 1 21 3 22
REMARK SMILES IDX 14 23
REMARK H PARENT 14 24
REMARK Flexibility Score: inf
ROOT
ATOM      1  C   UNL     1       4.135  -8.197  -8.103  1.00  0.00     0.062 C 
ATOM      2  C   UNL     1       5.512  -8.730  -7.749  1.00  0.00     0.012 C 
ATOM      3  C   UNL     1       6.279  -8.665  -9.053  1.00  0.00     0.005 C 
ATOM      4  C   UNL     1       5.748  -7.429  -9.813  1.00  0.00    -0.001 C 
ATOM      5  C   UNL     1       4.386  -7.055  -9.135  1.00  0.00    -0.020 C 
ATOM      6  C   UNL     1       4.474  -5.661  -8.454  1.00  0.00     0.008 C 
ATOM      7  C   UNL     1       4.909  -4.564  -9.428  1.00  0.00     0.005 C 
ATOM      8  C   UNL     1       6.227  -4.897 -10.191  1.00  0.00     0.003 C 
ATOM      9  C   UNL     1       6.818  -6.287  -9.833  1.00  0.00     0.000 C 
ATOM     10  C   UNL     1       7.913  -6.618 -10.864  1.00  0.00     0.031 C 
ATOM     11  C   UNL     1       8.937  -5.530 -10.962  1.00  0.00    -0.027 C 
ATOM     12  C   UNL     1       8.669  -4.231 -10.709  1.00  0.00    -0.065 C 
ATOM     13  C   UNL     1       7.327  -3.758 -10.119  1.00  0.00    -0.008 C 
ATOM     14  C   UNL     1       7.631  -3.304  -8.648  1.00  0.00     0.014 C 
ATOM     15  C   UNL     1       8.838  -2.347  -8.524  1.00  0.00     0.033 C 
ATOM     16  C   UNL     1      10.105  -2.905  -9.190  1.00  0.00     0.118 C 
ATOM     17  C   UNL     1       9.833  -3.266 -10.656  1.00  0.00     0.063 C 
ATOM     18  C   UNL     1       6.804  -2.554 -10.947  1.00  0.00     0.016 C 
ATOM     19  C   UNL     1       3.239  -7.057 -10.179  1.00  0.00     0.012 C 
ENDROOT
BRANCH   1  20
ATOM     20  C   UNL     1       3.311  -7.836  -6.880  1.00  0.00     0.133 C 
ATOM     21  C   UNL     1       3.943  -7.844  -5.521  1.00  0.00     0.088 C 
ATOM     22  O   UNL     1       2.141  -7.501  -6.994  1.00  0.00    -0.300 OA
ENDBRANCH   1  20
BRANCH  16  23
ATOM     23  O   UNL     1      11.124  -1.944  -9.114  1.00  0.00    -0.393 OA
ATOM     24  H   UNL     1      10.760  -1.109  -9.508  1.00  0.00     0.210 HD
ENDBRANCH  16  23
TORSDOF 2
ENDMDL
MODEL 8
REMARK VINA RESULT:    -4.133      6.924      8.626
REMARK INTER + INTRA:          -4.680
REMARK INTER:                  -4.560
REMARK INTRA:                  -0.120
REMARK UNBOUND:                -0.184
REMARK SMILES CC(=O)[C@@H]1CC[C@@H]2[C@H]3CC=C4C[C@@H](O)CC[C@]4(C)[C@@H]3CC[C@@]21C
REMARK SMILES IDX 4 1 5 2 6 3 7 4 22 5 21 6 20 7 19 8 8 9 9 10 10 11 11 12
REMARK SMILES IDX 17 13 16 14 15 15 13 16 12 17 18 18 23 19 2 20 1 21 3 22
REMARK SMILES IDX 14 23
REMARK H PARENT 14 24
REMARK Flexibility Score: inf
ROOT
ATOM      1  C   UNL     1      -5.422 -10.069  -4.704  1.00  0.00     0.062 C 
ATOM      2  C   UNL     1      -3.949  -9.956  -5.051  1.00  0.00     0.012 C 
ATOM      3  C   UNL     1      -3.911 -10.125  -6.555  1.00  0.00     0.005 C 
ATOM      4  C   UNL     1      -5.213  -9.497  -7.100  1.00  0.00    -0.001 C 
ATOM      5  C   UNL     1      -6.178  -9.367  -5.873  1.00  0.00    -0.020 C 
ATOM      6  C   UNL     1      -6.478  -7.875  -5.564  1.00  0.00     0.008 C 
ATOM      7  C   UNL     1      -7.044  -7.131  -6.775  1.00  0.00     0.005 C 
ATOM      8  C   UNL     1      -6.167  -7.271  -8.056  1.00  0.00     0.003 C 
ATOM      9  C   UNL     1      -4.911  -8.160  -7.855  1.00  0.00     0.000 C 
ATOM     10  C   UNL     1      -4.320  -8.469  -9.243  1.00  0.00     0.031 C 
ATOM     11  C   UNL     1      -4.061  -7.222 -10.031  1.00  0.00    -0.027 C 
ATOM     12  C   UNL     1      -4.772  -6.085  -9.878  1.00  0.00    -0.065 C 
ATOM     13  C   UNL     1      -5.803  -5.893  -8.750  1.00  0.00    -0.008 C 
ATOM     14  C   UNL     1      -5.174  -4.862  -7.750  1.00  0.00     0.014 C 
ATOM     15  C   UNL     1      -4.619  -3.588  -8.428  1.00  0.00     0.033 C 
ATOM     16  C   UNL     1      -3.638  -3.905  -9.567  1.00  0.00     0.118 C 
ATOM     17  C   UNL     1      -4.284  -4.844 -10.594  1.00  0.00     0.063 C 
ATOM     18  C   UNL     1      -7.112  -5.316  -9.351  1.00  0.00     0.016 C 
ATOM     19  C   UNL     1      -7.505 -10.124  -6.141  1.00  0.00     0.012 C 
ENDROOT
BRANCH   1  20
ATOM     20  C   UNL     1      -5.736  -9.575  -3.302  1.00  0.00     0.133 C 
ATOM     21  C   UNL     1      -4.647  -8.999  -2.449  1.00  0.00     0.088 C 
ATOM     22  O   UNL     1      -6.880  -9.610  -2.871  1.00  0.00    -0.300 OA
ENDBRANCH   1  20
BRANCH  16  23
ATOM     23  O   UNL     1      -3.253  -2.708 -10.188  1.00  0.00    -0.393 OA
ATOM     24  H   UNL     1      -2.862  -2.131  -9.480  1.00  0.00     0.210 HD
ENDBRANCH  16  23
TORSDOF 2
ENDMDL
MODEL 9
REMARK VINA RESULT:    -4.124     14.001     16.384
REMARK INTER + INTRA:          -4.670
REMARK INTER:                  -4.513
REMARK INTRA:                  -0.157
REMARK UNBOUND:                -0.184
REMARK SMILES CC(=O)[C@@H]1CC[C@@H]2[C@H]3CC=C4C[C@@H](O)CC[C@]4(C)[C@@H]3CC[C@@]21C
REMARK SMILES IDX 4 1 5 2 6 3 7 4 22 5 21 6 20 7 19 8 8 9 9 10 10 11 11 12
REMARK SMILES IDX 17 13 16 14 15 15 13 16 12 17 18 18 23 19 2 20 1 21 3 22
REMARK SMILES IDX 14 23
REMARK H PARENT 14 24
REMARK Flexibility Score: inf
ROOT
ATOM      1  C   UNL     1       3.313  -8.004   6.258  1.00  0.00     0.062 C 
ATOM      2  C   UNL     1       2.585  -7.484   5.032  1.00  0.00     0.012 C 
ATOM      3  C   UNL     1       1.744  -8.659   4.578  1.00  0.00     0.005 C 
ATOM      4  C   UNL     1       1.325  -9.418   5.857  1.00  0.00    -0.001 C 
ATOM      5  C   UNL     1       2.288  -8.924   6.989  1.00  0.00    -0.020 C 
ATOM      6  C   UNL     1       1.500  -8.163   8.090  1.00  0.00     0.008 C 
ATOM      7  C   UNL     1       0.364  -9.002   8.678  1.00  0.00     0.005 C 
ATOM      8  C   UNL     1      -0.601  -9.585   7.601  1.00  0.00     0.003 C 
ATOM      9  C   UNL     1      -0.200  -9.221   6.146  1.00  0.00     0.000 C 
ATOM     10  C   UNL     1      -1.028 -10.101   5.191  1.00  0.00     0.031 C 
ATOM     11  C   UNL     1      -2.497  -9.990   5.462  1.00  0.00    -0.027 C 
ATOM     12  C   UNL     1      -3.010  -9.708   6.677  1.00  0.00    -0.065 C 
ATOM     13  C   UNL     1      -2.135  -9.292   7.875  1.00  0.00    -0.008 C 
ATOM     14  C   UNL     1      -2.425  -7.771   8.123  1.00  0.00     0.014 C 
ATOM     15  C   UNL     1      -3.929  -7.421   8.189  1.00  0.00     0.033 C 
ATOM     16  C   UNL     1      -4.706  -7.927   6.964  1.00  0.00     0.118 C 
ATOM     17  C   UNL     1      -4.495  -9.435   6.772  1.00  0.00     0.063 C 
ATOM     18  C   UNL     1      -2.550 -10.121   9.120  1.00  0.00     0.016 C 
ATOM     19  C   UNL     1       3.047 -10.122   7.620  1.00  0.00     0.012 C 
ENDROOT
BRANCH   1  20
ATOM     20  C   UNL     1       3.937  -6.895   7.086  1.00  0.00     0.133 C 
ATOM     21  C   UNL     1       4.957  -7.223   8.135  1.00  0.00     0.088 C 
ATOM     22  O   UNL     1       3.643  -5.725   6.883  1.00  0.00    -0.300 OA
ENDBRANCH   1  20
BRANCH  16  23
ATOM     23  O   UNL     1      -6.071  -7.653   7.142  1.00  0.00    -0.393 OA
ATOM     24  H   UNL     1      -6.471  -8.454   7.570  1.00  0.00     0.210 HD
ENDBRANCH  16  23
TORSDOF 2
ENDMDL
