MODEL 1
REMARK VINA RESULT:    -3.162      0.000      0.000
REMARK INTER + INTRA:          -5.747
REMARK INTER:                  -4.826
REMARK INTRA:                  -0.921
REMARK UNBOUND:                -0.921
REMARK SMILES O=C([O-])CCCCCCCCC(=O)[O-]
REMARK SMILES IDX 7 1 6 2 5 3 4 4 2 5 1 6 3 7 8 8 9 9 10 10 11 11 12 12 13 13
REMARK SMILES IDX 14 14
REMARK H PARENT
REMARK Flexibility Score: inf
ROOT
ATOM      1  C   UNL     1      88.534  29.203  26.340  1.00  0.00     0.000 C 
ENDROOT
BRANCH   1   2
ATOM      2  C   UNL     1      87.622  28.085  25.810  1.00  0.00     0.000 C 
BRANCH   2   3
ATOM      3  C   UNL     1      86.415  27.826  26.724  1.00  0.00     0.006 C 
BRANCH   3   4
ATOM      4  C   UNL     1      86.248  26.328  26.998  1.00  0.00     0.053 C 
BRANCH   4   5
ATOM      5  C   UNL     1      86.141  26.072  28.468  1.00  0.00     0.041 C 
ATOM      6  O   UNL     1      85.274  25.274  28.911  1.00  0.00    -0.550 OA
ATOM      7  O   UNL     1      86.966  26.754  29.354  1.00  0.00    -0.550 OA
ENDBRANCH   4   5
ENDBRANCH   3   4
ENDBRANCH   2   3
ENDBRANCH   1   2
BRANCH   1   8
ATOM      8  C   UNL     1      89.433  28.734  27.497  1.00  0.00     0.000 C 
BRANCH   8   9
ATOM      9  C   UNL     1      89.070  29.398  28.834  1.00  0.00     0.000 C 
BRANCH   9  10
ATOM     10  C   UNL     1      88.222  30.665  28.653  1.00  0.00     0.006 C 
BRANCH  10  11
ATOM     11  C   UNL     1      86.847  30.503  29.309  1.00  0.00     0.053 C 
BRANCH  11  12
ATOM     12  C   UNL     1      85.772  31.027  28.411  1.00  0.00     0.041 C 
ATOM     13  O   UNL     1      84.564  30.958  28.761  1.00  0.00    -0.550 OA
ATOM     14  O   UNL     1      86.107  31.637  27.208  1.00  0.00    -0.550 OA
ENDBRANCH  11  12
ENDBRANCH  10  11
ENDBRANCH   9  10
ENDBRANCH   8   9
ENDBRANCH   1   8
TORSDOF 9
ENDMDL
MODEL 2
REMARK VINA RESULT:    -3.126      2.600      3.593
REMARK INTER + INTRA:          -5.692
REMARK INTER:                  -5.174
REMARK INTRA:                  -0.518
REMARK UNBOUND:                -0.921
REMARK SMILES O=C([O-])CCCCCCCCC(=O)[O-]
REMARK SMILES IDX 7 1 6 2 5 3 4 4 2 5 1 6 3 7 8 8 9 9 10 10 11 11 12 12 13 13
REMARK SMILES IDX 14 14
REMARK H PARENT
REMARK Flexibility Score: inf
ROOT
ATOM      1  C   UNL     1      86.145  27.468  28.469  1.00  0.00     0.000 C 
ENDROOT
BRANCH   1   2
ATOM      2  C   UNL     1      86.303  26.213  27.595  1.00  0.00     0.000 C 
BRANCH   2   3
ATOM      3  C   UNL     1      85.785  24.943  28.286  1.00  0.00     0.006 C 
BRANCH   3   4
ATOM      4  C   UNL     1      84.481  25.223  29.039  1.00  0.00     0.053 C 
BRANCH   4   5
ATOM      5  C   UNL     1      83.937  23.961  29.631  1.00  0.00     0.041 C 
ATOM      6  O   UNL     1      84.000  22.881  28.988  1.00  0.00    -0.550 OA
ATOM      7  O   UNL     1      83.316  23.989  30.873  1.00  0.00    -0.550 OA
ENDBRANCH   4   5
ENDBRANCH   3   4
ENDBRANCH   2   3
ENDBRANCH   1   2
BRANCH   1   8
ATOM      8  C   UNL     1      87.467  27.900  29.126  1.00  0.00     0.000 C 
BRANCH   8   9
ATOM      9  C   UNL     1      87.628  29.427  29.182  1.00  0.00     0.000 C 
BRANCH   9  10
ATOM     10  C   UNL     1      88.998  29.896  28.671  1.00  0.00     0.006 C 
BRANCH  10  11
ATOM     11  C   UNL     1      89.670  28.807  27.827  1.00  0.00     0.053 C 
BRANCH  11  12
ATOM     12  C   UNL     1      89.448  29.062  26.370  1.00  0.00     0.041 C 
ATOM     13  O   UNL     1      88.529  28.461  25.754  1.00  0.00    -0.550 OA
ATOM     14  O   UNL     1      90.226  30.000  25.702  1.00  0.00    -0.550 OA
ENDBRANCH  11  12
ENDBRANCH  10  11
ENDBRANCH   9  10
ENDBRANCH   8   9
ENDBRANCH   1   8
TORSDOF 9
ENDMDL
MODEL 3
REMARK VINA RESULT:    -3.121      1.964      4.598
REMARK INTER + INTRA:          -5.684
REMARK INTER:                  -4.631
REMARK INTRA:                  -1.053
REMARK UNBOUND:                -0.921
REMARK SMILES O=C([O-])CCCCCCCCC(=O)[O-]
REMARK SMILES IDX 7 1 6 2 5 3 4 4 2 5 1 6 3 7 8 8 9 9 10 10 11 11 12 12 13 13
REMARK SMILES IDX 14 14
REMARK H PARENT
REMARK Flexibility Score: inf
ROOT
ATOM      1  C   UNL     1      88.753  30.366  28.666  1.00  0.00     0.000 C 
ENDROOT
BRANCH   1   2
ATOM      2  C   UNL     1      89.345  28.952  28.546  1.00  0.00     0.000 C 
BRANCH   2   3
ATOM      3  C   UNL     1      89.896  28.660  27.142  1.00  0.00     0.006 C 
BRANCH   3   4
ATOM      4  C   UNL     1      89.683  29.857  26.211  1.00  0.00     0.053 C 
BRANCH   4   5
ATOM      5  C   UNL     1      88.885  29.452  25.011  1.00  0.00     0.041 C 
ATOM      6  O   UNL     1      87.811  30.048  24.735  1.00  0.00    -0.550 OA
ATOM      7  O   UNL     1      89.303  28.385  24.227  1.00  0.00    -0.550 OA
ENDBRANCH   4   5
ENDBRANCH   3   4
ENDBRANCH   2   3
ENDBRANCH   1   2
BRANCH   1   8
ATOM      8  C   UNL     1      87.266  30.353  29.061  1.00  0.00     0.000 C 
BRANCH   8   9
ATOM      9  C   UNL     1      86.337  30.144  27.855  1.00  0.00     0.000 C 
BRANCH   9  10
ATOM     10  C   UNL     1      85.526  28.844  27.953  1.00  0.00     0.006 C 
BRANCH  10  11
ATOM     11  C   UNL     1      86.224  27.705  27.202  1.00  0.00     0.053 C 
BRANCH  11  12
ATOM     12  C   UNL     1      86.394  26.516  28.095  1.00  0.00     0.041 C 
ATOM     13  O   UNL     1      86.118  25.362  27.672  1.00  0.00    -0.550 OA
ATOM     14  O   UNL     1      86.904  26.677  29.377  1.00  0.00    -0.550 OA
ENDBRANCH  11  12
ENDBRANCH  10  11
ENDBRANCH   9  10
ENDBRANCH   8   9
ENDBRANCH   1   8
TORSDOF 9
ENDMDL
MODEL 4
REMARK VINA RESULT:    -3.120      1.536      5.292
REMARK INTER + INTRA:          -5.683
REMARK INTER:                  -5.172
REMARK INTRA:                  -0.511
REMARK UNBOUND:                -0.921
REMARK SMILES O=C([O-])CCCCCCCCC(=O)[O-]
REMARK SMILES IDX 7 1 6 2 5 3 4 4 2 5 1 6 3 7 8 8 9 9 10 10 11 11 12 12 13 13
REMARK SMILES IDX 14 14
REMARK H PARENT
REMARK Flexibility Score: inf
ROOT
ATOM      1  C   UNL     1      87.742  28.072  26.157  1.00  0.00     0.000 C 
ENDROOT
BRANCH   1   2
ATOM      2  C   UNL     1      89.044  28.569  26.804  1.00  0.00     0.000 C 
BRANCH   2   3
ATOM      3  C   UNL     1      88.906  28.785  28.319  1.00  0.00     0.006 C 
BRANCH   3   4
ATOM      4  C   UNL     1      88.866  30.278  28.657  1.00  0.00     0.053 C 
BRANCH   4   5
ATOM      5  C   UNL     1      87.460  30.789  28.611  1.00  0.00     0.041 C 
ATOM      6  O   UNL     1      86.730  30.727  29.634  1.00  0.00    -0.550 OA
ATOM      7  O   UNL     1      86.942  31.288  27.423  1.00  0.00    -0.550 OA
ENDBRANCH   4   5
ENDBRANCH   3   4
ENDBRANCH   2   3
ENDBRANCH   1   2
BRANCH   1   8
ATOM      8  C   UNL     1      86.676  27.684  27.196  1.00  0.00     0.000 C 
BRANCH   8   9
ATOM      9  C   UNL     1      86.243  26.215  27.078  1.00  0.00     0.000 C 
BRANCH   9  10
ATOM     10  C   UNL     1      86.135  25.520  28.443  1.00  0.00     0.006 C 
BRANCH  10  11
ATOM     11  C   UNL     1      85.479  24.142  28.306  1.00  0.00     0.053 C 
BRANCH  11  12
ATOM     12  C   UNL     1      84.186  24.100  29.059  1.00  0.00     0.041 C 
ATOM     13  O   UNL     1      83.750  23.007  29.507  1.00  0.00    -0.550 OA
ATOM     14  O   UNL     1      83.488  25.276  29.307  1.00  0.00    -0.550 OA
ENDBRANCH  11  12
ENDBRANCH  10  11
ENDBRANCH   9  10
ENDBRANCH   8   9
ENDBRANCH   1   8
TORSDOF 9
ENDMDL
MODEL 5
REMARK VINA RESULT:    -3.094      3.137      4.473
REMARK INTER + INTRA:          -5.643
REMARK INTER:                  -5.197
REMARK INTRA:                  -0.446
REMARK UNBOUND:                -0.921
REMARK SMILES O=C([O-])CCCCCCCCC(=O)[O-]
REMARK SMILES IDX 7 1 6 2 5 3 4 4 2 5 1 6 3 7 8 8 9 9 10 10 11 11 12 12 13 13
REMARK SMILES IDX 14 14
REMARK H PARENT
REMARK Flexibility Score: inf
ROOT
ATOM      1  C   UNL     1      87.427  30.278  29.282  1.00  0.00     0.000 C 
ENDROOT
BRANCH   1   2
ATOM      2  C   UNL     1      88.870  30.289  28.753  1.00  0.00     0.000 C 
BRANCH   2   3
ATOM      3  C   UNL     1      89.361  28.892  28.346  1.00  0.00     0.006 C 
BRANCH   3   4
ATOM      4  C   UNL     1      89.774  28.865  26.872  1.00  0.00     0.053 C 
BRANCH   4   5
ATOM      5  C   UNL     1      88.623  28.447  26.012  1.00  0.00     0.041 C 
ATOM      6  O   UNL     1      87.592  27.946  26.533  1.00  0.00    -0.550 OA
ATOM      7  O   UNL     1      88.710  28.564  24.630  1.00  0.00    -0.550 OA
ENDBRANCH   4   5
ENDBRANCH   3   4
ENDBRANCH   2   3
ENDBRANCH   1   2
BRANCH   1   8
ATOM      8  C   UNL     1      86.460  31.063  28.379  1.00  0.00     0.000 C 
BRANCH   8   9
ATOM      9  C   UNL     1      85.370  31.795  29.177  1.00  0.00     0.000 C 
BRANCH   9  10
ATOM     10  C   UNL     1      85.758  32.010  30.647  1.00  0.00     0.006 C 
BRANCH  10  11
ATOM     11  C   UNL     1      85.293  33.384  31.141  1.00  0.00     0.053 C 
BRANCH  11  12
ATOM     12  C   UNL     1      85.878  33.682  32.486  1.00  0.00     0.041 C 
ATOM     13  O   UNL     1      86.218  34.858  32.782  1.00  0.00    -0.550 OA
ATOM     14  O   UNL     1      86.002  32.671  33.430  1.00  0.00    -0.550 OA
ENDBRANCH  11  12
ENDBRANCH  10  11
ENDBRANCH   9  10
ENDBRANCH   8   9
ENDBRANCH   1   8
TORSDOF 9
ENDMDL
MODEL 6
REMARK VINA RESULT:    -3.051      2.590      3.831
REMARK INTER + INTRA:          -5.578
REMARK INTER:                  -4.757
REMARK INTRA:                  -0.821
REMARK UNBOUND:                -0.921
REMARK SMILES O=C([O-])CCCCCCCCC(=O)[O-]
REMARK SMILES IDX 7 1 6 2 5 3 4 4 2 5 1 6 3 7 8 8 9 9 10 10 11 11 12 12 13 13
REMARK SMILES IDX 14 14
REMARK H PARENT
REMARK Flexibility Score: inf
ROOT
ATOM      1  C   UNL     1      87.333  30.382  29.114  1.00  0.00     0.000 C 
ENDROOT
BRANCH   1   2
ATOM      2  C   UNL     1      86.421  30.733  27.927  1.00  0.00     0.000 C 
BRANCH   2   3
ATOM      3  C   UNL     1      85.753  29.495  27.310  1.00  0.00     0.006 C 
BRANCH   3   4
ATOM      4  C   UNL     1      85.425  28.456  28.386  1.00  0.00     0.053 C 
BRANCH   4   5
ATOM      5  C   UNL     1      86.195  27.195  28.148  1.00  0.00     0.041 C 
ATOM      6  O   UNL     1      86.752  26.602  29.108  1.00  0.00    -0.550 OA
ATOM      7  O   UNL     1      86.337  26.702  26.857  1.00  0.00    -0.550 OA
ENDBRANCH   4   5
ENDBRANCH   3   4
ENDBRANCH   2   3
ENDBRANCH   1   2
BRANCH   1   8
ATOM      8  C   UNL     1      88.821  30.347  28.726  1.00  0.00     0.000 C 
BRANCH   8   9
ATOM      9  C   UNL     1      89.334  28.921  28.479  1.00  0.00     0.000 C 
BRANCH   9  10
ATOM     10  C   UNL     1      89.885  28.729  27.058  1.00  0.00     0.006 C 
BRANCH  10  11
ATOM     11  C   UNL     1      89.524  29.921  26.166  1.00  0.00     0.053 C 
BRANCH  11  12
ATOM     12  C   UNL     1      90.557  30.108  25.099  1.00  0.00     0.041 C 
ATOM     13  O   UNL     1      90.882  29.145  24.356  1.00  0.00    -0.550 OA
ATOM     14  O   UNL     1      91.124  31.360  24.893  1.00  0.00    -0.550 OA
ENDBRANCH  11  12
ENDBRANCH  10  11
ENDBRANCH   9  10
ENDBRANCH   8   9
ENDBRANCH   1   8
TORSDOF 9
ENDMDL
MODEL 7
REMARK VINA RESULT:    -3.043      2.081      3.241
REMARK INTER + INTRA:          -5.565
REMARK INTER:                  -4.931
REMARK INTRA:                  -0.634
REMARK UNBOUND:                -0.921
REMARK SMILES O=C([O-])CCCCCCCCC(=O)[O-]
REMARK SMILES IDX 7 1 6 2 5 3 4 4 2 5 1 6 3 7 8 8 9 9 10 10 11 11 12 12 13 13
REMARK SMILES IDX 14 14
REMARK H PARENT
REMARK Flexibility Score: inf
ROOT
ATOM      1  C   UNL     1      85.957  26.476  27.355  1.00  0.00     0.000 C 
ENDROOT
BRANCH   1   2
ATOM      2  C   UNL     1      85.729  25.011  26.952  1.00  0.00     0.000 C 
BRANCH   2   3
ATOM      3  C   UNL     1      85.911  24.039  28.128  1.00  0.00     0.006 C 
BRANCH   3   4
ATOM      4  C   UNL     1      84.752  23.041  28.197  1.00  0.00     0.053 C 
BRANCH   4   5
ATOM      5  C   UNL     1      83.592  23.633  28.935  1.00  0.00     0.041 C 
ATOM      6  O   UNL     1      82.562  23.997  28.310  1.00  0.00    -0.550 OA
ATOM      7  O   UNL     1      83.670  23.828  30.308  1.00  0.00    -0.550 OA
ENDBRANCH   4   5
ENDBRANCH   3   4
ENDBRANCH   2   3
ENDBRANCH   1   2
BRANCH   1   8
ATOM      8  C   UNL     1      85.989  26.671  28.881  1.00  0.00     0.000 C 
BRANCH   8   9
ATOM      9  C   UNL     1      87.303  27.300  29.369  1.00  0.00     0.000 C 
BRANCH   9  10
ATOM     10  C   UNL     1      87.971  28.176  28.300  1.00  0.00     0.006 C 
BRANCH  10  11
ATOM     11  C   UNL     1      88.373  29.537  28.879  1.00  0.00     0.053 C 
BRANCH  11  12
ATOM     12  C   UNL     1      87.273  30.533  28.690  1.00  0.00     0.041 C 
ATOM     13  O   UNL     1      86.538  30.857  29.659  1.00  0.00    -0.550 OA
ATOM     14  O   UNL     1      87.090  31.140  27.453  1.00  0.00    -0.550 OA
ENDBRANCH  11  12
ENDBRANCH  10  11
ENDBRANCH   9  10
ENDBRANCH   8   9
ENDBRANCH   1   8
TORSDOF 9
ENDMDL
MODEL 8
REMARK VINA RESULT:    -2.959      1.809      3.021
REMARK INTER + INTRA:          -5.437
REMARK INTER:                  -4.387
REMARK INTRA:                  -1.050
REMARK UNBOUND:                -0.921
REMARK SMILES O=C([O-])CCCCCCCCC(=O)[O-]
REMARK SMILES IDX 7 1 6 2 5 3 4 4 2 5 1 6 3 7 8 8 9 9 10 10 11 11 12 12 13 13
REMARK SMILES IDX 14 14
REMARK H PARENT
REMARK Flexibility Score: inf
ROOT
ATOM      1  C   UNL     1      87.768  29.408  29.452  1.00  0.00     0.000 C 
ENDROOT
BRANCH   1   2
ATOM      2  C   UNL     1      86.443  29.645  28.708  1.00  0.00     0.000 C 
BRANCH   2   3
ATOM      3  C   UNL     1      85.739  28.335  28.326  1.00  0.00     0.006 C 
BRANCH   3   4
ATOM      4  C   UNL     1      86.579  27.122  28.736  1.00  0.00     0.053 C 
BRANCH   4   5
ATOM      5  C   UNL     1      86.161  25.910  27.964  1.00  0.00     0.041 C 
ATOM      6  O   UNL     1      86.195  25.917  26.705  1.00  0.00    -0.550 OA
ATOM      7  O   UNL     1      85.687  24.789  28.634  1.00  0.00    -0.550 OA
ENDBRANCH   4   5
ENDBRANCH   3   4
ENDBRANCH   2   3
ENDBRANCH   1   2
BRANCH   1   8
ATOM      8  C   UNL     1      88.984  29.952  28.683  1.00  0.00     0.000 C 
BRANCH   8   9
ATOM      9  C   UNL     1      89.728  28.857  27.904  1.00  0.00     0.000 C 
BRANCH   9  10
ATOM     10  C   UNL     1      89.713  29.096  26.388  1.00  0.00     0.006 C 
BRANCH  10  11
ATOM     11  C   UNL     1      88.457  28.493  25.751  1.00  0.00     0.053 C 
BRANCH  11  12
ATOM     12  C   UNL     1      87.598  29.569  25.165  1.00  0.00     0.041 C 
ATOM     13  O   UNL     1      87.777  30.771  25.493  1.00  0.00    -0.550 OA
ATOM     14  O   UNL     1      86.632  29.249  24.219  1.00  0.00    -0.550 OA
ENDBRANCH  11  12
ENDBRANCH  10  11
ENDBRANCH   9  10
ENDBRANCH   8   9
ENDBRANCH   1   8
TORSDOF 9
ENDMDL
