MODEL 1
REMARK VINA RESULT:    -5.933      0.000      0.000
REMARK INTER + INTRA:          -6.454
REMARK INTER:                  -6.454
REMARK INTRA:                   0.000
REMARK UNBOUND:                 0.000
REMARK SMILES Cc1cc(O)c2c(c1)C(=O)c1cc(O)cc(O)c1C2=O
REMARK SMILES IDX 1 1 2 2 8 3 7 4 6 5 4 6 3 7 19 8 20 9 18 10 11 11 9 12 10 13
REMARK SMILES IDX 12 14 13 15 15 16 16 17 5 18 17 20 14 22
REMARK H PARENT 5 19 17 21 14 23
REMARK Flexibility Score: inf
ROOT
ATOM      1  C   UNL     1      12.405  52.874  37.492  1.00  0.00     0.044 C 
ATOM      2  C   UNL     1      13.169  53.576  36.409  1.00  0.00    -0.047 A 
ATOM      3  C   UNL     1      12.820  54.878  36.032  1.00  0.00     0.016 A 
ATOM      4  C   UNL     1      13.554  55.560  35.044  1.00  0.00     0.038 A 
ATOM      5  C   UNL     1      14.657  54.929  34.429  1.00  0.00     0.076 A 
ATOM      6  C   UNL     1      15.021  53.625  34.832  1.00  0.00     0.127 A 
ATOM      7  C   UNL     1      14.280  52.963  35.819  1.00  0.00     0.050 A 
ATOM      8  C   UNL     1      15.396  55.647  33.358  1.00  0.00     0.201 C 
ATOM      9  O   UNL     1      16.123  54.994  32.563  1.00  0.00    -0.288 OA
ATOM     10  C   UNL     1      15.186  57.108  33.154  1.00  0.00     0.076 A 
ATOM     11  C   UNL     1      14.043  57.710  33.730  1.00  0.00     0.041 A 
ATOM     12  C   UNL     1      13.174  56.934  34.646  1.00  0.00     0.194 C 
ATOM     13  O   UNL     1      12.118  57.452  35.103  1.00  0.00    -0.289 OA
ATOM     14  C   UNL     1      13.736  59.051  33.438  1.00  0.00     0.059 A 
ATOM     15  C   UNL     1      14.560  59.801  32.596  1.00  0.00     0.120 A 
ATOM     16  C   UNL     1      15.713  59.228  32.065  1.00  0.00     0.093 A 
ATOM     17  C   UNL     1      16.057  57.905  32.360  1.00  0.00     0.131 A 
ENDROOT
BRANCH   6  18
ATOM     18  O   UNL     1      16.125  52.988  34.265  1.00  0.00    -0.507 OA
ATOM     19  H   UNL     1      16.046  52.433  33.420  1.00  0.00     0.293 HD
ENDBRANCH   6  18
BRANCH  17  20
ATOM     20  O   UNL     1      17.283  57.442  31.875  1.00  0.00    -0.507 OA
ATOM     21  H   UNL     1      17.996  57.029  32.458  1.00  0.00     0.293 HD
ENDBRANCH  17  20
BRANCH  15  22
ATOM     22  O   UNL     1      14.248  61.125  32.293  1.00  0.00    -0.508 OA
ATOM     23  H   UNL     1      14.123  61.434  31.337  1.00  0.00     0.293 HD
ENDBRANCH  15  22
TORSDOF 3
ENDMDL
MODEL 2
REMARK VINA RESULT:    -5.700      8.832     10.633
REMARK INTER + INTRA:          -6.200
REMARK INTER:                  -6.200
REMARK INTRA:                   0.000
REMARK UNBOUND:                 0.000
REMARK SMILES Cc1cc(O)c2c(c1)C(=O)c1cc(O)cc(O)c1C2=O
REMARK SMILES IDX 1 1 2 2 8 3 7 4 6 5 4 6 3 7 19 8 20 9 18 10 11 11 9 12 10 13
REMARK SMILES IDX 12 14 13 15 15 16 16 17 5 18 17 20 14 22
REMARK H PARENT 5 19 17 21 14 23
REMARK Flexibility Score: inf
ROOT
ATOM      1  C   UNL     1      11.501  45.415  36.315  1.00  0.00     0.044 C 
ATOM      2  C   UNL     1      12.407  45.248  35.131  1.00  0.00    -0.047 A 
ATOM      3  C   UNL     1      12.880  46.373  34.443  1.00  0.00     0.016 A 
ATOM      4  C   UNL     1      13.760  46.230  33.356  1.00  0.00     0.038 A 
ATOM      5  C   UNL     1      14.178  44.943  32.956  1.00  0.00     0.076 A 
ATOM      6  C   UNL     1      13.719  43.814  33.669  1.00  0.00     0.127 A 
ATOM      7  C   UNL     1      12.844  43.975  34.751  1.00  0.00     0.050 A 
ATOM      8  C   UNL     1      15.076  44.808  31.779  1.00  0.00     0.201 C 
ATOM      9  O   UNL     1      15.165  43.696  31.192  1.00  0.00    -0.288 OA
ATOM     10  C   UNL     1      15.774  46.003  31.228  1.00  0.00     0.076 A 
ATOM     11  C   UNL     1      15.303  47.285  31.596  1.00  0.00     0.041 A 
ATOM     12  C   UNL     1      14.250  47.424  32.630  1.00  0.00     0.194 C 
ATOM     13  O   UNL     1      13.783  48.563  32.906  1.00  0.00    -0.289 OA
ATOM     14  C   UNL     1      15.841  48.431  30.984  1.00  0.00     0.059 A 
ATOM     15  C   UNL     1      16.851  48.316  30.026  1.00  0.00     0.120 A 
ATOM     16  C   UNL     1      17.352  47.060  29.695  1.00  0.00     0.093 A 
ATOM     17  C   UNL     1      16.854  45.906  30.307  1.00  0.00     0.131 A 
ENDROOT
BRANCH   6  18
ATOM     18  O   UNL     1      14.140  42.531  33.316  1.00  0.00    -0.507 OA
ATOM     19  H   UNL     1      13.479  41.790  33.110  1.00  0.00     0.293 HD
ENDBRANCH   6  18
BRANCH  17  20
ATOM     20  O   UNL     1      17.485  44.697  29.999  1.00  0.00    -0.507 OA
ATOM     21  H   UNL     1      18.239  44.304  30.542  1.00  0.00     0.293 HD
ENDBRANCH  17  20
BRANCH  15  22
ATOM     22  O   UNL     1      17.374  49.449  29.406  1.00  0.00    -0.508 OA
ATOM     23  H   UNL     1      17.283  50.370  29.820  1.00  0.00     0.293 HD
ENDBRANCH  15  22
TORSDOF 3
ENDMDL
MODEL 3
REMARK VINA RESULT:    -5.476      6.752      7.977
REMARK INTER + INTRA:          -5.956
REMARK INTER:                  -5.956
REMARK INTRA:                   0.000
REMARK UNBOUND:                 0.000
REMARK SMILES Cc1cc(O)c2c(c1)C(=O)c1cc(O)cc(O)c1C2=O
REMARK SMILES IDX 1 1 2 2 8 3 7 4 6 5 4 6 3 7 19 8 20 9 18 10 11 11 9 12 10 13
REMARK SMILES IDX 12 14 13 15 15 16 16 17 5 18 17 20 14 22
REMARK H PARENT 5 19 17 21 14 23
REMARK Flexibility Score: inf
ROOT
ATOM      1  C   UNL     1      13.965  46.131  34.756  1.00  0.00     0.044 C 
ATOM      2  C   UNL     1      14.616  46.719  33.539  1.00  0.00    -0.047 A 
ATOM      3  C   UNL     1      14.130  47.910  32.986  1.00  0.00     0.016 A 
ATOM      4  C   UNL     1      14.756  48.490  31.869  1.00  0.00     0.038 A 
ATOM      5  C   UNL     1      15.890  47.871  31.300  1.00  0.00     0.076 A 
ATOM      6  C   UNL     1      16.393  46.683  31.878  1.00  0.00     0.127 A 
ATOM      7  C   UNL     1      15.757  46.122  32.992  1.00  0.00     0.050 A 
ATOM      8  C   UNL     1      16.515  48.475  30.094  1.00  0.00     0.201 C 
ATOM      9  O   UNL     1      17.271  47.771  29.371  1.00  0.00    -0.288 OA
ATOM     10  C   UNL     1      16.159  49.861  29.681  1.00  0.00     0.076 A 
ATOM     11  C   UNL     1      14.987  50.442  30.218  1.00  0.00     0.041 A 
ATOM     12  C   UNL     1      14.232  49.746  31.286  1.00  0.00     0.194 C 
ATOM     13  O   UNL     1      13.149  50.233  31.714  1.00  0.00    -0.289 OA
ATOM     14  C   UNL     1      14.542  51.688  29.741  1.00  0.00     0.059 A 
ATOM     15  C   UNL     1      15.257  52.367  28.752  1.00  0.00     0.120 A 
ATOM     16  C   UNL     1      16.438  51.821  28.255  1.00  0.00     0.093 A 
ATOM     17  C   UNL     1      16.918  50.597  28.729  1.00  0.00     0.131 A 
ENDROOT
BRANCH   6  18
ATOM     18  O   UNL     1      17.530  46.066  31.356  1.00  0.00    -0.507 OA
ATOM     19  H   UNL     1      18.464  46.365  31.612  1.00  0.00     0.293 HD
ENDBRANCH   6  18
BRANCH  17  20
ATOM     20  O   UNL     1      18.163  50.174  28.257  1.00  0.00    -0.507 OA
ATOM     21  H   UNL     1      18.738  50.715  27.628  1.00  0.00     0.293 HD
ENDBRANCH  17  20
BRANCH  15  22
ATOM     22  O   UNL     1      14.809  53.594  28.267  1.00  0.00    -0.508 OA
ATOM     23  H   UNL     1      14.306  53.666  27.391  1.00  0.00     0.293 HD
ENDBRANCH  15  22
TORSDOF 3
ENDMDL
MODEL 4
REMARK VINA RESULT:    -5.466      1.720      5.545
REMARK INTER + INTRA:          -5.946
REMARK INTER:                  -5.946
REMARK INTRA:                   0.000
REMARK UNBOUND:                 0.000
REMARK SMILES Cc1cc(O)c2c(c1)C(=O)c1cc(O)cc(O)c1C2=O
REMARK SMILES IDX 1 1 2 2 8 3 7 4 6 5 4 6 3 7 19 8 20 9 18 10 11 11 9 12 10 13
REMARK SMILES IDX 12 14 13 15 15 16 16 17 5 18 17 20 14 22
REMARK H PARENT 5 19 17 21 14 23
REMARK Flexibility Score: inf
ROOT
ATOM      1  C   UNL     1      11.389  60.532  32.260  1.00  0.00     0.044 C 
ATOM      2  C   UNL     1      12.240  59.371  32.679  1.00  0.00    -0.047 A 
ATOM      3  C   UNL     1      11.845  58.559  33.749  1.00  0.00     0.016 A 
ATOM      4  C   UNL     1      12.615  57.444  34.127  1.00  0.00     0.038 A 
ATOM      5  C   UNL     1      13.796  57.136  33.418  1.00  0.00     0.076 A 
ATOM      6  C   UNL     1      14.176  57.942  32.322  1.00  0.00     0.127 A 
ATOM      7  C   UNL     1      13.395  59.047  31.960  1.00  0.00     0.050 A 
ATOM      8  C   UNL     1      14.621  55.979  33.856  1.00  0.00     0.201 C 
ATOM      9  O   UNL     1      15.825  55.904  33.491  1.00  0.00    -0.288 OA
ATOM     10  C   UNL     1      14.063  54.981  34.811  1.00  0.00     0.076 A 
ATOM     11  C   UNL     1      12.912  55.332  35.555  1.00  0.00     0.041 A 
ATOM     12  C   UNL     1      12.194  56.595  35.264  1.00  0.00     0.194 C 
ATOM     13  O   UNL     1      11.210  56.939  35.975  1.00  0.00    -0.289 OA
ATOM     14  C   UNL     1      12.446  54.475  36.567  1.00  0.00     0.059 A 
ATOM     15  C   UNL     1      13.098  53.270  36.835  1.00  0.00     0.120 A 
ATOM     16  C   UNL     1      14.203  52.897  36.073  1.00  0.00     0.093 A 
ATOM     17  C   UNL     1      14.673  53.716  35.043  1.00  0.00     0.131 A 
ENDROOT
BRANCH   6  18
ATOM     18  O   UNL     1      15.322  57.643  31.583  1.00  0.00    -0.507 OA
ATOM     19  H   UNL     1      16.252  57.774  31.964  1.00  0.00     0.293 HD
ENDBRANCH   6  18
BRANCH  17  20
ATOM     20  O   UNL     1      15.717  53.219  34.258  1.00  0.00    -0.507 OA
ATOM     21  H   UNL     1      16.688  53.252  34.531  1.00  0.00     0.293 HD
ENDBRANCH  17  20
BRANCH  15  22
ATOM     22  O   UNL     1      12.646  52.428  37.849  1.00  0.00    -0.508 OA
ATOM     23  H   UNL     1      12.849  51.435  37.844  1.00  0.00     0.293 HD
ENDBRANCH  15  22
TORSDOF 3
ENDMDL
MODEL 5
REMARK VINA RESULT:    -5.111      8.222     11.516
REMARK INTER + INTRA:          -5.559
REMARK INTER:                  -5.559
REMARK INTRA:                   0.000
REMARK UNBOUND:                 0.000
REMARK SMILES Cc1cc(O)c2c(c1)C(=O)c1cc(O)cc(O)c1C2=O
REMARK SMILES IDX 1 1 2 2 8 3 7 4 6 5 4 6 3 7 19 8 20 9 18 10 11 11 9 12 10 13
REMARK SMILES IDX 12 14 13 15 15 16 16 17 5 18 17 20 14 22
REMARK H PARENT 5 19 17 21 14 23
REMARK Flexibility Score: inf
ROOT
ATOM      1  C   UNL     1      13.993  51.485  32.358  1.00  0.00     0.044 C 
ATOM      2  C   UNL     1      14.577  50.131  32.085  1.00  0.00    -0.047 A 
ATOM      3  C   UNL     1      13.853  48.975  32.404  1.00  0.00     0.016 A 
ATOM      4  C   UNL     1      14.374  47.701  32.117  1.00  0.00     0.038 A 
ATOM      5  C   UNL     1      15.635  47.582  31.497  1.00  0.00     0.076 A 
ATOM      6  C   UNL     1      16.350  48.752  31.153  1.00  0.00     0.127 A 
ATOM      7  C   UNL     1      15.814  50.012  31.444  1.00  0.00     0.050 A 
ATOM      8  C   UNL     1      16.190  46.227  31.238  1.00  0.00     0.201 C 
ATOM      9  O   UNL     1      17.427  46.093  31.034  1.00  0.00    -0.288 OA
ATOM     10  C   UNL     1      15.313  45.028  31.337  1.00  0.00     0.076 A 
ATOM     11  C   UNL     1      14.077  45.153  32.015  1.00  0.00     0.041 A 
ATOM     12  C   UNL     1      13.605  46.484  32.465  1.00  0.00     0.194 C 
ATOM     13  O   UNL     1      12.537  46.583  33.129  1.00  0.00    -0.289 OA
ATOM     14  C   UNL     1      13.291  44.012  32.253  1.00  0.00     0.059 A 
ATOM     15  C   UNL     1      13.711  42.755  31.813  1.00  0.00     0.120 A 
ATOM     16  C   UNL     1      14.904  42.633  31.104  1.00  0.00     0.093 A 
ATOM     17  C   UNL     1      15.692  43.755  30.828  1.00  0.00     0.131 A 
ENDROOT
BRANCH   6  18
ATOM     18  O   UNL     1      17.586  48.666  30.510  1.00  0.00    -0.507 OA
ATOM     19  H   UNL     1      18.070  49.490  30.172  1.00  0.00     0.293 HD
ENDBRANCH   6  18
BRANCH  17  20
ATOM     20  O   UNL     1      16.815  43.562  30.020  1.00  0.00    -0.507 OA
ATOM     21  H   UNL     1      17.383  42.728  30.038  1.00  0.00     0.293 HD
ENDBRANCH  17  20
BRANCH  15  22
ATOM     22  O   UNL     1      12.942  41.621  32.063  1.00  0.00    -0.508 OA
ATOM     23  H   UNL     1      11.954  41.590  31.841  1.00  0.00     0.293 HD
ENDBRANCH  15  22
TORSDOF 3
ENDMDL
MODEL 6
REMARK VINA RESULT:    -5.087      1.288      6.365
REMARK INTER + INTRA:          -5.533
REMARK INTER:                  -5.533
REMARK INTRA:                   0.000
REMARK UNBOUND:                 0.000
REMARK SMILES Cc1cc(O)c2c(c1)C(=O)c1cc(O)cc(O)c1C2=O
REMARK SMILES IDX 1 1 2 2 8 3 7 4 6 5 4 6 3 7 19 8 20 9 18 10 11 11 9 12 10 13
REMARK SMILES IDX 12 14 13 15 15 16 16 17 5 18 17 20 14 22
REMARK H PARENT 5 19 17 21 14 23
REMARK Flexibility Score: inf
ROOT
ATOM      1  C   UNL     1      16.114  60.148  31.529  1.00  0.00     0.044 C 
ATOM      2  C   UNL     1      15.187  59.311  32.361  1.00  0.00    -0.047 A 
ATOM      3  C   UNL     1      15.553  58.011  32.730  1.00  0.00     0.016 A 
ATOM      4  C   UNL     1      14.709  57.232  33.541  1.00  0.00     0.038 A 
ATOM      5  C   UNL     1      13.483  57.765  33.995  1.00  0.00     0.076 A 
ATOM      6  C   UNL     1      13.131  59.087  33.641  1.00  0.00     0.127 A 
ATOM      7  C   UNL     1      13.986  59.849  32.834  1.00  0.00     0.050 A 
ATOM      8  C   UNL     1      12.584  56.914  34.817  1.00  0.00     0.201 C 
ATOM      9  O   UNL     1      11.366  57.220  34.921  1.00  0.00    -0.288 OA
ATOM     10  C   UNL     1      13.092  55.648  35.415  1.00  0.00     0.076 A 
ATOM     11  C   UNL     1      14.292  55.099  34.907  1.00  0.00     0.041 A 
ATOM     12  C   UNL     1      15.099  55.855  33.921  1.00  0.00     0.194 C 
ATOM     13  O   UNL     1      16.132  55.333  33.417  1.00  0.00    -0.289 OA
ATOM     14  C   UNL     1      14.723  53.834  35.346  1.00  0.00     0.059 A 
ATOM     15  C   UNL     1      13.986  53.121  36.293  1.00  0.00     0.120 A 
ATOM     16  C   UNL     1      12.829  53.679  36.833  1.00  0.00     0.093 A 
ATOM     17  C   UNL     1      12.391  54.945  36.435  1.00  0.00     0.131 A 
ENDROOT
BRANCH   6  18
ATOM     18  O   UNL     1      11.941  59.653  34.100  1.00  0.00    -0.507 OA
ATOM     19  H   UNL     1      11.345  60.206  33.495  1.00  0.00     0.293 HD
ENDBRANCH   6  18
BRANCH  17  20
ATOM     20  O   UNL     1      11.284  55.476  37.103  1.00  0.00    -0.507 OA
ATOM     21  H   UNL     1      10.328  55.313  36.821  1.00  0.00     0.293 HD
ENDBRANCH  17  20
BRANCH  15  22
ATOM     22  O   UNL     1      14.403  51.861  36.717  1.00  0.00    -0.508 OA
ATOM     23  H   UNL     1      14.747  51.704  37.656  1.00  0.00     0.293 HD
ENDBRANCH  15  22
TORSDOF 3
ENDMDL
MODEL 7
REMARK VINA RESULT:    -5.083      2.512      2.597
REMARK INTER + INTRA:          -5.529
REMARK INTER:                  -5.529
REMARK INTRA:                   0.000
REMARK UNBOUND:                 0.000
REMARK SMILES Cc1cc(O)c2c(c1)C(=O)c1cc(O)cc(O)c1C2=O
REMARK SMILES IDX 1 1 2 2 8 3 7 4 6 5 4 6 3 7 19 8 20 9 18 10 11 11 9 12 10 13
REMARK SMILES IDX 12 14 13 15 15 16 16 17 5 18 17 20 14 22
REMARK H PARENT 5 19 17 21 14 23
REMARK Flexibility Score: inf
ROOT
ATOM      1  C   UNL     1      10.953  52.955  32.621  1.00  0.00     0.044 C 
ATOM      2  C   UNL     1      12.195  53.780  32.451  1.00  0.00    -0.047 A 
ATOM      3  C   UNL     1      12.270  55.061  33.011  1.00  0.00     0.016 A 
ATOM      4  C   UNL     1      13.442  55.828  32.892  1.00  0.00     0.038 A 
ATOM      5  C   UNL     1      14.558  55.302  32.207  1.00  0.00     0.076 A 
ATOM      6  C   UNL     1      14.487  53.998  31.667  1.00  0.00     0.127 A 
ATOM      7  C   UNL     1      13.311  53.248  31.798  1.00  0.00     0.050 A 
ATOM      8  C   UNL     1      15.776  56.141  32.053  1.00  0.00     0.201 C 
ATOM      9  O   UNL     1      16.618  55.853  31.162  1.00  0.00    -0.288 OA
ATOM     10  C   UNL     1      15.938  57.378  32.867  1.00  0.00     0.076 A 
ATOM     11  C   UNL     1      14.796  57.923  33.498  1.00  0.00     0.041 A 
ATOM     12  C   UNL     1      13.511  57.185  33.479  1.00  0.00     0.194 C 
ATOM     13  O   UNL     1      12.477  57.706  33.983  1.00  0.00    -0.289 OA
ATOM     14  C   UNL     1      14.883  59.166  34.151  1.00  0.00     0.059 A 
ATOM     15  C   UNL     1      16.093  59.861  34.198  1.00  0.00     0.120 A 
ATOM     16  C   UNL     1      17.233  59.306  33.619  1.00  0.00     0.093 A 
ATOM     17  C   UNL     1      17.181  58.060  32.987  1.00  0.00     0.131 A 
ENDROOT
BRANCH   6  18
ATOM     18  O   UNL     1      15.585  53.439  31.012  1.00  0.00    -0.507 OA
ATOM     19  H   UNL     1      15.990  52.557  31.306  1.00  0.00     0.293 HD
ENDBRANCH   6  18
BRANCH  17  20
ATOM     20  O   UNL     1      18.389  57.527  32.529  1.00  0.00    -0.507 OA
ATOM     21  H   UNL     1      18.855  57.835  31.688  1.00  0.00     0.293 HD
ENDBRANCH  17  20
BRANCH  15  22
ATOM     22  O   UNL     1      16.177  61.099  34.830  1.00  0.00    -0.508 OA
ATOM     23  H   UNL     1      15.470  61.812  34.697  1.00  0.00     0.293 HD
ENDBRANCH  15  22
TORSDOF 3
ENDMDL
MODEL 8
REMARK VINA RESULT:    -4.994      1.507      3.496
REMARK INTER + INTRA:          -5.432
REMARK INTER:                  -5.432
REMARK INTRA:                   0.000
REMARK UNBOUND:                 0.000
REMARK SMILES Cc1cc(O)c2c(c1)C(=O)c1cc(O)cc(O)c1C2=O
REMARK SMILES IDX 1 1 2 2 8 3 7 4 6 5 4 6 3 7 19 8 20 9 18 10 11 11 9 12 10 13
REMARK SMILES IDX 12 14 13 15 15 16 16 17 5 18 17 20 14 22
REMARK H PARENT 5 19 17 21 14 23
REMARK Flexibility Score: inf
ROOT
ATOM      1  C   UNL     1      13.068  52.503  37.497  1.00  0.00     0.044 C 
ATOM      2  C   UNL     1      13.010  53.734  36.642  1.00  0.00    -0.047 A 
ATOM      3  C   UNL     1      13.907  53.895  35.578  1.00  0.00     0.016 A 
ATOM      4  C   UNL     1      13.836  55.026  34.746  1.00  0.00     0.038 A 
ATOM      5  C   UNL     1      12.850  56.008  34.979  1.00  0.00     0.076 A 
ATOM      6  C   UNL     1      11.931  55.828  36.037  1.00  0.00     0.127 A 
ATOM      7  C   UNL     1      12.015  54.694  36.854  1.00  0.00     0.050 A 
ATOM      8  C   UNL     1      12.816  57.218  34.116  1.00  0.00     0.201 C 
ATOM      9  O   UNL     1      12.208  58.247  34.516  1.00  0.00    -0.288 OA
ATOM     10  C   UNL     1      13.591  57.252  32.844  1.00  0.00     0.076 A 
ATOM     11  C   UNL     1      14.615  56.295  32.655  1.00  0.00     0.041 A 
ATOM     12  C   UNL     1      14.793  55.192  33.628  1.00  0.00     0.194 C 
ATOM     13  O   UNL     1      15.750  54.381  33.494  1.00  0.00    -0.289 OA
ATOM     14  C   UNL     1      15.460  56.387  31.535  1.00  0.00     0.059 A 
ATOM     15  C   UNL     1      15.288  57.407  30.597  1.00  0.00     0.120 A 
ATOM     16  C   UNL     1      14.251  58.324  30.753  1.00  0.00     0.093 A 
ATOM     17  C   UNL     1      13.379  58.240  31.842  1.00  0.00     0.131 A 
ENDROOT
BRANCH   6  18
ATOM     18  O   UNL     1      10.925  56.767  36.272  1.00  0.00    -0.507 OA
ATOM     19  H   UNL     1      10.085  56.531  36.789  1.00  0.00     0.293 HD
ENDBRANCH   6  18
BRANCH  17  20
ATOM     20  O   UNL     1      12.302  59.130  31.867  1.00  0.00    -0.507 OA
ATOM     21  H   UNL     1      11.636  59.184  32.624  1.00  0.00     0.293 HD
ENDBRANCH  17  20
BRANCH  15  22
ATOM     22  O   UNL     1      16.136  57.509  29.496  1.00  0.00    -0.508 OA
ATOM     23  H   UNL     1      16.100  58.306  28.871  1.00  0.00     0.293 HD
ENDBRANCH  15  22
TORSDOF 3
ENDMDL
MODEL 9
REMARK VINA RESULT:    -4.837     12.390     13.656
REMARK INTER + INTRA:          -5.262
REMARK INTER:                  -5.262
REMARK INTRA:                   0.000
REMARK UNBOUND:                 0.000
REMARK SMILES Cc1cc(O)c2c(c1)C(=O)c1cc(O)cc(O)c1C2=O
REMARK SMILES IDX 1 1 2 2 8 3 7 4 6 5 4 6 3 7 19 8 20 9 18 10 11 11 9 12 10 13
REMARK SMILES IDX 12 14 13 15 15 16 16 17 5 18 17 20 14 22
REMARK H PARENT 5 19 17 21 14 23
REMARK Flexibility Score: inf
ROOT
ATOM      1  C   UNL     1      27.699  58.714  36.830  1.00  0.00     0.044 C 
ATOM      2  C   UNL     1      26.972  57.953  37.900  1.00  0.00    -0.047 A 
ATOM      3  C   UNL     1      26.605  58.591  39.091  1.00  0.00     0.016 A 
ATOM      4  C   UNL     1      25.890  57.899  40.084  1.00  0.00     0.038 A 
ATOM      5  C   UNL     1      25.533  56.549  39.880  1.00  0.00     0.076 A 
ATOM      6  C   UNL     1      25.883  55.917  38.665  1.00  0.00     0.127 A 
ATOM      7  C   UNL     1      26.593  56.624  37.686  1.00  0.00     0.050 A 
ATOM      8  C   UNL     1      24.814  55.819  40.957  1.00  0.00     0.201 C 
ATOM      9  O   UNL     1      24.810  54.559  40.955  1.00  0.00    -0.288 OA
ATOM     10  C   UNL     1      24.204  56.569  42.090  1.00  0.00     0.076 A 
ATOM     11  C   UNL     1      24.619  57.903  42.314  1.00  0.00     0.041 A 
ATOM     12  C   UNL     1      25.511  58.579  41.344  1.00  0.00     0.194 C 
ATOM     13  O   UNL     1      25.935  59.744  41.581  1.00  0.00    -0.289 OA
ATOM     14  C   UNL     1      24.175  58.591  43.458  1.00  0.00     0.059 A 
ATOM     15  C   UNL     1      23.314  57.975  44.368  1.00  0.00     0.120 A 
ATOM     16  C   UNL     1      22.865  56.678  44.127  1.00  0.00     0.093 A 
ATOM     17  C   UNL     1      23.268  55.981  42.985  1.00  0.00     0.131 A 
ENDROOT
BRANCH   6  18
ATOM     18  O   UNL     1      25.516  54.593  38.421  1.00  0.00    -0.507 OA
ATOM     19  H   UNL     1      26.159  53.930  38.003  1.00  0.00     0.293 HD
ENDBRANCH   6  18
BRANCH  17  20
ATOM     20  O   UNL     1      22.687  54.729  42.764  1.00  0.00    -0.507 OA
ATOM     21  H   UNL     1      21.916  54.365  43.304  1.00  0.00     0.293 HD
ENDBRANCH  17  20
BRANCH  15  22
ATOM     22  O   UNL     1      22.887  58.649  45.510  1.00  0.00    -0.508 OA
ATOM     23  H   UNL     1      22.500  59.584  45.461  1.00  0.00     0.293 HD
ENDBRANCH  15  22
TORSDOF 3
ENDMDL
