MODEL 1
REMARK VINA RESULT:    -4.585      0.000      0.000
REMARK INTER + INTRA:          -6.662
REMARK INTER:                  -6.194
REMARK INTRA:                  -0.469
REMARK UNBOUND:                -0.469
REMARK SMILES CCCCCCCC(=O)[O-]
REMARK SMILES IDX 5 1 6 2 7 3 8 4 9 5 10 6 4 7 3 8 2 9 1 10
REMARK H PARENT
REMARK Flexibility Score: inf
ROOT
ATOM      1  C   UNL     1      14.025  -0.967  26.959  1.00  0.00     0.000 C 
ENDROOT
BRANCH   1   2
ATOM      2  C   UNL     1      12.742  -1.343  26.205  1.00  0.00     0.006 C 
BRANCH   2   3
ATOM      3  C   UNL     1      11.592  -0.369  26.492  1.00  0.00     0.053 C 
BRANCH   3   4
ATOM      4  C   UNL     1      11.197   0.402  25.270  1.00  0.00     0.041 C 
ATOM      5  O   UNL     1      12.040   1.127  24.677  1.00  0.00    -0.550 OA
ATOM      6  O   UNL     1       9.889   0.347  24.803  1.00  0.00    -0.550 OA
ENDBRANCH   3   4
ENDBRANCH   2   3
ENDBRANCH   1   2
BRANCH   1   7
ATOM      7  C   UNL     1      13.822   0.303  27.794  1.00  0.00     0.000 C 
BRANCH   7   8
ATOM      8  C   UNL     1      14.574   1.492  27.179  1.00  0.00    -0.000 C 
BRANCH   8   9
ATOM      9  C   UNL     1      15.356   1.107  25.914  1.00  0.00    -0.003 C 
ATOM     10  C   UNL     1      15.486   2.263  24.924  1.00  0.00     0.004 C 
ENDBRANCH   8   9
ENDBRANCH   7   8
ENDBRANCH   1   7
TORSDOF 6
ENDMDL
MODEL 2
REMARK VINA RESULT:    -4.508      2.135      3.873
REMARK INTER + INTRA:          -6.557
REMARK INTER:                  -6.104
REMARK INTRA:                  -0.453
REMARK UNBOUND:                -0.469
REMARK SMILES CCCCCCCC(=O)[O-]
REMARK SMILES IDX 5 1 6 2 7 3 8 4 9 5 10 6 4 7 3 8 2 9 1 10
REMARK H PARENT
REMARK Flexibility Score: inf
ROOT
ATOM      1  C   UNL     1      12.722  -1.154  26.072  1.00  0.00     0.000 C 
ENDROOT
BRANCH   1   2
ATOM      2  C   UNL     1      13.901  -0.829  27.000  1.00  0.00     0.006 C 
BRANCH   2   3
ATOM      3  C   UNL     1      15.108  -0.272  26.234  1.00  0.00     0.053 C 
BRANCH   3   4
ATOM      4  C   UNL     1      15.091   1.224  26.180  1.00  0.00     0.041 C 
ATOM      5  O   UNL     1      14.382   1.880  26.989  1.00  0.00    -0.550 OA
ATOM      6  O   UNL     1      15.832   1.896  25.215  1.00  0.00    -0.550 OA
ENDBRANCH   3   4
ENDBRANCH   2   3
ENDBRANCH   1   2
BRANCH   1   7
ATOM      7  C   UNL     1      11.402  -0.640  26.658  1.00  0.00     0.000 C 
BRANCH   7   8
ATOM      8  C   UNL     1      10.774   0.427  25.748  1.00  0.00    -0.000 C 
BRANCH   8   9
ATOM      9  C   UNL     1      11.680   0.804  24.567  1.00  0.00    -0.003 C 
ATOM     10  C   UNL     1      10.975   0.677  23.218  1.00  0.00     0.004 C 
ENDBRANCH   8   9
ENDBRANCH   7   8
ENDBRANCH   1   7
TORSDOF 6
ENDMDL
MODEL 3
REMARK VINA RESULT:    -4.488      3.119      4.558
REMARK INTER + INTRA:          -6.531
REMARK INTER:                  -6.074
REMARK INTRA:                  -0.457
REMARK UNBOUND:                -0.469
REMARK SMILES CCCCCCCC(=O)[O-]
REMARK SMILES IDX 5 1 6 2 7 3 8 4 9 5 10 6 4 7 3 8 2 9 1 10
REMARK H PARENT
REMARK Flexibility Score: inf
ROOT
ATOM      1  C   UNL     1      14.230   0.721  26.453  1.00  0.00     0.000 C 
ENDROOT
BRANCH   1   2
ATOM      2  C   UNL     1      14.347   1.340  27.853  1.00  0.00     0.006 C 
BRANCH   2   3
ATOM      3  C   UNL     1      13.341   0.737  28.842  1.00  0.00     0.053 C 
BRANCH   3   4
ATOM      4  C   UNL     1      14.004  -0.190  29.814  1.00  0.00     0.041 C 
ATOM      5  O   UNL     1      13.946   0.042  31.051  1.00  0.00    -0.550 OA
ATOM      6  O   UNL     1      14.715  -1.292  29.354  1.00  0.00    -0.550 OA
ENDBRANCH   3   4
ENDBRANCH   2   3
ENDBRANCH   1   2
BRANCH   1   7
ATOM      7  C   UNL     1      13.798   1.769  25.421  1.00  0.00     0.000 C 
BRANCH   7   8
ATOM      8  C   UNL     1      12.422   1.427  24.831  1.00  0.00    -0.000 C 
BRANCH   8   9
ATOM      9  C   UNL     1      11.857   0.106  25.376  1.00  0.00    -0.003 C 
ATOM     10  C   UNL     1      10.528   0.288  26.106  1.00  0.00     0.004 C 
ENDBRANCH   8   9
ENDBRANCH   7   8
ENDBRANCH   1   7
TORSDOF 6
ENDMDL
MODEL 4
REMARK VINA RESULT:    -4.458      1.397      3.722
REMARK INTER + INTRA:          -6.491
REMARK INTER:                  -5.998
REMARK INTRA:                  -0.492
REMARK UNBOUND:                -0.469
REMARK SMILES CCCCCCCC(=O)[O-]
REMARK SMILES IDX 5 1 6 2 7 3 8 4 9 5 10 6 4 7 3 8 2 9 1 10
REMARK H PARENT
REMARK Flexibility Score: inf
ROOT
ATOM      1  C   UNL     1      13.690   0.139  27.885  1.00  0.00     0.000 C 
ENDROOT
BRANCH   1   2
ATOM      2  C   UNL     1      14.456   1.424  27.538  1.00  0.00     0.006 C 
BRANCH   2   3
ATOM      3  C   UNL     1      15.232   1.300  26.221  1.00  0.00     0.053 C 
BRANCH   3   4
ATOM      4  C   UNL     1      14.656   2.176  25.151  1.00  0.00     0.041 C 
ATOM      5  O   UNL     1      15.404   2.947  24.493  1.00  0.00    -0.550 OA
ATOM      6  O   UNL     1      13.290   2.165  24.901  1.00  0.00    -0.550 OA
ENDBRANCH   3   4
ENDBRANCH   2   3
ENDBRANCH   1   2
BRANCH   1   7
ATOM      7  C   UNL     1      13.869  -0.922  26.792  1.00  0.00     0.000 C 
BRANCH   7   8
ATOM      8  C   UNL     1      12.543  -1.193  26.067  1.00  0.00    -0.000 C 
BRANCH   8   9
ATOM      9  C   UNL     1      11.365  -0.419  26.678  1.00  0.00    -0.003 C 
ATOM     10  C   UNL     1      10.503   0.273  25.623  1.00  0.00     0.004 C 
ENDBRANCH   8   9
ENDBRANCH   7   8
ENDBRANCH   1   7
TORSDOF 6
ENDMDL
MODEL 5
REMARK VINA RESULT:    -4.449      3.369      4.283
REMARK INTER + INTRA:          -6.478
REMARK INTER:                  -6.071
REMARK INTRA:                  -0.406
REMARK UNBOUND:                -0.469
REMARK SMILES CCCCCCCC(=O)[O-]
REMARK SMILES IDX 5 1 6 2 7 3 8 4 9 5 10 6 4 7 3 8 2 9 1 10
REMARK H PARENT
REMARK Flexibility Score: inf
ROOT
ATOM      1  C   UNL     1      12.570   0.127  27.571  1.00  0.00     0.000 C 
ENDROOT
BRANCH   1   2
ATOM      2  C   UNL     1      13.354   0.920  28.627  1.00  0.00     0.006 C 
BRANCH   2   3
ATOM      3  C   UNL     1      13.421   0.186  29.973  1.00  0.00     0.053 C 
BRANCH   3   4
ATOM      4  C   UNL     1      14.653  -0.658  30.086  1.00  0.00     0.041 C 
ATOM      5  O   UNL     1      14.834  -1.624  29.297  1.00  0.00    -0.550 OA
ATOM      6  O   UNL     1      15.586  -0.401  31.083  1.00  0.00    -0.550 OA
ENDBRANCH   3   4
ENDBRANCH   2   3
ENDBRANCH   1   2
BRANCH   1   7
ATOM      7  C   UNL     1      13.251   0.212  26.200  1.00  0.00     0.000 C 
BRANCH   7   8
ATOM      8  C   UNL     1      14.753   0.496  26.348  1.00  0.00    -0.000 C 
BRANCH   8   9
ATOM      9  C   UNL     1      15.225   1.660  25.463  1.00  0.00    -0.003 C 
ATOM     10  C   UNL     1      14.079   2.573  25.029  1.00  0.00     0.004 C 
ENDBRANCH   8   9
ENDBRANCH   7   8
ENDBRANCH   1   7
TORSDOF 6
ENDMDL
MODEL 6
REMARK VINA RESULT:    -4.423      1.810      3.613
REMARK INTER + INTRA:          -6.444
REMARK INTER:                  -6.039
REMARK INTRA:                  -0.405
REMARK UNBOUND:                -0.469
REMARK SMILES CCCCCCCC(=O)[O-]
REMARK SMILES IDX 5 1 6 2 7 3 8 4 9 5 10 6 4 7 3 8 2 9 1 10
REMARK H PARENT
REMARK Flexibility Score: inf
ROOT
ATOM      1  C   UNL     1      14.794  -0.216  26.306  1.00  0.00     0.000 C 
ENDROOT
BRANCH   1   2
ATOM      2  C   UNL     1      15.042   1.292  26.450  1.00  0.00     0.006 C 
BRANCH   2   3
ATOM      3  C   UNL     1      14.995   2.021  25.101  1.00  0.00     0.053 C 
BRANCH   3   4
ATOM      4  C   UNL     1      13.643   2.606  24.831  1.00  0.00     0.041 C 
ATOM      5  O   UNL     1      12.627   1.863  24.795  1.00  0.00    -0.550 OA
ATOM      6  O   UNL     1      13.509   3.967  24.584  1.00  0.00    -0.550 OA
ENDBRANCH   3   4
ENDBRANCH   2   3
ENDBRANCH   1   2
BRANCH   1   7
ATOM      7  C   UNL     1      13.930  -0.745  27.456  1.00  0.00     0.000 C 
BRANCH   7   8
ATOM      8  C   UNL     1      13.074   0.376  28.064  1.00  0.00    -0.000 C 
BRANCH   8   9
ATOM      9  C   UNL     1      13.206   0.459  29.592  1.00  0.00    -0.003 C 
ATOM     10  C   UNL     1      14.380  -0.359  30.128  1.00  0.00     0.004 C 
ENDBRANCH   8   9
ENDBRANCH   7   8
ENDBRANCH   1   7
TORSDOF 6
ENDMDL
MODEL 7
REMARK VINA RESULT:    -4.422      3.507      4.797
REMARK INTER + INTRA:          -6.442
REMARK INTER:                  -5.939
REMARK INTRA:                  -0.503
REMARK UNBOUND:                -0.469
REMARK SMILES CCCCCCCC(=O)[O-]
REMARK SMILES IDX 5 1 6 2 7 3 8 4 9 5 10 6 4 7 3 8 2 9 1 10
REMARK H PARENT
REMARK Flexibility Score: inf
ROOT
ATOM      1  C   UNL     1      14.361   1.240  28.151  1.00  0.00     0.000 C 
ENDROOT
BRANCH   1   2
ATOM      2  C   UNL     1      13.142   0.679  28.898  1.00  0.00     0.006 C 
BRANCH   2   3
ATOM      3  C   UNL     1      13.484   0.253  30.331  1.00  0.00     0.053 C 
BRANCH   3   4
ATOM      4  C   UNL     1      14.692  -0.631  30.376  1.00  0.00     0.041 C 
ATOM      5  O   UNL     1      14.731  -1.687  29.689  1.00  0.00    -0.550 OA
ATOM      6  O   UNL     1      15.763  -0.308  31.201  1.00  0.00    -0.550 OA
ENDBRANCH   3   4
ENDBRANCH   2   3
ENDBRANCH   1   2
BRANCH   1   7
ATOM      7  C   UNL     1      14.526   0.567  26.783  1.00  0.00     0.000 C 
BRANCH   7   8
ATOM      8  C   UNL     1      13.413  -0.463  26.537  1.00  0.00    -0.000 C 
BRANCH   8   9
ATOM      9  C   UNL     1      13.961  -1.871  26.260  1.00  0.00    -0.003 C 
ATOM     10  C   UNL     1      15.482  -1.948  26.387  1.00  0.00     0.004 C 
ENDBRANCH   8   9
ENDBRANCH   7   8
ENDBRANCH   1   7
TORSDOF 6
ENDMDL
MODEL 8
REMARK VINA RESULT:    -4.402      1.631      2.741
REMARK INTER + INTRA:          -6.415
REMARK INTER:                  -6.072
REMARK INTRA:                  -0.343
REMARK UNBOUND:                -0.469
REMARK SMILES CCCCCCCC(=O)[O-]
REMARK SMILES IDX 5 1 6 2 7 3 8 4 9 5 10 6 4 7 3 8 2 9 1 10
REMARK H PARENT
REMARK Flexibility Score: inf
ROOT
ATOM      1  C   UNL     1      13.967  -0.659  27.250  1.00  0.00     0.000 C 
ENDROOT
BRANCH   1   2
ATOM      2  C   UNL     1      12.887  -1.152  26.277  1.00  0.00     0.006 C 
BRANCH   2   3
ATOM      3  C   UNL     1      11.558  -0.409  26.457  1.00  0.00     0.053 C 
BRANCH   3   4
ATOM      4  C   UNL     1      11.203   0.401  25.248  1.00  0.00     0.041 C 
ATOM      5  O   UNL     1      12.063   1.151  24.714  1.00  0.00    -0.550 OA
ATOM      6  O   UNL     1       9.915   0.355  24.731  1.00  0.00    -0.550 OA
ENDBRANCH   3   4
ENDBRANCH   2   3
ENDBRANCH   1   2
BRANCH   1   7
ATOM      7  C   UNL     1      13.460   0.526  28.081  1.00  0.00     0.000 C 
BRANCH   7   8
ATOM      8  C   UNL     1      13.557   0.226  29.585  1.00  0.00    -0.000 C 
BRANCH   8   9
ATOM      9  C   UNL     1      14.610  -0.846  29.907  1.00  0.00    -0.003 C 
ATOM     10  C   UNL     1      15.472  -0.482  31.114  1.00  0.00     0.004 C 
ENDBRANCH   8   9
ENDBRANCH   7   8
ENDBRANCH   1   7
TORSDOF 6
ENDMDL
MODEL 9
REMARK VINA RESULT:    -4.386      2.843      4.125
REMARK INTER + INTRA:          -6.393
REMARK INTER:                  -6.113
REMARK INTRA:                  -0.280
REMARK UNBOUND:                -0.469
REMARK SMILES CCCCCCCC(=O)[O-]
REMARK SMILES IDX 5 1 6 2 7 3 8 4 9 5 10 6 4 7 3 8 2 9 1 10
REMARK H PARENT
REMARK Flexibility Score: inf
ROOT
ATOM      1  C   UNL     1      12.774  -1.154  26.088  1.00  0.00     0.000 C 
ENDROOT
BRANCH   1   2
ATOM      2  C   UNL     1      14.047  -0.881  26.902  1.00  0.00     0.006 C 
BRANCH   2   3
ATOM      3  C   UNL     1      14.001   0.476  27.616  1.00  0.00     0.053 C 
BRANCH   3   4
ATOM      4  C   UNL     1      13.867   0.320  29.099  1.00  0.00     0.041 C 
ATOM      5  O   UNL     1      14.634  -0.458  29.727  1.00  0.00    -0.550 OA
ATOM      6  O   UNL     1      12.874   1.008  29.786  1.00  0.00    -0.550 OA
ENDBRANCH   3   4
ENDBRANCH   2   3
ENDBRANCH   1   2
BRANCH   1   7
ATOM      7  C   UNL     1      11.561  -0.452  26.711  1.00  0.00     0.000 C 
BRANCH   7   8
ATOM      8  C   UNL     1      10.766   0.321  25.648  1.00  0.00    -0.000 C 
BRANCH   8   9
ATOM      9  C   UNL     1      11.651   0.823  24.497  1.00  0.00    -0.003 C 
ATOM     10  C   UNL     1      10.985   0.672  23.131  1.00  0.00     0.004 C 
ENDBRANCH   8   9
ENDBRANCH   7   8
ENDBRANCH   1   7
TORSDOF 6
ENDMDL
