MODEL 1
REMARK VINA RESULT:    -3.738      0.000      0.000
REMARK INTER + INTRA:          -8.781
REMARK INTER:                  -6.797
REMARK INTRA:                  -1.984
REMARK UNBOUND:                -1.984
REMARK SMILES CCCCCCCCCCCCCCCC(=O)[O-]
REMARK SMILES IDX 9 1 10 2 11 3 12 4 13 5 14 6 15 7 16 8 17 9 18 10 8 11 7 12
REMARK SMILES IDX 6 13 5 14 4 15 3 16 2 17 1 18
REMARK H PARENT
REMARK Flexibility Score: inf
ROOT
ATOM      1  C   UNL     1      61.242  25.470  23.460  1.00  0.00     0.000 C 
ENDROOT
BRANCH   1   2
ATOM      2  C   UNL     1      60.410  24.187  23.637  1.00  0.00     0.000 C 
BRANCH   2   3
ATOM      3  C   UNL     1      60.376  23.700  25.095  1.00  0.00     0.000 C 
BRANCH   3   4
ATOM      4  C   UNL     1      59.654  22.351  25.249  1.00  0.00     0.000 C 
BRANCH   4   5
ATOM      5  C   UNL     1      59.476  21.610  23.911  1.00  0.00     0.000 C 
BRANCH   5   6
ATOM      6  C   UNL     1      58.016  21.422  23.452  1.00  0.00     0.006 C 
BRANCH   6   7
ATOM      7  C   UNL     1      57.029  22.454  24.020  1.00  0.00     0.053 C 
BRANCH   7   8
ATOM      8  C   UNL     1      55.803  22.586  23.169  1.00  0.00     0.041 C 
ATOM      9  O   UNL     1      55.908  22.877  21.949  1.00  0.00    -0.550 OA
ATOM     10  O   UNL     1      54.548  22.354  23.717  1.00  0.00    -0.550 OA
ENDBRANCH   7   8
ENDBRANCH   6   7
ENDBRANCH   5   6
ENDBRANCH   4   5
ENDBRANCH   3   4
ENDBRANCH   2   3
ENDBRANCH   1   2
BRANCH   1  11
ATOM     11  C   UNL     1      62.307  25.340  22.359  1.00  0.00     0.000 C 
BRANCH  11  12
ATOM     12  C   UNL     1      63.721  25.127  22.929  1.00  0.00    -0.000 C 
BRANCH  12  13
ATOM     13  C   UNL     1      64.036  23.646  23.205  1.00  0.00    -0.000 C 
BRANCH  13  14
ATOM     14  C   UNL     1      63.727  22.679  22.044  1.00  0.00    -0.000 C 
BRANCH  14  15
ATOM     15  C   UNL     1      62.847  21.470  22.412  1.00  0.00    -0.000 C 
BRANCH  15  16
ATOM     16  C   UNL     1      61.928  21.030  21.260  1.00  0.00    -0.000 C 
BRANCH  16  17
ATOM     17  C   UNL     1      61.324  22.222  20.501  1.00  0.00    -0.003 C 
ATOM     18  C   UNL     1      61.715  22.247  19.024  1.00  0.00     0.004 C 
ENDBRANCH  16  17
ENDBRANCH  15  16
ENDBRANCH  14  15
ENDBRANCH  13  14
ENDBRANCH  12  13
ENDBRANCH  11  12
ENDBRANCH   1  11
TORSDOF 14
ENDMDL
MODEL 2
REMARK VINA RESULT:    -3.680      2.441      6.155
REMARK INTER + INTRA:          -8.675
REMARK INTER:                  -7.290
REMARK INTRA:                  -1.385
REMARK UNBOUND:                -1.984
REMARK SMILES CCCCCCCCCCCCCCCC(=O)[O-]
REMARK SMILES IDX 9 1 10 2 11 3 12 4 13 5 14 6 15 7 16 8 17 9 18 10 8 11 7 12
REMARK SMILES IDX 6 13 5 14 4 15 3 16 2 17 1 18
REMARK H PARENT
REMARK Flexibility Score: inf
ROOT
ATOM      1  C   UNL     1      60.830  22.354  20.556  1.00  0.00     0.000 C 
ENDROOT
BRANCH   1   2
ATOM      2  C   UNL     1      61.957  22.003  19.567  1.00  0.00     0.000 C 
BRANCH   2   3
ATOM      3  C   UNL     1      63.248  21.559  20.273  1.00  0.00     0.000 C 
BRANCH   3   4
ATOM      4  C   UNL     1      64.124  22.748  20.704  1.00  0.00     0.000 C 
BRANCH   4   5
ATOM      5  C   UNL     1      63.965  23.101  22.194  1.00  0.00     0.000 C 
BRANCH   5   6
ATOM      6  C   UNL     1      64.009  24.608  22.522  1.00  0.00     0.006 C 
BRANCH   6   7
ATOM      7  C   UNL     1      62.658  25.329  22.393  1.00  0.00     0.053 C 
BRANCH   7   8
ATOM      8  C   UNL     1      61.896  25.328  23.682  1.00  0.00     0.041 C 
ATOM      9  O   UNL     1      62.465  25.658  24.755  1.00  0.00    -0.550 OA
ATOM     10  O   UNL     1      60.546  24.997  23.693  1.00  0.00    -0.550 OA
ENDBRANCH   7   8
ENDBRANCH   6   7
ENDBRANCH   5   6
ENDBRANCH   4   5
ENDBRANCH   3   4
ENDBRANCH   2   3
ENDBRANCH   1   2
BRANCH   1  11
ATOM     11  C   UNL     1      60.450  21.174  21.465  1.00  0.00     0.000 C 
BRANCH  11  12
ATOM     12  C   UNL     1      60.664  21.488  22.957  1.00  0.00    -0.000 C 
BRANCH  12  13
ATOM     13  C   UNL     1      59.557  20.904  23.853  1.00  0.00    -0.000 C 
BRANCH  13  14
ATOM     14  C   UNL     1      58.116  21.124  23.351  1.00  0.00    -0.000 C 
BRANCH  14  15
ATOM     15  C   UNL     1      57.680  22.596  23.228  1.00  0.00    -0.000 C 
BRANCH  15  16
ATOM     16  C   UNL     1      56.158  22.756  23.074  1.00  0.00    -0.000 C 
BRANCH  16  17
ATOM     17  C   UNL     1      55.396  21.461  23.392  1.00  0.00    -0.003 C 
ATOM     18  C   UNL     1      53.885  21.669  23.491  1.00  0.00     0.004 C 
ENDBRANCH  16  17
ENDBRANCH  15  16
ENDBRANCH  14  15
ENDBRANCH  13  14
ENDBRANCH  12  13
ENDBRANCH  11  12
ENDBRANCH   1  11
TORSDOF 14
ENDMDL
MODEL 3
REMARK VINA RESULT:    -3.521      2.290      5.561
REMARK INTER + INTRA:          -8.387
REMARK INTER:                  -6.739
REMARK INTRA:                  -1.648
REMARK UNBOUND:                -1.984
REMARK SMILES CCCCCCCCCCCCCCCC(=O)[O-]
REMARK SMILES IDX 9 1 10 2 11 3 12 4 13 5 14 6 15 7 16 8 17 9 18 10 8 11 7 12
REMARK SMILES IDX 6 13 5 14 4 15 3 16 2 17 1 18
REMARK H PARENT
REMARK Flexibility Score: inf
ROOT
ATOM      1  C   UNL     1      60.759  25.159  23.509  1.00  0.00     0.000 C 
ENDROOT
BRANCH   1   2
ATOM      2  C   UNL     1      62.010  25.650  22.758  1.00  0.00     0.000 C 
BRANCH   2   3
ATOM      3  C   UNL     1      63.264  24.827  23.093  1.00  0.00     0.000 C 
BRANCH   3   4
ATOM      4  C   UNL     1      63.602  23.797  22.002  1.00  0.00     0.000 C 
BRANCH   4   5
ATOM      5  C   UNL     1      63.602  22.349  22.524  1.00  0.00     0.000 C 
BRANCH   5   6
ATOM      6  C   UNL     1      62.740  21.358  21.715  1.00  0.00     0.006 C 
BRANCH   6   7
ATOM      7  C   UNL     1      63.004  21.368  20.202  1.00  0.00     0.053 C 
BRANCH   7   8
ATOM      8  C   UNL     1      61.858  21.952  19.435  1.00  0.00     0.041 C 
ATOM      9  O   UNL     1      60.685  21.859  19.882  1.00  0.00    -0.550 OA
ATOM     10  O   UNL     1      62.089  22.629  18.244  1.00  0.00    -0.550 OA
ENDBRANCH   7   8
ENDBRANCH   6   7
ENDBRANCH   5   6
ENDBRANCH   4   5
ENDBRANCH   3   4
ENDBRANCH   2   3
ENDBRANCH   1   2
BRANCH   1  11
ATOM     11  C   UNL     1      61.100  24.226  24.683  1.00  0.00     0.000 C 
BRANCH  11  12
ATOM     12  C   UNL     1      60.478  22.828  24.525  1.00  0.00    -0.000 C 
BRANCH  12  13
ATOM     13  C   UNL     1      59.611  22.700  23.260  1.00  0.00    -0.000 C 
BRANCH  13  14
ATOM     14  C   UNL     1      59.076  21.283  22.967  1.00  0.00    -0.000 C 
BRANCH  14  15
ATOM     15  C   UNL     1      57.567  21.088  23.206  1.00  0.00    -0.000 C 
BRANCH  15  16
ATOM     16  C   UNL     1      56.845  22.399  23.558  1.00  0.00    -0.000 C 
BRANCH  16  17
ATOM     17  C   UNL     1      55.510  22.554  22.813  1.00  0.00    -0.003 C 
ATOM     18  C   UNL     1      54.353  21.838  23.510  1.00  0.00     0.004 C 
ENDBRANCH  16  17
ENDBRANCH  15  16
ENDBRANCH  14  15
ENDBRANCH  13  14
ENDBRANCH  12  13
ENDBRANCH  11  12
ENDBRANCH   1  11
TORSDOF 14
ENDMDL
MODEL 4
REMARK VINA RESULT:    -3.409      2.790      6.236
REMARK INTER + INTRA:          -8.184
REMARK INTER:                  -6.561
REMARK INTRA:                  -1.623
REMARK UNBOUND:                -1.984
REMARK SMILES CCCCCCCCCCCCCCCC(=O)[O-]
REMARK SMILES IDX 9 1 10 2 11 3 12 4 13 5 14 6 15 7 16 8 17 9 18 10 8 11 7 12
REMARK SMILES IDX 6 13 5 14 4 15 3 16 2 17 1 18
REMARK H PARENT
REMARK Flexibility Score: inf
ROOT
ATOM      1  C   UNL     1      60.099  22.074  21.501  1.00  0.00     0.000 C 
ENDROOT
BRANCH   1   2
ATOM      2  C   UNL     1      60.729  22.020  20.097  1.00  0.00     0.000 C 
BRANCH   2   3
ATOM      3  C   UNL     1      62.153  21.440  20.109  1.00  0.00     0.000 C 
BRANCH   3   4
ATOM      4  C   UNL     1      63.234  22.533  20.132  1.00  0.00     0.000 C 
BRANCH   4   5
ATOM      5  C   UNL     1      64.125  22.470  21.386  1.00  0.00     0.000 C 
BRANCH   5   6
ATOM      6  C   UNL     1      63.679  23.370  22.556  1.00  0.00     0.006 C 
BRANCH   6   7
ATOM      7  C   UNL     1      64.018  24.859  22.383  1.00  0.00     0.053 C 
BRANCH   7   8
ATOM      8  C   UNL     1      63.084  25.741  23.152  1.00  0.00     0.041 C 
ATOM      9  O   UNL     1      63.527  26.498  24.055  1.00  0.00    -0.550 OA
ATOM     10  O   UNL     1      61.729  25.754  22.847  1.00  0.00    -0.550 OA
ENDBRANCH   7   8
ENDBRANCH   6   7
ENDBRANCH   5   6
ENDBRANCH   4   5
ENDBRANCH   3   4
ENDBRANCH   2   3
ENDBRANCH   1   2
BRANCH   1  11
ATOM     11  C   UNL     1      60.652  20.992  22.442  1.00  0.00     0.000 C 
BRANCH  11  12
ATOM     12  C   UNL     1      60.633  21.428  23.918  1.00  0.00    -0.000 C 
BRANCH  12  13
ATOM     13  C   UNL     1      60.048  22.838  24.115  1.00  0.00    -0.000 C 
BRANCH  13  14
ATOM     14  C   UNL     1      58.868  22.929  25.105  1.00  0.00    -0.000 C 
BRANCH  14  15
ATOM     15  C   UNL     1      57.486  23.152  24.464  1.00  0.00    -0.000 C 
BRANCH  15  16
ATOM     16  C   UNL     1      57.088  22.021  23.501  1.00  0.00    -0.000 C 
BRANCH  16  17
ATOM     17  C   UNL     1      55.792  22.330  22.735  1.00  0.00    -0.003 C 
ATOM     18  C   UNL     1      54.539  21.863  23.475  1.00  0.00     0.004 C 
ENDBRANCH  16  17
ENDBRANCH  15  16
ENDBRANCH  14  15
ENDBRANCH  13  14
ENDBRANCH  12  13
ENDBRANCH  11  12
ENDBRANCH   1  11
TORSDOF 14
ENDMDL
MODEL 5
REMARK VINA RESULT:    -3.315      1.349      2.675
REMARK INTER + INTRA:          -8.013
REMARK INTER:                  -6.389
REMARK INTRA:                  -1.624
REMARK UNBOUND:                -1.984
REMARK SMILES CCCCCCCCCCCCCCCC(=O)[O-]
REMARK SMILES IDX 9 1 10 2 11 3 12 4 13 5 14 6 15 7 16 8 17 9 18 10 8 11 7 12
REMARK SMILES IDX 6 13 5 14 4 15 3 16 2 17 1 18
REMARK H PARENT
REMARK Flexibility Score: inf
ROOT
ATOM      1  C   UNL     1      61.043  24.347  22.784  1.00  0.00     0.000 C 
ENDROOT
BRANCH   1   2
ATOM      2  C   UNL     1      61.375  24.646  24.257  1.00  0.00     0.000 C 
BRANCH   2   3
ATOM      3  C   UNL     1      60.163  24.467  25.185  1.00  0.00     0.000 C 
BRANCH   3   4
ATOM      4  C   UNL     1      60.246  23.178  26.021  1.00  0.00     0.000 C 
BRANCH   4   5
ATOM      5  C   UNL     1      59.290  22.079  25.523  1.00  0.00     0.000 C 
BRANCH   5   6
ATOM      6  C   UNL     1      58.039  22.584  24.774  1.00  0.00     0.006 C 
BRANCH   6   7
ATOM      7  C   UNL     1      57.557  21.663  23.643  1.00  0.00     0.053 C 
BRANCH   7   8
ATOM      8  C   UNL     1      56.179  22.020  23.178  1.00  0.00     0.041 C 
ATOM      9  O   UNL     1      55.988  23.068  22.506  1.00  0.00    -0.550 OA
ATOM     10  O   UNL     1      55.110  21.177  23.456  1.00  0.00    -0.550 OA
ENDBRANCH   7   8
ENDBRANCH   6   7
ENDBRANCH   5   6
ENDBRANCH   4   5
ENDBRANCH   3   4
ENDBRANCH   2   3
ENDBRANCH   1   2
BRANCH   1  11
ATOM     11  C   UNL     1      60.845  22.847  22.513  1.00  0.00     0.000 C 
BRANCH  11  12
ATOM     12  C   UNL     1      60.035  22.581  21.231  1.00  0.00    -0.000 C 
BRANCH  12  13
ATOM     13  C   UNL     1      60.688  21.526  20.321  1.00  0.00    -0.000 C 
BRANCH  13  14
ATOM     14  C   UNL     1      61.397  22.082  19.069  1.00  0.00    -0.000 C 
BRANCH  14  15
ATOM     15  C   UNL     1      62.935  22.020  19.101  1.00  0.00    -0.000 C 
BRANCH  15  16
ATOM     16  C   UNL     1      63.472  21.154  20.254  1.00  0.00    -0.000 C 
BRANCH  16  17
ATOM     17  C   UNL     1      64.125  21.992  21.364  1.00  0.00    -0.003 C 
ATOM     18  C   UNL     1      64.111  21.292  22.723  1.00  0.00     0.004 C 
ENDBRANCH  16  17
ENDBRANCH  15  16
ENDBRANCH  14  15
ENDBRANCH  13  14
ENDBRANCH  12  13
ENDBRANCH  11  12
ENDBRANCH   1  11
TORSDOF 14
ENDMDL
MODEL 6
REMARK VINA RESULT:    -3.299      2.919      5.090
REMARK INTER + INTRA:          -7.984
REMARK INTER:                  -6.197
REMARK INTRA:                  -1.787
REMARK UNBOUND:                -1.984
REMARK SMILES CCCCCCCCCCCCCCCC(=O)[O-]
REMARK SMILES IDX 9 1 10 2 11 3 12 4 13 5 14 6 15 7 16 8 17 9 18 10 8 11 7 12
REMARK SMILES IDX 6 13 5 14 4 15 3 16 2 17 1 18
REMARK H PARENT
REMARK Flexibility Score: inf
ROOT
ATOM      1  C   UNL     1      58.257  23.654  24.862  1.00  0.00     0.000 C 
ENDROOT
BRANCH   1   2
ATOM      2  C   UNL     1      59.235  23.193  25.958  1.00  0.00     0.000 C 
BRANCH   2   3
ATOM      3  C   UNL     1      59.712  21.746  25.756  1.00  0.00     0.000 C 
BRANCH   3   4
ATOM      4  C   UNL     1      61.244  21.618  25.815  1.00  0.00     0.000 C 
BRANCH   4   5
ATOM      5  C   UNL     1      61.969  22.929  25.465  1.00  0.00     0.000 C 
BRANCH   5   6
ATOM      6  C   UNL     1      62.258  23.142  23.964  1.00  0.00     0.006 C 
BRANCH   6   7
ATOM      7  C   UNL     1      63.371  24.159  23.665  1.00  0.00     0.053 C 
BRANCH   7   8
ATOM      8  C   UNL     1      62.854  25.564  23.634  1.00  0.00     0.041 C 
ATOM      9  O   UNL     1      61.692  25.802  23.215  1.00  0.00    -0.550 OA
ATOM     10  O   UNL     1      63.644  26.607  24.103  1.00  0.00    -0.550 OA
ENDBRANCH   7   8
ENDBRANCH   6   7
ENDBRANCH   5   6
ENDBRANCH   4   5
ENDBRANCH   3   4
ENDBRANCH   2   3
ENDBRANCH   1   2
BRANCH   1  11
ATOM     11  C   UNL     1      57.442  22.494  24.267  1.00  0.00     0.000 C 
BRANCH  11  12
ATOM     12  C   UNL     1      57.669  22.329  22.754  1.00  0.00    -0.000 C 
BRANCH  12  13
ATOM     13  C   UNL     1      58.309  20.978  22.390  1.00  0.00    -0.000 C 
BRANCH  13  14
ATOM     14  C   UNL     1      59.815  21.030  22.058  1.00  0.00    -0.000 C 
BRANCH  14  15
ATOM     15  C   UNL     1      60.268  22.261  21.252  1.00  0.00    -0.000 C 
BRANCH  15  16
ATOM     16  C   UNL     1      60.849  21.892  19.877  1.00  0.00    -0.000 C 
BRANCH  16  17
ATOM     17  C   UNL     1      62.366  22.128  19.797  1.00  0.00    -0.003 C 
ATOM     18  C   UNL     1      63.178  20.983  20.399  1.00  0.00     0.004 C 
ENDBRANCH  16  17
ENDBRANCH  15  16
ENDBRANCH  14  15
ENDBRANCH  13  14
ENDBRANCH  12  13
ENDBRANCH  11  12
ENDBRANCH   1  11
TORSDOF 14
ENDMDL
MODEL 7
REMARK VINA RESULT:    -3.146      2.687      4.623
REMARK INTER + INTRA:          -7.706
REMARK INTER:                  -5.798
REMARK INTRA:                  -1.908
REMARK UNBOUND:                -1.984
REMARK SMILES CCCCCCCCCCCCCCCC(=O)[O-]
REMARK SMILES IDX 9 1 10 2 11 3 12 4 13 5 14 6 15 7 16 8 17 9 18 10 8 11 7 12
REMARK SMILES IDX 6 13 5 14 4 15 3 16 2 17 1 18
REMARK H PARENT
REMARK Flexibility Score: inf
ROOT
ATOM      1  C   UNL     1      58.413  21.305  22.516  1.00  0.00     0.000 C 
ENDROOT
BRANCH   1   2
ATOM      2  C   UNL     1      58.521  21.628  24.017  1.00  0.00     0.000 C 
BRANCH   2   3
ATOM      3  C   UNL     1      59.671  20.875  24.704  1.00  0.00     0.000 C 
BRANCH   3   4
ATOM      4  C   UNL     1      60.311  21.687  25.843  1.00  0.00     0.000 C 
BRANCH   4   5
ATOM      5  C   UNL     1      59.770  23.126  25.931  1.00  0.00     0.000 C 
BRANCH   5   6
ATOM      6  C   UNL     1      60.844  24.229  26.017  1.00  0.00     0.006 C 
BRANCH   6   7
ATOM      7  C   UNL     1      61.956  24.123  24.961  1.00  0.00     0.053 C 
BRANCH   7   8
ATOM      8  C   UNL     1      62.100  25.386  24.169  1.00  0.00     0.041 C 
ATOM      9  O   UNL     1      63.134  26.094  24.290  1.00  0.00    -0.550 OA
ATOM     10  O   UNL     1      61.109  25.762  23.272  1.00  0.00    -0.550 OA
ENDBRANCH   7   8
ENDBRANCH   6   7
ENDBRANCH   5   6
ENDBRANCH   4   5
ENDBRANCH   3   4
ENDBRANCH   2   3
ENDBRANCH   1   2
BRANCH   1  11
ATOM     11  C   UNL     1      59.781  21.274  21.816  1.00  0.00     0.000 C 
BRANCH  11  12
ATOM     12  C   UNL     1      60.474  22.648  21.815  1.00  0.00    -0.000 C 
BRANCH  12  13
ATOM     13  C   UNL     1      61.344  22.876  20.566  1.00  0.00    -0.000 C 
BRANCH  13  14
ATOM     14  C   UNL     1      61.923  21.599  19.922  1.00  0.00    -0.000 C 
BRANCH  14  15
ATOM     15  C   UNL     1      63.241  21.092  20.536  1.00  0.00    -0.000 C 
BRANCH  15  16
ATOM     16  C   UNL     1      64.118  22.230  21.086  1.00  0.00    -0.000 C 
BRANCH  16  17
ATOM     17  C   UNL     1      64.125  22.277  22.622  1.00  0.00    -0.003 C 
ATOM     18  C   UNL     1      63.527  21.022  23.258  1.00  0.00     0.004 C 
ENDBRANCH  16  17
ENDBRANCH  15  16
ENDBRANCH  14  15
ENDBRANCH  13  14
ENDBRANCH  12  13
ENDBRANCH  11  12
ENDBRANCH   1  11
TORSDOF 14
ENDMDL
MODEL 8
REMARK VINA RESULT:    -3.112      1.713      3.710
REMARK INTER + INTRA:          -7.643
REMARK INTER:                  -5.396
REMARK INTRA:                  -2.247
REMARK UNBOUND:                -1.984
REMARK SMILES CCCCCCCCCCCCCCCC(=O)[O-]
REMARK SMILES IDX 9 1 10 2 11 3 12 4 13 5 14 6 15 7 16 8 17 9 18 10 8 11 7 12
REMARK SMILES IDX 6 13 5 14 4 15 3 16 2 17 1 18
REMARK H PARENT
REMARK Flexibility Score: inf
ROOT
ATOM      1  C   UNL     1      62.232  24.480  21.986  1.00  0.00     0.000 C 
ENDROOT
BRANCH   1   2
ATOM      2  C   UNL     1      63.425  23.518  21.840  1.00  0.00     0.000 C 
BRANCH   2   3
ATOM      3  C   UNL     1      63.129  22.348  20.889  1.00  0.00     0.000 C 
BRANCH   3   4
ATOM      4  C   UNL     1      62.106  21.358  21.471  1.00  0.00     0.000 C 
BRANCH   4   5
ATOM      5  C   UNL     1      60.703  21.517  20.859  1.00  0.00     0.000 C 
BRANCH   5   6
ATOM      6  C   UNL     1      59.531  21.359  21.850  1.00  0.00     0.006 C 
BRANCH   6   7
ATOM      7  C   UNL     1      59.043  22.675  22.477  1.00  0.00     0.053 C 
BRANCH   7   8
ATOM      8  C   UNL     1      57.818  22.477  23.316  1.00  0.00     0.041 C 
ATOM      9  O   UNL     1      57.844  22.741  24.546  1.00  0.00    -0.550 OA
ATOM     10  O   UNL     1      56.638  22.035  22.731  1.00  0.00    -0.550 OA
ENDBRANCH   7   8
ENDBRANCH   6   7
ENDBRANCH   5   6
ENDBRANCH   4   5
ENDBRANCH   3   4
ENDBRANCH   2   3
ENDBRANCH   1   2
BRANCH   1  11
ATOM     11  C   UNL     1      62.584  25.746  22.784  1.00  0.00     0.000 C 
BRANCH  11  12
ATOM     12  C   UNL     1      63.980  25.667  23.429  1.00  0.00    -0.000 C 
BRANCH  12  13
ATOM     13  C   UNL     1      63.941  25.834  24.958  1.00  0.00    -0.000 C 
BRANCH  13  14
ATOM     14  C   UNL     1      63.342  24.645  25.737  1.00  0.00    -0.000 C 
BRANCH  14  15
ATOM     15  C   UNL     1      61.859  24.793  26.125  1.00  0.00    -0.000 C 
BRANCH  15  16
ATOM     16  C   UNL     1      61.048  23.509  25.880  1.00  0.00    -0.000 C 
BRANCH  16  17
ATOM     17  C   UNL     1      61.798  22.500  24.995  1.00  0.00    -0.003 C 
ATOM     18  C   UNL     1      61.278  21.071  25.152  1.00  0.00     0.004 C 
ENDBRANCH  16  17
ENDBRANCH  15  16
ENDBRANCH  14  15
ENDBRANCH  13  14
ENDBRANCH  12  13
ENDBRANCH  11  12
ENDBRANCH   1  11
TORSDOF 14
ENDMDL
MODEL 9
REMARK VINA RESULT:    -3.111      2.735      5.279
REMARK INTER + INTRA:          -7.642
REMARK INTER:                  -5.666
REMARK INTRA:                  -1.976
REMARK UNBOUND:                -1.984
REMARK SMILES CCCCCCCCCCCCCCCC(=O)[O-]
REMARK SMILES IDX 9 1 10 2 11 3 12 4 13 5 14 6 15 7 16 8 17 9 18 10 8 11 7 12
REMARK SMILES IDX 6 13 5 14 4 15 3 16 2 17 1 18
REMARK H PARENT
REMARK Flexibility Score: inf
ROOT
ATOM      1  C   UNL     1      62.189  24.074  25.682  1.00  0.00     0.000 C 
ENDROOT
BRANCH   1   2
ATOM      2  C   UNL     1      63.442  23.178  25.670  1.00  0.00     0.000 C 
BRANCH   2   3
ATOM      3  C   UNL     1      63.255  21.909  24.824  1.00  0.00     0.000 C 
BRANCH   3   4
ATOM      4  C   UNL     1      63.726  22.093  23.372  1.00  0.00     0.000 C 
BRANCH   4   5
ATOM      5  C   UNL     1      63.408  20.880  22.479  1.00  0.00     0.000 C 
BRANCH   5   6
ATOM      6  C   UNL     1      63.705  21.072  20.978  1.00  0.00     0.006 C 
BRANCH   6   7
ATOM      7  C   UNL     1      63.247  22.421  20.402  1.00  0.00     0.053 C 
BRANCH   7   8
ATOM      8  C   UNL     1      62.383  22.250  19.192  1.00  0.00     0.041 C 
ATOM      9  O   UNL     1      61.153  22.013  19.320  1.00  0.00    -0.550 OA
ATOM     10  O   UNL     1      62.928  22.389  17.921  1.00  0.00    -0.550 OA
ENDBRANCH   7   8
ENDBRANCH   6   7
ENDBRANCH   5   6
ENDBRANCH   4   5
ENDBRANCH   3   4
ENDBRANCH   2   3
ENDBRANCH   1   2
BRANCH   1  11
ATOM     11  C   UNL     1      62.318  25.286  24.745  1.00  0.00     0.000 C 
BRANCH  11  12
ATOM     12  C   UNL     1      61.434  25.160  23.492  1.00  0.00    -0.000 C 
BRANCH  12  13
ATOM     13  C   UNL     1      60.322  24.107  23.650  1.00  0.00    -0.000 C 
BRANCH  13  14
ATOM     14  C   UNL     1      60.246  23.054  22.526  1.00  0.00    -0.000 C 
BRANCH  14  15
ATOM     15  C   UNL     1      59.774  21.656  22.965  1.00  0.00    -0.000 C 
BRANCH  15  16
ATOM     16  C   UNL     1      58.522  21.703  23.858  1.00  0.00    -0.000 C 
BRANCH  16  17
ATOM     17  C   UNL     1      57.239  21.346  23.091  1.00  0.00    -0.003 C 
ATOM     18  C   UNL     1      56.092  22.316  23.369  1.00  0.00     0.004 C 
ENDBRANCH  16  17
ENDBRANCH  15  16
ENDBRANCH  14  15
ENDBRANCH  13  14
ENDBRANCH  12  13
ENDBRANCH  11  12
ENDBRANCH   1  11
TORSDOF 14
ENDMDL
