MODEL 1
REMARK VINA RESULT:    -0.441      0.000      0.000
REMARK INTER + INTRA:           0.235
REMARK INTER:                  -0.544
REMARK INTRA:                   0.779
REMARK UNBOUND:                 0.779
REMARK SMILES C=C1[C@H]2CC[C@@H]3[C@H]2C(C)(C)CCC[C@]13C
REMARK SMILES IDX 14 1 6 2 7 3 3 4 2 5 1 6 4 7 5 8 15 9 8 10 9 11 10 12 11 13
REMARK SMILES IDX 13 15 12 16
REMARK H PARENT
REMARK Flexibility Score: 80.00
ROOT
ATOM      1  C   UNL     1       1.403  11.510  11.628  1.00  0.00    -0.008 C 
ATOM      2  C   UNL     1       2.790  11.548  10.875  1.00  0.00     0.003 C 
ATOM      3  C   UNL     1       3.672  12.486  11.730  1.00  0.00     0.006 C 
ATOM      4  C   UNL     1       3.400  11.734  13.028  1.00  0.00     0.019 C 
ATOM      5  C   UNL     1       1.899  11.684  13.047  1.00  0.00    -0.068 C 
ATOM      6  C   UNL     1       1.150  11.687  14.156  1.00  0.00     0.009 C 
ATOM      7  C   UNL     1       3.887  10.318  12.648  1.00  0.00     0.008 C 
ATOM      8  C   UNL     1       3.558  10.224  11.137  1.00  0.00     0.005 C 
ATOM      9  C   UNL     1       0.648  10.159  11.496  1.00  0.00     0.016 C 
ENDROOT
BRANCH   3  10
ATOM     10  C   UNL     1       3.454  14.046  11.698  1.00  0.00    -0.032 C 
ATOM     11  C   UNL     1       3.340  14.567  13.152  1.00  0.00     0.011 C 
ATOM     12  C   UNL     1       4.723  14.703  11.090  1.00  0.00     0.011 C 
BRANCH  10  13
ATOM     13  C   UNL     1       2.190  14.535  10.937  1.00  0.00     0.007 CG0
ATOM     14  G   UNL     1       0.865  14.077  11.546  1.00  0.00     0.000 G0
ENDBRANCH  10  13
ENDBRANCH   3  10
BRANCH   1  15
ATOM     15  C   UNL     1       0.416  12.630  11.186  1.00  0.00     0.011 C 
BRANCH  15  16
ATOM     16  C   UNL     1       0.804  14.068  11.519  1.00  0.00     0.001 CG0
ATOM     17  G   UNL     1       2.158  14.473  10.938  1.00  0.00     0.000 G0
ENDBRANCH  15  16
ENDBRANCH   1  15
TORSDOF 0
ENDMDL
MODEL 2
REMARK VINA RESULT:     0.111      1.688      2.952
REMARK INTER + INTRA:           0.916
REMARK INTER:                  -0.106
REMARK INTRA:                   1.022
REMARK UNBOUND:                 0.779
REMARK SMILES C=C1[C@H]2CC[C@@H]3[C@H]2C(C)(C)CCC[C@]13C
REMARK SMILES IDX 14 1 6 2 7 3 3 4 2 5 1 6 4 7 5 8 15 9 8 10 9 11 10 12 11 13
REMARK SMILES IDX 13 15 12 16
REMARK H PARENT
REMARK Flexibility Score: 80.00
ROOT
ATOM      1  C   UNL     1       1.235  11.999  13.565  1.00  0.00    -0.008 C 
ATOM      2  C   UNL     1       1.089  12.918  12.290  1.00  0.00     0.003 C 
ATOM      3  C   UNL     1       2.292  12.539  11.397  1.00  0.00     0.006 C 
ATOM      4  C   UNL     1       1.991  11.046  11.439  1.00  0.00     0.019 C 
ATOM      5  C   UNL     1       1.882  10.796  12.917  1.00  0.00    -0.068 C 
ATOM      6  C   UNL     1       2.211   9.647  13.522  1.00  0.00     0.009 C 
ATOM      7  C   UNL     1       0.551  11.026  10.878  1.00  0.00     0.008 C 
ATOM      8  C   UNL     1      -0.042  12.366  11.380  1.00  0.00     0.005 C 
ATOM      9  C   UNL     1      -0.118  11.588  14.206  1.00  0.00     0.016 C 
ENDROOT
BRANCH   3  10
ATOM     10  C   UNL     1       3.746  13.030  11.756  1.00  0.00    -0.032 C 
ATOM     11  C   UNL     1       4.765  12.265  10.875  1.00  0.00     0.011 C 
ATOM     12  C   UNL     1       3.864  14.530  11.368  1.00  0.00     0.011 C 
BRANCH  10  13
ATOM     13  C   UNL     1       4.180  12.831  13.235  1.00  0.00     0.007 CG0
ATOM     14  G   UNL     1       3.271  13.510  14.259  1.00  0.00     0.000 G0
ENDBRANCH  10  13
ENDBRANCH   3  10
BRANCH   1  15
ATOM     15  C   UNL     1       2.105  12.625  14.694  1.00  0.00     0.011 C 
BRANCH  15  16
ATOM     16  C   UNL     1       3.271  13.509  14.263  1.00  0.00     0.001 CG0
ATOM     17  G   UNL     1       4.205  12.824  13.265  1.00  0.00     0.000 G0
ENDBRANCH  15  16
ENDBRANCH   1  15
TORSDOF 0
ENDMDL
MODEL 3
REMARK VINA RESULT:     0.169      1.988      3.956
REMARK INTER + INTRA:           0.988
REMARK INTER:                  -0.053
REMARK INTRA:                   1.041
REMARK UNBOUND:                 0.779
REMARK SMILES C=C1[C@H]2CC[C@@H]3[C@H]2C(C)(C)CCC[C@]13C
REMARK SMILES IDX 14 1 6 2 7 3 3 4 2 5 1 6 4 7 5 8 15 9 8 10 9 11 10 12 11 13
REMARK SMILES IDX 13 15 12 16
REMARK H PARENT
REMARK Flexibility Score: 80.00
ROOT
ATOM      1  C   UNL     1       2.461  12.422  11.598  1.00  0.00    -0.008 C 
ATOM      2  C   UNL     1       1.783  11.110  11.042  1.00  0.00     0.003 C 
ATOM      3  C   UNL     1       2.155  10.014  12.067  1.00  0.00     0.006 C 
ATOM      4  C   UNL     1       1.661  10.816  13.265  1.00  0.00     0.019 C 
ATOM      5  C   UNL     1       2.379  12.122  13.078  1.00  0.00    -0.068 C 
ATOM      6  C   UNL     1       2.774  12.924  14.075  1.00  0.00     0.009 C 
ATOM      7  C   UNL     1       0.188  11.057  12.862  1.00  0.00     0.008 C 
ATOM      8  C   UNL     1       0.256  11.159  11.318  1.00  0.00     0.005 C 
ATOM      9  C   UNL     1       1.678  13.724  11.279  1.00  0.00     0.016 C 
ENDROOT
BRANCH   3  10
ATOM     10  C   UNL     1       3.610   9.411  12.106  1.00  0.00    -0.032 C 
ATOM     11  C   UNL     1       3.766   8.564  13.394  1.00  0.00     0.011 C 
ATOM     12  C   UNL     1       3.764   8.431  10.910  1.00  0.00     0.011 C 
BRANCH  10  13
ATOM     13  C   UNL     1       4.770  10.445  12.096  1.00  0.00     0.007 CG0
ATOM     14  G   UNL     1       4.770  11.386  10.891  1.00  0.00     0.000 G0
ENDBRANCH  10  13
ENDBRANCH   3  10
BRANCH   1  15
ATOM     15  C   UNL     1       3.922  12.633  11.100  1.00  0.00     0.011 C 
BRANCH  15  16
ATOM     16  C   UNL     1       4.766  11.382  10.875  1.00  0.00     0.001 CG0
ATOM     17  G   UNL     1       4.760  10.432  12.073  1.00  0.00     0.000 G0
ENDBRANCH  15  16
ENDBRANCH   1  15
TORSDOF 0
ENDMDL
MODEL 4
REMARK VINA RESULT:     0.379      1.546      3.137
REMARK INTER + INTRA:           1.247
REMARK INTER:                   0.254
REMARK INTRA:                   0.993
REMARK UNBOUND:                 0.779
REMARK SMILES C=C1[C@H]2CC[C@@H]3[C@H]2C(C)(C)CCC[C@]13C
REMARK SMILES IDX 14 1 6 2 7 3 3 4 2 5 1 6 4 7 5 8 15 9 8 10 9 11 10 12 11 13
REMARK SMILES IDX 13 15 12 16
REMARK H PARENT
REMARK Flexibility Score: 80.00
ROOT
ATOM      1  C   UNL     1       2.542  10.445  12.782  1.00  0.00    -0.008 C 
ATOM      2  C   UNL     1       2.592  11.689  13.752  1.00  0.00     0.003 C 
ATOM      3  C   UNL     1       2.140  12.882  12.879  1.00  0.00     0.006 C 
ATOM      4  C   UNL     1       0.867  12.191  12.405  1.00  0.00     0.019 C 
ATOM      5  C   UNL     1       1.399  10.882  11.894  1.00  0.00    -0.068 C 
ATOM      6  C   UNL     1       0.865  10.184  10.884  1.00  0.00     0.009 C 
ATOM      7  C   UNL     1       0.179  11.893  13.757  1.00  0.00     0.008 C 
ATOM      8  C   UNL     1       1.373  11.646  14.713  1.00  0.00     0.005 C 
ATOM      9  C   UNL     1       2.182   9.108  13.486  1.00  0.00     0.016 C 
ENDROOT
BRANCH   3  10
ATOM     10  C   UNL     1       3.109  13.505  11.805  1.00  0.00    -0.032 C 
ATOM     11  C   UNL     1       2.296  14.444  10.880  1.00  0.00     0.011 C 
ATOM     12  C   UNL     1       4.145  14.398  12.542  1.00  0.00     0.011 C 
BRANCH  10  13
ATOM     13  C   UNL     1       3.846  12.488  10.890  1.00  0.00     0.007 CG0
ATOM     14  G   UNL     1       4.672  11.442  11.640  1.00  0.00     0.000 G0
ENDBRANCH  10  13
ENDBRANCH   3  10
BRANCH   1  15
ATOM     15  C   UNL     1       3.866  10.206  11.998  1.00  0.00     0.011 C 
BRANCH  15  16
ATOM     16  C   UNL     1       4.674  11.441  11.609  1.00  0.00     0.001 CG0
ATOM     17  G   UNL     1       3.839  12.501  10.890  1.00  0.00     0.000 G0
ENDBRANCH  15  16
ENDBRANCH   1  15
TORSDOF 0
ENDMDL
MODEL 5
REMARK VINA RESULT:     0.545      5.004      7.047
REMARK INTER + INTRA:           1.451
REMARK INTER:                   0.429
REMARK INTRA:                   1.022
REMARK UNBOUND:                 0.779
REMARK SMILES C=C1[C@H]2CC[C@@H]3[C@H]2C(C)(C)CCC[C@]13C
REMARK SMILES IDX 14 1 6 2 7 3 3 4 2 5 1 6 4 7 5 8 15 9 8 10 9 11 10 12 11 13
REMARK SMILES IDX 13 15 12 16
REMARK H PARENT
REMARK Flexibility Score: 80.00
ROOT
ATOM      1  C   UNL     1       6.638   5.900  12.483  1.00  0.00    -0.008 C 
ATOM      2  C   UNL     1       6.749   7.063  11.423  1.00  0.00     0.003 C 
ATOM      3  C   UNL     1       6.099   8.284  12.114  1.00  0.00     0.006 C 
ATOM      4  C   UNL     1       6.950   8.160  13.372  1.00  0.00     0.019 C 
ATOM      5  C   UNL     1       6.736   6.722  13.749  1.00  0.00    -0.068 C 
ATOM      6  C   UNL     1       6.744   6.253  15.003  1.00  0.00     0.009 C 
ATOM      7  C   UNL     1       8.370   8.255  12.769  1.00  0.00     0.008 C 
ATOM      8  C   UNL     1       8.210   7.588  11.380  1.00  0.00     0.005 C 
ATOM      9  C   UNL     1       7.806   4.878  12.426  1.00  0.00     0.016 C 
ENDROOT
BRANCH   3  10
ATOM     10  C   UNL     1       4.533   8.383  12.265  1.00  0.00    -0.032 C 
ATOM     11  C   UNL     1       4.196   9.539  13.239  1.00  0.00     0.011 C 
ATOM     12  C   UNL     1       3.935   8.776  10.886  1.00  0.00     0.011 C 
BRANCH  10  13
ATOM     13  C   UNL     1       3.825   7.109  12.805  1.00  0.00     0.007 CG0
ATOM     14  G   UNL     1       4.079   5.845  11.983  1.00  0.00     0.000 G0
ENDBRANCH  10  13
ENDBRANCH   3  10
BRANCH   1  15
ATOM     15  C   UNL     1       5.314   5.086  12.387  1.00  0.00     0.011 C 
BRANCH  15  16
ATOM     16  C   UNL     1       4.058   5.850  11.976  1.00  0.00     0.001 CG0
ATOM     17  G   UNL     1       3.817   7.103  12.819  1.00  0.00     0.000 G0
ENDBRANCH  15  16
ENDBRANCH   1  15
TORSDOF 0
ENDMDL
MODEL 6
REMARK VINA RESULT:     0.939      5.111      7.481
REMARK INTER + INTRA:           1.938
REMARK INTER:                   0.904
REMARK INTRA:                   1.034
REMARK UNBOUND:                 0.779
REMARK SMILES C=C1[C@H]2CC[C@@H]3[C@H]2C(C)(C)CCC[C@]13C
REMARK SMILES IDX 14 1 6 2 7 3 3 4 2 5 1 6 4 7 5 8 15 9 8 10 9 11 10 12 11 13
REMARK SMILES IDX 13 15 12 16
REMARK H PARENT
REMARK Flexibility Score: 80.00
ROOT
ATOM      1  C   UNL     1       7.408   7.628  13.007  1.00  0.00    -0.008 C 
ATOM      2  C   UNL     1       6.424   7.137  14.139  1.00  0.00     0.003 C 
ATOM      3  C   UNL     1       5.426   6.208  13.411  1.00  0.00     0.006 C 
ATOM      4  C   UNL     1       6.517   5.360  12.770  1.00  0.00     0.019 C 
ATOM      5  C   UNL     1       7.377   6.405  12.118  1.00  0.00    -0.068 C 
ATOM      6  C   UNL     1       8.077   6.222  10.991  1.00  0.00     0.009 C 
ATOM      7  C   UNL     1       7.279   4.875  14.024  1.00  0.00     0.008 C 
ATOM      8  C   UNL     1       7.130   6.062  15.008  1.00  0.00     0.005 C 
ATOM      9  C   UNL     1       8.859   7.887  13.497  1.00  0.00     0.016 C 
ENDROOT
BRANCH   3  10
ATOM     10  C   UNL     1       4.293   6.807  12.494  1.00  0.00    -0.032 C 
ATOM     11  C   UNL     1       3.643   5.657  11.685  1.00  0.00     0.011 C 
ATOM     12  C   UNL     1       3.181   7.389  13.409  1.00  0.00     0.011 C 
BRANCH  10  13
ATOM     13  C   UNL     1       4.751   7.883  11.470  1.00  0.00     0.007 CG0
ATOM     14  G   UNL     1       5.439   9.098  12.093  1.00  0.00     0.000 G0
ENDBRANCH  10  13
ENDBRANCH   3  10
BRANCH   1  15
ATOM     15  C   UNL     1       6.934   8.921  12.280  1.00  0.00     0.011 C 
BRANCH  15  16
ATOM     16  C   UNL     1       5.430   9.100  12.091  1.00  0.00     0.001 CG0
ATOM     17  G   UNL     1       4.756   7.876  11.470  1.00  0.00     0.000 G0
ENDBRANCH  15  16
ENDBRANCH   1  15
TORSDOF 0
ENDMDL
MODEL 7
REMARK VINA RESULT:     1.622      5.198      7.320
REMARK INTER + INTRA:           2.780
REMARK INTER:                   1.734
REMARK INTRA:                   1.047
REMARK UNBOUND:                 0.779
REMARK SMILES C=C1[C@H]2CC[C@@H]3[C@H]2C(C)(C)CCC[C@]13C
REMARK SMILES IDX 14 1 6 2 7 3 3 4 2 5 1 6 4 7 5 8 15 9 8 10 9 11 10 12 11 13
REMARK SMILES IDX 13 15 12 16
REMARK H PARENT
REMARK Flexibility Score: 80.00
ROOT
ATOM      1  C   UNL     1       4.726   7.489  13.519  1.00  0.00    -0.008 C 
ATOM      2  C   UNL     1       5.534   8.744  13.006  1.00  0.00     0.003 C 
ATOM      3  C   UNL     1       6.450   8.189  11.891  1.00  0.00     0.006 C 
ATOM      4  C   UNL     1       5.308   7.514  11.140  1.00  0.00     0.019 C 
ATOM      5  C   UNL     1       4.660   6.705  12.228  1.00  0.00    -0.068 C 
ATOM      6  C   UNL     1       4.038   5.535  12.039  1.00  0.00     0.009 C 
ATOM      7  C   UNL     1       4.383   8.724  10.876  1.00  0.00     0.008 C 
ATOM      8  C   UNL     1       4.614   9.624  12.115  1.00  0.00     0.005 C 
ATOM      9  C   UNL     1       3.291   7.819  14.011  1.00  0.00     0.016 C 
ENDROOT
BRANCH   3  10
ATOM     10  C   UNL     1       7.728   7.339  12.250  1.00  0.00    -0.032 C 
ATOM     11  C   UNL     1       8.283   6.698  10.954  1.00  0.00     0.011 C 
ATOM     12  C   UNL     1       8.826   8.306  12.771  1.00  0.00     0.011 C 
BRANCH  10  13
ATOM     13  C   UNL     1       7.509   6.189  13.272  1.00  0.00     0.007 CG0
ATOM     14  G   UNL     1       6.956   6.639  14.624  1.00  0.00     0.000 G0
ENDBRANCH  10  13
ENDBRANCH   3  10
BRANCH   1  15
ATOM     15  C   UNL     1       5.436   6.713  14.668  1.00  0.00     0.011 C 
BRANCH  15  16
ATOM     16  C   UNL     1       6.960   6.648  14.624  1.00  0.00     0.001 CG0
ATOM     17  G   UNL     1       7.501   6.200  13.266  1.00  0.00     0.000 G0
ENDBRANCH  15  16
ENDBRANCH   1  15
TORSDOF 0
ENDMDL
MODEL 8
REMARK VINA RESULT:     2.283      2.015      3.810
REMARK INTER + INTRA:           3.596
REMARK INTER:                   2.654
REMARK INTRA:                   0.942
REMARK UNBOUND:                 0.779
REMARK SMILES C=C1[C@H]2CC[C@@H]3[C@H]2C(C)(C)CCC[C@]13C
REMARK SMILES IDX 14 1 6 2 7 3 3 4 2 5 1 6 4 7 5 8 15 9 8 10 9 11 10 12 11 13
REMARK SMILES IDX 13 15 12 16
REMARK H PARENT
REMARK Flexibility Score: 80.00
ROOT
ATOM      1  C   UNL     1       1.109  11.979  12.368  1.00  0.00    -0.008 C 
ATOM      2  C   UNL     1       1.731  11.226  13.607  1.00  0.00     0.003 C 
ATOM      3  C   UNL     1       3.205  10.976  13.212  1.00  0.00     0.006 C 
ATOM      4  C   UNL     1       3.467  12.433  12.850  1.00  0.00     0.019 C 
ATOM      5  C   UNL     1       2.340  12.721  11.899  1.00  0.00    -0.068 C 
ATOM      6  C   UNL     1       2.407  13.582  10.875  1.00  0.00     0.009 C 
ATOM      7  C   UNL     1       3.112  13.129  14.183  1.00  0.00     0.008 C 
ATOM      8  C   UNL     1       1.982  12.239  14.757  1.00  0.00     0.005 C 
ATOM      9  C   UNL     1      -0.009  12.991  12.739  1.00  0.00     0.016 C 
ENDROOT
BRANCH   3  10
ATOM     10  C   UNL     1       3.578   9.856  12.167  1.00  0.00    -0.032 C 
ATOM     11  C   UNL     1       5.040  10.072  11.703  1.00  0.00     0.011 C 
ATOM     12  C   UNL     1       3.541   8.482  12.891  1.00  0.00     0.011 C 
BRANCH  10  13
ATOM     13  C   UNL     1       2.696   9.804  10.889  1.00  0.00     0.007 CG0
ATOM     14  G   UNL     1       1.196   9.679  11.158  1.00  0.00     0.000 G0
ENDBRANCH  10  13
ENDBRANCH   3  10
BRANCH   1  15
ATOM     15  C   UNL     1       0.522  11.027  11.285  1.00  0.00     0.011 C 
BRANCH  15  16
ATOM     16  C   UNL     1       1.209   9.677  11.100  1.00  0.00     0.001 CG0
ATOM     17  G   UNL     1       2.722   9.796  10.913  1.00  0.00     0.000 G0
ENDBRANCH  15  16
ENDBRANCH   1  15
TORSDOF 0
ENDMDL
