MODEL 1
REMARK VINA RESULT:    -6.471      0.000      0.000
REMARK INTER + INTRA:          -8.800
REMARK INTER:                  -8.552
REMARK INTRA:                  -0.248
REMARK UNBOUND:                -0.248
REMARK SMILES CCCCC=CC=CCO
REMARK SMILES IDX 5 1 6 2 4 3 3 4 2 5 1 6 7 7 8 8 9 9 10 10
REMARK H PARENT 10 11
REMARK Flexibility Score: inf
ROOT
ATOM      1  C   UNL     1      18.986   1.789  12.726  1.00  0.00    -0.027 C 
ATOM      2  C   UNL     1      19.482   0.612  13.118  1.00  0.00    -0.005 C 
ENDROOT
BRANCH   1   3
ATOM      3  C   UNL     1      17.533   2.130  12.904  1.00  0.00     0.027 C 
BRANCH   3   4
ATOM      4  C   UNL     1      17.095   3.305  12.016  1.00  0.00     0.004 C 
BRANCH   4   5
ATOM      5  C   UNL     1      17.667   4.644  12.503  1.00  0.00    -0.003 C 
ATOM      6  C   UNL     1      17.046   5.057  13.834  1.00  0.00     0.004 C 
ENDBRANCH   4   5
ENDBRANCH   3   4
ENDBRANCH   1   3
BRANCH   2   7
ATOM      7  C   UNL     1      20.912   0.295  12.930  1.00  0.00    -0.002 C 
ATOM      8  C   UNL     1      21.377  -0.497  11.955  1.00  0.00     0.001 C 
BRANCH   8   9
ATOM      9  C   UNL     1      20.511  -1.164  10.922  1.00  0.00     0.183 C 
BRANCH   9  10
ATOM     10  O   UNL     1      21.164  -1.206   9.682  1.00  0.00    -0.392 OA
ATOM     11  H   UNL     1      21.298  -2.166   9.465  1.00  0.00     0.210 HD
ENDBRANCH   9  10
ENDBRANCH   8   9
ENDBRANCH   2   7
TORSDOF 6
ENDMDL
MODEL 2
REMARK VINA RESULT:    -6.311      4.858      7.475
REMARK INTER + INTRA:          -8.589
REMARK INTER:                  -8.351
REMARK INTRA:                  -0.238
REMARK UNBOUND:                -0.248
REMARK SMILES CCCCC=CC=CCO
REMARK SMILES IDX 5 1 6 2 4 3 3 4 2 5 1 6 7 7 8 8 9 9 10 10
REMARK H PARENT 10 11
REMARK Flexibility Score: inf
ROOT
ATOM      1  C   UNL     1      17.224   5.107  14.907  1.00  0.00    -0.027 C 
ATOM      2  C   UNL     1      17.600   6.090  15.728  1.00  0.00    -0.005 C 
ENDROOT
BRANCH   1   3
ATOM      3  C   UNL     1      16.891   5.369  13.464  1.00  0.00     0.027 C 
BRANCH   3   4
ATOM      4  C   UNL     1      17.817   4.610  12.503  1.00  0.00     0.004 C 
BRANCH   4   5
ATOM      5  C   UNL     1      17.264   3.226  12.135  1.00  0.00    -0.003 C 
ATOM      6  C   UNL     1      18.122   2.114  12.731  1.00  0.00     0.004 C 
ENDBRANCH   4   5
ENDBRANCH   3   4
ENDBRANCH   1   3
BRANCH   2   7
ATOM      7  C   UNL     1      17.918   5.812  17.143  1.00  0.00    -0.002 C 
ATOM      8  C   UNL     1      17.914   6.745  18.104  1.00  0.00     0.001 C 
BRANCH   8   9
ATOM      9  C   UNL     1      17.582   8.194  17.875  1.00  0.00     0.183 C 
BRANCH   9  10
ATOM     10  O   UNL     1      18.717   8.901  17.456  1.00  0.00    -0.392 OA
ATOM     11  H   UNL     1      19.480   8.555  17.989  1.00  0.00     0.210 HD
ENDBRANCH   9  10
ENDBRANCH   8   9
ENDBRANCH   2   7
TORSDOF 6
ENDMDL
MODEL 3
REMARK VINA RESULT:    -6.305      3.138      6.010
REMARK INTER + INTRA:          -8.581
REMARK INTER:                  -8.364
REMARK INTRA:                  -0.217
REMARK UNBOUND:                -0.248
REMARK SMILES CCCCC=CC=CCO
REMARK SMILES IDX 5 1 6 2 4 3 3 4 2 5 1 6 7 7 8 8 9 9 10 10
REMARK H PARENT 10 11
REMARK Flexibility Score: inf
ROOT
ATOM      1  C   UNL     1      19.053   1.566  12.734  1.00  0.00    -0.027 C 
ATOM      2  C   UNL     1      17.838   2.111  12.840  1.00  0.00    -0.005 C 
ENDROOT
BRANCH   1   3
ATOM      3  C   UNL     1      19.383   0.244  13.370  1.00  0.00     0.027 C 
BRANCH   3   4
ATOM      4  C   UNL     1      19.811  -0.810  12.339  1.00  0.00     0.004 C 
BRANCH   4   5
ATOM      5  C   UNL     1      21.204  -0.524  11.761  1.00  0.00    -0.003 C 
ATOM      6  C   UNL     1      21.392  -1.208  10.410  1.00  0.00     0.004 C 
ENDBRANCH   4   5
ENDBRANCH   3   4
ENDBRANCH   1   3
BRANCH   2   7
ATOM      7  C   UNL     1      17.536   3.413  12.212  1.00  0.00    -0.002 C 
ATOM      8  C   UNL     1      17.203   4.512  12.901  1.00  0.00     0.001 C 
BRANCH   8   9
ATOM      9  C   UNL     1      17.096   4.571  14.400  1.00  0.00     0.183 C 
BRANCH   9  10
ATOM     10  O   UNL     1      17.161   5.898  14.848  1.00  0.00    -0.392 OA
ATOM     11  H   UNL     1      17.600   5.875  15.738  1.00  0.00     0.210 HD
ENDBRANCH   9  10
ENDBRANCH   8   9
ENDBRANCH   2   7
TORSDOF 6
ENDMDL
MODEL 4
REMARK VINA RESULT:    -6.235      2.615      4.805
REMARK INTER + INTRA:          -8.488
REMARK INTER:                  -8.233
REMARK INTRA:                  -0.256
REMARK UNBOUND:                -0.248
REMARK SMILES CCCCC=CC=CCO
REMARK SMILES IDX 5 1 6 2 4 3 3 4 2 5 1 6 7 7 8 8 9 9 10 10
REMARK H PARENT 10 11
REMARK Flexibility Score: inf
ROOT
ATOM      1  C   UNL     1      20.905  -1.147  10.508  1.00  0.00    -0.027 C 
ATOM      2  C   UNL     1      21.357  -1.204   9.253  1.00  0.00    -0.005 C 
ENDROOT
BRANCH   1   3
ATOM      3  C   UNL     1      21.806  -0.777  11.654  1.00  0.00     0.027 C 
BRANCH   3   4
ATOM      4  C   UNL     1      21.295   0.447  12.427  1.00  0.00     0.004 C 
BRANCH   4   5
ATOM      5  C   UNL     1      19.997   0.151  13.192  1.00  0.00    -0.003 C 
ATOM      6  C   UNL     1      18.973   1.263  12.991  1.00  0.00     0.004 C 
ENDBRANCH   4   5
ENDBRANCH   3   4
ENDBRANCH   1   3
BRANCH   2   7
ATOM      7  C   UNL     1      20.457  -1.575   8.142  1.00  0.00    -0.002 C 
ATOM      8  C   UNL     1      20.865  -2.198   7.029  1.00  0.00     0.001 C 
BRANCH   8   9
ATOM      9  C   UNL     1      22.288  -2.609   6.763  1.00  0.00     0.183 C 
BRANCH   9  10
ATOM     10  O   UNL     1      22.988  -1.578   6.122  1.00  0.00    -0.392 OA
ATOM     11  H   UNL     1      23.338  -1.958   5.274  1.00  0.00     0.210 HD
ENDBRANCH   9  10
ENDBRANCH   8   9
ENDBRANCH   2   7
TORSDOF 6
ENDMDL
MODEL 5
REMARK VINA RESULT:    -6.151      2.984      5.796
REMARK INTER + INTRA:          -8.377
REMARK INTER:                  -8.146
REMARK INTRA:                  -0.231
REMARK UNBOUND:                -0.248
REMARK SMILES CCCCC=CC=CCO
REMARK SMILES IDX 5 1 6 2 4 3 3 4 2 5 1 6 7 7 8 8 9 9 10 10
REMARK H PARENT 10 11
REMARK Flexibility Score: inf
ROOT
ATOM      1  C   UNL     1      18.978   1.219  13.197  1.00  0.00    -0.027 C 
ATOM      2  C   UNL     1      18.200   2.044  12.491  1.00  0.00    -0.005 C 
ENDROOT
BRANCH   1   3
ATOM      3  C   UNL     1      19.706   0.074  12.549  1.00  0.00     0.027 C 
BRANCH   3   4
ATOM      4  C   UNL     1      21.225   0.293  12.509  1.00  0.00     0.004 C 
BRANCH   4   5
ATOM      5  C   UNL     1      21.943  -0.775  11.671  1.00  0.00    -0.003 C 
ATOM      6  C   UNL     1      21.120  -1.158  10.445  1.00  0.00     0.004 C 
ENDBRANCH   4   5
ENDBRANCH   3   4
ENDBRANCH   1   3
BRANCH   2   7
ATOM      7  C   UNL     1      17.491   3.160  13.148  1.00  0.00    -0.002 C 
ATOM      8  C   UNL     1      16.210   3.104  13.534  1.00  0.00     0.001 C 
BRANCH   8   9
ATOM      9  C   UNL     1      15.325   1.900  13.356  1.00  0.00     0.183 C 
BRANCH   9  10
ATOM     10  O   UNL     1      14.454   1.761  14.446  1.00  0.00    -0.392 OA
ATOM     11  H   UNL     1      14.105   2.668  14.647  1.00  0.00     0.210 HD
ENDBRANCH   9  10
ENDBRANCH   8   9
ENDBRANCH   2   7
TORSDOF 6
ENDMDL
MODEL 6
REMARK VINA RESULT:    -6.147      4.225      6.726
REMARK INTER + INTRA:          -8.372
REMARK INTER:                  -8.104
REMARK INTRA:                  -0.268
REMARK UNBOUND:                -0.248
REMARK SMILES CCCCC=CC=CCO
REMARK SMILES IDX 5 1 6 2 4 3 3 4 2 5 1 6 7 7 8 8 9 9 10 10
REMARK H PARENT 10 11
REMARK Flexibility Score: inf
ROOT
ATOM      1  C   UNL     1      17.419   5.196  14.846  1.00  0.00    -0.027 C 
ATOM      2  C   UNL     1      17.560   6.131  15.789  1.00  0.00    -0.005 C 
ENDROOT
BRANCH   1   3
ATOM      3  C   UNL     1      17.077   5.554  13.426  1.00  0.00     0.027 C 
BRANCH   3   4
ATOM      4  C   UNL     1      17.746   4.618  12.409  1.00  0.00     0.004 C 
BRANCH   4   5
ATOM      5  C   UNL     1      17.099   3.226  12.389  1.00  0.00    -0.003 C 
ATOM      6  C   UNL     1      18.126   2.136  12.683  1.00  0.00     0.004 C 
ENDBRANCH   4   5
ENDBRANCH   3   4
ENDBRANCH   1   3
BRANCH   2   7
ATOM      7  C   UNL     1      17.891   5.758  17.179  1.00  0.00    -0.002 C 
ATOM      8  C   UNL     1      18.971   6.204  17.833  1.00  0.00     0.001 C 
BRANCH   8   9
ATOM      9  C   UNL     1      19.986   7.147  17.245  1.00  0.00     0.183 C 
BRANCH   9  10
ATOM     10  O   UNL     1      21.202   6.486  17.021  1.00  0.00    -0.392 OA
ATOM     11  H   UNL     1      21.730   7.064  16.411  1.00  0.00     0.210 HD
ENDBRANCH   9  10
ENDBRANCH   8   9
ENDBRANCH   2   7
TORSDOF 6
ENDMDL
MODEL 7
REMARK VINA RESULT:    -6.016      3.140      6.382
REMARK INTER + INTRA:          -8.198
REMARK INTER:                  -7.969
REMARK INTRA:                  -0.229
REMARK UNBOUND:                -0.248
REMARK SMILES CCCCC=CC=CCO
REMARK SMILES IDX 5 1 6 2 4 3 3 4 2 5 1 6 7 7 8 8 9 9 10 10
REMARK H PARENT 10 11
REMARK Flexibility Score: inf
ROOT
ATOM      1  C   UNL     1      21.378  -1.082   9.503  1.00  0.00    -0.027 C 
ATOM      2  C   UNL     1      20.842  -1.066  10.726  1.00  0.00    -0.005 C 
ENDROOT
BRANCH   1   3
ATOM      3  C   UNL     1      20.689  -1.755   8.348  1.00  0.00     0.027 C 
BRANCH   3   4
ATOM      4  C   UNL     1      20.665  -0.879   7.088  1.00  0.00     0.004 C 
BRANCH   4   5
ATOM      5  C   UNL     1      21.286  -1.589   5.876  1.00  0.00    -0.003 C 
ATOM      6  C   UNL     1      22.105  -2.801   6.309  1.00  0.00     0.004 C 
ENDBRANCH   4   5
ENDBRANCH   3   4
ENDBRANCH   1   3
BRANCH   2   7
ATOM      7  C   UNL     1      21.538  -0.403  11.847  1.00  0.00    -0.002 C 
ATOM      8  C   UNL     1      20.915   0.317  12.788  1.00  0.00     0.001 C 
BRANCH   8   9
ATOM      9  C   UNL     1      19.429   0.543  12.835  1.00  0.00     0.183 C 
BRANCH   9  10
ATOM     10  O   UNL     1      18.793  -0.493  13.533  1.00  0.00    -0.392 OA
ATOM     11  H   UNL     1      19.012  -1.334  13.054  1.00  0.00     0.210 HD
ENDBRANCH   9  10
ENDBRANCH   8   9
ENDBRANCH   2   7
TORSDOF 6
ENDMDL
MODEL 8
REMARK VINA RESULT:    -6.014      3.669      5.773
REMARK INTER + INTRA:          -8.197
REMARK INTER:                  -7.970
REMARK INTRA:                  -0.227
REMARK UNBOUND:                -0.248
REMARK SMILES CCCCC=CC=CCO
REMARK SMILES IDX 5 1 6 2 4 3 3 4 2 5 1 6 7 7 8 8 9 9 10 10
REMARK H PARENT 10 11
REMARK Flexibility Score: inf
ROOT
ATOM      1  C   UNL     1      17.596   5.837  15.347  1.00  0.00    -0.027 C 
ATOM      2  C   UNL     1      17.235   4.792  14.597  1.00  0.00    -0.005 C 
ENDROOT
BRANCH   1   3
ATOM      3  C   UNL     1      17.614   5.761  16.848  1.00  0.00     0.027 C 
BRANCH   3   4
ATOM      4  C   UNL     1      17.774   7.141  17.502  1.00  0.00     0.004 C 
BRANCH   4   5
ATOM      5  C   UNL     1      18.889   7.157  18.557  1.00  0.00    -0.003 C 
ATOM      6  C   UNL     1      19.864   6.002  18.346  1.00  0.00     0.004 C 
ENDBRANCH   4   5
ENDBRANCH   3   4
ENDBRANCH   1   3
BRANCH   2   7
ATOM      7  C   UNL     1      17.219   4.889  13.124  1.00  0.00    -0.002 C 
ATOM      8  C   UNL     1      17.432   3.849  12.307  1.00  0.00     0.001 C 
BRANCH   8   9
ATOM      9  C   UNL     1      17.710   2.448  12.776  1.00  0.00     0.183 C 
BRANCH   9  10
ATOM     10  O   UNL     1      16.514   1.778  13.069  1.00  0.00    -0.392 OA
ATOM     11  H   UNL     1      15.807   2.472  13.127  1.00  0.00     0.210 HD
ENDBRANCH   9  10
ENDBRANCH   8   9
ENDBRANCH   2   7
TORSDOF 6
ENDMDL
MODEL 9
REMARK VINA RESULT:    -5.964      2.991      5.276
REMARK INTER + INTRA:          -8.130
REMARK INTER:                  -7.866
REMARK INTRA:                  -0.264
REMARK UNBOUND:                -0.248
REMARK SMILES CCCCC=CC=CCO
REMARK SMILES IDX 5 1 6 2 4 3 3 4 2 5 1 6 7 7 8 8 9 9 10 10
REMARK H PARENT 10 11
REMARK Flexibility Score: inf
ROOT
ATOM      1  C   UNL     1      20.891  -1.255   9.792  1.00  0.00    -0.027 C 
ATOM      2  C   UNL     1      21.377  -1.536   8.580  1.00  0.00    -0.005 C 
ENDROOT
BRANCH   1   3
ATOM      3  C   UNL     1      21.761  -1.291  11.018  1.00  0.00     0.027 C 
BRANCH   3   4
ATOM      4  C   UNL     1      21.332  -0.258  12.070  1.00  0.00     0.004 C 
BRANCH   4   5
ATOM      5  C   UNL     1      19.845  -0.385  12.434  1.00  0.00    -0.003 C 
ATOM      6  C   UNL     1      19.366   0.830  13.224  1.00  0.00     0.004 C 
ENDBRANCH   4   5
ENDBRANCH   3   4
ENDBRANCH   1   3
BRANCH   2   7
ATOM      7  C   UNL     1      20.504  -1.500   7.389  1.00  0.00    -0.002 C 
ATOM      8  C   UNL     1      20.740  -0.733   6.317  1.00  0.00     0.001 C 
BRANCH   8   9
ATOM      9  C   UNL     1      21.921   0.187   6.178  1.00  0.00     0.183 C 
BRANCH   9  10
ATOM     10  O   UNL     1      21.552   1.511   6.454  1.00  0.00    -0.392 OA
ATOM     11  H   UNL     1      21.904   1.721   7.358  1.00  0.00     0.210 HD
ENDBRANCH   9  10
ENDBRANCH   8   9
ENDBRANCH   2   7
TORSDOF 6
ENDMDL
