MODEL 1
REMARK VINA RESULT:    -4.612      0.000      0.000
REMARK INTER + INTRA:          -5.852
REMARK INTER:                  -5.556
REMARK INTRA:                  -0.296
REMARK UNBOUND:                -0.296
REMARK SMILES NC(=O)C[C@@H]([NH3+])C(=O)[O-]
REMARK SMILES IDX 4 1 5 2 6 3 7 7 8 8 9 9 2 10 3 11 1 12
REMARK H PARENT 6 4 6 5 6 6 1 13 1 14
REMARK Flexibility Score: inf
ROOT
ATOM      1  C   UNL     1      38.477  32.870 -10.271  1.00  0.00     0.171 C 
ENDROOT
BRANCH   1   2
ATOM      2  C   UNL     1      38.635  34.306  -9.733  1.00  0.00     0.237 C 
BRANCH   2   3
ATOM      3  N   UNL     1      37.360  34.833  -9.227  1.00  0.00    -0.350 N 
ATOM      4  H   UNL     1      37.402  35.876  -9.164  1.00  0.00     0.345 HD
ATOM      5  H   UNL     1      37.181  34.462  -8.265  1.00  0.00     0.345 HD
ATOM      6  H   UNL     1      36.570  34.557  -9.853  1.00  0.00     0.345 HD
ENDBRANCH   2   3
BRANCH   2   7
ATOM      7  C   UNL     1      39.672  34.326  -8.642  1.00  0.00     0.100 C 
ATOM      8  O   UNL     1      40.196  33.251  -8.246  1.00  0.00    -0.544 OA
ATOM      9  O   UNL     1      40.046  35.528  -8.052  1.00  0.00    -0.544 OA
ENDBRANCH   2   7
ENDBRANCH   1   2
BRANCH   1  10
ATOM     10  C   UNL     1      37.170  32.684 -10.983  1.00  0.00     0.223 C 
ATOM     11  O   UNL     1      36.159  32.295 -10.341  1.00  0.00    -0.275 OA
ATOM     12  N   UNL     1      37.071  32.911 -12.389  1.00  0.00    -0.369 N 
ATOM     13  H   UNL     1      37.904  33.210 -12.942  1.00  0.00     0.159 HD
ATOM     14  H   UNL     1      36.161  32.770 -12.882  1.00  0.00     0.159 HD
ENDBRANCH   1  10
TORSDOF 4
ENDMDL
MODEL 2
REMARK VINA RESULT:    -4.580      1.817      2.457
REMARK INTER + INTRA:          -5.812
REMARK INTER:                  -5.689
REMARK INTRA:                  -0.123
REMARK UNBOUND:                -0.296
REMARK SMILES NC(=O)C[C@@H]([NH3+])C(=O)[O-]
REMARK SMILES IDX 4 1 5 2 6 3 7 7 8 8 9 9 2 10 3 11 1 12
REMARK H PARENT 6 4 6 5 6 6 1 13 1 14
REMARK Flexibility Score: inf
ROOT
ATOM      1  C   UNL     1      36.848  34.102 -10.073  1.00  0.00     0.171 C 
ENDROOT
BRANCH   1   2
ATOM      2  C   UNL     1      37.956  33.487 -10.952  1.00  0.00     0.237 C 
BRANCH   2   3
ATOM      3  N   UNL     1      38.499  34.471 -11.898  1.00  0.00    -0.350 N 
ATOM      4  H   UNL     1      39.493  34.690 -11.657  1.00  0.00     0.345 HD
ATOM      5  H   UNL     1      37.951  35.360 -11.836  1.00  0.00     0.345 HD
ATOM      6  H   UNL     1      38.454  34.108 -12.878  1.00  0.00     0.345 HD
ENDBRANCH   2   3
BRANCH   2   7
ATOM      7  C   UNL     1      39.056  32.949 -10.076  1.00  0.00     0.100 C 
ATOM      8  O   UNL     1      39.640  31.875 -10.381  1.00  0.00    -0.544 OA
ATOM      9  O   UNL     1      39.423  33.625  -8.918  1.00  0.00    -0.544 OA
ENDBRANCH   2   7
ENDBRANCH   1   2
BRANCH   1  10
ATOM     10  C   UNL     1      35.789  33.096  -9.729  1.00  0.00     0.223 C 
ATOM     11  O   UNL     1      35.620  32.090 -10.467  1.00  0.00    -0.275 OA
ATOM     12  N   UNL     1      34.948  33.288  -8.591  1.00  0.00    -0.369 N 
ATOM     13  H   UNL     1      35.058  34.128  -7.982  1.00  0.00     0.159 HD
ATOM     14  H   UNL     1      34.206  32.591  -8.362  1.00  0.00     0.159 HD
ENDBRANCH   1  10
TORSDOF 4
ENDMDL
MODEL 3
REMARK VINA RESULT:    -4.458      1.909      4.246
REMARK INTER + INTRA:          -5.665
REMARK INTER:                  -5.421
REMARK INTRA:                  -0.244
REMARK UNBOUND:                -0.296
REMARK SMILES NC(=O)C[C@@H]([NH3+])C(=O)[O-]
REMARK SMILES IDX 4 1 5 2 6 3 7 7 8 8 9 9 2 10 3 11 1 12
REMARK H PARENT 6 4 6 5 6 6 1 13 1 14
REMARK Flexibility Score: inf
ROOT
ATOM      1  C   UNL     1      40.001  33.746  -8.596  1.00  0.00     0.171 C 
ENDROOT
BRANCH   1   2
ATOM      2  C   UNL     1      38.775  33.975  -9.503  1.00  0.00     0.237 C 
BRANCH   2   3
ATOM      3  N   UNL     1      38.979  35.120 -10.401  1.00  0.00    -0.350 N 
ATOM      4  H   UNL     1      39.610  35.822  -9.951  1.00  0.00     0.345 HD
ATOM      5  H   UNL     1      38.062  35.589 -10.590  1.00  0.00     0.345 HD
ATOM      6  H   UNL     1      39.398  34.811 -11.308  1.00  0.00     0.345 HD
ENDBRANCH   2   3
BRANCH   2   7
ATOM      7  C   UNL     1      38.501  32.732 -10.306  1.00  0.00     0.100 C 
ATOM      8  O   UNL     1      39.408  31.875 -10.476  1.00  0.00    -0.544 OA
ATOM      9  O   UNL     1      37.250  32.529 -10.879  1.00  0.00    -0.544 OA
ENDBRANCH   2   7
ENDBRANCH   1   2
BRANCH   1  10
ATOM     10  C   UNL     1      40.195  34.876  -7.629  1.00  0.00     0.223 C 
ATOM     11  O   UNL     1      40.400  36.041  -8.062  1.00  0.00    -0.275 OA
ATOM     12  N   UNL     1      40.185  34.637  -6.221  1.00  0.00    -0.369 N 
ATOM     13  H   UNL     1      40.040  33.674  -5.844  1.00  0.00     0.159 HD
ATOM     14  H   UNL     1      40.330  35.425  -5.552  1.00  0.00     0.159 HD
ENDBRANCH   1  10
TORSDOF 4
ENDMDL
MODEL 4
REMARK VINA RESULT:    -4.351      1.365      3.909
REMARK INTER + INTRA:          -5.537
REMARK INTER:                  -5.491
REMARK INTRA:                  -0.045
REMARK UNBOUND:                -0.296
REMARK SMILES NC(=O)C[C@@H]([NH3+])C(=O)[O-]
REMARK SMILES IDX 4 1 5 2 6 3 7 7 8 8 9 9 2 10 3 11 1 12
REMARK H PARENT 6 4 6 5 6 6 1 13 1 14
REMARK Flexibility Score: inf
ROOT
ATOM      1  C   UNL     1      38.740  33.262  -9.739  1.00  0.00     0.171 C 
ENDROOT
BRANCH   1   2
ATOM      2  C   UNL     1      37.488  33.998 -10.258  1.00  0.00     0.237 C 
BRANCH   2   3
ATOM      3  N   UNL     1      37.649  34.408 -11.660  1.00  0.00    -0.350 N 
ATOM      4  H   UNL     1      37.441  35.428 -11.762  1.00  0.00     0.345 HD
ATOM      5  H   UNL     1      36.974  33.882 -12.262  1.00  0.00     0.345 HD
ATOM      6  H   UNL     1      38.623  34.220 -11.992  1.00  0.00     0.345 HD
ENDBRANCH   2   3
BRANCH   2   7
ATOM      7  C   UNL     1      36.283  33.108 -10.115  1.00  0.00     0.100 C 
ATOM      8  O   UNL     1      36.118  32.135 -10.898  1.00  0.00    -0.544 OA
ATOM      9  O   UNL     1      35.335  33.363  -9.131  1.00  0.00    -0.544 OA
ENDBRANCH   2   7
ENDBRANCH   1   2
BRANCH   1  10
ATOM     10  C   UNL     1      39.589  34.150  -8.878  1.00  0.00     0.223 C 
ATOM     11  O   UNL     1      40.232  33.656  -7.914  1.00  0.00    -0.275 OA
ATOM     12  N   UNL     1      39.648  35.555  -9.121  1.00  0.00    -0.369 N 
ATOM     13  H   UNL     1      39.104  35.985  -9.901  1.00  0.00     0.159 HD
ATOM     14  H   UNL     1      40.233  36.170  -8.513  1.00  0.00     0.159 HD
ENDBRANCH   1  10
TORSDOF 4
ENDMDL
MODEL 5
REMARK VINA RESULT:    -4.233      1.604      3.950
REMARK INTER + INTRA:          -5.395
REMARK INTER:                  -5.265
REMARK INTRA:                  -0.130
REMARK UNBOUND:                -0.296
REMARK SMILES NC(=O)C[C@@H]([NH3+])C(=O)[O-]
REMARK SMILES IDX 4 1 5 2 6 3 7 7 8 8 9 9 2 10 3 11 1 12
REMARK H PARENT 6 4 6 5 6 6 1 13 1 14
REMARK Flexibility Score: inf
ROOT
ATOM      1  C   UNL     1      38.991  34.764  -9.708  1.00  0.00     0.171 C 
ENDROOT
BRANCH   1   2
ATOM      2  C   UNL     1      37.774  33.816  -9.715  1.00  0.00     0.237 C 
BRANCH   2   3
ATOM      3  N   UNL     1      36.533  34.538 -10.027  1.00  0.00    -0.350 N 
ATOM      4  H   UNL     1      35.709  34.016  -9.649  1.00  0.00     0.345 HD
ATOM      5  H   UNL     1      36.417  34.612 -11.064  1.00  0.00     0.345 HD
ATOM      6  H   UNL     1      36.549  35.499  -9.615  1.00  0.00     0.345 HD
ENDBRANCH   2   3
BRANCH   2   7
ATOM      7  C   UNL     1      37.997  32.715 -10.717  1.00  0.00     0.100 C 
ATOM      8  O   UNL     1      37.101  32.433 -11.557  1.00  0.00    -0.544 OA
ATOM      9  O   UNL     1      39.183  31.991 -10.710  1.00  0.00    -0.544 OA
ENDBRANCH   2   7
ENDBRANCH   1   2
BRANCH   1  10
ATOM     10  C   UNL     1      39.615  34.857  -8.347  1.00  0.00     0.223 C 
ATOM     11  O   UNL     1      40.453  33.990  -7.984  1.00  0.00    -0.275 OA
ATOM     12  N   UNL     1      39.240  35.900  -7.447  1.00  0.00    -0.369 N 
ATOM     13  H   UNL     1      38.529  36.613  -7.721  1.00  0.00     0.159 HD
ATOM     14  H   UNL     1      39.670  35.954  -6.497  1.00  0.00     0.159 HD
ENDBRANCH   1  10
TORSDOF 4
ENDMDL
MODEL 6
REMARK VINA RESULT:    -4.056      1.544      1.656
REMARK INTER + INTRA:          -5.182
REMARK INTER:                  -4.910
REMARK INTRA:                  -0.271
REMARK UNBOUND:                -0.296
REMARK SMILES NC(=O)C[C@@H]([NH3+])C(=O)[O-]
REMARK SMILES IDX 4 1 5 2 6 3 7 7 8 8 9 9 2 10 3 11 1 12
REMARK H PARENT 6 4 6 5 6 6 1 13 1 14
REMARK Flexibility Score: inf
ROOT
ATOM      1  C   UNL     1      38.495  34.501  -9.953  1.00  0.00     0.171 C 
ENDROOT
BRANCH   1   2
ATOM      2  C   UNL     1      39.240  33.543  -9.001  1.00  0.00     0.237 C 
BRANCH   2   3
ATOM      3  N   UNL     1      39.981  32.515  -9.745  1.00  0.00    -0.350 N 
ATOM      4  H   UNL     1      40.872  32.915 -10.119  1.00  0.00     0.345 HD
ATOM      5  H   UNL     1      39.411  32.187 -10.559  1.00  0.00     0.345 HD
ATOM      6  H   UNL     1      40.202  31.698  -9.130  1.00  0.00     0.345 HD
ENDBRANCH   2   3
BRANCH   2   7
ATOM      7  C   UNL     1      40.181  34.328  -8.127  1.00  0.00     0.100 C 
ATOM      8  O   UNL     1      40.902  33.736  -7.281  1.00  0.00    -0.544 OA
ATOM      9  O   UNL     1      40.248  35.712  -8.236  1.00  0.00    -0.544 OA
ENDBRANCH   2   7
ENDBRANCH   1   2
BRANCH   1  10
ATOM     10  C   UNL     1      37.804  33.759 -11.059  1.00  0.00     0.223 C 
ATOM     11  O   UNL     1      37.292  32.631 -10.830  1.00  0.00    -0.275 OA
ATOM     12  N   UNL     1      37.752  34.305 -12.377  1.00  0.00    -0.369 N 
ATOM     13  H   UNL     1      38.191  35.227 -12.591  1.00  0.00     0.159 HD
ATOM     14  H   UNL     1      37.279  33.780 -13.145  1.00  0.00     0.159 HD
ENDBRANCH   1  10
TORSDOF 4
ENDMDL
MODEL 7
REMARK VINA RESULT:    -3.904      1.725      2.103
REMARK INTER + INTRA:          -4.998
REMARK INTER:                  -5.083
REMARK INTRA:                   0.085
REMARK UNBOUND:                -0.296
REMARK SMILES NC(=O)C[C@@H]([NH3+])C(=O)[O-]
REMARK SMILES IDX 4 1 5 2 6 3 7 7 8 8 9 9 2 10 3 11 1 12
REMARK H PARENT 6 4 6 5 6 6 1 13 1 14
REMARK Flexibility Score: inf
ROOT
ATOM      1  C   UNL     1      38.784  33.351  -9.594  1.00  0.00     0.171 C 
ENDROOT
BRANCH   1   2
ATOM      2  C   UNL     1      39.586  34.451  -8.870  1.00  0.00     0.237 C 
BRANCH   2   3
ATOM      3  N   UNL     1      38.697  35.442  -8.248  1.00  0.00    -0.350 N 
ATOM      4  H   UNL     1      37.835  35.565  -8.827  1.00  0.00     0.345 HD
ATOM      5  H   UNL     1      39.182  36.368  -8.195  1.00  0.00     0.345 HD
ATOM      6  H   UNL     1      38.425  35.143  -7.283  1.00  0.00     0.345 HD
ENDBRANCH   2   3
BRANCH   2   7
ATOM      7  C   UNL     1      40.474  33.827  -7.828  1.00  0.00     0.100 C 
ATOM      8  O   UNL     1      40.952  34.531  -6.899  1.00  0.00    -0.544 OA
ATOM      9  O   UNL     1      40.788  32.474  -7.893  1.00  0.00    -0.544 OA
ENDBRANCH   2   7
ENDBRANCH   1   2
BRANCH   1  10
ATOM     10  C   UNL     1      37.807  33.929 -10.575  1.00  0.00     0.223 C 
ATOM     11  O   UNL     1      38.171  34.158 -11.758  1.00  0.00    -0.275 OA
ATOM     12  N   UNL     1      36.478  34.255 -10.168  1.00  0.00    -0.369 N 
ATOM     13  H   UNL     1      36.165  34.094  -9.185  1.00  0.00     0.159 HD
ATOM     14  H   UNL     1      35.804  34.667 -10.852  1.00  0.00     0.159 HD
ENDBRANCH   1  10
TORSDOF 4
ENDMDL
MODEL 8
REMARK VINA RESULT:    -3.350     15.985     16.721
REMARK INTER + INTRA:          -4.331
REMARK INTER:                  -4.199
REMARK INTRA:                  -0.132
REMARK UNBOUND:                -0.296
REMARK SMILES NC(=O)C[C@@H]([NH3+])C(=O)[O-]
REMARK SMILES IDX 4 1 5 2 6 3 7 7 8 8 9 9 2 10 3 11 1 12
REMARK H PARENT 6 4 6 5 6 6 1 13 1 14
REMARK Flexibility Score: inf
ROOT
ATOM      1  C   UNL     1      41.125  44.251   1.875  1.00  0.00     0.171 C 
ENDROOT
BRANCH   1   2
ATOM      2  C   UNL     1      40.789  43.886   3.335  1.00  0.00     0.237 C 
BRANCH   2   3
ATOM      3  N   UNL     1      40.695  45.084   4.180  1.00  0.00    -0.350 N 
ATOM      4  H   UNL     1      40.751  45.945   3.590  1.00  0.00     0.345 HD
ATOM      5  H   UNL     1      41.494  45.105   4.855  1.00  0.00     0.345 HD
ATOM      6  H   UNL     1      39.796  45.091   4.715  1.00  0.00     0.345 HD
ENDBRANCH   2   3
BRANCH   2   7
ATOM      7  C   UNL     1      39.495  43.118   3.380  1.00  0.00     0.100 C 
ATOM      8  O   UNL     1      39.284  42.185   2.560  1.00  0.00    -0.544 OA
ATOM      9  O   UNL     1      38.519  43.445   4.314  1.00  0.00    -0.544 OA
ENDBRANCH   2   7
ENDBRANCH   1   2
BRANCH   1  10
ATOM     10  C   UNL     1      40.403  45.489   1.432  1.00  0.00     0.223 C 
ATOM     11  O   UNL     1      39.175  45.619   1.680  1.00  0.00    -0.275 OA
ATOM     12  N   UNL     1      41.087  46.506   0.700  1.00  0.00    -0.369 N 
ATOM     13  H   UNL     1      42.099  46.404   0.464  1.00  0.00     0.159 HD
ATOM     14  H   UNL     1      40.578  47.361   0.385  1.00  0.00     0.159 HD
ENDBRANCH   1  10
TORSDOF 4
ENDMDL
