MODEL 1
REMARK VINA RESULT:    -7.279      0.000      0.000
REMARK INTER + INTRA:         -12.017
REMARK INTER:                 -10.683
REMARK INTRA:                  -1.334
REMARK UNBOUND:                -1.334
REMARK SMILES O=c1c(O[C@@H]2O[C@H](CO)[C@H](O)[C@@H](O)[C@H]2O)c(-c2ccc(O)c(O)c2)oc2cc(O)cc(O)c12
REMARK SMILES IDX 4 1 3 2 16 3 25 4 2 5 26 6 1 7 33 8 27 9 31 10 28 11 30 12
REMARK SMILES IDX 17 13 18 14 19 15 20 16 24 17 22 18 21 19 23 21 32 23 29 25
REMARK SMILES IDX 5 27 14 28 6 29 12 30 7 31 10 32 15 33 13 35 8 37 9 38 11 40
REMARK H PARENT 21 20 23 22 32 24 29 26 15 34 13 36 9 39 11 41
REMARK Flexibility Score: inf
ROOT
ATOM      1  O   UNL     1      27.061   1.410  20.714  1.00  0.00    -0.454 OA
ENDROOT
BRANCH   1   2
ATOM      2  C   UNL     1      27.852   0.558  21.502  1.00  0.00     0.214 A 
ATOM      3  C   UNL     1      27.935   0.796  22.885  1.00  0.00     0.180 A 
ATOM      4  O   UNL     1      28.580  -0.058  23.669  1.00  0.00    -0.452 OA
ATOM      5  C   UNL     1      28.514  -0.568  20.971  1.00  0.00     0.239 A 
ATOM      6  C   UNL     1      29.221  -1.127  23.215  1.00  0.00     0.146 A 
ATOM      7  O   UNL     1      28.369  -0.849  19.755  1.00  0.00    -0.285 OA
ATOM      8  C   UNL     1      29.267  -1.409  21.825  1.00  0.00     0.111 A 
ATOM      9  C   UNL     1      29.845  -1.974  24.133  1.00  0.00     0.094 A 
ATOM     10  C   UNL     1      30.020  -2.539  21.386  1.00  0.00     0.134 A 
ATOM     11  C   UNL     1      30.524  -3.113  23.696  1.00  0.00     0.123 A 
ATOM     12  C   UNL     1      30.607  -3.388  22.331  1.00  0.00     0.093 A 
BRANCH   3  13
ATOM     13  C   UNL     1      27.311   1.985  23.508  1.00  0.00     0.025 A 
ATOM     14  C   UNL     1      28.017   3.194  23.630  1.00  0.00     0.016 A 
ATOM     15  C   UNL     1      27.425   4.298  24.246  1.00  0.00     0.051 A 
ATOM     16  C   UNL     1      26.128   4.217  24.765  1.00  0.00     0.157 A 
ATOM     17  C   UNL     1      26.018   1.894  24.046  1.00  0.00     0.062 A 
ATOM     18  C   UNL     1      25.416   2.997  24.666  1.00  0.00     0.158 A 
BRANCH  16  19
ATOM     19  O   UNL     1      25.595   5.358  25.369  1.00  0.00    -0.504 OA
ATOM     20  H   UNL     1      25.318   6.187  24.864  1.00  0.00     0.293 HD
ENDBRANCH  16  19
BRANCH  18  21
ATOM     21  O   UNL     1      24.121   2.837  25.166  1.00  0.00    -0.504 OA
ATOM     22  H   UNL     1      23.356   3.465  24.960  1.00  0.00     0.293 HD
ENDBRANCH  18  21
ENDBRANCH   3  13
BRANCH  10  23
ATOM     23  O   UNL     1      30.239  -2.850  20.040  1.00  0.00    -0.507 OA
ATOM     24  H   UNL     1      30.867  -3.569  19.716  1.00  0.00     0.293 HD
ENDBRANCH  10  23
BRANCH  11  25
ATOM     25  O   UNL     1      31.125  -3.976  24.609  1.00  0.00    -0.508 OA
ATOM     26  H   UNL     1      30.579  -4.486  25.293  1.00  0.00     0.293 HD
ENDBRANCH  11  25
ENDBRANCH   1   2
BRANCH   1  27
ATOM     27  C   UNL     1      27.543   2.230  19.649  1.00  0.00     0.339 C 
ATOM     28  C   UNL     1      26.330   2.767  18.852  1.00  0.00     0.214 C 
ATOM     29  O   UNL     1      28.276   3.313  20.190  1.00  0.00    -0.332 OA
ATOM     30  C   UNL     1      26.618   4.172  18.259  1.00  0.00     0.180 C 
ATOM     31  C   UNL     1      28.993   4.003  19.173  1.00  0.00     0.179 C 
ATOM     32  C   UNL     1      28.112   4.312  17.912  1.00  0.00     0.177 C 
BRANCH  28  33
ATOM     33  O   UNL     1      25.950   1.844  17.860  1.00  0.00    -0.384 OA
ATOM     34  H   UNL     1      25.001   1.601  18.020  1.00  0.00     0.211 HD
ENDBRANCH  28  33
BRANCH  30  35
ATOM     35  O   UNL     1      25.832   4.406  17.117  1.00  0.00    -0.387 OA
ATOM     36  H   UNL     1      26.457   4.430  16.344  1.00  0.00     0.211 HD
ENDBRANCH  30  35
BRANCH  31  37
ATOM     37  C   UNL     1      29.605   5.260  19.809  1.00  0.00     0.191 C 
BRANCH  37  38
ATOM     38  O   UNL     1      28.621   5.992  20.489  1.00  0.00    -0.394 OA
ATOM     39  H   UNL     1      27.799   5.437  20.464  1.00  0.00     0.210 HD
ENDBRANCH  37  38
ENDBRANCH  31  37
BRANCH  32  40
ATOM     40  O   UNL     1      28.372   5.596  17.398  1.00  0.00    -0.387 OA
ATOM     41  H   UNL     1      28.720   6.145  18.148  1.00  0.00     0.211 HD
ENDBRANCH  32  40
ENDBRANCH   1  27
TORSDOF 12
ENDMDL
MODEL 2
REMARK VINA RESULT:    -6.705     11.417     12.987
REMARK INTER + INTRA:         -11.175
REMARK INTER:                  -9.586
REMARK INTRA:                  -1.590
REMARK UNBOUND:                -1.334
REMARK SMILES O=c1c(O[C@@H]2O[C@H](CO)[C@H](O)[C@@H](O)[C@H]2O)c(-c2ccc(O)c(O)c2)oc2cc(O)cc(O)c12
REMARK SMILES IDX 4 1 3 2 16 3 25 4 2 5 26 6 1 7 33 8 27 9 31 10 28 11 30 12
REMARK SMILES IDX 17 13 18 14 19 15 20 16 24 17 22 18 21 19 23 21 32 23 29 25
REMARK SMILES IDX 5 27 14 28 6 29 12 30 7 31 10 32 15 33 13 35 8 37 9 38 11 40
REMARK H PARENT 21 20 23 22 32 24 29 26 15 34 13 36 9 39 11 41
REMARK Flexibility Score: inf
ROOT
ATOM      1  O   UNL     1      23.027   6.703  30.129  1.00  0.00    -0.454 OA
ENDROOT
BRANCH   1   2
ATOM      2  C   UNL     1      24.043   6.911  31.077  1.00  0.00     0.214 A 
ATOM      3  C   UNL     1      23.896   6.355  32.360  1.00  0.00     0.180 A 
ATOM      4  O   UNL     1      24.887   6.437  33.238  1.00  0.00    -0.452 OA
ATOM      5  C   UNL     1      25.234   7.600  30.774  1.00  0.00     0.239 A 
ATOM      6  C   UNL     1      26.024   7.078  32.999  1.00  0.00     0.146 A 
ATOM      7  O   UNL     1      25.422   8.017  29.603  1.00  0.00    -0.285 OA
ATOM      8  C   UNL     1      26.235   7.744  31.764  1.00  0.00     0.111 A 
ATOM      9  C   UNL     1      27.013   7.079  33.985  1.00  0.00     0.094 A 
ATOM     10  C   UNL     1      27.452   8.467  31.582  1.00  0.00     0.134 A 
ATOM     11  C   UNL     1      28.225   7.736  33.769  1.00  0.00     0.123 A 
ATOM     12  C   UNL     1      28.438   8.423  32.575  1.00  0.00     0.093 A 
BRANCH   3  13
ATOM     13  C   UNL     1      22.653   5.663  32.771  1.00  0.00     0.025 A 
ATOM     14  C   UNL     1      21.618   6.358  33.419  1.00  0.00     0.016 A 
ATOM     15  C   UNL     1      20.464   5.686  33.826  1.00  0.00     0.051 A 
ATOM     16  C   UNL     1      20.323   4.310  33.610  1.00  0.00     0.157 A 
ATOM     17  C   UNL     1      22.525   4.280  32.572  1.00  0.00     0.062 A 
ATOM     18  C   UNL     1      21.370   3.597  32.976  1.00  0.00     0.158 A 
BRANCH  16  19
ATOM     19  O   UNL     1      19.144   3.699  34.042  1.00  0.00    -0.504 OA
ATOM     20  H   UNL     1      18.413   3.383  33.422  1.00  0.00     0.293 HD
ENDBRANCH  16  19
BRANCH  18  21
ATOM     21  O   UNL     1      21.306   2.223  32.733  1.00  0.00    -0.504 OA
ATOM     22  H   UNL     1      20.880   1.558  33.363  1.00  0.00     0.293 HD
ENDBRANCH  18  21
ENDBRANCH   3  13
BRANCH  10  23
ATOM     23  O   UNL     1      27.723   9.259  30.462  1.00  0.00    -0.507 OA
ATOM     24  H   UNL     1      27.022   9.605  29.824  1.00  0.00     0.293 HD
ENDBRANCH  10  23
BRANCH  11  25
ATOM     25  O   UNL     1      29.226   7.717  34.738  1.00  0.00    -0.508 OA
ATOM     26  H   UNL     1      29.220   7.040  35.492  1.00  0.00     0.293 HD
ENDBRANCH  11  25
ENDBRANCH   1   2
BRANCH   1  27
ATOM     27  C   UNL     1      22.033   7.661  29.764  1.00  0.00     0.339 C 
ATOM     28  C   UNL     1      22.111   7.895  28.237  1.00  0.00     0.214 C 
ATOM     29  O   UNL     1      20.755   7.159  30.106  1.00  0.00    -0.332 OA
ATOM     30  C   UNL     1      20.717   8.229  27.643  1.00  0.00     0.180 C 
ATOM     31  C   UNL     1      19.764   8.174  30.007  1.00  0.00     0.179 C 
ATOM     32  C   UNL     1      19.863   8.993  28.671  1.00  0.00     0.177 C 
BRANCH  28  33
ATOM     33  O   UNL     1      23.061   8.892  27.944  1.00  0.00    -0.384 OA
ATOM     34  H   UNL     1      23.953   8.548  28.212  1.00  0.00     0.211 HD
ENDBRANCH  28  33
BRANCH  30  35
ATOM     35  O   UNL     1      20.841   8.983  26.462  1.00  0.00    -0.387 OA
ATOM     36  H   UNL     1      20.510   8.406  25.723  1.00  0.00     0.211 HD
ENDBRANCH  30  35
BRANCH  31  37
ATOM     37  C   UNL     1      18.395   7.508  30.210  1.00  0.00     0.191 C 
BRANCH  37  38
ATOM     38  O   UNL     1      18.516   6.388  31.044  1.00  0.00    -0.394 OA
ATOM     39  H   UNL     1      18.504   5.597  30.445  1.00  0.00     0.210 HD
ENDBRANCH  37  38
ENDBRANCH  31  37
BRANCH  32  40
ATOM     40  O   UNL     1      18.592   9.270  28.136  1.00  0.00    -0.387 OA
ATOM     41  H   UNL     1      17.997   8.518  28.392  1.00  0.00     0.211 HD
ENDBRANCH  32  40
ENDBRANCH   1  27
TORSDOF 12
ENDMDL
MODEL 3
REMARK VINA RESULT:    -6.582      1.178      2.302
REMARK INTER + INTRA:         -10.995
REMARK INTER:                 -10.187
REMARK INTRA:                  -0.808
REMARK UNBOUND:                -1.334
REMARK SMILES O=c1c(O[C@@H]2O[C@H](CO)[C@H](O)[C@@H](O)[C@H]2O)c(-c2ccc(O)c(O)c2)oc2cc(O)cc(O)c12
REMARK SMILES IDX 4 1 3 2 16 3 25 4 2 5 26 6 1 7 33 8 27 9 31 10 28 11 30 12
REMARK SMILES IDX 17 13 18 14 19 15 20 16 24 17 22 18 21 19 23 21 32 23 29 25
REMARK SMILES IDX 5 27 14 28 6 29 12 30 7 31 10 32 15 33 13 35 8 37 9 38 11 40
REMARK H PARENT 21 20 23 22 32 24 29 26 15 34 13 36 9 39 11 41
REMARK Flexibility Score: inf
ROOT
ATOM      1  O   UNL     1      26.533   1.367  20.862  1.00  0.00    -0.454 OA
ENDROOT
BRANCH   1   2
ATOM      2  C   UNL     1      27.432   0.562  21.582  1.00  0.00     0.214 A 
ATOM      3  C   UNL     1      27.725   0.899  22.915  1.00  0.00     0.180 A 
ATOM      4  O   UNL     1      28.479   0.094  23.653  1.00  0.00    -0.452 OA
ATOM      5  C   UNL     1      28.002  -0.608  21.041  1.00  0.00     0.239 A 
ATOM      6  C   UNL     1      29.040  -1.014  23.186  1.00  0.00     0.146 A 
ATOM      7  O   UNL     1      27.673  -0.974  19.884  1.00  0.00    -0.285 OA
ATOM      8  C   UNL     1      28.873  -1.396  21.831  1.00  0.00     0.111 A 
ATOM      9  C   UNL     1      29.794  -1.801  24.059  1.00  0.00     0.094 A 
ATOM     10  C   UNL     1      29.547  -2.565  21.367  1.00  0.00     0.134 A 
ATOM     11  C   UNL     1      30.395  -2.978  23.609  1.00  0.00     0.123 A 
ATOM     12  C   UNL     1      30.269  -3.352  22.272  1.00  0.00     0.093 A 
BRANCH   3  13
ATOM     13  C   UNL     1      27.207   2.138  23.537  1.00  0.00     0.025 A 
ATOM     14  C   UNL     1      28.040   3.253  23.732  1.00  0.00     0.016 A 
ATOM     15  C   UNL     1      27.544   4.405  24.346  1.00  0.00     0.051 A 
ATOM     16  C   UNL     1      26.217   4.465  24.789  1.00  0.00     0.157 A 
ATOM     17  C   UNL     1      25.883   2.187  23.999  1.00  0.00     0.062 A 
ATOM     18  C   UNL     1      25.376   3.339  24.615  1.00  0.00     0.158 A 
BRANCH  16  19
ATOM     19  O   UNL     1      25.785   5.646  25.395  1.00  0.00    -0.504 OA
ATOM     20  H   UNL     1      25.530   6.481  24.887  1.00  0.00     0.293 HD
ENDBRANCH  16  19
BRANCH  18  21
ATOM     21  O   UNL     1      24.044   3.321  25.037  1.00  0.00    -0.504 OA
ATOM     22  H   UNL     1      23.353   2.667  24.695  1.00  0.00     0.293 HD
ENDBRANCH  18  21
ENDBRANCH   3  13
BRANCH  10  23
ATOM     23  O   UNL     1      29.558  -2.975  20.030  1.00  0.00    -0.507 OA
ATOM     24  H   UNL     1      29.593  -3.938  19.729  1.00  0.00     0.293 HD
ENDBRANCH  10  23
BRANCH  11  25
ATOM     25  O   UNL     1      31.125  -3.782  24.481  1.00  0.00    -0.508 OA
ATOM     26  H   UNL     1      31.718  -4.529  24.141  1.00  0.00     0.293 HD
ENDBRANCH  11  25
ENDBRANCH   1   2
BRANCH   1  27
ATOM     27  C   UNL     1      26.879   2.207  19.761  1.00  0.00     0.339 C 
ATOM     28  C   UNL     1      28.419   2.334  19.702  1.00  0.00     0.214 C 
ATOM     29  O   UNL     1      26.401   1.625  18.563  1.00  0.00    -0.332 OA
ATOM     30  C   UNL     1      28.919   2.504  18.243  1.00  0.00     0.180 C 
ATOM     31  C   UNL     1      26.487   2.542  17.479  1.00  0.00     0.179 C 
ATOM     32  C   UNL     1      27.878   3.266  17.403  1.00  0.00     0.177 C 
BRANCH  28  33
ATOM     33  O   UNL     1      28.855   3.383  20.533  1.00  0.00    -0.384 OA
ATOM     34  H   UNL     1      28.239   4.151  20.400  1.00  0.00     0.211 HD
ENDBRANCH  28  33
BRANCH  30  35
ATOM     35  O   UNL     1      30.153   3.177  18.210  1.00  0.00    -0.387 OA
ATOM     36  H   UNL     1      30.464   3.149  17.266  1.00  0.00     0.211 HD
ENDBRANCH  30  35
BRANCH  31  37
ATOM     37  C   UNL     1      26.129   1.779  16.195  1.00  0.00     0.191 C 
BRANCH  37  38
ATOM     38  O   UNL     1      24.742   1.791  15.990  1.00  0.00    -0.394 OA
ATOM     39  H   UNL     1      24.468   0.842  15.910  1.00  0.00     0.210 HD
ENDBRANCH  37  38
ENDBRANCH  31  37
BRANCH  32  40
ATOM     40  O   UNL     1      28.325   3.394  16.076  1.00  0.00    -0.387 OA
ATOM     41  H   UNL     1      27.542   3.231  15.487  1.00  0.00     0.211 HD
ENDBRANCH  32  40
ENDBRANCH   1  27
TORSDOF 12
ENDMDL
MODEL 4
REMARK VINA RESULT:    -6.531      1.946      6.242
REMARK INTER + INTRA:         -10.919
REMARK INTER:                  -9.159
REMARK INTRA:                  -1.761
REMARK UNBOUND:                -1.334
REMARK SMILES O=c1c(O[C@@H]2O[C@H](CO)[C@H](O)[C@@H](O)[C@H]2O)c(-c2ccc(O)c(O)c2)oc2cc(O)cc(O)c12
REMARK SMILES IDX 4 1 3 2 16 3 25 4 2 5 26 6 1 7 33 8 27 9 31 10 28 11 30 12
REMARK SMILES IDX 17 13 18 14 19 15 20 16 24 17 22 18 21 19 23 21 32 23 29 25
REMARK SMILES IDX 5 27 14 28 6 29 12 30 7 31 10 32 15 33 13 35 8 37 9 38 11 40
REMARK H PARENT 21 20 23 22 32 24 29 26 15 34 13 36 9 39 11 41
REMARK Flexibility Score: inf
ROOT
ATOM      1  O   UNL     1      28.767   3.191  22.685  1.00  0.00    -0.454 OA
ENDROOT
BRANCH   1   2
ATOM      2  C   UNL     1      27.627   2.963  23.474  1.00  0.00     0.214 A 
ATOM      3  C   UNL     1      27.142   1.649  23.598  1.00  0.00     0.180 A 
ATOM      4  O   UNL     1      26.139   1.386  24.426  1.00  0.00    -0.452 OA
ATOM      5  C   UNL     1      26.988   3.989  24.198  1.00  0.00     0.239 A 
ATOM      6  C   UNL     1      25.504   2.319  25.124  1.00  0.00     0.146 A 
ATOM      7  O   UNL     1      27.469   5.149  24.174  1.00  0.00    -0.285 OA
ATOM      8  C   UNL     1      25.864   3.686  25.004  1.00  0.00     0.111 A 
ATOM      9  C   UNL     1      24.478   1.927  25.987  1.00  0.00     0.094 A 
ATOM     10  C   UNL     1      25.110   4.654  25.733  1.00  0.00     0.134 A 
ATOM     11  C   UNL     1      23.791   2.878  26.744  1.00  0.00     0.123 A 
ATOM     12  C   UNL     1      24.109   4.229  26.615  1.00  0.00     0.093 A 
BRANCH   3  13
ATOM     13  C   UNL     1      27.726   0.527  22.829  1.00  0.00     0.025 A 
ATOM     14  C   UNL     1      28.782  -0.238  23.352  1.00  0.00     0.016 A 
ATOM     15  C   UNL     1      29.341  -1.275  22.603  1.00  0.00     0.051 A 
ATOM     16  C   UNL     1      28.872  -1.561  21.315  1.00  0.00     0.157 A 
ATOM     17  C   UNL     1      27.267   0.257  21.531  1.00  0.00     0.062 A 
ATOM     18  C   UNL     1      27.821  -0.782  20.771  1.00  0.00     0.158 A 
BRANCH  16  19
ATOM     19  O   UNL     1      29.475  -2.610  20.619  1.00  0.00    -0.504 OA
ATOM     20  H   UNL     1      29.057  -3.522  20.499  1.00  0.00     0.293 HD
ENDBRANCH  16  19
BRANCH  18  21
ATOM     21  O   UNL     1      27.305  -1.003  19.492  1.00  0.00    -0.504 OA
ATOM     22  H   UNL     1      26.374  -1.354  19.312  1.00  0.00     0.293 HD
ENDBRANCH  18  21
ENDBRANCH   3  13
BRANCH  10  23
ATOM     23  O   UNL     1      25.290   6.034  25.605  1.00  0.00    -0.507 OA
ATOM     24  H   UNL     1      25.949   6.468  24.975  1.00  0.00     0.293 HD
ENDBRANCH  10  23
BRANCH  11  25
ATOM     25  O   UNL     1      22.785   2.490  27.627  1.00  0.00    -0.508 OA
ATOM     26  H   UNL     1      22.889   1.679  28.224  1.00  0.00     0.293 HD
ENDBRANCH  11  25
ENDBRANCH   1   2
BRANCH   1  27
ATOM     27  C   UNL     1      28.757   3.682  21.344  1.00  0.00     0.339 C 
ATOM     28  C   UNL     1      29.633   4.955  21.277  1.00  0.00     0.214 C 
ATOM     29  O   UNL     1      29.285   2.692  20.482  1.00  0.00    -0.332 OA
ATOM     30  C   UNL     1      30.315   5.101  19.892  1.00  0.00     0.180 C 
ATOM     31  C   UNL     1      29.053   3.026  19.119  1.00  0.00     0.179 C 
ATOM     32  C   UNL     1      29.418   4.515  18.786  1.00  0.00     0.177 C 
BRANCH  28  33
ATOM     33  O   UNL     1      28.871   6.090  21.612  1.00  0.00    -0.384 OA
ATOM     34  H   UNL     1      27.924   5.804  21.702  1.00  0.00     0.211 HD
ENDBRANCH  28  33
BRANCH  30  35
ATOM     35  O   UNL     1      30.606   6.448  19.615  1.00  0.00    -0.387 OA
ATOM     36  H   UNL     1      30.747   6.893  20.493  1.00  0.00     0.211 HD
ENDBRANCH  30  35
BRANCH  31  37
ATOM     37  C   UNL     1      29.813   2.007  18.256  1.00  0.00     0.191 C 
BRANCH  37  38
ATOM     38  O   UNL     1      28.966   0.954  17.883  1.00  0.00    -0.394 OA
ATOM     39  H   UNL     1      28.994   0.915  16.892  1.00  0.00     0.210 HD
ENDBRANCH  37  38
ENDBRANCH  31  37
BRANCH  32  40
ATOM     40  O   UNL     1      30.054   4.627  17.536  1.00  0.00    -0.387 OA
ATOM     41  H   UNL     1      30.688   5.388  17.598  1.00  0.00     0.211 HD
ENDBRANCH  32  40
ENDBRANCH   1  27
TORSDOF 12
ENDMDL
MODEL 5
REMARK VINA RESULT:    -6.430      1.988      6.806
REMARK INTER + INTRA:         -10.771
REMARK INTER:                  -9.148
REMARK INTRA:                  -1.623
REMARK UNBOUND:                -1.334
REMARK SMILES O=c1c(O[C@@H]2O[C@H](CO)[C@H](O)[C@@H](O)[C@H]2O)c(-c2ccc(O)c(O)c2)oc2cc(O)cc(O)c12
REMARK SMILES IDX 4 1 3 2 16 3 25 4 2 5 26 6 1 7 33 8 27 9 31 10 28 11 30 12
REMARK SMILES IDX 17 13 18 14 19 15 20 16 24 17 22 18 21 19 23 21 32 23 29 25
REMARK SMILES IDX 5 27 14 28 6 29 12 30 7 31 10 32 15 33 13 35 8 37 9 38 11 40
REMARK H PARENT 21 20 23 22 32 24 29 26 15 34 13 36 9 39 11 41
REMARK Flexibility Score: inf
ROOT
ATOM      1  O   UNL     1      29.207   0.602  20.244  1.00  0.00    -0.454 OA
ENDROOT
BRANCH   1   2
ATOM      2  C   UNL     1      28.182   1.174  19.471  1.00  0.00     0.214 A 
ATOM      3  C   UNL     1      27.284   2.061  20.089  1.00  0.00     0.180 A 
ATOM      4  O   UNL     1      26.379   2.704  19.363  1.00  0.00    -0.452 OA
ATOM      5  C   UNL     1      28.058   0.944  18.086  1.00  0.00     0.239 A 
ATOM      6  C   UNL     1      26.221   2.517  18.058  1.00  0.00     0.146 A 
ATOM      7  O   UNL     1      28.912   0.231  17.502  1.00  0.00    -0.285 OA
ATOM      8  C   UNL     1      27.024   1.580  17.358  1.00  0.00     0.111 A 
ATOM      9  C   UNL     1      25.254   3.267  17.386  1.00  0.00     0.094 A 
ATOM     10  C   UNL     1      26.773   1.376  15.968  1.00  0.00     0.134 A 
ATOM     11  C   UNL     1      25.063   3.105  16.013  1.00  0.00     0.123 A 
ATOM     12  C   UNL     1      25.820   2.165  15.314  1.00  0.00     0.093 A 
BRANCH   3  13
ATOM     13  C   UNL     1      27.317   2.313  21.548  1.00  0.00     0.025 A 
ATOM     14  C   UNL     1      26.446   1.638  22.419  1.00  0.00     0.016 A 
ATOM     15  C   UNL     1      26.470   1.907  23.789  1.00  0.00     0.051 A 
ATOM     16  C   UNL     1      27.349   2.861  24.315  1.00  0.00     0.157 A 
ATOM     17  C   UNL     1      28.185   3.285  22.069  1.00  0.00     0.062 A 
ATOM     18  C   UNL     1      28.217   3.562  23.442  1.00  0.00     0.158 A 
BRANCH  16  19
ATOM     19  O   UNL     1      27.322   3.083  25.694  1.00  0.00    -0.504 OA
ATOM     20  H   UNL     1      26.588   3.588  26.170  1.00  0.00     0.293 HD
ENDBRANCH  16  19
BRANCH  18  21
ATOM     21  O   UNL     1      29.116   4.532  23.892  1.00  0.00    -0.504 OA
ATOM     22  H   UNL     1      30.118   4.463  23.787  1.00  0.00     0.293 HD
ENDBRANCH  18  21
ENDBRANCH   3  13
BRANCH  10  23
ATOM     23  O   UNL     1      27.413   0.398  15.200  1.00  0.00    -0.507 OA
ATOM     24  H   UNL     1      26.994  -0.478  14.927  1.00  0.00     0.293 HD
ENDBRANCH  10  23
BRANCH  11  25
ATOM     25  O   UNL     1      24.119   3.870  15.332  1.00  0.00    -0.508 OA
ATOM     26  H   UNL     1      24.025   4.865  15.497  1.00  0.00     0.293 HD
ENDBRANCH  11  25
ENDBRANCH   1   2
BRANCH   1  27
ATOM     27  C   UNL     1      29.121  -0.645  20.934  1.00  0.00     0.339 C 
ATOM     28  C   UNL     1      29.906  -1.709  20.132  1.00  0.00     0.214 C 
ATOM     29  O   UNL     1      29.687  -0.503  22.223  1.00  0.00    -0.332 OA
ATOM     30  C   UNL     1      30.532  -2.776  21.068  1.00  0.00     0.180 C 
ATOM     31  C   UNL     1      29.390  -1.631  23.038  1.00  0.00     0.179 C 
ATOM     32  C   UNL     1      29.643  -2.995  22.305  1.00  0.00     0.177 C 
BRANCH  28  33
ATOM     33  O   UNL     1      29.080  -2.289  19.151  1.00  0.00    -0.384 OA
ATOM     34  H   UNL     1      28.149  -2.283  19.497  1.00  0.00     0.211 HD
ENDBRANCH  28  33
BRANCH  30  35
ATOM     35  O   UNL     1      30.722  -3.992  20.387  1.00  0.00    -0.387 OA
ATOM     36  H   UNL     1      31.070  -4.639  21.058  1.00  0.00     0.211 HD
ENDBRANCH  30  35
BRANCH  31  37
ATOM     37  C   UNL     1      30.189  -1.485  24.342  1.00  0.00     0.191 C 
BRANCH  37  38
ATOM     38  O   UNL     1      29.575  -2.206  25.374  1.00  0.00    -0.394 OA
ATOM     39  H   UNL     1      30.311  -2.562  25.937  1.00  0.00     0.210 HD
ENDBRANCH  37  38
ENDBRANCH  31  37
BRANCH  32  40
ATOM     40  O   UNL     1      30.228  -3.944  23.162  1.00  0.00    -0.387 OA
ATOM     41  H   UNL     1      31.057  -3.537  23.526  1.00  0.00     0.211 HD
ENDBRANCH  32  40
ENDBRANCH   1  27
TORSDOF 12
ENDMDL
MODEL 6
REMARK VINA RESULT:    -6.232      2.767      5.975
REMARK INTER + INTRA:         -10.481
REMARK INTER:                  -9.183
REMARK INTRA:                  -1.299
REMARK UNBOUND:                -1.334
REMARK SMILES O=c1c(O[C@@H]2O[C@H](CO)[C@H](O)[C@@H](O)[C@H]2O)c(-c2ccc(O)c(O)c2)oc2cc(O)cc(O)c12
REMARK SMILES IDX 4 1 3 2 16 3 25 4 2 5 26 6 1 7 33 8 27 9 31 10 28 11 30 12
REMARK SMILES IDX 17 13 18 14 19 15 20 16 24 17 22 18 21 19 23 21 32 23 29 25
REMARK SMILES IDX 5 27 14 28 6 29 12 30 7 31 10 32 15 33 13 35 8 37 9 38 11 40
REMARK H PARENT 21 20 23 22 32 24 29 26 15 34 13 36 9 39 11 41
REMARK Flexibility Score: inf
ROOT
ATOM      1  O   UNL     1      29.274   3.267  18.955  1.00  0.00    -0.454 OA
ENDROOT
BRANCH   1   2
ATOM      2  C   UNL     1      28.890   3.475  20.290  1.00  0.00     0.214 A 
ATOM      3  C   UNL     1      28.450   2.375  21.048  1.00  0.00     0.180 A 
ATOM      4  O   UNL     1      28.191   2.520  22.341  1.00  0.00    -0.452 OA
ATOM      5  C   UNL     1      28.988   4.732  20.920  1.00  0.00     0.239 A 
ATOM      6  C   UNL     1      28.264   3.683  22.975  1.00  0.00     0.146 A 
ATOM      7  O   UNL     1      29.471   5.702  20.284  1.00  0.00    -0.285 OA
ATOM      8  C   UNL     1      28.618   4.868  22.280  1.00  0.00     0.111 A 
ATOM      9  C   UNL     1      27.995   3.717  24.345  1.00  0.00     0.094 A 
ATOM     10  C   UNL     1      28.626   6.101  22.998  1.00  0.00     0.134 A 
ATOM     11  C   UNL     1      28.069   4.919  25.050  1.00  0.00     0.123 A 
ATOM     12  C   UNL     1      28.383   6.099  24.377  1.00  0.00     0.093 A 
BRANCH   3  13
ATOM     13  C   UNL     1      28.271   1.036  20.444  1.00  0.00     0.025 A 
ATOM     14  C   UNL     1      29.377   0.260  20.060  1.00  0.00     0.016 A 
ATOM     15  C   UNL     1      29.191  -0.990  19.465  1.00  0.00     0.051 A 
ATOM     16  C   UNL     1      27.903  -1.484  19.229  1.00  0.00     0.157 A 
ATOM     17  C   UNL     1      26.978   0.553  20.189  1.00  0.00     0.062 A 
ATOM     18  C   UNL     1      26.781  -0.701  19.594  1.00  0.00     0.158 A 
BRANCH  16  19
ATOM     19  O   UNL     1      27.786  -2.741  18.631  1.00  0.00    -0.504 OA
ATOM     20  H   UNL     1      27.081  -3.420  18.878  1.00  0.00     0.293 HD
ENDBRANCH  16  19
BRANCH  18  21
ATOM     21  O   UNL     1      25.466  -1.124  19.384  1.00  0.00    -0.504 OA
ATOM     22  H   UNL     1      25.129  -1.502  18.510  1.00  0.00     0.293 HD
ENDBRANCH  18  21
ENDBRANCH   3  13
BRANCH  10  23
ATOM     23  O   UNL     1      28.839   7.346  22.399  1.00  0.00    -0.507 OA
ATOM     24  H   UNL     1      28.989   7.486  21.411  1.00  0.00     0.293 HD
ENDBRANCH  10  23
BRANCH  11  25
ATOM     25  O   UNL     1      27.828   4.954  26.422  1.00  0.00    -0.508 OA
ATOM     26  H   UNL     1      26.891   4.867  26.796  1.00  0.00     0.293 HD
ENDBRANCH  11  25
ENDBRANCH   1   2
BRANCH   1  27
ATOM     27  C   UNL     1      28.497   3.616  17.809  1.00  0.00     0.339 C 
ATOM     28  C   UNL     1      28.073   2.316  17.085  1.00  0.00     0.214 C 
ATOM     29  O   UNL     1      27.347   4.327  18.226  1.00  0.00    -0.332 OA
ATOM     30  C   UNL     1      26.695   2.476  16.392  1.00  0.00     0.180 C 
ATOM     31  C   UNL     1      26.684   4.920  17.116  1.00  0.00     0.179 C 
ATOM     32  C   UNL     1      26.498   3.927  15.916  1.00  0.00     0.177 C 
BRANCH  28  33
ATOM     33  O   UNL     1      29.074   1.912  16.181  1.00  0.00    -0.384 OA
ATOM     34  H   UNL     1      28.760   2.129  15.265  1.00  0.00     0.211 HD
ENDBRANCH  28  33
BRANCH  30  35
ATOM     35  O   UNL     1      26.572   1.590  15.307  1.00  0.00    -0.387 OA
ATOM     36  H   UNL     1      27.131   0.797  15.526  1.00  0.00     0.211 HD
ENDBRANCH  30  35
BRANCH  31  37
ATOM     37  C   UNL     1      25.360   5.508  17.627  1.00  0.00     0.191 C 
BRANCH  37  38
ATOM     38  O   UNL     1      24.448   4.482  17.912  1.00  0.00    -0.394 OA
ATOM     39  H   UNL     1      24.427   4.398  18.901  1.00  0.00     0.210 HD
ENDBRANCH  37  38
ENDBRANCH  31  37
BRANCH  32  40
ATOM     40  O   UNL     1      25.237   4.072  15.311  1.00  0.00    -0.387 OA
ATOM     41  H   UNL     1      25.126   3.314  14.681  1.00  0.00     0.211 HD
ENDBRANCH  32  40
ENDBRANCH   1  27
TORSDOF 12
ENDMDL
MODEL 7
REMARK VINA RESULT:    -6.097      2.149      5.901
REMARK INTER + INTRA:         -10.283
REMARK INTER:                  -8.824
REMARK INTRA:                  -1.459
REMARK UNBOUND:                -1.334
REMARK SMILES O=c1c(O[C@@H]2O[C@H](CO)[C@H](O)[C@@H](O)[C@H]2O)c(-c2ccc(O)c(O)c2)oc2cc(O)cc(O)c12
REMARK SMILES IDX 4 1 3 2 16 3 25 4 2 5 26 6 1 7 33 8 27 9 31 10 28 11 30 12
REMARK SMILES IDX 17 13 18 14 19 15 20 16 24 17 22 18 21 19 23 21 32 23 29 25
REMARK SMILES IDX 5 27 14 28 6 29 12 30 7 31 10 32 15 33 13 35 8 37 9 38 11 40
REMARK H PARENT 21 20 23 22 32 24 29 26 15 34 13 36 9 39 11 41
REMARK Flexibility Score: inf
ROOT
ATOM      1  O   UNL     1      29.485   2.447  21.240  1.00  0.00    -0.454 OA
ENDROOT
BRANCH   1   2
ATOM      2  C   UNL     1      28.390   2.478  22.121  1.00  0.00     0.214 A 
ATOM      3  C   UNL     1      27.562   1.345  22.212  1.00  0.00     0.180 A 
ATOM      4  O   UNL     1      26.592   1.303  23.116  1.00  0.00    -0.452 OA
ATOM      5  C   UNL     1      28.127   3.575  22.965  1.00  0.00     0.239 A 
ATOM      6  C   UNL     1      26.304   2.312  23.928  1.00  0.00     0.146 A 
ATOM      7  O   UNL     1      28.916   4.554  22.964  1.00  0.00    -0.285 OA
ATOM      8  C   UNL     1      27.028   3.530  23.856  1.00  0.00     0.111 A 
ATOM      9  C   UNL     1      25.278   2.149  24.861  1.00  0.00     0.094 A 
ATOM     10  C   UNL     1      26.640   4.603  24.713  1.00  0.00     0.134 A 
ATOM     11  C   UNL     1      24.950   3.185  25.738  1.00  0.00     0.123 A 
ATOM     12  C   UNL     1      25.629   4.400  25.660  1.00  0.00     0.093 A 
BRANCH   3  13
ATOM     13  C   UNL     1      27.742   0.175  21.323  1.00  0.00     0.025 A 
ATOM     14  C   UNL     1      28.778  -0.748  21.543  1.00  0.00     0.016 A 
ATOM     15  C   UNL     1      28.952  -1.831  20.679  1.00  0.00     0.051 A 
ATOM     16  C   UNL     1      28.111  -2.008  19.574  1.00  0.00     0.157 A 
ATOM     17  C   UNL     1      26.910   0.013  20.205  1.00  0.00     0.062 A 
ATOM     18  C   UNL     1      27.076  -1.071  19.333  1.00  0.00     0.158 A 
BRANCH  16  19
ATOM     19  O   UNL     1      28.340  -3.112  18.750  1.00  0.00    -0.504 OA
ATOM     20  H   UNL     1      28.395  -4.063  19.083  1.00  0.00     0.293 HD
ENDBRANCH  16  19
BRANCH  18  21
ATOM     21  O   UNL     1      26.202  -1.176  18.249  1.00  0.00    -0.504 OA
ATOM     22  H   UNL     1      25.432  -1.829  18.207  1.00  0.00     0.293 HD
ENDBRANCH  18  21
ENDBRANCH   3  13
BRANCH  10  23
ATOM     23  O   UNL     1      27.195   5.885  24.651  1.00  0.00    -0.507 OA
ATOM     24  H   UNL     1      27.366   6.472  25.454  1.00  0.00     0.293 HD
ENDBRANCH  10  23
BRANCH  11  25
ATOM     25  O   UNL     1      23.946   3.019  26.689  1.00  0.00    -0.508 OA
ATOM     26  H   UNL     1      23.273   3.752  26.881  1.00  0.00     0.293 HD
ENDBRANCH  11  25
ENDBRANCH   1   2
BRANCH   1  27
ATOM     27  C   UNL     1      29.490   2.974  19.913  1.00  0.00     0.339 C 
ATOM     28  C   UNL     1      29.729   1.811  18.921  1.00  0.00     0.214 C 
ATOM     29  O   UNL     1      28.238   3.579  19.648  1.00  0.00    -0.332 OA
ATOM     30  C   UNL     1      29.011   2.062  17.569  1.00  0.00     0.180 C 
ATOM     31  C   UNL     1      28.285   4.343  18.449  1.00  0.00     0.179 C 
ATOM     32  C   UNL     1      28.958   3.570  17.260  1.00  0.00     0.177 C 
BRANCH  28  33
ATOM     33  O   UNL     1      31.109   1.591  18.751  1.00  0.00    -0.384 OA
ATOM     34  H   UNL     1      31.225   0.689  18.352  1.00  0.00     0.211 HD
ENDBRANCH  28  33
BRANCH  30  35
ATOM     35  O   UNL     1      29.653   1.376  16.524  1.00  0.00    -0.387 OA
ATOM     36  H   UNL     1      29.777   2.034  15.789  1.00  0.00     0.211 HD
ENDBRANCH  30  35
BRANCH  31  37
ATOM     37  C   UNL     1      26.853   4.806  18.138  1.00  0.00     0.191 C 
BRANCH  37  38
ATOM     38  O   UNL     1      26.875   5.944  17.321  1.00  0.00    -0.394 OA
ATOM     39  H   UNL     1      27.567   6.544  17.702  1.00  0.00     0.210 HD
ENDBRANCH  37  38
ENDBRANCH  31  37
BRANCH  32  40
ATOM     40  O   UNL     1      28.282   3.793  16.047  1.00  0.00    -0.387 OA
ATOM     41  H   UNL     1      28.873   3.465  15.319  1.00  0.00     0.211 HD
ENDBRANCH  32  40
ENDBRANCH   1  27
TORSDOF 12
ENDMDL
MODEL 8
REMARK VINA RESULT:    -6.004      1.748      2.424
REMARK INTER + INTRA:         -10.146
REMARK INTER:                  -9.396
REMARK INTRA:                  -0.751
REMARK UNBOUND:                -1.334
REMARK SMILES O=c1c(O[C@@H]2O[C@H](CO)[C@H](O)[C@@H](O)[C@H]2O)c(-c2ccc(O)c(O)c2)oc2cc(O)cc(O)c12
REMARK SMILES IDX 4 1 3 2 16 3 25 4 2 5 26 6 1 7 33 8 27 9 31 10 28 11 30 12
REMARK SMILES IDX 17 13 18 14 19 15 20 16 24 17 22 18 21 19 23 21 32 23 29 25
REMARK SMILES IDX 5 27 14 28 6 29 12 30 7 31 10 32 15 33 13 35 8 37 9 38 11 40
REMARK H PARENT 21 20 23 22 32 24 29 26 15 34 13 36 9 39 11 41
REMARK Flexibility Score: inf
ROOT
ATOM      1  O   UNL     1      28.573   1.586  20.072  1.00  0.00    -0.454 OA
ENDROOT
BRANCH   1   2
ATOM      2  C   UNL     1      29.064   0.639  20.986  1.00  0.00     0.214 A 
ATOM      3  C   UNL     1      29.021   0.938  22.359  1.00  0.00     0.180 A 
ATOM      4  O   UNL     1      29.371   0.019  23.250  1.00  0.00    -0.452 OA
ATOM      5  C   UNL     1      29.537  -0.626  20.586  1.00  0.00     0.239 A 
ATOM      6  C   UNL     1      29.827  -1.183  22.921  1.00  0.00     0.146 A 
ATOM      7  O   UNL     1      29.490  -0.944  19.370  1.00  0.00    -0.285 OA
ATOM      8  C   UNL     1      29.986  -1.550  21.560  1.00  0.00     0.111 A 
ATOM      9  C   UNL     1      30.140  -2.083  23.941  1.00  0.00     0.094 A 
ATOM     10  C   UNL     1      30.534  -2.834  21.262  1.00  0.00     0.134 A 
ATOM     11  C   UNL     1      30.616  -3.360  23.636  1.00  0.00     0.123 A 
ATOM     12  C   UNL     1      30.809  -3.727  22.305  1.00  0.00     0.093 A 
BRANCH   3  13
ATOM     13  C   UNL     1      28.587   2.263  22.855  1.00  0.00     0.025 A 
ATOM     14  C   UNL     1      29.423   3.387  22.746  1.00  0.00     0.016 A 
ATOM     15  C   UNL     1      29.010   4.624  23.244  1.00  0.00     0.051 A 
ATOM     16  C   UNL     1      27.767   4.764  23.871  1.00  0.00     0.157 A 
ATOM     17  C   UNL     1      27.348   2.395  23.501  1.00  0.00     0.062 A 
ATOM     18  C   UNL     1      26.925   3.633  24.003  1.00  0.00     0.158 A 
BRANCH  16  19
ATOM     19  O   UNL     1      27.415   6.029  24.347  1.00  0.00    -0.504 OA
ATOM     20  H   UNL     1      26.728   6.189  25.070  1.00  0.00     0.293 HD
ENDBRANCH  16  19
BRANCH  18  21
ATOM     21  O   UNL     1      25.674   3.693  24.623  1.00  0.00    -0.504 OA
ATOM     22  H   UNL     1      24.943   4.337  24.355  1.00  0.00     0.293 HD
ENDBRANCH  18  21
ENDBRANCH   3  13
BRANCH  10  23
ATOM     23  O   UNL     1      30.850  -3.262  19.969  1.00  0.00    -0.507 OA
ATOM     24  H   UNL     1      31.434  -2.749  19.325  1.00  0.00     0.293 HD
ENDBRANCH  10  23
BRANCH  11  25
ATOM     25  O   UNL     1      30.905  -4.271  24.649  1.00  0.00    -0.508 OA
ATOM     26  H   UNL     1      31.755  -4.822  24.638  1.00  0.00     0.293 HD
ENDBRANCH  11  25
ENDBRANCH   1   2
BRANCH   1  27
ATOM     27  C   UNL     1      27.728   1.296  18.958  1.00  0.00     0.339 C 
ATOM     28  C   UNL     1      26.576   2.328  18.930  1.00  0.00     0.214 C 
ATOM     29  O   UNL     1      28.482   1.388  17.765  1.00  0.00    -0.332 OA
ATOM     30  C   UNL     1      26.112   2.621  17.479  1.00  0.00     0.180 C 
ATOM     31  C   UNL     1      27.759   0.855  16.662  1.00  0.00     0.179 C 
ATOM     32  C   UNL     1      26.278   1.369  16.599  1.00  0.00     0.177 C 
BRANCH  28  33
ATOM     33  O   UNL     1      25.512   1.895  19.745  1.00  0.00    -0.384 OA
ATOM     34  H   UNL     1      25.706   2.186  20.675  1.00  0.00     0.211 HD
ENDBRANCH  28  33
BRANCH  30  35
ATOM     35  O   UNL     1      24.775   3.055  17.456  1.00  0.00    -0.387 OA
ATOM     36  H   UNL     1      24.215   2.238  17.365  1.00  0.00     0.211 HD
ENDBRANCH  30  35
BRANCH  31  37
ATOM     37  C   UNL     1      28.563   1.161  15.389  1.00  0.00     0.191 C 
BRANCH  37  38
ATOM     38  O   UNL     1      28.718   2.546  15.231  1.00  0.00    -0.394 OA
ATOM     39  H   UNL     1      27.909   2.860  14.750  1.00  0.00     0.210 HD
ENDBRANCH  37  38
ENDBRANCH  31  37
BRANCH  32  40
ATOM     40  O   UNL     1      25.881   1.648  15.278  1.00  0.00    -0.387 OA
ATOM     41  H   UNL     1      26.058   2.611  15.118  1.00  0.00     0.211 HD
ENDBRANCH  32  40
ENDBRANCH   1  27
TORSDOF 12
ENDMDL
MODEL 9
REMARK VINA RESULT:    -5.982      2.364      3.814
REMARK INTER + INTRA:         -10.114
REMARK INTER:                  -8.778
REMARK INTRA:                  -1.336
REMARK UNBOUND:                -1.334
REMARK SMILES O=c1c(O[C@@H]2O[C@H](CO)[C@H](O)[C@@H](O)[C@H]2O)c(-c2ccc(O)c(O)c2)oc2cc(O)cc(O)c12
REMARK SMILES IDX 4 1 3 2 16 3 25 4 2 5 26 6 1 7 33 8 27 9 31 10 28 11 30 12
REMARK SMILES IDX 17 13 18 14 19 15 20 16 24 17 22 18 21 19 23 21 32 23 29 25
REMARK SMILES IDX 5 27 14 28 6 29 12 30 7 31 10 32 15 33 13 35 8 37 9 38 11 40
REMARK H PARENT 21 20 23 22 32 24 29 26 15 34 13 36 9 39 11 41
REMARK Flexibility Score: inf
ROOT
ATOM      1  O   UNL     1      28.575   2.801  18.305  1.00  0.00    -0.454 OA
ENDROOT
BRANCH   1   2
ATOM      2  C   UNL     1      28.899   1.778  19.212  1.00  0.00     0.214 A 
ATOM      3  C   UNL     1      29.265   2.128  20.524  1.00  0.00     0.180 A 
ATOM      4  O   UNL     1      29.464   1.181  21.433  1.00  0.00    -0.452 OA
ATOM      5  C   UNL     1      28.807   0.412  18.879  1.00  0.00     0.239 A 
ATOM      6  C   UNL     1      29.394  -0.116  21.164  1.00  0.00     0.146 A 
ATOM      7  O   UNL     1      28.387   0.084  17.741  1.00  0.00    -0.285 OA
ATOM      8  C   UNL     1      29.113  -0.571  19.850  1.00  0.00     0.111 A 
ATOM      9  C   UNL     1      29.595  -1.027  22.204  1.00  0.00     0.094 A 
ATOM     10  C   UNL     1      29.107  -1.977  19.605  1.00  0.00     0.134 A 
ATOM     11  C   UNL     1      29.522  -2.400  21.964  1.00  0.00     0.123 A 
ATOM     12  C   UNL     1      29.280  -2.866  20.673  1.00  0.00     0.093 A 
BRANCH   3  13
ATOM     13  C   UNL     1      29.433   3.539  20.936  1.00  0.00     0.025 A 
ATOM     14  C   UNL     1      30.381   4.368  20.312  1.00  0.00     0.016 A 
ATOM     15  C   UNL     1      30.548   5.689  20.731  1.00  0.00     0.051 A 
ATOM     16  C   UNL     1      29.787   6.207  21.785  1.00  0.00     0.157 A 
ATOM     17  C   UNL     1      28.683   4.048  22.007  1.00  0.00     0.062 A 
ATOM     18  C   UNL     1      28.843   5.374  22.434  1.00  0.00     0.158 A 
BRANCH  16  19
ATOM     19  O   UNL     1      30.003   7.536  22.155  1.00  0.00    -0.504 OA
ATOM     20  H   UNL     1      29.479   8.317  21.786  1.00  0.00     0.293 HD
ENDBRANCH  16  19
BRANCH  18  21
ATOM     21  O   UNL     1      28.052   5.816  23.497  1.00  0.00    -0.504 OA
ATOM     22  H   UNL     1      27.767   6.777  23.625  1.00  0.00     0.293 HD
ENDBRANCH  18  21
ENDBRANCH   3  13
BRANCH  10  23
ATOM     23  O   UNL     1      28.963  -2.542  18.334  1.00  0.00    -0.507 OA
ATOM     24  H   UNL     1      29.732  -2.820  17.743  1.00  0.00     0.293 HD
ENDBRANCH  10  23
BRANCH  11  25
ATOM     25  O   UNL     1      29.695  -3.313  23.002  1.00  0.00    -0.508 OA
ATOM     26  H   UNL     1      28.925  -3.583  23.603  1.00  0.00     0.293 HD
ENDBRANCH  11  25
ENDBRANCH   1   2
BRANCH   1  27
ATOM     27  C   UNL     1      27.266   3.327  18.089  1.00  0.00     0.339 C 
ATOM     28  C   UNL     1      27.380   4.849  17.838  1.00  0.00     0.214 C 
ATOM     29  O   UNL     1      26.692   2.698  16.959  1.00  0.00    -0.332 OA
ATOM     30  C   UNL     1      26.272   5.350  16.874  1.00  0.00     0.180 C 
ATOM     31  C   UNL     1      25.303   2.992  16.861  1.00  0.00     0.179 C 
ATOM     32  C   UNL     1      24.989   4.517  17.051  1.00  0.00     0.177 C 
BRANCH  28  33
ATOM     33  O   UNL     1      27.370   5.548  19.060  1.00  0.00    -0.384 OA
ATOM     34  H   UNL     1      28.166   5.260  19.580  1.00  0.00     0.211 HD
ENDBRANCH  28  33
BRANCH  30  35
ATOM     35  O   UNL     1      25.998   6.712  17.088  1.00  0.00    -0.387 OA
ATOM     36  H   UNL     1      26.311   7.193  16.276  1.00  0.00     0.211 HD
ENDBRANCH  30  35
BRANCH  31  37
ATOM     37  C   UNL     1      24.804   2.432  15.521  1.00  0.00     0.191 C 
BRANCH  37  38
ATOM     38  O   UNL     1      23.411   2.277  15.545  1.00  0.00    -0.394 OA
ATOM     39  H   UNL     1      23.040   3.158  15.812  1.00  0.00     0.210 HD
ENDBRANCH  37  38
ENDBRANCH  31  37
BRANCH  32  40
ATOM     40  O   UNL     1      23.997   4.959  16.157  1.00  0.00    -0.387 OA
ATOM     41  H   UNL     1      23.126   4.630  16.501  1.00  0.00     0.211 HD
ENDBRANCH  32  40
ENDBRANCH   1  27
TORSDOF 12
ENDMDL
