MODEL 1
REMARK VINA RESULT:    -1.279      0.000      0.000
REMARK INTER + INTRA:          -1.723
REMARK INTER:                  -1.653
REMARK INTRA:                  -0.070
REMARK UNBOUND:                -0.070
REMARK SMILES CCCCCCC(=O)[O-]
REMARK SMILES IDX 5 1 6 2 7 3 8 4 9 5 4 6 3 7 2 8 1 9
REMARK H PARENT
REMARK Flexibility Score: inf
ROOT
ATOM      1  C   UNL     1      89.240   7.718 109.399  1.00  0.00     0.006 C 
ENDROOT
BRANCH   1   2
ATOM      2  C   UNL     1      90.064   6.875 108.417  1.00  0.00     0.053 C 
BRANCH   2   3
ATOM      3  C   UNL     1      91.026   7.715 107.634  1.00  0.00     0.041 C 
ATOM      4  O   UNL     1      92.267   7.574 107.795  1.00  0.00    -0.550 OA
ATOM      5  O   UNL     1      90.553   8.629 106.700  1.00  0.00    -0.550 OA
ENDBRANCH   2   3
ENDBRANCH   1   2
BRANCH   1   6
ATOM      6  C   UNL     1      88.213   6.876 110.170  1.00  0.00     0.000 C 
BRANCH   6   7
ATOM      7  C   UNL     1      87.552   7.698 111.282  1.00  0.00    -0.000 C 
BRANCH   7   8
ATOM      8  C   UNL     1      87.527   6.918 112.602  1.00  0.00    -0.003 C 
ATOM      9  C   UNL     1      86.141   6.956 113.239  1.00  0.00     0.004 C 
ENDBRANCH   7   8
ENDBRANCH   6   7
ENDBRANCH   1   6
TORSDOF 5
ENDMDL
MODEL 2
REMARK VINA RESULT:    -1.097     15.055     15.947
REMARK INTER + INTRA:          -1.487
REMARK INTER:                  -1.339
REMARK INTRA:                  -0.148
REMARK UNBOUND:                -0.070
REMARK SMILES CCCCCCC(=O)[O-]
REMARK SMILES IDX 5 1 6 2 7 3 8 4 9 5 4 6 3 7 2 8 1 9
REMARK H PARENT
REMARK Flexibility Score: inf
ROOT
ATOM      1  C   UNL     1      90.102  18.526 121.124  1.00  0.00     0.006 C 
ENDROOT
BRANCH   1   2
ATOM      2  C   UNL     1      88.863  17.839 120.533  1.00  0.00     0.053 C 
BRANCH   2   3
ATOM      3  C   UNL     1      87.607  18.595 120.842  1.00  0.00     0.041 C 
ATOM      4  O   UNL     1      87.659  19.821 121.125  1.00  0.00    -0.550 OA
ATOM      5  O   UNL     1      86.376  17.954 120.784  1.00  0.00    -0.550 OA
ENDBRANCH   2   3
ENDBRANCH   1   2
BRANCH   1   6
ATOM      6  C   UNL     1      91.358  17.649 121.020  1.00  0.00     0.000 C 
BRANCH   6   7
ATOM      7  C   UNL     1      91.935  17.681 119.600  1.00  0.00    -0.000 C 
BRANCH   7   8
ATOM      8  C   UNL     1      93.254  16.903 119.524  1.00  0.00    -0.003 C 
ATOM      9  C   UNL     1      93.530  16.158 120.826  1.00  0.00     0.004 C 
ENDBRANCH   7   8
ENDBRANCH   6   7
ENDBRANCH   1   6
TORSDOF 5
ENDMDL
MODEL 3
REMARK VINA RESULT:     0.355     19.480     20.464
REMARK INTER + INTRA:           0.388
REMARK INTER:                   0.578
REMARK INTRA:                  -0.190
REMARK UNBOUND:                -0.070
REMARK SMILES CCCCCCC(=O)[O-]
REMARK SMILES IDX 5 1 6 2 7 3 8 4 9 5 4 6 3 7 2 8 1 9
REMARK H PARENT
REMARK Flexibility Score: inf
ROOT
ATOM      1  C   UNL     1      83.057  24.590 114.290  1.00  0.00     0.006 C 
ENDROOT
BRANCH   1   2
ATOM      2  C   UNL     1      83.139  24.078 115.734  1.00  0.00     0.053 C 
BRANCH   2   3
ATOM      3  C   UNL     1      83.490  25.173 116.694  1.00  0.00     0.041 C 
ATOM      4  O   UNL     1      82.729  25.435 117.662  1.00  0.00    -0.550 OA
ATOM      5  O   UNL     1      84.675  25.881 116.540  1.00  0.00    -0.550 OA
ENDBRANCH   2   3
ENDBRANCH   1   2
BRANCH   1   6
ATOM      6  C   UNL     1      81.982  25.674 114.118  1.00  0.00     0.000 C 
BRANCH   6   7
ATOM      7  C   UNL     1      82.618  27.065 114.008  1.00  0.00    -0.000 C 
BRANCH   7   8
ATOM      8  C   UNL     1      83.988  26.991 113.325  1.00  0.00    -0.003 C 
ATOM      9  C   UNL     1      83.858  27.125 111.811  1.00  0.00     0.004 C 
ENDBRANCH   7   8
ENDBRANCH   6   7
ENDBRANCH   1   6
TORSDOF 5
ENDMDL
MODEL 4
REMARK VINA RESULT:     0.534     19.226     20.086
REMARK INTER + INTRA:           0.620
REMARK INTER:                   0.494
REMARK INTRA:                   0.126
REMARK UNBOUND:                -0.070
REMARK SMILES CCCCCCC(=O)[O-]
REMARK SMILES IDX 5 1 6 2 7 3 8 4 9 5 4 6 3 7 2 8 1 9
REMARK H PARENT
REMARK Flexibility Score: inf
ROOT
ATOM      1  C   UNL     1      81.876  25.295 114.110  1.00  0.00     0.006 C 
ENDROOT
BRANCH   1   2
ATOM      2  C   UNL     1      82.257  26.781 114.117  1.00  0.00     0.053 C 
BRANCH   2   3
ATOM      3  C   UNL     1      83.542  27.030 113.388  1.00  0.00     0.041 C 
ATOM      4  O   UNL     1      84.624  27.124 114.024  1.00  0.00    -0.550 OA
ATOM      5  O   UNL     1      83.549  27.124 112.001  1.00  0.00    -0.550 OA
ENDBRANCH   2   3
ENDBRANCH   1   2
BRANCH   1   6
ATOM      6  C   UNL     1      83.068  24.387 114.450  1.00  0.00     0.000 C 
BRANCH   6   7
ATOM      7  C   UNL     1      83.010  23.930 115.913  1.00  0.00    -0.000 C 
BRANCH   7   8
ATOM      8  C   UNL     1      83.101  25.127 116.866  1.00  0.00    -0.003 C 
ATOM      9  C   UNL     1      84.494  25.749 116.839  1.00  0.00     0.004 C 
ENDBRANCH   7   8
ENDBRANCH   6   7
ENDBRANCH   1   6
TORSDOF 5
ENDMDL
