MODEL 1
REMARK VINA RESULT:    -3.842      0.000      0.000
REMARK INTER + INTRA:          -5.424
REMARK INTER:                  -5.190
REMARK INTRA:                  -0.234
REMARK UNBOUND:                -0.234
REMARK SMILES CCCCCCCC=O
REMARK SMILES IDX 5 1 4 2 3 3 2 4 1 5 6 6 7 7 8 8 9 9
REMARK H PARENT
REMARK Flexibility Score: inf
ROOT
ATOM      1  C   UNL     1      25.166  58.253  -8.896  1.00  0.00     0.000 C 
ENDROOT
BRANCH   1   2
ATOM      2  C   UNL     1      26.119  59.353  -9.380  1.00  0.00     0.000 C 
BRANCH   2   3
ATOM      3  C   UNL     1      27.136  58.795 -10.387  1.00  0.00    -0.000 C 
BRANCH   3   4
ATOM      4  C   UNL     1      28.402  59.659 -10.486  1.00  0.00    -0.003 C 
ATOM      5  C   UNL     1      28.094  61.153 -10.576  1.00  0.00     0.004 C 
ENDBRANCH   3   4
ENDBRANCH   2   3
ENDBRANCH   1   2
BRANCH   1   6
ATOM      6  C   UNL     1      25.746  56.859  -9.174  1.00  0.00     0.008 C 
BRANCH   6   7
ATOM      7  C   UNL     1      25.395  55.854  -8.067  1.00  0.00     0.072 C 
BRANCH   7   8
ATOM      8  C   UNL     1      23.967  55.395  -8.143  1.00  0.00     0.224 C 
ATOM      9  O   UNL     1      23.272  55.402  -7.141  1.00  0.00    -0.303 OA
ENDBRANCH   7   8
ENDBRANCH   6   7
ENDBRANCH   1   6
TORSDOF 6
ENDMDL
MODEL 2
REMARK VINA RESULT:    -3.638      2.887      5.563
REMARK INTER + INTRA:          -5.149
REMARK INTER:                  -5.016
REMARK INTRA:                  -0.133
REMARK UNBOUND:                -0.234
REMARK SMILES CCCCCCCC=O
REMARK SMILES IDX 5 1 4 2 3 3 2 4 1 5 6 6 7 7 8 8 9 9
REMARK H PARENT
REMARK Flexibility Score: inf
ROOT
ATOM      1  C   UNL     1      26.477  58.396  -9.760  1.00  0.00     0.000 C 
ENDROOT
BRANCH   1   2
ATOM      2  C   UNL     1      25.330  57.820  -8.921  1.00  0.00     0.000 C 
BRANCH   2   3
ATOM      3  C   UNL     1      25.670  56.408  -8.422  1.00  0.00    -0.000 C 
BRANCH   3   4
ATOM      4  C   UNL     1      24.490  55.434  -8.560  1.00  0.00    -0.003 C 
ATOM      5  C   UNL     1      23.528  55.497  -7.374  1.00  0.00     0.004 C 
ENDBRANCH   3   4
ENDBRANCH   2   3
ENDBRANCH   1   2
BRANCH   1   6
ATOM      6  C   UNL     1      26.562  59.921  -9.604  1.00  0.00     0.008 C 
BRANCH   6   7
ATOM      7  C   UNL     1      27.696  60.528 -10.443  1.00  0.00     0.072 C 
BRANCH   7   8
ATOM      8  C   UNL     1      28.850  59.583 -10.613  1.00  0.00     0.224 C 
ATOM      9  O   UNL     1      29.879  59.759  -9.982  1.00  0.00    -0.303 OA
ENDBRANCH   7   8
ENDBRANCH   6   7
ENDBRANCH   1   6
TORSDOF 6
ENDMDL
MODEL 3
REMARK VINA RESULT:    -3.564     15.683     16.884
REMARK INTER + INTRA:          -5.048
REMARK INTER:                  -4.852
REMARK INTRA:                  -0.196
REMARK UNBOUND:                -0.234
REMARK SMILES CCCCCCCC=O
REMARK SMILES IDX 5 1 4 2 3 3 2 4 1 5 6 6 7 7 8 8 9 9
REMARK H PARENT
REMARK Flexibility Score: inf
ROOT
ATOM      1  C   UNL     1      31.834  45.890   1.156  1.00  0.00     0.000 C 
ENDROOT
BRANCH   1   2
ATOM      2  C   UNL     1      32.604  45.505   2.426  1.00  0.00     0.000 C 
BRANCH   2   3
ATOM      3  C   UNL     1      33.124  46.753   3.153  1.00  0.00    -0.000 C 
BRANCH   3   4
ATOM      4  C   UNL     1      31.990  47.619   3.722  1.00  0.00    -0.003 C 
ATOM      5  C   UNL     1      32.402  49.076   3.926  1.00  0.00     0.004 C 
ENDBRANCH   3   4
ENDBRANCH   2   3
ENDBRANCH   1   2
BRANCH   1   6
ATOM      6  C   UNL     1      30.363  45.463   1.254  1.00  0.00     0.008 C 
BRANCH   6   7
ATOM      7  C   UNL     1      29.857  44.821  -0.047  1.00  0.00     0.072 C 
BRANCH   7   8
ATOM      8  C   UNL     1      28.469  45.269  -0.403  1.00  0.00     0.224 C 
ATOM      9  O   UNL     1      28.267  46.428  -0.725  1.00  0.00    -0.303 OA
ENDBRANCH   7   8
ENDBRANCH   6   7
ENDBRANCH   1   6
TORSDOF 6
ENDMDL
MODEL 4
REMARK VINA RESULT:    -3.562      2.712      5.816
REMARK INTER + INTRA:          -5.046
REMARK INTER:                  -4.954
REMARK INTRA:                  -0.092
REMARK UNBOUND:                -0.234
REMARK SMILES CCCCCCCC=O
REMARK SMILES IDX 5 1 4 2 3 3 2 4 1 5 6 6 7 7 8 8 9 9
REMARK H PARENT
REMARK Flexibility Score: inf
ROOT
ATOM      1  C   UNL     1      25.873  57.215  -8.841  1.00  0.00     0.000 C 
ENDROOT
BRANCH   1   2
ATOM      2  C   UNL     1      24.393  56.811  -8.802  1.00  0.00     0.000 C 
BRANCH   2   3
ATOM      3  C   UNL     1      24.225  55.398  -8.224  1.00  0.00    -0.000 C 
BRANCH   3   4
ATOM      4  C   UNL     1      23.323  55.373  -6.981  1.00  0.00    -0.003 C 
ATOM      5  C   UNL     1      22.263  54.273  -7.040  1.00  0.00     0.004 C 
ENDBRANCH   3   4
ENDBRANCH   2   3
ENDBRANCH   1   2
BRANCH   1   6
ATOM      6  C   UNL     1      26.040  58.639  -9.389  1.00  0.00     0.008 C 
BRANCH   6   7
ATOM      7  C   UNL     1      27.174  58.734 -10.420  1.00  0.00     0.072 C 
BRANCH   7   8
ATOM      8  C   UNL     1      27.862  60.068 -10.392  1.00  0.00     0.224 C 
ATOM      9  O   UNL     1      27.280  61.044  -9.949  1.00  0.00    -0.303 OA
ENDBRANCH   7   8
ENDBRANCH   6   7
ENDBRANCH   1   6
TORSDOF 6
ENDMDL
MODEL 5
REMARK VINA RESULT:    -3.549     17.685     18.870
REMARK INTER + INTRA:          -5.028
REMARK INTER:                  -4.831
REMARK INTRA:                  -0.197
REMARK UNBOUND:                -0.234
REMARK SMILES CCCCCCCC=O
REMARK SMILES IDX 5 1 4 2 3 3 2 4 1 5 6 6 7 7 8 8 9 9
REMARK H PARENT
REMARK Flexibility Score: inf
ROOT
ATOM      1  C   UNL     1      18.016  44.420   0.183  1.00  0.00     0.000 C 
ENDROOT
BRANCH   1   2
ATOM      2  C   UNL     1      19.507  44.777   0.208  1.00  0.00     0.000 C 
BRANCH   2   3
ATOM      3  C   UNL     1      20.148  44.366   1.542  1.00  0.00    -0.000 C 
BRANCH   3   4
ATOM      4  C   UNL     1      20.726  42.943   1.506  1.00  0.00    -0.003 C 
ATOM      5  C   UNL     1      21.292  42.569   0.137  1.00  0.00     0.004 C 
ENDBRANCH   3   4
ENDBRANCH   2   3
ENDBRANCH   1   2
BRANCH   1   6
ATOM      6  C   UNL     1      17.515  44.044   1.585  1.00  0.00     0.008 C 
BRANCH   6   7
ATOM      7  C   UNL     1      16.056  44.466   1.812  1.00  0.00     0.072 C 
BRANCH   7   8
ATOM      8  C   UNL     1      15.487  45.213   0.639  1.00  0.00     0.224 C 
ATOM      9  O   UNL     1      14.523  45.943   0.793  1.00  0.00    -0.303 OA
ENDBRANCH   7   8
ENDBRANCH   6   7
ENDBRANCH   1   6
TORSDOF 6
ENDMDL
MODEL 6
REMARK VINA RESULT:    -3.548     17.151     18.706
REMARK INTER + INTRA:          -5.026
REMARK INTER:                  -4.698
REMARK INTRA:                  -0.328
REMARK UNBOUND:                -0.234
REMARK SMILES CCCCCCCC=O
REMARK SMILES IDX 5 1 4 2 3 3 2 4 1 5 6 6 7 7 8 8 9 9
REMARK H PARENT
REMARK Flexibility Score: inf
ROOT
ATOM      1  C   UNL     1      18.587  45.696  -0.354  1.00  0.00     0.000 C 
ENDROOT
BRANCH   1   2
ATOM      2  C   UNL     1      17.380  44.777  -0.129  1.00  0.00     0.000 C 
BRANCH   2   3
ATOM      3  C   UNL     1      16.062  45.547  -0.303  1.00  0.00    -0.000 C 
BRANCH   3   4
ATOM      4  C   UNL     1      15.066  45.273   0.834  1.00  0.00    -0.003 C 
ATOM      5  C   UNL     1      15.726  44.648   2.063  1.00  0.00     0.004 C 
ENDBRANCH   3   4
ENDBRANCH   2   3
ENDBRANCH   1   2
BRANCH   1   6
ATOM      6  C   UNL     1      19.892  45.004   0.066  1.00  0.00     0.008 C 
BRANCH   6   7
ATOM      7  C   UNL     1      19.775  44.331   1.441  1.00  0.00     0.072 C 
BRANCH   7   8
ATOM      8  C   UNL     1      20.454  42.992   1.481  1.00  0.00     0.224 C 
ATOM      9  O   UNL     1      20.933  42.522   0.463  1.00  0.00    -0.303 OA
ENDBRANCH   7   8
ENDBRANCH   6   7
ENDBRANCH   1   6
TORSDOF 6
ENDMDL
MODEL 7
REMARK VINA RESULT:    -3.543      1.224      1.868
REMARK INTER + INTRA:          -5.020
REMARK INTER:                  -4.837
REMARK INTRA:                  -0.183
REMARK UNBOUND:                -0.234
REMARK SMILES CCCCCCCC=O
REMARK SMILES IDX 5 1 4 2 3 3 2 4 1 5 6 6 7 7 8 8 9 9
REMARK H PARENT
REMARK Flexibility Score: inf
ROOT
ATOM      1  C   UNL     1      26.982  58.750 -10.103  1.00  0.00     0.000 C 
ENDROOT
BRANCH   1   2
ATOM      2  C   UNL     1      27.319  60.231  -9.888  1.00  0.00     0.000 C 
BRANCH   2   3
ATOM      3  C   UNL     1      28.460  60.675 -10.816  1.00  0.00    -0.000 C 
BRANCH   3   4
ATOM      4  C   UNL     1      29.411  59.523 -11.174  1.00  0.00    -0.003 C 
ATOM      5  C   UNL     1      30.766  59.636 -10.476  1.00  0.00     0.004 C 
ENDBRANCH   3   4
ENDBRANCH   2   3
ENDBRANCH   1   2
BRANCH   1   6
ATOM      6  C   UNL     1      25.737  58.346  -9.300  1.00  0.00     0.008 C 
BRANCH   6   7
ATOM      7  C   UNL     1      25.761  56.864  -8.899  1.00  0.00     0.072 C 
BRANCH   7   8
ATOM      8  C   UNL     1      24.416  56.372  -8.450  1.00  0.00     0.224 C 
ATOM      9  O   UNL     1      24.247  55.185  -8.225  1.00  0.00    -0.303 OA
ENDBRANCH   7   8
ENDBRANCH   6   7
ENDBRANCH   1   6
TORSDOF 6
ENDMDL
MODEL 8
REMARK VINA RESULT:    -3.510     18.218     19.458
REMARK INTER + INTRA:          -4.975
REMARK INTER:                  -4.563
REMARK INTRA:                  -0.412
REMARK UNBOUND:                -0.234
REMARK SMILES CCCCCCCC=O
REMARK SMILES IDX 5 1 4 2 3 3 2 4 1 5 6 6 7 7 8 8 9 9
REMARK H PARENT
REMARK Flexibility Score: inf
ROOT
ATOM      1  C   UNL     1      17.955  42.689   1.340  1.00  0.00     0.000 C 
ENDROOT
BRANCH   1   2
ATOM      2  C   UNL     1      16.452  42.995   1.313  1.00  0.00     0.000 C 
BRANCH   2   3
ATOM      3  C   UNL     1      16.173  44.425   1.797  1.00  0.00    -0.000 C 
BRANCH   3   4
ATOM      4  C   UNL     1      15.455  45.276   0.738  1.00  0.00    -0.003 C 
ATOM      5  C   UNL     1      16.302  45.500  -0.515  1.00  0.00     0.004 C 
ENDBRANCH   3   4
ENDBRANCH   2   3
ENDBRANCH   1   2
BRANCH   1   6
ATOM      6  C   UNL     1      18.754  43.898   1.847  1.00  0.00     0.008 C 
BRANCH   6   7
ATOM      7  C   UNL     1      20.064  44.095   1.070  1.00  0.00     0.072 C 
BRANCH   7   8
ATOM      8  C   UNL     1      21.026  42.961   1.275  1.00  0.00     0.224 C 
ATOM      9  O   UNL     1      21.373  42.278   0.325  1.00  0.00    -0.303 OA
ENDBRANCH   7   8
ENDBRANCH   6   7
ENDBRANCH   1   6
TORSDOF 6
ENDMDL
MODEL 9
REMARK VINA RESULT:    -3.477     15.924     17.516
REMARK INTER + INTRA:          -4.930
REMARK INTER:                  -4.642
REMARK INTRA:                  -0.288
REMARK UNBOUND:                -0.234
REMARK SMILES CCCCCCCC=O
REMARK SMILES IDX 5 1 4 2 3 3 2 4 1 5 6 6 7 7 8 8 9 9
REMARK H PARENT
REMARK Flexibility Score: inf
ROOT
ATOM      1  C   UNL     1      32.453  46.075   1.725  1.00  0.00     0.000 C 
ENDROOT
BRANCH   1   2
ATOM      2  C   UNL     1      31.920  44.638   1.677  1.00  0.00     0.000 C 
BRANCH   2   3
ATOM      3  C   UNL     1      30.788  44.506   0.647  1.00  0.00    -0.000 C 
BRANCH   3   4
ATOM      4  C   UNL     1      29.759  45.642   0.753  1.00  0.00    -0.003 C 
ATOM      5  C   UNL     1      28.644  45.530  -0.285  1.00  0.00     0.004 C 
ENDBRANCH   3   4
ENDBRANCH   2   3
ENDBRANCH   1   2
BRANCH   1   6
ATOM      6  C   UNL     1      32.757  46.501   3.169  1.00  0.00     0.008 C 
BRANCH   6   7
ATOM      7  C   UNL     1      31.830  47.628   3.648  1.00  0.00     0.072 C 
BRANCH   7   8
ATOM      8  C   UNL     1      32.566  48.917   3.873  1.00  0.00     0.224 C 
ATOM      9  O   UNL     1      33.421  49.276   3.081  1.00  0.00    -0.303 OA
ENDBRANCH   7   8
ENDBRANCH   6   7
ENDBRANCH   1   6
TORSDOF 6
ENDMDL
