MODEL 1
REMARK VINA RESULT:    -3.836      0.000      0.000
REMARK INTER + INTRA:          -3.836
REMARK INTER:                  -3.836
REMARK INTRA:                   0.000
REMARK UNBOUND:                 0.000
REMARK SMILES CC1(C)O[C@]2(C)CC[C@H]1CC2
REMARK SMILES IDX 1 1 2 2 9 3 8 4 7 5 5 6 4 7 11 8 10 9 6 10 3 11
REMARK H PARENT
REMARK Flexibility Score: inf
ROOT
ATOM      1  C   UNL     1     119.809 116.898 118.619  1.00  0.00     0.042 C 
ATOM      2  C   UNL     1     118.529 117.663 118.221  1.00  0.00     0.066 C 
ATOM      3  C   UNL     1     117.296 117.168 119.072  1.00  0.00     0.021 C 
ATOM      4  C   UNL     1     117.044 115.677 118.747  1.00  0.00     0.009 C 
ATOM      5  C   UNL     1     116.950 115.500 117.211  1.00  0.00     0.035 C 
ATOM      6  C   UNL     1     117.049 116.887 116.515  1.00  0.00     0.066 C 
ATOM      7  O   UNL     1     118.315 117.475 116.814  1.00  0.00    -0.369 OA
ATOM      8  C   UNL     1     115.918 117.807 117.058  1.00  0.00     0.035 C 
ATOM      9  C   UNL     1     116.035 117.929 118.597  1.00  0.00     0.009 C 
ATOM     10  C   UNL     1     116.924 116.730 114.995  1.00  0.00     0.042 C 
ATOM     11  C   UNL     1     118.795 119.164 118.468  1.00  0.00     0.042 C 
ENDROOT
TORSDOF 0
ENDMDL
MODEL 2
REMARK VINA RESULT:    -3.832      1.558      2.551
REMARK INTER + INTRA:          -3.832
REMARK INTER:                  -3.832
REMARK INTRA:                   0.000
REMARK UNBOUND:                 0.000
REMARK SMILES CC1(C)O[C@]2(C)CC[C@H]1CC2
REMARK SMILES IDX 1 1 2 2 9 3 8 4 7 5 5 6 4 7 11 8 10 9 6 10 3 11
REMARK H PARENT
REMARK Flexibility Score: inf
ROOT
ATOM      1  C   UNL     1     116.973 113.433 118.548  1.00  0.00     0.042 C 
ATOM      2  C   UNL     1     117.682 114.756 118.185  1.00  0.00     0.066 C 
ATOM      3  C   UNL     1     117.078 115.957 119.011  1.00  0.00     0.021 C 
ATOM      4  C   UNL     1     115.591 116.123 118.617  1.00  0.00     0.009 C 
ATOM      5  C   UNL     1     115.480 116.210 117.075  1.00  0.00     0.035 C 
ATOM      6  C   UNL     1     116.902 116.192 116.443  1.00  0.00     0.066 C 
ATOM      7  O   UNL     1     117.547 114.961 116.771  1.00  0.00    -0.369 OA
ATOM      8  C   UNL     1     117.729 117.373 117.028  1.00  0.00     0.035 C 
ATOM      9  C   UNL     1     117.786 117.260 118.570  1.00  0.00     0.009 C 
ATOM     10  C   UNL     1     116.808 116.310 114.918  1.00  0.00     0.042 C 
ATOM     11  C   UNL     1     119.182 114.576 118.502  1.00  0.00     0.042 C 
ENDROOT
TORSDOF 0
ENDMDL
MODEL 3
REMARK VINA RESULT:    -3.829      1.964      3.669
REMARK INTER + INTRA:          -3.829
REMARK INTER:                  -3.829
REMARK INTRA:                   0.000
REMARK UNBOUND:                 0.000
REMARK SMILES CC1(C)O[C@]2(C)CC[C@H]1CC2
REMARK SMILES IDX 1 1 2 2 9 3 8 4 7 5 5 6 4 7 11 8 10 9 6 10 3 11
REMARK H PARENT
REMARK Flexibility Score: inf
ROOT
ATOM      1  C   UNL     1     113.428 116.234 118.529  1.00  0.00     0.042 C 
ATOM      2  C   UNL     1     114.759 115.537 118.173  1.00  0.00     0.066 C 
ATOM      3  C   UNL     1     115.949 116.147 119.009  1.00  0.00     0.021 C 
ATOM      4  C   UNL     1     116.107 117.637 118.622  1.00  0.00     0.009 C 
ATOM      5  C   UNL     1     116.203 117.754 117.081  1.00  0.00     0.035 C 
ATOM      6  C   UNL     1     116.201 116.334 116.444  1.00  0.00     0.066 C 
ATOM      7  O   UNL     1     114.972 115.679 116.761  1.00  0.00    -0.369 OA
ATOM      8  C   UNL     1     117.384 115.514 117.034  1.00  0.00     0.035 C 
ATOM      9  C   UNL     1     117.261 115.450 118.575  1.00  0.00     0.009 C 
ATOM     10  C   UNL     1     116.329 116.435 114.920  1.00  0.00     0.042 C 
ATOM     11  C   UNL     1     114.588 114.034 118.482  1.00  0.00     0.042 C 
ENDROOT
TORSDOF 0
ENDMDL
MODEL 4
REMARK VINA RESULT:    -3.828      1.508      2.635
REMARK INTER + INTRA:          -3.828
REMARK INTER:                  -3.828
REMARK INTRA:                   0.000
REMARK UNBOUND:                 0.000
REMARK SMILES CC1(C)O[C@]2(C)CC[C@H]1CC2
REMARK SMILES IDX 1 1 2 2 9 3 8 4 7 5 5 6 4 7 11 8 10 9 6 10 3 11
REMARK H PARENT
REMARK Flexibility Score: inf
ROOT
ATOM      1  C   UNL     1     116.241 119.798 118.566  1.00  0.00     0.042 C 
ATOM      2  C   UNL     1     115.582 118.449 118.202  1.00  0.00     0.066 C 
ATOM      3  C   UNL     1     116.240 117.269 119.017  1.00  0.00     0.021 C 
ATOM      4  C   UNL     1     117.729 117.163 118.610  1.00  0.00     0.009 C 
ATOM      5  C   UNL     1     117.830 117.089 117.066  1.00  0.00     0.035 C 
ATOM      6  C   UNL     1     116.403 117.054 116.446  1.00  0.00     0.066 C 
ATOM      7  O   UNL     1     115.714 118.257 116.786  1.00  0.00    -0.369 OA
ATOM      8  C   UNL     1     115.628 115.838 117.031  1.00  0.00     0.035 C 
ATOM      9  C   UNL     1     115.579 115.941 118.575  1.00  0.00     0.009 C 
ATOM     10  C   UNL     1     116.489 116.947 114.920  1.00  0.00     0.042 C 
ATOM     11  C   UNL     1     114.078 118.569 118.531  1.00  0.00     0.042 C 
ENDROOT
TORSDOF 0
ENDMDL
MODEL 5
REMARK VINA RESULT:    -3.582      1.697      3.264
REMARK INTER + INTRA:          -3.582
REMARK INTER:                  -3.582
REMARK INTRA:                   0.000
REMARK UNBOUND:                 0.000
REMARK SMILES CC1(C)O[C@]2(C)CC[C@H]1CC2
REMARK SMILES IDX 1 1 2 2 9 3 8 4 7 5 5 6 4 7 11 8 10 9 6 10 3 11
REMARK H PARENT
REMARK Flexibility Score: inf
ROOT
ATOM      1  C   UNL     1     114.093 116.271 118.165  1.00  0.00     0.042 C 
ATOM      2  C   UNL     1     115.550 116.593 118.563  1.00  0.00     0.066 C 
ATOM      3  C   UNL     1     116.163 117.682 117.601  1.00  0.00     0.021 C 
ATOM      4  C   UNL     1     116.210 117.100 116.168  1.00  0.00     0.009 C 
ATOM      5  C   UNL     1     116.913 115.721 116.202  1.00  0.00     0.035 C 
ATOM      6  C   UNL     1     117.418 115.423 117.643  1.00  0.00     0.066 C 
ATOM      7  O   UNL     1     116.301 115.370 118.531  1.00  0.00    -0.369 OA
ATOM      8  C   UNL     1     118.373 116.568 118.091  1.00  0.00     0.035 C 
ATOM      9  C   UNL     1     117.635 117.926 118.012  1.00  0.00     0.009 C 
ATOM     10  C   UNL     1     118.146 114.075 117.684  1.00  0.00     0.042 C 
ATOM     11  C   UNL     1     115.527 117.102 120.021  1.00  0.00     0.042 C 
ENDROOT
TORSDOF 0
ENDMDL
MODEL 6
REMARK VINA RESULT:    -3.571      1.733      2.967
REMARK INTER + INTRA:          -3.571
REMARK INTER:                  -3.571
REMARK INTRA:                   0.000
REMARK UNBOUND:                 0.000
REMARK SMILES CC1(C)O[C@]2(C)CC[C@H]1CC2
REMARK SMILES IDX 1 1 2 2 9 3 8 4 7 5 5 6 4 7 11 8 10 9 6 10 3 11
REMARK H PARENT
REMARK Flexibility Score: inf
ROOT
ATOM      1  C   UNL     1     116.268 119.148 118.125  1.00  0.00     0.042 C 
ATOM      2  C   UNL     1     116.602 117.703 118.553  1.00  0.00     0.066 C 
ATOM      3  C   UNL     1     117.711 117.086 117.616  1.00  0.00     0.021 C 
ATOM      4  C   UNL     1     117.148 117.007 116.177  1.00  0.00     0.009 C 
ATOM      5  C   UNL     1     115.777 116.287 116.206  1.00  0.00     0.035 C 
ATOM      6  C   UNL     1     115.467 115.804 117.652  1.00  0.00     0.066 C 
ATOM      7  O   UNL     1     115.389 116.936 118.519  1.00  0.00    -0.369 OA
ATOM      8  C   UNL     1     116.617 114.872 118.131  1.00  0.00     0.035 C 
ATOM      9  C   UNL     1     117.967 115.625 118.056  1.00  0.00     0.009 C 
ATOM     10  C   UNL     1     114.127 115.060 117.689  1.00  0.00     0.042 C 
ATOM     11  C   UNL     1     117.092 117.758 120.016  1.00  0.00     0.042 C 
ENDROOT
TORSDOF 0
ENDMDL
MODEL 7
REMARK VINA RESULT:    -3.541      1.369      2.857
REMARK INTER + INTRA:          -3.541
REMARK INTER:                  -3.541
REMARK INTRA:                   0.000
REMARK UNBOUND:                 0.000
REMARK SMILES CC1(C)O[C@]2(C)CC[C@H]1CC2
REMARK SMILES IDX 1 1 2 2 9 3 8 4 7 5 5 6 4 7 11 8 10 9 6 10 3 11
REMARK H PARENT
REMARK Flexibility Score: inf
ROOT
ATOM      1  C   UNL     1     115.426 116.695 120.033  1.00  0.00     0.042 C 
ATOM      2  C   UNL     1     115.765 117.126 118.589  1.00  0.00     0.066 C 
ATOM      3  C   UNL     1     115.656 115.901 117.601  1.00  0.00     0.021 C 
ATOM      4  C   UNL     1     116.711 114.846 118.012  1.00  0.00     0.009 C 
ATOM      5  C   UNL     1     118.095 115.530 118.128  1.00  0.00     0.035 C 
ATOM      6  C   UNL     1     117.982 117.023 117.707  1.00  0.00     0.066 C 
ATOM      7  O   UNL     1     117.083 117.694 118.591  1.00  0.00    -0.369 OA
ATOM      8  C   UNL     1     117.423 117.098 116.257  1.00  0.00     0.035 C 
ATOM      9  C   UNL     1     116.055 116.377 116.184  1.00  0.00     0.009 C 
ATOM     10  C   UNL     1     119.353 117.704 117.786  1.00  0.00     0.042 C 
ATOM     11  C   UNL     1     114.766 118.236 118.195  1.00  0.00     0.042 C 
ENDROOT
TORSDOF 0
ENDMDL
MODEL 8
REMARK VINA RESULT:    -3.540      1.757      3.453
REMARK INTER + INTRA:          -3.540
REMARK INTER:                  -3.540
REMARK INTRA:                   0.000
REMARK UNBOUND:                 0.000
REMARK SMILES CC1(C)O[C@]2(C)CC[C@H]1CC2
REMARK SMILES IDX 1 1 2 2 9 3 8 4 7 5 5 6 4 7 11 8 10 9 6 10 3 11
REMARK H PARENT
REMARK Flexibility Score: inf
ROOT
ATOM      1  C   UNL     1     115.716 115.098 119.678  1.00  0.00     0.042 C 
ATOM      2  C   UNL     1     115.465 115.753 118.302  1.00  0.00     0.066 C 
ATOM      3  C   UNL     1     116.681 115.495 117.331  1.00  0.00     0.021 C 
ATOM      4  C   UNL     1     117.936 116.176 117.928  1.00  0.00     0.009 C 
ATOM      5  C   UNL     1     117.605 117.652 118.258  1.00  0.00     0.035 C 
ATOM      6  C   UNL     1     116.156 117.983 117.798  1.00  0.00     0.066 C 
ATOM      7  O   UNL     1     115.237 117.154 118.510  1.00  0.00    -0.369 OA
ATOM      8  C   UNL     1     116.031 117.691 116.274  1.00  0.00     0.035 C 
ATOM      9  C   UNL     1     116.399 116.215 115.991  1.00  0.00     0.009 C 
ATOM     10  C   UNL     1     115.827 119.451 118.089  1.00  0.00     0.042 C 
ATOM     11  C   UNL     1     114.170 115.137 117.730  1.00  0.00     0.042 C 
ENDROOT
TORSDOF 0
ENDMDL
MODEL 9
REMARK VINA RESULT:    -3.536      1.857      3.096
REMARK INTER + INTRA:          -3.536
REMARK INTER:                  -3.536
REMARK INTRA:                   0.000
REMARK UNBOUND:                 0.000
REMARK SMILES CC1(C)O[C@]2(C)CC[C@H]1CC2
REMARK SMILES IDX 1 1 2 2 9 3 8 4 7 5 5 6 4 7 11 8 10 9 6 10 3 11
REMARK H PARENT
REMARK Flexibility Score: inf
ROOT
ATOM      1  C   UNL     1     118.159 115.642 119.700  1.00  0.00     0.042 C 
ATOM      2  C   UNL     1     117.496 115.457 118.317  1.00  0.00     0.066 C 
ATOM      3  C   UNL     1     117.771 116.707 117.395  1.00  0.00     0.021 C 
ATOM      4  C   UNL     1     117.111 117.948 118.044  1.00  0.00     0.009 C 
ATOM      5  C   UNL     1     115.631 117.627 118.365  1.00  0.00     0.035 C 
ATOM      6  C   UNL     1     115.277 116.203 117.848  1.00  0.00     0.066 C 
ATOM      7  O   UNL     1     116.092 115.243 118.521  1.00  0.00    -0.369 OA
ATOM      8  C   UNL     1     115.562 116.135 116.320  1.00  0.00     0.035 C 
ATOM      9  C   UNL     1     117.043 116.491 116.047  1.00  0.00     0.009 C 
ATOM     10  C   UNL     1     113.804 115.886 118.131  1.00  0.00     0.042 C 
ATOM     11  C   UNL     1     118.090 114.176 117.691  1.00  0.00     0.042 C 
ENDROOT
TORSDOF 0
ENDMDL
