MODEL 1
REMARK VINA RESULT:    -4.971      0.000      0.000
REMARK INTER + INTRA:          -4.971
REMARK INTER:                  -4.971
REMARK INTRA:                   0.000
REMARK UNBOUND:                 0.000
REMARK SMILES O=c1ccc2ccccc2o1
REMARK SMILES IDX 7 1 8 2 9 3 10 4 5 5 6 6 4 7 3 8 2 9 1 10 11 11
REMARK H PARENT
REMARK Flexibility Score: inf
ROOT
ATOM      1  C   UNL     1       3.954  26.376  27.644  1.00  0.00     0.001 A 
ATOM      2  C   UNL     1       3.980  25.069  28.142  1.00  0.00     0.004 A 
ATOM      3  C   UNL     1       2.881  24.224  27.957  1.00  0.00     0.048 A 
ATOM      4  C   UNL     1       1.750  24.684  27.273  1.00  0.00     0.138 A 
ATOM      5  C   UNL     1       1.724  26.004  26.770  1.00  0.00     0.018 A 
ATOM      6  C   UNL     1       2.829  26.846  26.959  1.00  0.00     0.012 A 
ATOM      7  C   UNL     1       0.581  26.437  26.090  1.00  0.00     0.019 A 
ATOM      8  C   UNL     1      -0.492  25.559  25.930  1.00  0.00     0.094 A 
ATOM      9  C   UNL     1      -0.395  24.266  26.454  1.00  0.00     0.336 A 
ATOM     10  O   UNL     1      -1.353  23.460  26.319  1.00  0.00    -0.246 OA
ATOM     11  O   UNL     1       0.705  23.879  27.097  1.00  0.00    -0.423 OA
ENDROOT
TORSDOF 0
ENDMDL
MODEL 2
REMARK VINA RESULT:    -4.940      1.024      2.196
REMARK INTER + INTRA:          -4.940
REMARK INTER:                  -4.940
REMARK INTRA:                   0.000
REMARK UNBOUND:                 0.000
REMARK SMILES O=c1ccc2ccccc2o1
REMARK SMILES IDX 7 1 8 2 9 3 10 4 5 5 6 6 4 7 3 8 2 9 1 10 11 11
REMARK H PARENT
REMARK Flexibility Score: inf
ROOT
ATOM      1  C   UNL     1       3.610  26.323  27.425  1.00  0.00     0.001 A 
ATOM      2  C   UNL     1       2.856  27.011  26.469  1.00  0.00     0.004 A 
ATOM      3  C   UNL     1       1.630  26.496  26.034  1.00  0.00     0.048 A 
ATOM      4  C   UNL     1       1.154  25.287  26.555  1.00  0.00     0.138 A 
ATOM      5  C   UNL     1       1.915  24.592  27.522  1.00  0.00     0.018 A 
ATOM      6  C   UNL     1       3.143  25.115  27.953  1.00  0.00     0.012 A 
ATOM      7  C   UNL     1       1.415  23.387  28.025  1.00  0.00     0.019 A 
ATOM      8  C   UNL     1       0.188  22.910  27.561  1.00  0.00     0.094 A 
ATOM      9  C   UNL     1      -0.511  23.652  26.604  1.00  0.00     0.336 A 
ATOM     10  O   UNL     1      -1.619  23.238  26.174  1.00  0.00    -0.246 OA
ATOM     11  O   UNL     1      -0.012  24.797  26.141  1.00  0.00    -0.423 OA
ENDROOT
TORSDOF 0
ENDMDL
MODEL 3
REMARK VINA RESULT:    -4.939      2.034      3.823
REMARK INTER + INTRA:          -4.939
REMARK INTER:                  -4.939
REMARK INTRA:                   0.000
REMARK UNBOUND:                 0.000
REMARK SMILES O=c1ccc2ccccc2o1
REMARK SMILES IDX 7 1 8 2 9 3 10 4 5 5 6 6 4 7 3 8 2 9 1 10 11 11
REMARK H PARENT
REMARK Flexibility Score: inf
ROOT
ATOM      1  C   UNL     1       0.219  22.999  27.938  1.00  0.00     0.001 A 
ATOM      2  C   UNL     1      -0.715  23.319  26.947  1.00  0.00     0.004 A 
ATOM      3  C   UNL     1      -0.500  24.414  26.103  1.00  0.00     0.048 A 
ATOM      4  C   UNL     1       0.652  25.195  26.249  1.00  0.00     0.138 A 
ATOM      5  C   UNL     1       1.596  24.872  27.250  1.00  0.00     0.018 A 
ATOM      6  C   UNL     1       1.374  23.773  28.092  1.00  0.00     0.012 A 
ATOM      7  C   UNL     1       2.737  25.670  27.372  1.00  0.00     0.019 A 
ATOM      8  C   UNL     1       2.910  26.753  26.510  1.00  0.00     0.094 A 
ATOM      9  C   UNL     1       1.934  27.012  25.542  1.00  0.00     0.336 A 
ATOM     10  O   UNL     1       2.073  27.985  24.755  1.00  0.00    -0.246 OA
ATOM     11  O   UNL     1       0.856  26.237  25.446  1.00  0.00    -0.423 OA
ENDROOT
TORSDOF 0
ENDMDL
MODEL 4
REMARK VINA RESULT:    -4.840      1.866      3.765
REMARK INTER + INTRA:          -4.840
REMARK INTER:                  -4.840
REMARK INTRA:                   0.000
REMARK UNBOUND:                 0.000
REMARK SMILES O=c1ccc2ccccc2o1
REMARK SMILES IDX 7 1 8 2 9 3 10 4 5 5 6 6 4 7 3 8 2 9 1 10 11 11
REMARK H PARENT
REMARK Flexibility Score: inf
ROOT
ATOM      1  C   UNL     1      -0.902  23.535  26.710  1.00  0.00     0.001 A 
ATOM      2  C   UNL     1      -0.133  22.930  27.710  1.00  0.00     0.004 A 
ATOM      3  C   UNL     1       1.093  23.487  28.090  1.00  0.00     0.048 A 
ATOM      4  C   UNL     1       1.555  24.653  27.469  1.00  0.00     0.138 A 
ATOM      5  C   UNL     1       0.779  25.265  26.459  1.00  0.00     0.018 A 
ATOM      6  C   UNL     1      -0.449  24.701  26.083  1.00  0.00     0.012 A 
ATOM      7  C   UNL     1       1.266  26.429  25.857  1.00  0.00     0.019 A 
ATOM      8  C   UNL     1       2.494  26.948  26.267  1.00  0.00     0.094 A 
ATOM      9  C   UNL     1       3.207  26.290  27.274  1.00  0.00     0.336 A 
ATOM     10  O   UNL     1       4.317  26.744  27.657  1.00  0.00    -0.246 OA
ATOM     11  O   UNL     1       2.721  25.182  27.831  1.00  0.00    -0.423 OA
ENDROOT
TORSDOF 0
ENDMDL
MODEL 5
REMARK VINA RESULT:    -4.798      2.456      4.400
REMARK INTER + INTRA:          -4.798
REMARK INTER:                  -4.798
REMARK INTRA:                   0.000
REMARK UNBOUND:                 0.000
REMARK SMILES O=c1ccc2ccccc2o1
REMARK SMILES IDX 7 1 8 2 9 3 10 4 5 5 6 6 4 7 3 8 2 9 1 10 11 11
REMARK H PARENT
REMARK Flexibility Score: inf
ROOT
ATOM      1  C   UNL     1      -0.281  23.017  28.014  1.00  0.00     0.001 A 
ATOM      2  C   UNL     1      -0.880  24.150  28.577  1.00  0.00     0.004 A 
ATOM      3  C   UNL     1      -0.116  25.290  28.847  1.00  0.00     0.048 A 
ATOM      4  C   UNL     1       1.252  25.301  28.555  1.00  0.00     0.138 A 
ATOM      5  C   UNL     1       1.858  24.158  27.986  1.00  0.00     0.018 A 
ATOM      6  C   UNL     1       1.086  23.019  27.718  1.00  0.00     0.012 A 
ATOM      7  C   UNL     1       3.227  24.199  27.705  1.00  0.00     0.019 A 
ATOM      8  C   UNL     1       3.950  25.357  27.992  1.00  0.00     0.094 A 
ATOM      9  C   UNL     1       3.283  26.451  28.554  1.00  0.00     0.336 A 
ATOM     10  O   UNL     1       3.919  27.505  28.820  1.00  0.00    -0.246 OA
ATOM     11  O   UNL     1       1.979  26.386  28.812  1.00  0.00    -0.423 OA
ENDROOT
TORSDOF 0
ENDMDL
MODEL 6
REMARK VINA RESULT:    -4.784      1.939      2.479
REMARK INTER + INTRA:          -4.784
REMARK INTER:                  -4.784
REMARK INTRA:                   0.000
REMARK UNBOUND:                 0.000
REMARK SMILES O=c1ccc2ccccc2o1
REMARK SMILES IDX 7 1 8 2 9 3 10 4 5 5 6 6 4 7 3 8 2 9 1 10 11 11
REMARK H PARENT
REMARK Flexibility Score: inf
ROOT
ATOM      1  C   UNL     1       3.980  25.305  28.059  1.00  0.00     0.001 A 
ATOM      2  C   UNL     1       3.335  26.439  28.565  1.00  0.00     0.004 A 
ATOM      3  C   UNL     1       1.955  26.422  28.793  1.00  0.00     0.048 A 
ATOM      4  C   UNL     1       1.213  25.268  28.514  1.00  0.00     0.138 A 
ATOM      5  C   UNL     1       1.864  24.122  28.004  1.00  0.00     0.018 A 
ATOM      6  C   UNL     1       3.248  24.147  27.778  1.00  0.00     0.012 A 
ATOM      7  C   UNL     1       1.098  22.984  27.736  1.00  0.00     0.019 A 
ATOM      8  C   UNL     1      -0.276  23.012  27.978  1.00  0.00     0.094 A 
ATOM      9  C   UNL     1      -0.852  24.181  28.485  1.00  0.00     0.336 A 
ATOM     10  O   UNL     1      -2.090  24.226  28.710  1.00  0.00    -0.246 OA
ATOM     11  O   UNL     1      -0.100  25.252  28.732  1.00  0.00    -0.423 OA
ENDROOT
TORSDOF 0
ENDMDL
MODEL 7
REMARK VINA RESULT:    -4.776      1.519      1.992
REMARK INTER + INTRA:          -4.776
REMARK INTER:                  -4.776
REMARK INTRA:                   0.000
REMARK UNBOUND:                 0.000
REMARK SMILES O=c1ccc2ccccc2o1
REMARK SMILES IDX 7 1 8 2 9 3 10 4 5 5 6 6 4 7 3 8 2 9 1 10 11 11
REMARK H PARENT
REMARK Flexibility Score: inf
ROOT
ATOM      1  C   UNL     1       2.482  25.600  26.552  1.00  0.00     0.001 A 
ATOM      2  C   UNL     1       2.897  24.551  27.379  1.00  0.00     0.004 A 
ATOM      3  C   UNL     1       1.957  23.669  27.922  1.00  0.00     0.048 A 
ATOM      4  C   UNL     1       0.596  23.833  27.639  1.00  0.00     0.138 A 
ATOM      5  C   UNL     1       0.177  24.893  26.803  1.00  0.00     0.018 A 
ATOM      6  C   UNL     1       1.125  25.773  26.262  1.00  0.00     0.012 A 
ATOM      7  C   UNL     1      -1.188  25.033  26.538  1.00  0.00     0.019 A 
ATOM      8  C   UNL     1      -2.091  24.130  27.102  1.00  0.00     0.094 A 
ATOM      9  C   UNL     1      -1.603  23.104  27.919  1.00  0.00     0.336 A 
ATOM     10  O   UNL     1      -2.401  22.280  28.436  1.00  0.00    -0.246 OA
ATOM     11  O   UNL     1      -0.297  22.994  28.156  1.00  0.00    -0.423 OA
ENDROOT
TORSDOF 0
ENDMDL
MODEL 8
REMARK VINA RESULT:    -4.743      3.193      4.832
REMARK INTER + INTRA:          -4.743
REMARK INTER:                  -4.743
REMARK INTRA:                   0.000
REMARK UNBOUND:                 0.000
REMARK SMILES O=c1ccc2ccccc2o1
REMARK SMILES IDX 7 1 8 2 9 3 10 4 5 5 6 6 4 7 3 8 2 9 1 10 11 11
REMARK H PARENT
REMARK Flexibility Score: inf
ROOT
ATOM      1  C   UNL     1       2.102  25.537  26.559  1.00  0.00     0.001 A 
ATOM      2  C   UNL     1       2.878  24.511  27.111  1.00  0.00     0.004 A 
ATOM      3  C   UNL     1       3.763  24.784  28.158  1.00  0.00     0.048 A 
ATOM      4  C   UNL     1       3.878  26.086  28.659  1.00  0.00     0.138 A 
ATOM      5  C   UNL     1       3.094  27.122  28.102  1.00  0.00     0.018 A 
ATOM      6  C   UNL     1       2.208  26.842  27.052  1.00  0.00     0.012 A 
ATOM      7  C   UNL     1       3.229  28.413  28.622  1.00  0.00     0.019 A 
ATOM      8  C   UNL     1       4.126  28.639  29.667  1.00  0.00     0.094 A 
ATOM      9  C   UNL     1       4.868  27.565  30.169  1.00  0.00     0.336 A 
ATOM     10  O   UNL     1       5.682  27.749  31.111  1.00  0.00    -0.246 OA
ATOM     11  O   UNL     1       4.721  26.345  29.655  1.00  0.00    -0.423 OA
ENDROOT
TORSDOF 0
ENDMDL
MODEL 9
REMARK VINA RESULT:    -4.609      1.930      2.559
REMARK INTER + INTRA:          -4.609
REMARK INTER:                  -4.609
REMARK INTRA:                   0.000
REMARK UNBOUND:                 0.000
REMARK SMILES O=c1ccc2ccccc2o1
REMARK SMILES IDX 7 1 8 2 9 3 10 4 5 5 6 6 4 7 3 8 2 9 1 10 11 11
REMARK H PARENT
REMARK Flexibility Score: inf
ROOT
ATOM      1  C   UNL     1       3.631  24.516  27.995  1.00  0.00     0.001 A 
ATOM      2  C   UNL     1       4.048  25.852  28.011  1.00  0.00     0.004 A 
ATOM      3  C   UNL     1       3.219  26.854  27.497  1.00  0.00     0.048 A 
ATOM      4  C   UNL     1       1.969  26.523  26.962  1.00  0.00     0.138 A 
ATOM      5  C   UNL     1       1.547  25.175  26.946  1.00  0.00     0.018 A 
ATOM      6  C   UNL     1       2.383  24.175  27.464  1.00  0.00     0.012 A 
ATOM      7  C   UNL     1       0.294  24.874  26.405  1.00  0.00     0.019 A 
ATOM      8  C   UNL     1      -0.499  25.906  25.902  1.00  0.00     0.094 A 
ATOM      9  C   UNL     1      -0.018  27.218  25.953  1.00  0.00     0.336 A 
ATOM     10  O   UNL     1      -0.719  28.162  25.504  1.00  0.00    -0.246 OA
ATOM     11  O   UNL     1       1.181  27.477  26.472  1.00  0.00    -0.423 OA
ENDROOT
TORSDOF 0
ENDMDL
