MODEL 1
REMARK VINA RESULT:    -3.739      0.000      0.000
REMARK INTER + INTRA:          -8.705
REMARK INTER:                  -6.799
REMARK INTRA:                  -1.906
REMARK UNBOUND:                -1.906
REMARK SMILES CCCCCCCCCCCCCCCC(=O)[O-]
REMARK SMILES IDX 9 1 10 2 11 3 12 4 13 5 14 6 15 7 16 8 17 9 18 10 8 11 7 12
REMARK SMILES IDX 6 13 5 14 4 15 3 16 2 17 1 18
REMARK H PARENT
REMARK Flexibility Score: inf
ROOT
ATOM      1  C   UNL     1      45.528  -1.357  23.264  1.00  0.00     0.000 C 
ENDROOT
BRANCH   1   2
ATOM      2  C   UNL     1      45.399  -2.861  23.562  1.00  0.00     0.000 C 
BRANCH   2   3
ATOM      3  C   UNL     1      46.699  -3.478  24.109  1.00  0.00     0.000 C 
BRANCH   3   4
ATOM      4  C   UNL     1      46.829  -3.472  25.643  1.00  0.00     0.000 C 
BRANCH   4   5
ATOM      5  C   UNL     1      47.044  -4.874  26.234  1.00  0.00     0.000 C 
BRANCH   5   6
ATOM      6  C   UNL     1      47.473  -5.869  25.146  1.00  0.00     0.006 C 
BRANCH   6   7
ATOM      7  C   UNL     1      48.724  -6.663  25.545  1.00  0.00     0.053 C 
BRANCH   7   8
ATOM      8  C   UNL     1      49.963  -6.092  24.928  1.00  0.00     0.041 C 
ATOM      9  O   UNL     1      51.037  -6.748  24.938  1.00  0.00    -0.550 OA
ATOM     10  O   UNL     1      49.941  -4.817  24.375  1.00  0.00    -0.550 OA
ENDBRANCH   7   8
ENDBRANCH   6   7
ENDBRANCH   5   6
ENDBRANCH   4   5
ENDBRANCH   3   4
ENDBRANCH   2   3
ENDBRANCH   1   2
BRANCH   1  11
ATOM     11  C   UNL     1      45.065  -0.489  24.445  1.00  0.00     0.000 C 
BRANCH  11  12
ATOM     12  C   UNL     1      43.556  -0.621  24.720  1.00  0.00    -0.000 C 
BRANCH  12  13
ATOM     13  C   UNL     1      43.259  -0.899  26.209  1.00  0.00    -0.000 C 
BRANCH  13  14
ATOM     14  C   UNL     1      42.560  -2.249  26.461  1.00  0.00    -0.000 C 
BRANCH  14  15
ATOM     15  C   UNL     1      43.491  -3.396  26.889  1.00  0.00    -0.000 C 
BRANCH  15  16
ATOM     16  C   UNL     1      43.316  -4.658  26.026  1.00  0.00    -0.000 C 
BRANCH  16  17
ATOM     17  C   UNL     1      43.034  -5.911  26.870  1.00  0.00    -0.003 C 
ATOM     18  C   UNL     1      43.921  -6.002  28.111  1.00  0.00     0.004 C 
ENDBRANCH  16  17
ENDBRANCH  15  16
ENDBRANCH  14  15
ENDBRANCH  13  14
ENDBRANCH  12  13
ENDBRANCH  11  12
ENDBRANCH   1  11
TORSDOF 14
ENDMDL
MODEL 2
REMARK VINA RESULT:    -3.629      1.979      2.666
REMARK INTER + INTRA:          -8.505
REMARK INTER:                  -6.733
REMARK INTRA:                  -1.772
REMARK UNBOUND:                -1.906
REMARK SMILES CCCCCCCCCCCCCCCC(=O)[O-]
REMARK SMILES IDX 9 1 10 2 11 3 12 4 13 5 14 6 15 7 16 8 17 9 18 10 8 11 7 12
REMARK SMILES IDX 6 13 5 14 4 15 3 16 2 17 1 18
REMARK H PARENT
REMARK Flexibility Score: inf
ROOT
ATOM      1  C   UNL     1      44.801  -0.625  24.502  1.00  0.00     0.000 C 
ENDROOT
BRANCH   1   2
ATOM      2  C   UNL     1      45.156  -1.400  23.220  1.00  0.00     0.000 C 
BRANCH   2   3
ATOM      3  C   UNL     1      45.436  -2.891  23.480  1.00  0.00     0.000 C 
BRANCH   3   4
ATOM      4  C   UNL     1      46.901  -3.233  23.810  1.00  0.00     0.000 C 
BRANCH   4   5
ATOM      5  C   UNL     1      47.050  -4.547  24.592  1.00  0.00     0.000 C 
BRANCH   5   6
ATOM      6  C   UNL     1      45.954  -4.681  25.659  1.00  0.00     0.006 C 
BRANCH   6   7
ATOM      7  C   UNL     1      46.518  -5.098  27.023  1.00  0.00     0.053 C 
BRANCH   7   8
ATOM      8  C   UNL     1      47.197  -3.956  27.714  1.00  0.00     0.041 C 
ATOM      9  O   UNL     1      48.448  -3.828  27.650  1.00  0.00    -0.550 OA
ATOM     10  O   UNL     1      46.450  -3.053  28.462  1.00  0.00    -0.550 OA
ENDBRANCH   7   8
ENDBRANCH   6   7
ENDBRANCH   5   6
ENDBRANCH   4   5
ENDBRANCH   3   4
ENDBRANCH   2   3
ENDBRANCH   1   2
BRANCH   1  11
ATOM     11  C   UNL     1      43.299  -0.319  24.599  1.00  0.00     0.000 C 
BRANCH  11  12
ATOM     12  C   UNL     1      42.621  -1.048  25.773  1.00  0.00    -0.000 C 
BRANCH  12  13
ATOM     13  C   UNL     1      43.638  -1.817  26.643  1.00  0.00    -0.000 C 
BRANCH  13  14
ATOM     14  C   UNL     1      42.990  -2.646  27.769  1.00  0.00    -0.000 C 
BRANCH  14  15
ATOM     15  C   UNL     1      41.816  -3.538  27.330  1.00  0.00    -0.000 C 
BRANCH  15  16
ATOM     16  C   UNL     1      41.936  -4.980  27.854  1.00  0.00    -0.000 C 
BRANCH  16  17
ATOM     17  C   UNL     1      42.810  -5.862  26.949  1.00  0.00    -0.003 C 
ATOM     18  C   UNL     1      42.298  -5.925  25.510  1.00  0.00     0.004 C 
ENDBRANCH  16  17
ENDBRANCH  15  16
ENDBRANCH  14  15
ENDBRANCH  13  14
ENDBRANCH  12  13
ENDBRANCH  11  12
ENDBRANCH   1  11
TORSDOF 14
ENDMDL
MODEL 3
REMARK VINA RESULT:    -3.624      9.639     11.239
REMARK INTER + INTRA:          -8.495
REMARK INTER:                  -6.760
REMARK INTRA:                  -1.736
REMARK UNBOUND:                -1.906
REMARK SMILES CCCCCCCCCCCCCCCC(=O)[O-]
REMARK SMILES IDX 9 1 10 2 11 3 12 4 13 5 14 6 15 7 16 8 17 9 18 10 8 11 7 12
REMARK SMILES IDX 6 13 5 14 4 15 3 16 2 17 1 18
REMARK H PARENT
REMARK Flexibility Score: inf
ROOT
ATOM      1  C   UNL     1      56.021   1.282  31.732  1.00  0.00     0.000 C 
ENDROOT
BRANCH   1   2
ATOM      2  C   UNL     1      55.820   1.272  30.206  1.00  0.00     0.000 C 
BRANCH   2   3
ATOM      3  C   UNL     1      54.378   0.928  29.793  1.00  0.00     0.000 C 
BRANCH   3   4
ATOM      4  C   UNL     1      54.250   0.059  28.529  1.00  0.00     0.000 C 
BRANCH   4   5
ATOM      5  C   UNL     1      53.345   0.685  27.457  1.00  0.00     0.000 C 
BRANCH   5   6
ATOM      6  C   UNL     1      54.034   0.684  26.085  1.00  0.00     0.006 C 
BRANCH   6   7
ATOM      7  C   UNL     1      54.943   1.905  25.890  1.00  0.00     0.053 C 
BRANCH   7   8
ATOM      8  C   UNL     1      56.390   1.519  25.862  1.00  0.00     0.041 C 
ATOM      9  O   UNL     1      56.833   0.783  24.942  1.00  0.00    -0.550 OA
ATOM     10  O   UNL     1      57.242   1.944  26.874  1.00  0.00    -0.550 OA
ENDBRANCH   7   8
ENDBRANCH   6   7
ENDBRANCH   5   6
ENDBRANCH   4   5
ENDBRANCH   3   4
ENDBRANCH   2   3
ENDBRANCH   1   2
BRANCH   1  11
ATOM     11  C   UNL     1      55.964  -0.131  32.335  1.00  0.00     0.000 C 
BRANCH  11  12
ATOM     12  C   UNL     1      55.018  -0.219  33.546  1.00  0.00    -0.000 C 
BRANCH  12  13
ATOM     13  C   UNL     1      53.736   0.618  33.344  1.00  0.00    -0.000 C 
BRANCH  13  14
ATOM     14  C   UNL     1      52.460  -0.231  33.181  1.00  0.00    -0.000 C 
BRANCH  14  15
ATOM     15  C   UNL     1      51.297   0.472  32.459  1.00  0.00    -0.000 C 
BRANCH  15  16
ATOM     16  C   UNL     1      51.152   0.026  30.993  1.00  0.00    -0.000 C 
BRANCH  16  17
ATOM     17  C   UNL     1      50.537   1.120  30.106  1.00  0.00    -0.003 C 
ATOM     18  C   UNL     1      51.179   2.491  30.324  1.00  0.00     0.004 C 
ENDBRANCH  16  17
ENDBRANCH  15  16
ENDBRANCH  14  15
ENDBRANCH  13  14
ENDBRANCH  12  13
ENDBRANCH  11  12
ENDBRANCH   1  11
TORSDOF 14
ENDMDL
MODEL 4
REMARK VINA RESULT:    -3.621      2.352      4.610
REMARK INTER + INTRA:          -8.490
REMARK INTER:                  -6.680
REMARK INTRA:                  -1.810
REMARK UNBOUND:                -1.906
REMARK SMILES CCCCCCCCCCCCCCCC(=O)[O-]
REMARK SMILES IDX 9 1 10 2 11 3 12 4 13 5 14 6 15 7 16 8 17 9 18 10 8 11 7 12
REMARK SMILES IDX 6 13 5 14 4 15 3 16 2 17 1 18
REMARK H PARENT
REMARK Flexibility Score: inf
ROOT
ATOM      1  C   UNL     1      42.655  -0.713  25.726  1.00  0.00     0.000 C 
ENDROOT
BRANCH   1   2
ATOM      2  C   UNL     1      43.035  -1.934  26.583  1.00  0.00     0.000 C 
BRANCH   2   3
ATOM      3  C   UNL     1      41.858  -2.900  26.805  1.00  0.00     0.000 C 
BRANCH   3   4
ATOM      4  C   UNL     1      42.169  -4.383  26.529  1.00  0.00     0.000 C 
BRANCH   4   5
ATOM      5  C   UNL     1      43.577  -4.605  25.956  1.00  0.00     0.000 C 
BRANCH   5   6
ATOM      6  C   UNL     1      44.460  -5.375  26.950  1.00  0.00     0.006 C 
BRANCH   6   7
ATOM      7  C   UNL     1      45.456  -4.458  27.672  1.00  0.00     0.053 C 
BRANCH   7   8
ATOM      8  C   UNL     1      46.128  -5.160  28.812  1.00  0.00     0.041 C 
ATOM      9  O   UNL     1      46.870  -4.519  29.602  1.00  0.00    -0.550 OA
ATOM     10  O   UNL     1      45.964  -6.530  28.979  1.00  0.00    -0.550 OA
ENDBRANCH   7   8
ENDBRANCH   6   7
ENDBRANCH   5   6
ENDBRANCH   4   5
ENDBRANCH   3   4
ENDBRANCH   2   3
ENDBRANCH   1   2
BRANCH   1  11
ATOM     11  C   UNL     1      43.638  -0.488  24.568  1.00  0.00     0.000 C 
BRANCH  11  12
ATOM     12  C   UNL     1      44.909  -1.347  24.696  1.00  0.00    -0.000 C 
BRANCH  12  13
ATOM     13  C   UNL     1      45.411  -1.849  23.325  1.00  0.00    -0.000 C 
BRANCH  13  14
ATOM     14  C   UNL     1      46.733  -2.637  23.399  1.00  0.00    -0.000 C 
BRANCH  14  15
ATOM     15  C   UNL     1      46.694  -3.898  24.279  1.00  0.00    -0.000 C 
BRANCH  15  16
ATOM     16  C   UNL     1      47.850  -4.869  23.980  1.00  0.00    -0.000 C 
BRANCH  16  17
ATOM     17  C   UNL     1      47.691  -6.212  24.710  1.00  0.00    -0.003 C 
ATOM     18  C   UNL     1      48.427  -6.249  26.050  1.00  0.00     0.004 C 
ENDBRANCH  16  17
ENDBRANCH  15  16
ENDBRANCH  14  15
ENDBRANCH  13  14
ENDBRANCH  12  13
ENDBRANCH  11  12
ENDBRANCH   1  11
TORSDOF 14
ENDMDL
MODEL 5
REMARK VINA RESULT:    -3.621      9.188     10.835
REMARK INTER + INTRA:          -8.490
REMARK INTER:                  -6.663
REMARK INTRA:                  -1.827
REMARK UNBOUND:                -1.906
REMARK SMILES CCCCCCCCCCCCCCCC(=O)[O-]
REMARK SMILES IDX 9 1 10 2 11 3 12 4 13 5 14 6 15 7 16 8 17 9 18 10 8 11 7 12
REMARK SMILES IDX 6 13 5 14 4 15 3 16 2 17 1 18
REMARK H PARENT
REMARK Flexibility Score: inf
ROOT
ATOM      1  C   UNL     1      51.898   2.650  27.586  1.00  0.00     0.000 C 
ENDROOT
BRANCH   1   2
ATOM      2  C   UNL     1      51.916   2.037  28.997  1.00  0.00     0.000 C 
BRANCH   2   3
ATOM      3  C   UNL     1      52.445   0.592  29.016  1.00  0.00     0.000 C 
BRANCH   3   4
ATOM      4  C   UNL     1      53.427   0.270  30.158  1.00  0.00     0.000 C 
BRANCH   4   5
ATOM      5  C   UNL     1      54.835   0.836  29.918  1.00  0.00     0.000 C 
BRANCH   5   6
ATOM      6  C   UNL     1      55.573   1.058  31.246  1.00  0.00     0.006 C 
BRANCH   6   7
ATOM      7  C   UNL     1      54.643   0.914  32.458  1.00  0.00     0.053 C 
BRANCH   7   8
ATOM      8  C   UNL     1      55.142  -0.120  33.420  1.00  0.00     0.041 C 
ATOM      9  O   UNL     1      56.355  -0.456  33.417  1.00  0.00    -0.550 OA
ATOM     10  O   UNL     1      54.258  -0.740  34.295  1.00  0.00    -0.550 OA
ENDBRANCH   7   8
ENDBRANCH   6   7
ENDBRANCH   5   6
ENDBRANCH   4   5
ENDBRANCH   3   4
ENDBRANCH   2   3
ENDBRANCH   1   2
BRANCH   1  11
ATOM     11  C   UNL     1      52.111   1.594  26.491  1.00  0.00     0.000 C 
BRANCH  11  12
ATOM     12  C   UNL     1      53.080   2.069  25.392  1.00  0.00    -0.000 C 
BRANCH  12  13
ATOM     13  C   UNL     1      54.548   2.058  25.869  1.00  0.00    -0.000 C 
BRANCH  13  14
ATOM     14  C   UNL     1      55.026   0.684  26.377  1.00  0.00    -0.000 C 
BRANCH  14  15
ATOM     15  C   UNL     1      55.045  -0.432  25.318  1.00  0.00    -0.000 C 
BRANCH  15  16
ATOM     16  C   UNL     1      53.976  -1.509  25.571  1.00  0.00    -0.000 C 
BRANCH  16  17
ATOM     17  C   UNL     1      54.512  -2.683  26.405  1.00  0.00    -0.003 C 
ATOM     18  C   UNL     1      54.156  -2.569  27.888  1.00  0.00     0.004 C 
ENDBRANCH  16  17
ENDBRANCH  15  16
ENDBRANCH  14  15
ENDBRANCH  13  14
ENDBRANCH  12  13
ENDBRANCH  11  12
ENDBRANCH   1  11
TORSDOF 14
ENDMDL
MODEL 6
REMARK VINA RESULT:    -3.581      5.761      8.652
REMARK INTER + INTRA:          -8.418
REMARK INTER:                  -6.451
REMARK INTRA:                  -1.967
REMARK UNBOUND:                -1.906
REMARK SMILES CCCCCCCCCCCCCCCC(=O)[O-]
REMARK SMILES IDX 9 1 10 2 11 3 12 4 13 5 14 6 15 7 16 8 17 9 18 10 8 11 7 12
REMARK SMILES IDX 6 13 5 14 4 15 3 16 2 17 1 18
REMARK H PARENT
REMARK Flexibility Score: inf
ROOT
ATOM      1  C   UNL     1      50.098   2.087  25.370  1.00  0.00     0.000 C 
ENDROOT
BRANCH   1   2
ATOM      2  C   UNL     1      50.009   1.311  24.043  1.00  0.00     0.000 C 
BRANCH   2   3
ATOM      3  C   UNL     1      48.560   1.005  23.624  1.00  0.00     0.000 C 
BRANCH   3   4
ATOM      4  C   UNL     1      47.744   0.190  24.644  1.00  0.00     0.000 C 
BRANCH   4   5
ATOM      5  C   UNL     1      46.416   0.863  25.026  1.00  0.00     0.000 C 
BRANCH   5   6
ATOM      6  C   UNL     1      45.403  -0.172  25.539  1.00  0.00     0.006 C 
BRANCH   6   7
ATOM      7  C   UNL     1      44.426  -0.620  24.444  1.00  0.00     0.053 C 
BRANCH   7   8
ATOM      8  C   UNL     1      43.001  -0.492  24.886  1.00  0.00     0.041 C 
ATOM      9  O   UNL     1      42.645  -0.923  26.014  1.00  0.00    -0.550 OA
ATOM     10  O   UNL     1      42.057   0.072  24.035  1.00  0.00    -0.550 OA
ENDBRANCH   7   8
ENDBRANCH   6   7
ENDBRANCH   5   6
ENDBRANCH   4   5
ENDBRANCH   3   4
ENDBRANCH   2   3
ENDBRANCH   1   2
BRANCH   1  11
ATOM     11  C   UNL     1      50.637   3.513  25.174  1.00  0.00     0.000 C 
BRANCH  11  12
ATOM     12  C   UNL     1      49.659   4.589  25.681  1.00  0.00    -0.000 C 
BRANCH  12  13
ATOM     13  C   UNL     1      48.259   4.008  25.975  1.00  0.00    -0.000 C 
BRANCH  13  14
ATOM     14  C   UNL     1      47.224   4.292  24.869  1.00  0.00    -0.000 C 
BRANCH  14  15
ATOM     15  C   UNL     1      47.729   5.177  23.716  1.00  0.00    -0.000 C 
BRANCH  15  16
ATOM     16  C   UNL     1      47.776   4.432  22.371  1.00  0.00    -0.000 C 
BRANCH  16  17
ATOM     17  C   UNL     1      48.743   5.086  21.371  1.00  0.00    -0.003 C 
ATOM     18  C   UNL     1      50.172   5.183  21.905  1.00  0.00     0.004 C 
ENDBRANCH  16  17
ENDBRANCH  15  16
ENDBRANCH  14  15
ENDBRANCH  13  14
ENDBRANCH  12  13
ENDBRANCH  11  12
ENDBRANCH   1  11
TORSDOF 14
ENDMDL
MODEL 7
REMARK VINA RESULT:    -3.575      3.257      5.353
REMARK INTER + INTRA:          -8.407
REMARK INTER:                  -6.229
REMARK INTRA:                  -2.177
REMARK UNBOUND:                -1.906
REMARK SMILES CCCCCCCCCCCCCCCC(=O)[O-]
REMARK SMILES IDX 9 1 10 2 11 3 12 4 13 5 14 6 15 7 16 8 17 9 18 10 8 11 7 12
REMARK SMILES IDX 6 13 5 14 4 15 3 16 2 17 1 18
REMARK H PARENT
REMARK Flexibility Score: inf
ROOT
ATOM      1  C   UNL     1      43.862  -0.619  25.739  1.00  0.00     0.000 C 
ENDROOT
BRANCH   1   2
ATOM      2  C   UNL     1      42.468  -1.209  26.020  1.00  0.00     0.000 C 
BRANCH   2   3
ATOM      3  C   UNL     1      42.510  -2.417  26.973  1.00  0.00     0.000 C 
BRANCH   3   4
ATOM      4  C   UNL     1      41.251  -3.303  26.961  1.00  0.00     0.000 C 
BRANCH   4   5
ATOM      5  C   UNL     1      41.336  -4.483  27.940  1.00  0.00     0.000 C 
BRANCH   5   6
ATOM      6  C   UNL     1      42.793  -4.769  28.332  1.00  0.00     0.006 C 
BRANCH   6   7
ATOM      7  C   UNL     1      43.222  -6.198  27.975  1.00  0.00     0.053 C 
BRANCH   7   8
ATOM      8  C   UNL     1      43.417  -7.040  29.197  1.00  0.00     0.041 C 
ATOM      9  O   UNL     1      44.558  -7.488  29.484  1.00  0.00    -0.550 OA
ATOM     10  O   UNL     1      42.329  -7.363  30.000  1.00  0.00    -0.550 OA
ENDBRANCH   7   8
ENDBRANCH   6   7
ENDBRANCH   5   6
ENDBRANCH   4   5
ENDBRANCH   3   4
ENDBRANCH   2   3
ENDBRANCH   1   2
BRANCH   1  11
ATOM     11  C   UNL     1      44.196  -0.608  24.239  1.00  0.00     0.000 C 
BRANCH  11  12
ATOM     12  C   UNL     1      45.557  -1.258  23.931  1.00  0.00    -0.000 C 
BRANCH  12  13
ATOM     13  C   UNL     1      45.405  -2.709  23.423  1.00  0.00    -0.000 C 
BRANCH  13  14
ATOM     14  C   UNL     1      46.159  -3.747  24.277  1.00  0.00    -0.000 C 
BRANCH  14  15
ATOM     15  C   UNL     1      45.383  -4.277  25.495  1.00  0.00    -0.000 C 
BRANCH  15  16
ATOM     16  C   UNL     1      46.209  -4.231  26.793  1.00  0.00    -0.000 C 
BRANCH  16  17
ATOM     17  C   UNL     1      46.004  -2.922  27.572  1.00  0.00    -0.003 C 
ATOM     18  C   UNL     1      47.162  -1.940  27.395  1.00  0.00     0.004 C 
ENDBRANCH  16  17
ENDBRANCH  15  16
ENDBRANCH  14  15
ENDBRANCH  13  14
ENDBRANCH  12  13
ENDBRANCH  11  12
ENDBRANCH   1  11
TORSDOF 14
ENDMDL
MODEL 8
REMARK VINA RESULT:    -3.555      2.221      4.881
REMARK INTER + INTRA:          -8.370
REMARK INTER:                  -6.047
REMARK INTRA:                  -2.323
REMARK UNBOUND:                -1.906
REMARK SMILES CCCCCCCCCCCCCCCC(=O)[O-]
REMARK SMILES IDX 9 1 10 2 11 3 12 4 13 5 14 6 15 7 16 8 17 9 18 10 8 11 7 12
REMARK SMILES IDX 6 13 5 14 4 15 3 16 2 17 1 18
REMARK H PARENT
REMARK Flexibility Score: inf
ROOT
ATOM      1  C   UNL     1      43.063  -2.488  27.707  1.00  0.00     0.000 C 
ENDROOT
BRANCH   1   2
ATOM      2  C   UNL     1      43.243  -2.291  26.191  1.00  0.00     0.000 C 
BRANCH   2   3
ATOM      3  C   UNL     1      42.938  -0.854  25.732  1.00  0.00     0.000 C 
BRANCH   3   4
ATOM      4  C   UNL     1      43.725  -0.382  24.496  1.00  0.00     0.000 C 
BRANCH   4   5
ATOM      5  C   UNL     1      44.703  -1.441  23.965  1.00  0.00     0.000 C 
BRANCH   5   6
ATOM      6  C   UNL     1      46.106  -0.846  23.770  1.00  0.00     0.006 C 
BRANCH   6   7
ATOM      7  C   UNL     1      46.658  -0.224  25.059  1.00  0.00     0.053 C 
BRANCH   7   8
ATOM      8  C   UNL     1      47.121  -1.271  26.026  1.00  0.00     0.041 C 
ATOM      9  O   UNL     1      46.515  -1.441  27.116  1.00  0.00    -0.550 OA
ATOM     10  O   UNL     1      48.246  -2.034  25.738  1.00  0.00    -0.550 OA
ENDBRANCH   7   8
ENDBRANCH   6   7
ENDBRANCH   5   6
ENDBRANCH   4   5
ENDBRANCH   3   4
ENDBRANCH   2   3
ENDBRANCH   1   2
BRANCH   1  11
ATOM     11  C   UNL     1      42.201  -3.717  28.035  1.00  0.00     0.000 C 
BRANCH  11  12
ATOM     12  C   UNL     1      42.077  -4.686  26.845  1.00  0.00    -0.000 C 
BRANCH  12  13
ATOM     13  C   UNL     1      42.881  -5.985  27.069  1.00  0.00    -0.000 C 
BRANCH  13  14
ATOM     14  C   UNL     1      43.541  -6.075  28.459  1.00  0.00    -0.000 C 
BRANCH  14  15
ATOM     15  C   UNL     1      45.074  -6.201  28.446  1.00  0.00    -0.000 C 
BRANCH  15  16
ATOM     16  C   UNL     1      45.775  -4.884  28.070  1.00  0.00    -0.000 C 
BRANCH  16  17
ATOM     17  C   UNL     1      46.653  -5.025  26.816  1.00  0.00    -0.003 C 
ATOM     18  C   UNL     1      45.877  -4.791  25.520  1.00  0.00     0.004 C 
ENDBRANCH  16  17
ENDBRANCH  15  16
ENDBRANCH  14  15
ENDBRANCH  13  14
ENDBRANCH  12  13
ENDBRANCH  11  12
ENDBRANCH   1  11
TORSDOF 14
ENDMDL
