MODEL 1
REMARK VINA RESULT:    -5.427      0.000      0.000
REMARK INTER + INTRA:          -6.854
REMARK INTER:                  -6.697
REMARK INTRA:                  -0.158
REMARK UNBOUND:                -0.158
REMARK SMILES CCOC(=O)c1ccc(O)c(O)c1
REMARK SMILES IDX 4 1 5 2 3 3 2 4 1 5 6 6 13 7 7 8 11 9 8 10 9 11 12 12 10 14
REMARK H PARENT 12 13 10 15
REMARK Flexibility Score: inf
ROOT
ATOM      1  C   UNL     1       6.721  28.468  -0.641  1.00  0.00     0.338 C 
ATOM      2  O   UNL     1       6.451  29.529  -0.013  1.00  0.00    -0.246 OA
ENDROOT
BRANCH   1   3
ATOM      3  O   UNL     1       5.688  27.624  -1.071  1.00  0.00    -0.462 OA
BRANCH   3   4
ATOM      4  C   UNL     1       4.429  28.099  -1.542  1.00  0.00     0.230 C 
ATOM      5  C   UNL     1       3.284  27.405  -0.812  1.00  0.00     0.049 C 
ENDBRANCH   3   4
ENDBRANCH   1   3
BRANCH   1   6
ATOM      6  C   UNL     1       8.128  28.116  -0.933  1.00  0.00     0.064 A 
ATOM      7  C   UNL     1       8.474  27.533  -2.165  1.00  0.00     0.065 A 
ATOM      8  C   UNL     1       9.140  28.357   0.014  1.00  0.00     0.020 A 
ATOM      9  C   UNL     1       9.802  27.197  -2.448  1.00  0.00     0.158 A 
ATOM     10  C   UNL     1      10.466  28.023  -0.267  1.00  0.00     0.051 A 
ATOM     11  C   UNL     1      10.805  27.442  -1.496  1.00  0.00     0.157 A 
BRANCH   9  12
ATOM     12  O   UNL     1      10.107  26.619  -3.681  1.00  0.00    -0.504 OA
ATOM     13  H   UNL     1       9.419  26.109  -4.221  1.00  0.00     0.293 HD
ENDBRANCH   9  12
BRANCH  11  14
ATOM     14  O   UNL     1      12.130  27.109  -1.773  1.00  0.00    -0.504 OA
ATOM     15  H   UNL     1      12.433  26.144  -1.838  1.00  0.00     0.293 HD
ENDBRANCH  11  14
ENDBRANCH   1   6
TORSDOF 5
ENDMDL
MODEL 2
REMARK VINA RESULT:    -5.370      1.325      2.154
REMARK INTER + INTRA:          -6.783
REMARK INTER:                  -6.510
REMARK INTRA:                  -0.273
REMARK UNBOUND:                -0.158
REMARK SMILES CCOC(=O)c1ccc(O)c(O)c1
REMARK SMILES IDX 4 1 5 2 3 3 2 4 1 5 6 6 13 7 7 8 11 9 8 10 9 11 12 12 10 14
REMARK H PARENT 12 13 10 15
REMARK Flexibility Score: inf
ROOT
ATOM      1  C   UNL     1       6.898  28.623  -0.475  1.00  0.00     0.338 C 
ATOM      2  O   UNL     1       5.930  27.875  -0.786  1.00  0.00    -0.246 OA
ENDROOT
BRANCH   1   3
ATOM      3  O   UNL     1       6.666  29.824   0.208  1.00  0.00    -0.462 OA
BRANCH   3   4
ATOM      4  C   UNL     1       6.083  29.891   1.507  1.00  0.00     0.230 C 
ATOM      5  C   UNL     1       7.154  30.117   2.568  1.00  0.00     0.049 C 
ENDBRANCH   3   4
ENDBRANCH   1   3
BRANCH   1   6
ATOM      6  C   UNL     1       8.281  28.229  -0.824  1.00  0.00     0.064 A 
ATOM      7  C   UNL     1       8.556  27.623  -2.063  1.00  0.00     0.065 A 
ATOM      8  C   UNL     1       9.340  28.452   0.075  1.00  0.00     0.020 A 
ATOM      9  C   UNL     1       9.861  27.246  -2.400  1.00  0.00     0.158 A 
ATOM     10  C   UNL     1      10.643  28.078  -0.260  1.00  0.00     0.051 A 
ATOM     11  C   UNL     1      10.911  27.474  -1.496  1.00  0.00     0.157 A 
BRANCH   9  12
ATOM     12  O   UNL     1      10.094  26.647  -3.638  1.00  0.00    -0.504 OA
ATOM     13  H   UNL     1      10.457  25.706  -3.720  1.00  0.00     0.293 HD
ENDBRANCH   9  12
BRANCH  11  14
ATOM     14  O   UNL     1      12.212  27.101  -1.826  1.00  0.00    -0.504 OA
ATOM     15  H   UNL     1      12.979  27.213  -1.172  1.00  0.00     0.293 HD
ENDBRANCH  11  14
ENDBRANCH   1   6
TORSDOF 5
ENDMDL
MODEL 3
REMARK VINA RESULT:    -5.360     10.907     12.978
REMARK INTER + INTRA:          -6.771
REMARK INTER:                  -6.626
REMARK INTRA:                  -0.145
REMARK UNBOUND:                -0.158
REMARK SMILES CCOC(=O)c1ccc(O)c(O)c1
REMARK SMILES IDX 4 1 5 2 3 3 2 4 1 5 6 6 13 7 7 8 11 9 8 10 9 11 12 12 10 14
REMARK H PARENT 12 13 10 15
REMARK Flexibility Score: inf
ROOT
ATOM      1  C   UNL     1       2.540  35.139   4.825  1.00  0.00     0.338 C 
ATOM      2  O   UNL     1       3.402  34.337   4.369  1.00  0.00    -0.246 OA
ENDROOT
BRANCH   1   3
ATOM      3  O   UNL     1       1.223  34.709   5.033  1.00  0.00    -0.462 OA
BRANCH   3   4
ATOM      4  C   UNL     1       0.812  33.348   4.925  1.00  0.00     0.230 C 
ATOM      5  C   UNL     1      -0.289  33.198   3.881  1.00  0.00     0.049 C 
ENDBRANCH   3   4
ENDBRANCH   1   3
BRANCH   1   6
ATOM      6  C   UNL     1       2.920  36.532   5.148  1.00  0.00     0.064 A 
ATOM      7  C   UNL     1       2.641  37.066   6.418  1.00  0.00     0.065 A 
ATOM      8  C   UNL     1       3.564  37.341   4.195  1.00  0.00     0.020 A 
ATOM      9  C   UNL     1       2.996  38.383   6.733  1.00  0.00     0.158 A 
ATOM     10  C   UNL     1       3.920  38.655   4.507  1.00  0.00     0.051 A 
ATOM     11  C   UNL     1       3.639  39.183   5.774  1.00  0.00     0.157 A 
BRANCH   9  12
ATOM     12  O   UNL     1       2.703  38.879   8.003  1.00  0.00    -0.504 OA
ATOM     13  H   UNL     1       1.916  38.543   8.544  1.00  0.00     0.293 HD
ENDBRANCH   9  12
BRANCH  11  14
ATOM     14  O   UNL     1       3.996  40.495   6.081  1.00  0.00    -0.504 OA
ATOM     15  H   UNL     1       3.333  41.258   6.001  1.00  0.00     0.293 HD
ENDBRANCH  11  14
ENDBRANCH   1   6
TORSDOF 5
ENDMDL
MODEL 4
REMARK VINA RESULT:    -5.317     10.899     12.984
REMARK INTER + INTRA:          -6.718
REMARK INTER:                  -6.430
REMARK INTRA:                  -0.288
REMARK UNBOUND:                -0.158
REMARK SMILES CCOC(=O)c1ccc(O)c(O)c1
REMARK SMILES IDX 4 1 5 2 3 3 2 4 1 5 6 6 13 7 7 8 11 9 8 10 9 11 12 12 10 14
REMARK H PARENT 12 13 10 15
REMARK Flexibility Score: inf
ROOT
ATOM      1  C   UNL     1       3.610  39.324   4.414  1.00  0.00     0.338 C 
ATOM      2  O   UNL     1       3.458  40.010   3.366  1.00  0.00    -0.246 OA
ENDROOT
BRANCH   1   3
ATOM      3  O   UNL     1       3.886  39.955   5.634  1.00  0.00    -0.462 OA
BRANCH   3   4
ATOM      4  C   UNL     1       5.046  40.752   5.863  1.00  0.00     0.230 C 
ATOM      5  C   UNL     1       6.311  39.913   5.727  1.00  0.00     0.049 C 
ENDBRANCH   3   4
ENDBRANCH   1   3
BRANCH   1   6
ATOM      6  C   UNL     1       3.488  37.850   4.360  1.00  0.00     0.064 A 
ATOM      7  C   UNL     1       2.599  37.179   5.218  1.00  0.00     0.065 A 
ATOM      8  C   UNL     1       4.256  37.099   3.452  1.00  0.00     0.020 A 
ATOM      9  C   UNL     1       2.478  35.785   5.173  1.00  0.00     0.158 A 
ATOM     10  C   UNL     1       4.137  35.708   3.406  1.00  0.00     0.051 A 
ATOM     11  C   UNL     1       3.250  35.044   4.263  1.00  0.00     0.157 A 
BRANCH   9  12
ATOM     12  O   UNL     1       1.586  35.154   6.040  1.00  0.00    -0.504 OA
ATOM     13  H   UNL     1       1.846  34.892   6.983  1.00  0.00     0.293 HD
ENDBRANCH   9  12
BRANCH  11  14
ATOM     14  O   UNL     1       3.134  33.657   4.214  1.00  0.00    -0.504 OA
ATOM     15  H   UNL     1       2.845  33.177   3.369  1.00  0.00     0.293 HD
ENDBRANCH  11  14
ENDBRANCH   1   6
TORSDOF 5
ENDMDL
MODEL 5
REMARK VINA RESULT:    -5.289     10.702     12.864
REMARK INTER + INTRA:          -6.683
REMARK INTER:                  -6.415
REMARK INTRA:                  -0.268
REMARK UNBOUND:                -0.158
REMARK SMILES CCOC(=O)c1ccc(O)c(O)c1
REMARK SMILES IDX 4 1 5 2 3 3 2 4 1 5 6 6 13 7 7 8 11 9 8 10 9 11 12 12 10 14
REMARK H PARENT 12 13 10 15
REMARK Flexibility Score: inf
ROOT
ATOM      1  C   UNL     1       2.812  35.283   4.663  1.00  0.00     0.338 C 
ATOM      2  O   UNL     1       1.616  34.881   4.688  1.00  0.00    -0.246 OA
ENDROOT
BRANCH   1   3
ATOM      3  O   UNL     1       3.837  34.414   4.267  1.00  0.00    -0.462 OA
BRANCH   3   4
ATOM      4  C   UNL     1       3.877  33.773   2.994  1.00  0.00     0.230 C 
ATOM      5  C   UNL     1       4.327  34.749   1.913  1.00  0.00     0.049 C 
ENDBRANCH   3   4
ENDBRANCH   1   3
BRANCH   1   6
ATOM      6  C   UNL     1       3.135  36.676   5.045  1.00  0.00     0.064 A 
ATOM      7  C   UNL     1       2.785  37.162   6.317  1.00  0.00     0.065 A 
ATOM      8  C   UNL     1       3.793  37.533   4.145  1.00  0.00     0.020 A 
ATOM      9  C   UNL     1       3.086  38.479   6.686  1.00  0.00     0.158 A 
ATOM     10  C   UNL     1       4.094  38.847   4.511  1.00  0.00     0.051 A 
ATOM     11  C   UNL     1       3.743  39.327   5.780  1.00  0.00     0.157 A 
BRANCH   9  12
ATOM     12  O   UNL     1       2.723  38.926   7.956  1.00  0.00    -0.504 OA
ATOM     13  H   UNL     1       1.880  38.608   8.418  1.00  0.00     0.293 HD
ENDBRANCH   9  12
BRANCH  11  14
ATOM     14  O   UNL     1       4.046  40.638   6.141  1.00  0.00    -0.504 OA
ATOM     15  H   UNL     1       4.992  40.922   6.369  1.00  0.00     0.293 HD
ENDBRANCH  11  14
ENDBRANCH   1   6
TORSDOF 5
ENDMDL
MODEL 6
REMARK VINA RESULT:    -5.271      1.946      5.192
REMARK INTER + INTRA:          -6.661
REMARK INTER:                  -6.481
REMARK INTRA:                  -0.179
REMARK UNBOUND:                -0.158
REMARK SMILES CCOC(=O)c1ccc(O)c(O)c1
REMARK SMILES IDX 4 1 5 2 3 3 2 4 1 5 6 6 13 7 7 8 11 9 8 10 9 11 12 12 10 14
REMARK H PARENT 12 13 10 15
REMARK Flexibility Score: inf
ROOT
ATOM      1  C   UNL     1       9.971  28.444   0.114  1.00  0.00     0.338 C 
ATOM      2  O   UNL     1      10.601  29.409   0.629  1.00  0.00    -0.246 OA
ENDROOT
BRANCH   1   3
ATOM      3  O   UNL     1      10.647  27.268  -0.234  1.00  0.00    -0.462 OA
BRANCH   3   4
ATOM      4  C   UNL     1      12.009  27.015   0.105  1.00  0.00     0.230 C 
ATOM      5  C   UNL     1      12.101  26.160   1.364  1.00  0.00     0.049 C 
ENDBRANCH   3   4
ENDBRANCH   1   3
BRANCH   1   6
ATOM      6  C   UNL     1       8.513  28.551  -0.118  1.00  0.00     0.064 A 
ATOM      7  C   UNL     1       7.881  27.716  -1.056  1.00  0.00     0.065 A 
ATOM      8  C   UNL     1       7.739  29.485   0.593  1.00  0.00     0.020 A 
ATOM      9  C   UNL     1       6.502  27.810  -1.282  1.00  0.00     0.158 A 
ATOM     10  C   UNL     1       6.363  29.581   0.369  1.00  0.00     0.051 A 
ATOM     11  C   UNL     1       5.738  28.746  -0.567  1.00  0.00     0.157 A 
BRANCH   9  12
ATOM     12  O   UNL     1       5.910  26.965  -2.221  1.00  0.00    -0.504 OA
ATOM     13  H   UNL     1       5.728  27.261  -3.172  1.00  0.00     0.293 HD
ENDBRANCH   9  12
BRANCH  11  14
ATOM     14  O   UNL     1       4.366  28.845  -0.787  1.00  0.00    -0.504 OA
ATOM     15  H   UNL     1       3.727  29.110  -0.046  1.00  0.00     0.293 HD
ENDBRANCH  11  14
ENDBRANCH   1   6
TORSDOF 5
ENDMDL
MODEL 7
REMARK VINA RESULT:    -5.243      2.490      4.004
REMARK INTER + INTRA:          -6.627
REMARK INTER:                  -6.331
REMARK INTRA:                  -0.295
REMARK UNBOUND:                -0.158
REMARK SMILES CCOC(=O)c1ccc(O)c(O)c1
REMARK SMILES IDX 4 1 5 2 3 3 2 4 1 5 6 6 13 7 7 8 11 9 8 10 9 11 12 12 10 14
REMARK H PARENT 12 13 10 15
REMARK Flexibility Score: inf
ROOT
ATOM      1  C   UNL     1       6.720  30.319   1.524  1.00  0.00     0.338 C 
ATOM      2  O   UNL     1       6.110  29.887   2.541  1.00  0.00    -0.246 OA
ENDROOT
BRANCH   1   3
ATOM      3  O   UNL     1       6.853  31.698   1.317  1.00  0.00    -0.462 OA
BRANCH   3   4
ATOM      4  C   UNL     1       7.368  32.596   2.298  1.00  0.00     0.230 C 
ATOM      5  C   UNL     1       8.858  32.358   2.516  1.00  0.00     0.049 C 
ENDBRANCH   3   4
ENDBRANCH   1   3
BRANCH   1   6
ATOM      6  C   UNL     1       7.306  29.369   0.552  1.00  0.00     0.064 A 
ATOM      7  C   UNL     1       6.476  28.655  -0.331  1.00  0.00     0.065 A 
ATOM      8  C   UNL     1       8.696  29.165   0.495  1.00  0.00     0.020 A 
ATOM      9  C   UNL     1       7.021  27.755  -1.253  1.00  0.00     0.158 A 
ATOM     10  C   UNL     1       9.242  28.268  -0.425  1.00  0.00     0.051 A 
ATOM     11  C   UNL     1       8.411  27.558  -1.302  1.00  0.00     0.157 A 
BRANCH   9  12
ATOM     12  O   UNL     1       6.166  27.064  -2.112  1.00  0.00    -0.504 OA
ATOM     13  H   UNL     1       6.090  27.293  -3.095  1.00  0.00     0.293 HD
ENDBRANCH   9  12
BRANCH  11  14
ATOM     14  O   UNL     1       8.960  26.663  -2.218  1.00  0.00    -0.504 OA
ATOM     15  H   UNL     1       9.297  25.751  -1.932  1.00  0.00     0.293 HD
ENDBRANCH  11  14
ENDBRANCH   1   6
TORSDOF 5
ENDMDL
MODEL 8
REMARK VINA RESULT:    -5.192      8.097     10.767
REMARK INTER + INTRA:          -6.564
REMARK INTER:                  -6.273
REMARK INTRA:                  -0.291
REMARK UNBOUND:                -0.158
REMARK SMILES CCOC(=O)c1ccc(O)c(O)c1
REMARK SMILES IDX 4 1 5 2 3 3 2 4 1 5 6 6 13 7 7 8 11 9 8 10 9 11 12 12 10 14
REMARK H PARENT 12 13 10 15
REMARK Flexibility Score: inf
ROOT
ATOM      1  C   UNL     1       1.932  30.331   2.691  1.00  0.00     0.338 C 
ATOM      2  O   UNL     1       2.909  31.115   2.847  1.00  0.00    -0.246 OA
ENDROOT
BRANCH   1   3
ATOM      3  O   UNL     1       2.146  28.949   2.621  1.00  0.00    -0.462 OA
BRANCH   3   4
ATOM      4  C   UNL     1       1.644  28.025   3.585  1.00  0.00     0.230 C 
ATOM      5  C   UNL     1       0.800  26.949   2.911  1.00  0.00     0.049 C 
ENDBRANCH   3   4
ENDBRANCH   1   3
BRANCH   1   6
ATOM      6  C   UNL     1       0.558  30.870   2.591  1.00  0.00     0.064 A 
ATOM      7  C   UNL     1       0.120  31.867   3.480  1.00  0.00     0.065 A 
ATOM      8  C   UNL     1      -0.330  30.396   1.608  1.00  0.00     0.020 A 
ATOM      9  C   UNL     1      -1.179  32.381   3.393  1.00  0.00     0.158 A 
ATOM     10  C   UNL     1      -1.626  30.908   1.519  1.00  0.00     0.051 A 
ATOM     11  C   UNL     1      -2.058  31.901   2.408  1.00  0.00     0.157 A 
BRANCH   9  12
ATOM     12  O   UNL     1      -1.578  33.369   4.293  1.00  0.00    -0.504 OA
ATOM     13  H   UNL     1      -1.594  33.212   5.293  1.00  0.00     0.293 HD
ENDBRANCH   9  12
BRANCH  11  14
ATOM     14  O   UNL     1      -3.352  32.410   2.316  1.00  0.00    -0.504 OA
ATOM     15  H   UNL     1      -4.008  32.070   1.622  1.00  0.00     0.293 HD
ENDBRANCH  11  14
ENDBRANCH   1   6
TORSDOF 5
ENDMDL
MODEL 9
REMARK VINA RESULT:    -5.135      1.533      5.258
REMARK INTER + INTRA:          -6.493
REMARK INTER:                  -6.175
REMARK INTRA:                  -0.318
REMARK UNBOUND:                -0.158
REMARK SMILES CCOC(=O)c1ccc(O)c(O)c1
REMARK SMILES IDX 4 1 5 2 3 3 2 4 1 5 6 6 13 7 7 8 11 9 8 10 9 11 12 12 10 14
REMARK H PARENT 12 13 10 15
REMARK Flexibility Score: inf
ROOT
ATOM      1  C   UNL     1       9.688  27.226  -1.398  1.00  0.00     0.338 C 
ATOM      2  O   UNL     1       9.633  26.822  -2.593  1.00  0.00    -0.246 OA
ENDROOT
BRANCH   1   3
ATOM      3  O   UNL     1      10.810  26.941  -0.611  1.00  0.00    -0.462 OA
BRANCH   3   4
ATOM      4  C   UNL     1      12.137  27.332  -0.959  1.00  0.00     0.230 C 
ATOM      5  C   UNL     1      12.221  28.842  -1.151  1.00  0.00     0.049 C 
ENDBRANCH   3   4
ENDBRANCH   1   3
BRANCH   1   6
ATOM      6  C   UNL     1       8.569  28.010  -0.830  1.00  0.00     0.064 A 
ATOM      7  C   UNL     1       7.283  27.924  -1.393  1.00  0.00     0.065 A 
ATOM      8  C   UNL     1       8.772  28.852   0.279  1.00  0.00     0.020 A 
ATOM      9  C   UNL     1       6.220  28.662  -0.862  1.00  0.00     0.158 A 
ATOM     10  C   UNL     1       7.712  29.589   0.811  1.00  0.00     0.051 A 
ATOM     11  C   UNL     1       6.433  29.500   0.246  1.00  0.00     0.157 A 
BRANCH   9  12
ATOM     12  O   UNL     1       4.959  28.551  -1.447  1.00  0.00    -0.504 OA
ATOM     13  H   UNL     1       4.325  27.795  -1.221  1.00  0.00     0.293 HD
ENDBRANCH   9  12
BRANCH  11  14
ATOM     14  O   UNL     1       5.378  30.238   0.779  1.00  0.00    -0.504 OA
ATOM     15  H   UNL     1       5.012  31.058   0.309  1.00  0.00     0.293 HD
ENDBRANCH  11  14
ENDBRANCH   1   6
TORSDOF 5
ENDMDL
