MODEL 1
REMARK VINA RESULT:    -5.294      0.000      0.000
REMARK INTER + INTRA:          -5.821
REMARK INTER:                  -5.758
REMARK INTRA:                  -0.063
REMARK UNBOUND:                -0.063
REMARK SMILES COc1cc2ccc(=O)oc2cc1O
REMARK SMILES IDX 3 1 13 2 12 3 11 4 5 5 4 6 6 7 7 8 8 9 9 10 10 11 2 12 1 13
REMARK SMILES IDX 14 14
REMARK H PARENT 14 15
REMARK Flexibility Score: inf
ROOT
ATOM      1  C   UNL     1      27.659   3.549  29.818  1.00  0.00     0.161 A 
ATOM      2  C   UNL     1      26.917   2.977  28.767  1.00  0.00     0.161 A 
ATOM      3  C   UNL     1      26.659   1.601  28.753  1.00  0.00     0.098 A 
ATOM      4  C   UNL     1      27.135   0.781  29.779  1.00  0.00     0.142 A 
ATOM      5  C   UNL     1      27.880   1.345  30.836  1.00  0.00     0.022 A 
ATOM      6  C   UNL     1      28.139   2.722  30.855  1.00  0.00     0.062 A 
ATOM      7  C   UNL     1      28.342   0.498  31.849  1.00  0.00     0.019 A 
ATOM      8  C   UNL     1      28.058  -0.865  31.786  1.00  0.00     0.094 A 
ATOM      9  C   UNL     1      27.314  -1.353  30.706  1.00  0.00     0.336 A 
ATOM     10  O   UNL     1      27.046  -2.580  30.631  1.00  0.00    -0.246 OA
ATOM     11  O   UNL     1      26.885  -0.526  29.756  1.00  0.00    -0.423 OA
ENDROOT
BRANCH   1  12
ATOM     12  O   UNL     1      27.899   4.932  29.802  1.00  0.00    -0.493 OA
ATOM     13  C   UNL     1      27.274   5.871  30.672  1.00  0.00     0.278 C 
ENDBRANCH   1  12
BRANCH   2  14
ATOM     14  O   UNL     1      26.424   3.761  27.724  1.00  0.00    -0.504 OA
ATOM     15  H   UNL     1      25.432   3.861  27.545  1.00  0.00     0.293 HD
ENDBRANCH   2  14
TORSDOF 2
ENDMDL
MODEL 2
REMARK VINA RESULT:    -5.190      1.876      2.856
REMARK INTER + INTRA:          -5.709
REMARK INTER:                  -5.646
REMARK INTRA:                  -0.063
REMARK UNBOUND:                -0.063
REMARK SMILES COc1cc2ccc(=O)oc2cc1O
REMARK SMILES IDX 3 1 13 2 12 3 11 4 5 5 4 6 6 7 7 8 8 9 9 10 10 11 2 12 1 13
REMARK SMILES IDX 14 14
REMARK H PARENT 14 15
REMARK Flexibility Score: inf
ROOT
ATOM      1  C   UNL     1      28.054   3.620  30.822  1.00  0.00     0.161 A 
ATOM      2  C   UNL     1      28.888   3.160  31.860  1.00  0.00     0.161 A 
ATOM      3  C   UNL     1      29.360   1.842  31.854  1.00  0.00     0.098 A 
ATOM      4  C   UNL     1      29.011   0.970  30.821  1.00  0.00     0.142 A 
ATOM      5  C   UNL     1      28.176   1.420  29.777  1.00  0.00     0.022 A 
ATOM      6  C   UNL     1      27.701   2.738  29.778  1.00  0.00     0.062 A 
ATOM      7  C   UNL     1      27.843   0.523  28.756  1.00  0.00     0.019 A 
ATOM      8  C   UNL     1      28.341  -0.779  28.799  1.00  0.00     0.094 A 
ATOM      9  C   UNL     1      29.163  -1.155  29.867  1.00  0.00     0.336 A 
ATOM     10  O   UNL     1      29.623  -2.325  29.924  1.00  0.00    -0.246 OA
ATOM     11  O   UNL     1      29.465  -0.282  30.824  1.00  0.00    -0.423 OA
ENDROOT
BRANCH   1  12
ATOM     12  O   UNL     1      27.599   4.946  30.858  1.00  0.00    -0.493 OA
ATOM     13  C   UNL     1      28.053   5.981  29.991  1.00  0.00     0.278 C 
ENDBRANCH   1  12
BRANCH   2  14
ATOM     14  O   UNL     1      29.260   4.000  32.909  1.00  0.00    -0.504 OA
ATOM     15  H   UNL     1      29.466   4.982  32.768  1.00  0.00     0.293 HD
ENDBRANCH   2  14
TORSDOF 2
ENDMDL
MODEL 3
REMARK VINA RESULT:    -5.134      2.032      5.769
REMARK INTER + INTRA:          -5.647
REMARK INTER:                  -5.585
REMARK INTRA:                  -0.062
REMARK UNBOUND:                -0.063
REMARK SMILES COc1cc2ccc(=O)oc2cc1O
REMARK SMILES IDX 3 1 13 2 12 3 11 4 5 5 4 6 6 7 7 8 8 9 9 10 10 11 2 12 1 13
REMARK SMILES IDX 14 14
REMARK H PARENT 14 15
REMARK Flexibility Score: inf
ROOT
ATOM      1  C   UNL     1      28.043  -2.972  30.429  1.00  0.00     0.161 A 
ATOM      2  C   UNL     1      26.705  -2.571  30.610  1.00  0.00     0.161 A 
ATOM      3  C   UNL     1      26.334  -1.238  30.398  1.00  0.00     0.098 A 
ATOM      4  C   UNL     1      27.284  -0.292  30.006  1.00  0.00     0.142 A 
ATOM      5  C   UNL     1      28.627  -0.684  29.823  1.00  0.00     0.022 A 
ATOM      6  C   UNL     1      29.003  -2.017  30.032  1.00  0.00     0.062 A 
ATOM      7  C   UNL     1      29.556   0.286  29.430  1.00  0.00     0.019 A 
ATOM      8  C   UNL     1      29.132   1.599  29.233  1.00  0.00     0.094 A 
ATOM      9  C   UNL     1      27.784   1.915  29.435  1.00  0.00     0.336 A 
ATOM     10  O   UNL     1      27.382   3.095  29.262  1.00  0.00    -0.246 OA
ATOM     11  O   UNL     1      26.921   0.973  29.808  1.00  0.00    -0.423 OA
ENDROOT
BRANCH   1  12
ATOM     12  O   UNL     1      28.381  -4.316  30.649  1.00  0.00    -0.493 OA
ATOM     13  C   UNL     1      28.744  -5.237  29.624  1.00  0.00     0.278 C 
ENDBRANCH   1  12
BRANCH   2  14
ATOM     14  O   UNL     1      25.726  -3.485  31.001  1.00  0.00    -0.504 OA
ATOM     15  H   UNL     1      25.921  -4.242  31.645  1.00  0.00     0.293 HD
ENDBRANCH   2  14
TORSDOF 2
ENDMDL
MODEL 4
REMARK VINA RESULT:    -5.113      2.563      5.864
REMARK INTER + INTRA:          -5.625
REMARK INTER:                  -5.577
REMARK INTRA:                  -0.048
REMARK UNBOUND:                -0.063
REMARK SMILES COc1cc2ccc(=O)oc2cc1O
REMARK SMILES IDX 3 1 13 2 12 3 11 4 5 5 4 6 6 7 7 8 8 9 9 10 10 11 2 12 1 13
REMARK SMILES IDX 14 14
REMARK H PARENT 14 15
REMARK Flexibility Score: inf
ROOT
ATOM      1  C   UNL     1      29.105  -2.780  30.029  1.00  0.00     0.161 A 
ATOM      2  C   UNL     1      30.330  -2.088  29.975  1.00  0.00     0.161 A 
ATOM      3  C   UNL     1      30.382  -0.721  30.276  1.00  0.00     0.098 A 
ATOM      4  C   UNL     1      29.222  -0.031  30.634  1.00  0.00     0.142 A 
ATOM      5  C   UNL     1      27.990  -0.715  30.692  1.00  0.00     0.022 A 
ATOM      6  C   UNL     1      27.933  -2.083  30.392  1.00  0.00     0.062 A 
ATOM      7  C   UNL     1      26.846   0.003  31.054  1.00  0.00     0.019 A 
ATOM      8  C   UNL     1      26.954   1.362  31.344  1.00  0.00     0.094 A 
ATOM      9  C   UNL     1      28.209   1.975  31.265  1.00  0.00     0.336 A 
ATOM     10  O   UNL     1      28.328   3.201  31.524  1.00  0.00    -0.246 OA
ATOM     11  O   UNL     1      29.282   1.268  30.919  1.00  0.00    -0.423 OA
ENDROOT
BRANCH   1  12
ATOM     12  O   UNL     1      29.088  -4.149  29.722  1.00  0.00    -0.493 OA
ATOM     13  C   UNL     1      28.312  -5.124  30.412  1.00  0.00     0.278 C 
ENDBRANCH   1  12
BRANCH   2  14
ATOM     14  O   UNL     1      31.511  -2.741  29.622  1.00  0.00    -0.504 OA
ATOM     15  H   UNL     1      31.944  -2.621  28.714  1.00  0.00     0.293 HD
ENDBRANCH   2  14
TORSDOF 2
ENDMDL
MODEL 5
REMARK VINA RESULT:    -4.990      2.534      3.947
REMARK INTER + INTRA:          -5.491
REMARK INTER:                  -5.512
REMARK INTRA:                   0.021
REMARK UNBOUND:                -0.063
REMARK SMILES COc1cc2ccc(=O)oc2cc1O
REMARK SMILES IDX 3 1 13 2 12 3 11 4 5 5 4 6 6 7 7 8 8 9 9 10 10 11 2 12 1 13
REMARK SMILES IDX 14 14
REMARK H PARENT 14 15
REMARK Flexibility Score: inf
ROOT
ATOM      1  C   UNL     1      28.223   0.284  30.618  1.00  0.00     0.161 A 
ATOM      2  C   UNL     1      29.538   0.003  30.198  1.00  0.00     0.161 A 
ATOM      3  C   UNL     1      29.945  -1.320  29.995  1.00  0.00     0.098 A 
ATOM      4  C   UNL     1      29.055  -2.376  30.204  1.00  0.00     0.142 A 
ATOM      5  C   UNL     1      27.735  -2.105  30.624  1.00  0.00     0.022 A 
ATOM      6  C   UNL     1      27.322  -0.781  30.829  1.00  0.00     0.062 A 
ATOM      7  C   UNL     1      26.866  -3.182  30.826  1.00  0.00     0.019 A 
ATOM      8  C   UNL     1      27.324  -4.481  30.608  1.00  0.00     0.094 A 
ATOM      9  C   UNL     1      28.646  -4.674  30.193  1.00  0.00     0.336 A 
ATOM     10  O   UNL     1      29.078  -5.838  29.991  1.00  0.00    -0.246 OA
ATOM     11  O   UNL     1      29.452  -3.631  30.008  1.00  0.00    -0.423 OA
ENDROOT
BRANCH   1  12
ATOM     12  O   UNL     1      27.847   1.622  30.812  1.00  0.00    -0.493 OA
ATOM     13  C   UNL     1      27.528   2.533  29.764  1.00  0.00     0.278 C 
ENDBRANCH   1  12
BRANCH   2  14
ATOM     14  O   UNL     1      30.457   1.029  29.978  1.00  0.00    -0.504 OA
ATOM     15  H   UNL     1      30.176   1.999  29.904  1.00  0.00     0.293 HD
ENDBRANCH   2  14
TORSDOF 2
ENDMDL
MODEL 6
REMARK VINA RESULT:    -4.984      2.274      3.592
REMARK INTER + INTRA:          -5.484
REMARK INTER:                  -5.521
REMARK INTRA:                   0.037
REMARK UNBOUND:                -0.063
REMARK SMILES COc1cc2ccc(=O)oc2cc1O
REMARK SMILES IDX 3 1 13 2 12 3 11 4 5 5 4 6 6 7 7 8 8 9 9 10 10 11 2 12 1 13
REMARK SMILES IDX 14 14
REMARK H PARENT 14 15
REMARK Flexibility Score: inf
ROOT
ATOM      1  C   UNL     1      28.117   0.365  30.122  1.00  0.00     0.161 A 
ATOM      2  C   UNL     1      26.830  -0.101  30.453  1.00  0.00     0.161 A 
ATOM      3  C   UNL     1      26.591  -1.474  30.590  1.00  0.00     0.098 A 
ATOM      4  C   UNL     1      27.623  -2.395  30.400  1.00  0.00     0.142 A 
ATOM      5  C   UNL     1      28.916  -1.938  30.068  1.00  0.00     0.022 A 
ATOM      6  C   UNL     1      29.161  -0.565  29.931  1.00  0.00     0.062 A 
ATOM      7  C   UNL     1      29.930  -2.884  29.884  1.00  0.00     0.019 A 
ATOM      8  C   UNL     1      29.637  -4.239  30.033  1.00  0.00     0.094 A 
ATOM      9  C   UNL     1      28.331  -4.619  30.363  1.00  0.00     0.336 A 
ATOM     10  O   UNL     1      28.047  -5.837  30.502  1.00  0.00    -0.246 OA
ATOM     11  O   UNL     1      27.386  -3.698  30.533  1.00  0.00    -0.423 OA
ENDROOT
BRANCH   1  12
ATOM     12  O   UNL     1      28.323   1.747  29.993  1.00  0.00    -0.493 OA
ATOM     13  C   UNL     1      28.420   2.656  31.085  1.00  0.00     0.278 C 
ENDBRANCH   1  12
BRANCH   2  14
ATOM     14  O   UNL     1      25.772   0.786  30.651  1.00  0.00    -0.504 OA
ATOM     15  H   UNL     1      25.918   1.742  30.954  1.00  0.00     0.293 HD
ENDBRANCH   2  14
TORSDOF 2
ENDMDL
MODEL 7
REMARK VINA RESULT:    -4.975      1.174      4.970
REMARK INTER + INTRA:          -5.475
REMARK INTER:                  -5.575
REMARK INTRA:                   0.100
REMARK UNBOUND:                -0.063
REMARK SMILES COc1cc2ccc(=O)oc2cc1O
REMARK SMILES IDX 3 1 13 2 12 3 11 4 5 5 4 6 6 7 7 8 8 9 9 10 10 11 2 12 1 13
REMARK SMILES IDX 14 14
REMARK H PARENT 14 15
REMARK Flexibility Score: inf
ROOT
ATOM      1  C   UNL     1      27.587   0.516  30.569  1.00  0.00     0.161 A 
ATOM      2  C   UNL     1      27.147   0.831  29.269  1.00  0.00     0.161 A 
ATOM      3  C   UNL     1      27.145   2.160  28.827  1.00  0.00     0.098 A 
ATOM      4  C   UNL     1      27.578   3.186  29.670  1.00  0.00     0.142 A 
ATOM      5  C   UNL     1      28.020   2.881  30.974  1.00  0.00     0.022 A 
ATOM      6  C   UNL     1      28.025   1.553  31.420  1.00  0.00     0.062 A 
ATOM      7  C   UNL     1      28.448   3.930  31.795  1.00  0.00     0.019 A 
ATOM      8  C   UNL     1      28.425   5.235  31.305  1.00  0.00     0.094 A 
ATOM      9  C   UNL     1      27.973   5.463  30.001  1.00  0.00     0.336 A 
ATOM     10  O   UNL     1      27.945   6.634  29.541  1.00  0.00    -0.246 OA
ATOM     11  O   UNL     1      27.572   4.446  29.242  1.00  0.00    -0.423 OA
ENDROOT
BRANCH   1  12
ATOM     12  O   UNL     1      27.577  -0.826  30.979  1.00  0.00    -0.493 OA
ATOM     13  C   UNL     1      28.444  -1.835  30.468  1.00  0.00     0.278 C 
ENDBRANCH   1  12
BRANCH   2  14
ATOM     14  O   UNL     1      26.707  -0.165  28.397  1.00  0.00    -0.504 OA
ATOM     15  H   UNL     1      25.723  -0.339  28.229  1.00  0.00     0.293 HD
ENDBRANCH   2  14
TORSDOF 2
ENDMDL
MODEL 8
REMARK VINA RESULT:    -4.973      1.634      5.462
REMARK INTER + INTRA:          -5.473
REMARK INTER:                  -5.498
REMARK INTRA:                   0.026
REMARK UNBOUND:                -0.063
REMARK SMILES COc1cc2ccc(=O)oc2cc1O
REMARK SMILES IDX 3 1 13 2 12 3 11 4 5 5 4 6 6 7 7 8 8 9 9 10 10 11 2 12 1 13
REMARK SMILES IDX 14 14
REMARK H PARENT 14 15
REMARK Flexibility Score: inf
ROOT
ATOM      1  C   UNL     1      28.348   0.415  30.169  1.00  0.00     0.161 A 
ATOM      2  C   UNL     1      28.912   0.825  31.393  1.00  0.00     0.161 A 
ATOM      3  C   UNL     1      28.897   2.177  31.758  1.00  0.00     0.098 A 
ATOM      4  C   UNL     1      28.323   3.131  30.916  1.00  0.00     0.142 A 
ATOM      5  C   UNL     1      27.755   2.731  29.689  1.00  0.00     0.022 A 
ATOM      6  C   UNL     1      27.767   1.379  29.319  1.00  0.00     0.062 A 
ATOM      7  C   UNL     1      27.187   3.710  28.867  1.00  0.00     0.019 A 
ATOM      8  C   UNL     1      27.199   5.041  29.279  1.00  0.00     0.094 A 
ATOM      9  C   UNL     1      27.781   5.365  30.510  1.00  0.00     0.336 A 
ATOM     10  O   UNL     1      27.802   6.561  30.900  1.00  0.00    -0.246 OA
ATOM     11  O   UNL     1      28.314   4.414  31.273  1.00  0.00    -0.423 OA
ENDROOT
BRANCH   1  12
ATOM     12  O   UNL     1      28.379  -0.947  29.833  1.00  0.00    -0.493 OA
ATOM     13  C   UNL     1      27.515  -1.937  30.386  1.00  0.00     0.278 C 
ENDBRANCH   1  12
BRANCH   2  14
ATOM     14  O   UNL     1      29.495  -0.097  32.261  1.00  0.00    -0.504 OA
ATOM     15  H   UNL     1      30.455  -0.012  32.575  1.00  0.00     0.293 HD
ENDBRANCH   2  14
TORSDOF 2
ENDMDL
MODEL 9
REMARK VINA RESULT:    -4.549      2.095      2.783
REMARK INTER + INTRA:          -5.011
REMARK INTER:                  -4.974
REMARK INTRA:                  -0.037
REMARK UNBOUND:                -0.063
REMARK SMILES COc1cc2ccc(=O)oc2cc1O
REMARK SMILES IDX 3 1 13 2 12 3 11 4 5 5 4 6 6 7 7 8 8 9 9 10 10 11 2 12 1 13
REMARK SMILES IDX 14 14
REMARK H PARENT 14 15
REMARK Flexibility Score: inf
ROOT
ATOM      1  C   UNL     1      27.815   1.339  30.301  1.00  0.00     0.161 A 
ATOM      2  C   UNL     1      28.788   1.145  29.302  1.00  0.00     0.161 A 
ATOM      3  C   UNL     1      29.241  -0.144  28.998  1.00  0.00     0.098 A 
ATOM      4  C   UNL     1      28.733  -1.252  29.681  1.00  0.00     0.142 A 
ATOM      5  C   UNL     1      27.758  -1.069  30.683  1.00  0.00     0.022 A 
ATOM      6  C   UNL     1      27.301   0.220  30.990  1.00  0.00     0.062 A 
ATOM      7  C   UNL     1      27.269  -2.197  31.350  1.00  0.00     0.019 A 
ATOM      8  C   UNL     1      27.754  -3.459  31.008  1.00  0.00     0.094 A 
ATOM      9  C   UNL     1      28.722  -3.563  30.003  1.00  0.00     0.336 A 
ATOM     10  O   UNL     1      29.173  -4.693  29.680  1.00  0.00    -0.246 OA
ATOM     11  O   UNL     1      29.170  -2.474  29.385  1.00  0.00    -0.423 OA
ENDROOT
BRANCH   1  12
ATOM     12  O   UNL     1      27.383   2.644  30.580  1.00  0.00    -0.493 OA
ATOM     13  C   UNL     1      28.024   3.531  31.492  1.00  0.00     0.278 C 
ENDBRANCH   1  12
BRANCH   2  14
ATOM     14  O   UNL     1      29.320   2.225  28.597  1.00  0.00    -0.504 OA
ATOM     15  H   UNL     1      30.230   2.615  28.812  1.00  0.00     0.293 HD
ENDBRANCH   2  14
TORSDOF 2
ENDMDL
