MODEL 1
REMARK VINA RESULT:    -4.039      0.000      0.000
REMARK INTER + INTRA:          -6.221
REMARK INTER:                  -5.455
REMARK INTRA:                  -0.765
REMARK UNBOUND:                -0.765
REMARK SMILES O=C[C@@H](O)[C@@H](O)[C@@H](O)CO
REMARK SMILES IDX 7 1 9 2 10 3 5 5 3 6 2 7 1 8 4 9 6 11 8 13
REMARK H PARENT 10 4 4 10 6 12 8 14
REMARK Flexibility Score: inf
ROOT
ATOM      1  C   UNL     1       3.672   3.223  37.584  1.00  0.00     0.171 C 
ENDROOT
BRANCH   1   2
ATOM      2  C   UNL     1       3.065   2.681  36.277  1.00  0.00     0.190 C 
BRANCH   2   3
ATOM      3  O   UNL     1       2.055   1.748  36.555  1.00  0.00    -0.394 OA
ATOM      4  H   UNL     1       1.206   2.141  36.222  1.00  0.00     0.210 HD
ENDBRANCH   2   3
ENDBRANCH   1   2
BRANCH   1   5
ATOM      5  C   UNL     1       2.698   4.198  38.302  1.00  0.00     0.181 C 
BRANCH   5   6
ATOM      6  C   UNL     1       2.133   3.645  39.637  1.00  0.00     0.209 C 
BRANCH   6   7
ATOM      7  C   UNL     1       1.359   4.679  40.410  1.00  0.00     0.258 C 
ATOM      8  O   UNL     1       1.941   5.546  41.042  1.00  0.00    -0.300 OA
ENDBRANCH   6   7
BRANCH   6   9
ATOM      9  O   UNL     1       1.284   2.559  39.373  1.00  0.00    -0.383 OA
ATOM     10  H   UNL     1       1.674   2.067  38.604  1.00  0.00     0.211 HD
ENDBRANCH   6   9
ENDBRANCH   5   6
BRANCH   5  11
ATOM     11  O   UNL     1       3.292   5.460  38.497  1.00  0.00    -0.387 OA
ATOM     12  H   UNL     1       3.392   5.600  39.475  1.00  0.00     0.211 HD
ENDBRANCH   5  11
ENDBRANCH   1   5
BRANCH   1  13
ATOM     13  O   UNL     1       4.032   2.158  38.428  1.00  0.00    -0.388 OA
ATOM     14  H   UNL     1       4.854   2.426  38.917  1.00  0.00     0.211 HD
ENDBRANCH   1  13
TORSDOF 8
ENDMDL
MODEL 2
REMARK VINA RESULT:    -3.804      1.163      2.465
REMARK INTER + INTRA:          -5.903
REMARK INTER:                  -5.401
REMARK INTRA:                  -0.502
REMARK UNBOUND:                -0.765
REMARK SMILES O=C[C@@H](O)[C@@H](O)[C@@H](O)CO
REMARK SMILES IDX 7 1 9 2 10 3 5 5 3 6 2 7 1 8 4 9 6 11 8 13
REMARK H PARENT 10 4 4 10 6 12 8 14
REMARK Flexibility Score: inf
ROOT
ATOM      1  C   UNL     1       2.862   1.984  36.538  1.00  0.00     0.171 C 
ENDROOT
BRANCH   1   2
ATOM      2  C   UNL     1       2.774   2.673  35.164  1.00  0.00     0.190 C 
BRANCH   2   3
ATOM      3  O   UNL     1       3.217   1.809  34.152  1.00  0.00    -0.394 OA
ATOM      4  H   UNL     1       4.208   1.862  34.146  1.00  0.00     0.210 HD
ENDBRANCH   2   3
ENDBRANCH   1   2
BRANCH   1   5
ATOM      5  C   UNL     1       3.478   2.928  37.609  1.00  0.00     0.181 C 
BRANCH   5   6
ATOM      6  C   UNL     1       2.493   4.007  38.132  1.00  0.00     0.209 C 
BRANCH   6   7
ATOM      7  C   UNL     1       2.073   3.765  39.556  1.00  0.00     0.258 C 
ATOM      8  O   UNL     1       1.530   2.719  39.874  1.00  0.00    -0.300 OA
ENDBRANCH   6   7
BRANCH   6   9
ATOM      9  O   UNL     1       3.099   5.271  38.056  1.00  0.00    -0.383 OA
ATOM     10  H   UNL     1       4.069   5.138  38.221  1.00  0.00     0.211 HD
ENDBRANCH   6   9
ENDBRANCH   5   6
BRANCH   5  11
ATOM     11  O   UNL     1       4.026   2.194  38.679  1.00  0.00    -0.387 OA
ATOM     12  H   UNL     1       4.930   1.890  38.407  1.00  0.00     0.211 HD
ENDBRANCH   5  11
ENDBRANCH   1   5
BRANCH   1  13
ATOM     13  O   UNL     1       1.589   1.535  36.936  1.00  0.00    -0.388 OA
ATOM     14  H   UNL     1       0.977   1.647  36.162  1.00  0.00     0.211 HD
ENDBRANCH   1  13
TORSDOF 8
ENDMDL
MODEL 3
REMARK VINA RESULT:    -3.772      1.079      4.015
REMARK INTER + INTRA:          -5.860
REMARK INTER:                  -5.391
REMARK INTRA:                  -0.470
REMARK UNBOUND:                -0.765
REMARK SMILES O=C[C@@H](O)[C@@H](O)[C@@H](O)CO
REMARK SMILES IDX 7 1 9 2 10 3 5 5 3 6 2 7 1 8 4 9 6 11 8 13
REMARK H PARENT 10 4 4 10 6 12 8 14
REMARK Flexibility Score: inf
ROOT
ATOM      1  C   UNL     1       1.834   4.606  39.468  1.00  0.00     0.171 C 
ENDROOT
BRANCH   1   2
ATOM      2  C   UNL     1       2.263   5.736  40.422  1.00  0.00     0.190 C 
BRANCH   2   3
ATOM      3  O   UNL     1       3.060   6.673  39.748  1.00  0.00    -0.394 OA
ATOM      4  H   UNL     1       3.420   6.214  38.944  1.00  0.00     0.210 HD
ENDBRANCH   2   3
ENDBRANCH   1   2
BRANCH   1   5
ATOM      5  C   UNL     1       2.931   4.312  38.406  1.00  0.00     0.181 C 
BRANCH   5   6
ATOM      6  C   UNL     1       2.896   2.860  37.858  1.00  0.00     0.209 C 
BRANCH   6   7
ATOM      7  C   UNL     1       3.230   2.787  36.393  1.00  0.00     0.258 C 
ATOM      8  O   UNL     1       2.666   1.985  35.667  1.00  0.00    -0.300 OA
ENDBRANCH   6   7
BRANCH   6   9
ATOM      9  O   UNL     1       3.817   2.070  38.564  1.00  0.00    -0.383 OA
ATOM     10  H   UNL     1       4.703   2.207  38.138  1.00  0.00     0.211 HD
ENDBRANCH   6   9
ENDBRANCH   5   6
BRANCH   5  11
ATOM     11  O   UNL     1       2.882   5.243  37.351  1.00  0.00    -0.387 OA
ATOM     12  H   UNL     1       1.962   5.614  37.317  1.00  0.00     0.211 HD
ENDBRANCH   5  11
ENDBRANCH   1   5
BRANCH   1  13
ATOM     13  O   UNL     1       1.518   3.448  40.201  1.00  0.00    -0.388 OA
ATOM     14  H   UNL     1       2.284   2.820  40.115  1.00  0.00     0.211 HD
ENDBRANCH   1  13
TORSDOF 8
ENDMDL
MODEL 4
REMARK VINA RESULT:    -3.699      8.291      9.278
REMARK INTER + INTRA:          -5.763
REMARK INTER:                  -5.226
REMARK INTRA:                  -0.536
REMARK UNBOUND:                -0.765
REMARK SMILES O=C[C@@H](O)[C@@H](O)[C@@H](O)CO
REMARK SMILES IDX 7 1 9 2 10 3 5 5 3 6 2 7 1 8 4 9 6 11 8 13
REMARK H PARENT 10 4 4 10 6 12 8 14
REMARK Flexibility Score: inf
ROOT
ATOM      1  C   UNL     1       5.513  12.723  37.282  1.00  0.00     0.171 C 
ENDROOT
BRANCH   1   2
ATOM      2  C   UNL     1       6.899  12.073  37.442  1.00  0.00     0.190 C 
BRANCH   2   3
ATOM      3  O   UNL     1       7.077  11.056  36.493  1.00  0.00    -0.394 OA
ATOM      4  H   UNL     1       7.420  11.493  35.670  1.00  0.00     0.210 HD
ENDBRANCH   2   3
ENDBRANCH   1   2
BRANCH   1   5
ATOM      5  C   UNL     1       4.387  11.806  37.835  1.00  0.00     0.181 C 
BRANCH   5   6
ATOM      6  C   UNL     1       3.117  12.577  38.283  1.00  0.00     0.209 C 
BRANCH   6   7
ATOM      7  C   UNL     1       1.897  12.192  37.490  1.00  0.00     0.258 C 
ATOM      8  O   UNL     1       1.807  12.483  36.308  1.00  0.00    -0.300 OA
ENDBRANCH   6   7
BRANCH   6   9
ATOM      9  O   UNL     1       2.865  12.317  39.640  1.00  0.00    -0.383 OA
ATOM     10  H   UNL     1       3.497  12.877  40.163  1.00  0.00     0.211 HD
ENDBRANCH   6   9
ENDBRANCH   5   6
BRANCH   5  11
ATOM     11  O   UNL     1       4.055  10.795  36.913  1.00  0.00    -0.387 OA
ATOM     12  H   UNL     1       4.818  10.161  36.870  1.00  0.00     0.211 HD
ENDBRANCH   5  11
ENDBRANCH   1   5
BRANCH   1  13
ATOM     13  O   UNL     1       5.493  13.981  37.913  1.00  0.00    -0.388 OA
ATOM     14  H   UNL     1       5.563  14.673  37.204  1.00  0.00     0.211 HD
ENDBRANCH   1  13
TORSDOF 8
ENDMDL
MODEL 5
REMARK VINA RESULT:    -3.660      8.175      8.816
REMARK INTER + INTRA:          -5.709
REMARK INTER:                  -5.221
REMARK INTRA:                  -0.488
REMARK UNBOUND:                -0.765
REMARK SMILES O=C[C@@H](O)[C@@H](O)[C@@H](O)CO
REMARK SMILES IDX 7 1 9 2 10 3 5 5 3 6 2 7 1 8 4 9 6 11 8 13
REMARK H PARENT 10 4 4 10 6 12 8 14
REMARK Flexibility Score: inf
ROOT
ATOM      1  C   UNL     1       5.924  10.519  33.615  1.00  0.00     0.171 C 
ENDROOT
BRANCH   1   2
ATOM      2  C   UNL     1       5.487   9.043  33.651  1.00  0.00     0.190 C 
BRANCH   2   3
ATOM      3  O   UNL     1       6.573   8.202  33.365  1.00  0.00    -0.394 OA
ATOM      4  H   UNL     1       6.943   8.503  32.494  1.00  0.00     0.210 HD
ENDBRANCH   2   3
ENDBRANCH   1   2
BRANCH   1   5
ATOM      5  C   UNL     1       6.366  11.015  35.020  1.00  0.00     0.181 C 
BRANCH   5   6
ATOM      6  C   UNL     1       5.198  11.135  36.035  1.00  0.00     0.209 C 
BRANCH   6   7
ATOM      7  C   UNL     1       5.618  11.785  37.326  1.00  0.00     0.258 C 
ATOM      8  O   UNL     1       6.799  11.972  37.571  1.00  0.00    -0.300 OA
ENDBRANCH   6   7
BRANCH   6   9
ATOM      9  O   UNL     1       4.162  11.896  35.471  1.00  0.00    -0.383 OA
ATOM     10  H   UNL     1       4.236  11.800  34.485  1.00  0.00     0.211 HD
ENDBRANCH   6   9
ENDBRANCH   5   6
BRANCH   5  11
ATOM     11  O   UNL     1       7.398  10.213  35.542  1.00  0.00    -0.387 OA
ATOM     12  H   UNL     1       7.462  10.396  36.516  1.00  0.00     0.211 HD
ENDBRANCH   5  11
ENDBRANCH   1   5
BRANCH   1  13
ATOM     13  O   UNL     1       6.953  10.696  32.672  1.00  0.00    -0.388 OA
ATOM     14  H   UNL     1       6.568  10.524  31.772  1.00  0.00     0.211 HD
ENDBRANCH   1  13
TORSDOF 8
ENDMDL
MODEL 6
REMARK VINA RESULT:    -3.645      8.305      9.950
REMARK INTER + INTRA:          -5.689
REMARK INTER:                  -5.037
REMARK INTRA:                  -0.652
REMARK UNBOUND:                -0.765
REMARK SMILES O=C[C@@H](O)[C@@H](O)[C@@H](O)CO
REMARK SMILES IDX 7 1 9 2 10 3 5 5 3 6 2 7 1 8 4 9 6 11 8 13
REMARK H PARENT 10 4 4 10 6 12 8 14
REMARK Flexibility Score: inf
ROOT
ATOM      1  C   UNL     1       3.859  11.823  37.480  1.00  0.00     0.171 C 
ENDROOT
BRANCH   1   2
ATOM      2  C   UNL     1       3.229  11.458  38.836  1.00  0.00     0.190 C 
BRANCH   2   3
ATOM      3  O   UNL     1       2.880  12.618  39.544  1.00  0.00    -0.394 OA
ATOM      4  H   UNL     1       3.135  12.460  40.491  1.00  0.00     0.210 HD
ENDBRANCH   2   3
ENDBRANCH   1   2
BRANCH   1   5
ATOM      5  C   UNL     1       5.257  12.480  37.661  1.00  0.00     0.181 C 
BRANCH   5   6
ATOM      6  C   UNL     1       6.184  12.324  36.427  1.00  0.00     0.209 C 
BRANCH   6   7
ATOM      7  C   UNL     1       6.966  13.575  36.129  1.00  0.00     0.258 C 
ATOM      8  O   UNL     1       6.482  14.461  35.444  1.00  0.00    -0.300 OA
ENDBRANCH   6   7
BRANCH   6   9
ATOM      9  O   UNL     1       7.091  11.276  36.651  1.00  0.00    -0.383 OA
ATOM     10  H   UNL     1       6.736  10.743  37.410  1.00  0.00     0.211 HD
ENDBRANCH   6   9
ENDBRANCH   5   6
BRANCH   5  11
ATOM     11  O   UNL     1       5.139  13.835  38.026  1.00  0.00    -0.387 OA
ATOM     12  H   UNL     1       5.292  13.900  39.004  1.00  0.00     0.211 HD
ENDBRANCH   5  11
ENDBRANCH   1   5
BRANCH   1  13
ATOM     13  O   UNL     1       3.942  10.681  36.662  1.00  0.00    -0.388 OA
ATOM     14  H   UNL     1       4.774  10.756  36.125  1.00  0.00     0.211 HD
ENDBRANCH   1  13
TORSDOF 8
ENDMDL
MODEL 7
REMARK VINA RESULT:    -3.603      8.196      9.183
REMARK INTER + INTRA:          -5.632
REMARK INTER:                  -4.932
REMARK INTRA:                  -0.700
REMARK UNBOUND:                -0.765
REMARK SMILES O=C[C@@H](O)[C@@H](O)[C@@H](O)CO
REMARK SMILES IDX 7 1 9 2 10 3 5 5 3 6 2 7 1 8 4 9 6 11 8 13
REMARK H PARENT 10 4 4 10 6 12 8 14
REMARK Flexibility Score: inf
ROOT
ATOM      1  C   UNL     1       6.020  10.439  34.685  1.00  0.00     0.171 C 
ENDROOT
BRANCH   1   2
ATOM      2  C   UNL     1       5.887  10.231  33.165  1.00  0.00     0.190 C 
BRANCH   2   3
ATOM      3  O   UNL     1       7.131  10.387  32.537  1.00  0.00    -0.394 OA
ATOM      4  H   UNL     1       7.565   9.494  32.541  1.00  0.00     0.210 HD
ENDBRANCH   2   3
ENDBRANCH   1   2
BRANCH   1   5
ATOM      5  C   UNL     1       5.763  11.919  35.082  1.00  0.00     0.181 C 
BRANCH   5   6
ATOM      6  C   UNL     1       6.356  12.308  36.462  1.00  0.00     0.209 C 
BRANCH   6   7
ATOM      7  C   UNL     1       5.301  12.450  37.525  1.00  0.00     0.258 C 
ATOM      8  O   UNL     1       4.563  11.516  37.796  1.00  0.00    -0.300 OA
ENDBRANCH   6   7
BRANCH   6   9
ATOM      9  O   UNL     1       7.272  11.326  36.872  1.00  0.00    -0.383 OA
ATOM     10  H   UNL     1       7.455  10.753  36.082  1.00  0.00     0.211 HD
ENDBRANCH   6   9
ENDBRANCH   5   6
BRANCH   5  11
ATOM     11  O   UNL     1       6.216  12.800  34.080  1.00  0.00    -0.387 OA
ATOM     12  H   UNL     1       5.460  13.396  33.836  1.00  0.00     0.211 HD
ENDBRANCH   5  11
ENDBRANCH   1   5
BRANCH   1  13
ATOM     13  O   UNL     1       5.146   9.575  35.370  1.00  0.00    -0.388 OA
ATOM     14  H   UNL     1       5.672   9.111  36.073  1.00  0.00     0.211 HD
ENDBRANCH   1  13
TORSDOF 8
ENDMDL
MODEL 8
REMARK VINA RESULT:    -3.534      7.488      9.220
REMARK INTER + INTRA:          -5.539
REMARK INTER:                  -4.806
REMARK INTRA:                  -0.733
REMARK UNBOUND:                -0.765
REMARK SMILES O=C[C@@H](O)[C@@H](O)[C@@H](O)CO
REMARK SMILES IDX 7 1 9 2 10 3 5 5 3 6 2 7 1 8 4 9 6 11 8 13
REMARK H PARENT 10 4 4 10 6 12 8 14
REMARK Flexibility Score: inf
ROOT
ATOM      1  C   UNL     1       5.942  10.628  35.315  1.00  0.00     0.171 C 
ENDROOT
BRANCH   1   2
ATOM      2  C   UNL     1       5.735  12.119  34.990  1.00  0.00     0.190 C 
BRANCH   2   3
ATOM      3  O   UNL     1       6.073  12.383  33.655  1.00  0.00    -0.394 OA
ATOM      4  H   UNL     1       5.494  13.132  33.358  1.00  0.00     0.210 HD
ENDBRANCH   2   3
ENDBRANCH   1   2
BRANCH   1   5
ATOM      5  C   UNL     1       5.217   9.716  34.286  1.00  0.00     0.181 C 
BRANCH   5   6
ATOM      6  C   UNL     1       6.182   8.934  33.356  1.00  0.00     0.209 C 
BRANCH   6   7
ATOM      7  C   UNL     1       5.457   8.006  32.419  1.00  0.00     0.258 C 
ATOM      8  O   UNL     1       4.870   7.026  32.847  1.00  0.00    -0.300 OA
ENDBRANCH   6   7
BRANCH   6   9
ATOM      9  O   UNL     1       6.933   9.840  32.591  1.00  0.00    -0.383 OA
ATOM     10  H   UNL     1       7.148   9.388  31.733  1.00  0.00     0.211 HD
ENDBRANCH   6   9
ENDBRANCH   5   6
BRANCH   5  11
ATOM     11  O   UNL     1       4.323   8.837  34.926  1.00  0.00    -0.387 OA
ATOM     12  H   UNL     1       3.498   8.790  34.377  1.00  0.00     0.211 HD
ENDBRANCH   5  11
ENDBRANCH   1   5
BRANCH   1  13
ATOM     13  O   UNL     1       7.317  10.332  35.369  1.00  0.00    -0.388 OA
ATOM     14  H   UNL     1       7.753  10.789  34.603  1.00  0.00     0.211 HD
ENDBRANCH   1  13
TORSDOF 8
ENDMDL
MODEL 9
REMARK VINA RESULT:    -3.479     12.894     13.684
REMARK INTER + INTRA:          -5.465
REMARK INTER:                  -4.764
REMARK INTRA:                  -0.701
REMARK UNBOUND:                -0.765
REMARK SMILES O=C[C@@H](O)[C@@H](O)[C@@H](O)CO
REMARK SMILES IDX 7 1 9 2 10 3 5 5 3 6 2 7 1 8 4 9 6 11 8 13
REMARK H PARENT 10 4 4 10 6 12 8 14
REMARK Flexibility Score: inf
ROOT
ATOM      1  C   UNL     1      11.432   0.420  47.582  1.00  0.00     0.171 C 
ENDROOT
BRANCH   1   2
ATOM      2  C   UNL     1      12.947   0.149  47.523  1.00  0.00     0.190 C 
BRANCH   2   3
ATOM      3  O   UNL     1      13.196  -1.227  47.421  1.00  0.00    -0.394 OA
ATOM      4  H   UNL     1      12.914  -1.500  46.508  1.00  0.00     0.210 HD
ENDBRANCH   2   3
ENDBRANCH   1   2
BRANCH   1   5
ATOM      5  C   UNL     1      10.916   0.450  49.047  1.00  0.00     0.181 C 
BRANCH   5   6
ATOM      6  C   UNL     1       9.369   0.457  49.164  1.00  0.00     0.209 C 
BRANCH   6   7
ATOM      7  C   UNL     1       8.892   0.118  50.551  1.00  0.00     0.258 C 
ATOM      8  O   UNL     1       9.425   0.616  51.529  1.00  0.00    -0.300 OA
ENDBRANCH   6   7
BRANCH   6   9
ATOM      9  O   UNL     1       8.878   1.727  48.823  1.00  0.00    -0.383 OA
ATOM     10  H   UNL     1       9.662   2.333  48.758  1.00  0.00     0.211 HD
ENDBRANCH   6   9
ENDBRANCH   5   6
BRANCH   5  11
ATOM     11  O   UNL     1      11.467  -0.602  49.803  1.00  0.00    -0.387 OA
ATOM     12  H   UNL     1      10.981  -0.643  50.667  1.00  0.00     0.211 HD
ENDBRANCH   5  11
ENDBRANCH   1   5
BRANCH   1  13
ATOM     13  O   UNL     1      11.130   1.623  46.916  1.00  0.00    -0.388 OA
ATOM     14  H   UNL     1      11.452   1.537  45.981  1.00  0.00     0.211 HD
ENDBRANCH   1  13
TORSDOF 8
ENDMDL
