MODEL 1
REMARK VINA RESULT:    -4.207      0.000      0.000
REMARK INTER + INTRA:         -15.470
REMARK INTER:                 -10.602
REMARK INTRA:                  -4.868
REMARK UNBOUND:                -4.868
REMARK SMILES CCCCCCCCCCCCCCCCCCCCCCCCCCCC(=O)[O-]
REMARK SMILES IDX 15 1 16 2 17 3 18 4 19 5 20 6 21 7 22 8 23 9 24 10 25 11
REMARK SMILES IDX 26 12 27 13 28 14 29 15 30 16 14 17 13 18 12 19 11 20 10 21
REMARK SMILES IDX 9 22 8 23 7 24 6 25 5 26 4 27 3 28 2 29 1 30
REMARK H PARENT
REMARK Flexibility Score: inf
ROOT
ATOM      1  C   UNL     1     -18.808 -15.613 -17.983  1.00  0.00     0.000 C 
ENDROOT
BRANCH   1   2
ATOM      2  C   UNL     1     -19.551 -16.548 -17.009  1.00  0.00     0.000 C 
BRANCH   2   3
ATOM      3  C   UNL     1     -19.184 -18.038 -17.140  1.00  0.00     0.000 C 
BRANCH   3   4
ATOM      4  C   UNL     1     -18.728 -18.681 -15.812  1.00  0.00     0.000 C 
BRANCH   4   5
ATOM      5  C   UNL     1     -19.404 -20.034 -15.551  1.00  0.00     0.000 C 
BRANCH   5   6
ATOM      6  C   UNL     1     -20.817 -20.064 -16.149  1.00  0.00     0.000 C 
BRANCH   6   7
ATOM      7  C   UNL     1     -21.878 -20.232 -15.051  1.00  0.00     0.000 C 
BRANCH   7   8
ATOM      8  C   UNL     1     -21.745 -19.184 -13.933  1.00  0.00     0.000 C 
BRANCH   8   9
ATOM      9  C   UNL     1     -22.385 -19.646 -12.613  1.00  0.00     0.000 C 
BRANCH   9  10
ATOM     10  C   UNL     1     -21.930 -21.055 -12.196  1.00  0.00     0.000 C 
BRANCH  10  11
ATOM     11  C   UNL     1     -20.480 -21.086 -11.691  1.00  0.00     0.000 C 
BRANCH  11  12
ATOM     12  C   UNL     1     -19.954 -22.529 -11.626  1.00  0.00     0.006 C 
BRANCH  12  13
ATOM     13  C   UNL     1     -19.257 -22.952 -12.925  1.00  0.00     0.053 C 
BRANCH  13  14
ATOM     14  C   UNL     1     -20.093 -23.907 -13.720  1.00  0.00     0.041 C 
ATOM     15  O   UNL     1     -20.722 -24.831 -13.142  1.00  0.00    -0.550 OA
ATOM     16  O   UNL     1     -20.205 -23.754 -15.097  1.00  0.00    -0.550 OA
ENDBRANCH  13  14
ENDBRANCH  12  13
ENDBRANCH  11  12
ENDBRANCH  10  11
ENDBRANCH   9  10
ENDBRANCH   8   9
ENDBRANCH   7   8
ENDBRANCH   6   7
ENDBRANCH   5   6
ENDBRANCH   4   5
ENDBRANCH   3   4
ENDBRANCH   2   3
ENDBRANCH   1   2
BRANCH   1  17
ATOM     17  C   UNL     1     -19.504 -14.263 -18.258  1.00  0.00     0.000 C 
BRANCH  17  18
ATOM     18  C   UNL     1     -20.634 -13.894 -17.279  1.00  0.00     0.000 C 
BRANCH  18  19
ATOM     19  C   UNL     1     -21.771 -13.107 -17.946  1.00  0.00     0.000 C 
BRANCH  19  20
ATOM     20  C   UNL     1     -22.851 -12.733 -16.921  1.00  0.00     0.000 C 
BRANCH  20  21
ATOM     21  C   UNL     1     -22.606 -13.356 -15.535  1.00  0.00     0.000 C 
BRANCH  21  22
ATOM     22  C   UNL     1     -23.795 -13.270 -14.556  1.00  0.00    -0.000 C 
BRANCH  22  23
ATOM     23  C   UNL     1     -24.450 -14.618 -14.204  1.00  0.00    -0.000 C 
BRANCH  23  24
ATOM     24  C   UNL     1     -23.648 -15.823 -14.716  1.00  0.00    -0.000 C 
BRANCH  24  25
ATOM     25  C   UNL     1     -24.584 -16.961 -15.140  1.00  0.00    -0.000 C 
BRANCH  25  26
ATOM     26  C   UNL     1     -24.134 -17.582 -16.471  1.00  0.00    -0.000 C 
BRANCH  26  27
ATOM     27  C   UNL     1     -23.038 -16.745 -17.164  1.00  0.00    -0.000 C 
BRANCH  27  28
ATOM     28  C   UNL     1     -23.381 -16.354 -18.612  1.00  0.00    -0.000 C 
BRANCH  28  29
ATOM     29  C   UNL     1     -22.218 -16.585 -19.586  1.00  0.00    -0.003 C 
ATOM     30  C   UNL     1     -21.875 -18.068 -19.690  1.00  0.00     0.004 C 
ENDBRANCH  28  29
ENDBRANCH  27  28
ENDBRANCH  26  27
ENDBRANCH  25  26
ENDBRANCH  24  25
ENDBRANCH  23  24
ENDBRANCH  22  23
ENDBRANCH  21  22
ENDBRANCH  20  21
ENDBRANCH  19  20
ENDBRANCH  18  19
ENDBRANCH  17  18
ENDBRANCH   1  17
TORSDOF 26
ENDMDL
MODEL 2
REMARK VINA RESULT:    -4.188      4.227      7.335
REMARK INTER + INTRA:         -15.423
REMARK INTER:                 -10.256
REMARK INTRA:                  -5.166
REMARK UNBOUND:                -4.868
REMARK SMILES CCCCCCCCCCCCCCCCCCCCCCCCCCCC(=O)[O-]
REMARK SMILES IDX 15 1 16 2 17 3 18 4 19 5 20 6 21 7 22 8 23 9 24 10 25 11
REMARK SMILES IDX 26 12 27 13 28 14 29 15 30 16 14 17 13 18 12 19 11 20 10 21
REMARK SMILES IDX 9 22 8 23 7 24 6 25 5 26 4 27 3 28 2 29 1 30
REMARK H PARENT
REMARK Flexibility Score: inf
ROOT
ATOM      1  C   UNL     1     -24.029 -16.024 -14.418  1.00  0.00     0.000 C 
ENDROOT
BRANCH   1   2
ATOM      2  C   UNL     1     -25.061 -14.905 -14.181  1.00  0.00     0.000 C 
BRANCH   2   3
ATOM      3  C   UNL     1     -24.465 -13.487 -14.093  1.00  0.00     0.000 C 
BRANCH   3   4
ATOM      4  C   UNL     1     -23.090 -13.350 -14.782  1.00  0.00     0.000 C 
BRANCH   4   5
ATOM      5  C   UNL     1     -23.107 -12.336 -15.935  1.00  0.00     0.000 C 
BRANCH   5   6
ATOM      6  C   UNL     1     -22.452 -12.925 -17.191  1.00  0.00     0.000 C 
BRANCH   6   7
ATOM      7  C   UNL     1     -21.211 -13.754 -16.831  1.00  0.00     0.000 C 
BRANCH   7   8
ATOM      8  C   UNL     1     -19.995 -13.411 -17.707  1.00  0.00     0.000 C 
BRANCH   8   9
ATOM      9  C   UNL     1     -18.987 -14.570 -17.796  1.00  0.00     0.000 C 
BRANCH   9  10
ATOM     10  C   UNL     1     -19.586 -15.912 -17.345  1.00  0.00     0.000 C 
BRANCH  10  11
ATOM     11  C   UNL     1     -18.615 -17.088 -17.522  1.00  0.00     0.000 C 
BRANCH  11  12
ATOM     12  C   UNL     1     -18.746 -17.700 -18.925  1.00  0.00     0.006 C 
BRANCH  12  13
ATOM     13  C   UNL     1     -17.705 -17.140 -19.903  1.00  0.00     0.053 C 
BRANCH  13  14
ATOM     14  C   UNL     1     -16.325 -17.163 -19.321  1.00  0.00     0.041 C 
ATOM     15  O   UNL     1     -15.722 -18.257 -19.163  1.00  0.00    -0.550 OA
ATOM     16  O   UNL     1     -15.691 -15.972 -18.986  1.00  0.00    -0.550 OA
ENDBRANCH  13  14
ENDBRANCH  12  13
ENDBRANCH  11  12
ENDBRANCH  10  11
ENDBRANCH   9  10
ENDBRANCH   8   9
ENDBRANCH   7   8
ENDBRANCH   6   7
ENDBRANCH   5   6
ENDBRANCH   4   5
ENDBRANCH   3   4
ENDBRANCH   2   3
ENDBRANCH   1   2
BRANCH   1  17
ATOM     17  C   UNL     1     -24.192 -16.797 -15.744  1.00  0.00     0.000 C 
BRANCH  17  18
ATOM     18  C   UNL     1     -22.990 -16.720 -16.703  1.00  0.00     0.000 C 
BRANCH  18  19
ATOM     19  C   UNL     1     -23.343 -17.123 -18.142  1.00  0.00     0.000 C 
BRANCH  19  20
ATOM     20  C   UNL     1     -23.171 -15.936 -19.100  1.00  0.00     0.000 C 
BRANCH  20  21
ATOM     21  C   UNL     1     -21.944 -16.078 -20.019  1.00  0.00     0.000 C 
BRANCH  21  22
ATOM     22  C   UNL     1     -21.769 -14.954 -21.061  1.00  0.00    -0.000 C 
BRANCH  22  23
ATOM     23  C   UNL     1     -22.444 -13.618 -20.702  1.00  0.00    -0.000 C 
BRANCH  23  24
ATOM     24  C   UNL     1     -21.467 -12.433 -20.714  1.00  0.00    -0.000 C 
BRANCH  24  25
ATOM     25  C   UNL     1     -20.405 -12.614 -21.805  1.00  0.00    -0.000 C 
BRANCH  25  26
ATOM     26  C   UNL     1     -18.989 -12.573 -21.212  1.00  0.00    -0.000 C 
BRANCH  26  27
ATOM     27  C   UNL     1     -18.246 -13.914 -21.383  1.00  0.00    -0.000 C 
BRANCH  27  28
ATOM     28  C   UNL     1     -17.987 -14.295 -22.852  1.00  0.00    -0.000 C 
BRANCH  28  29
ATOM     29  C   UNL     1     -18.632 -15.631 -23.247  1.00  0.00    -0.003 C 
ATOM     30  C   UNL     1     -19.865 -15.409 -24.118  1.00  0.00     0.004 C 
ENDBRANCH  28  29
ENDBRANCH  27  28
ENDBRANCH  26  27
ENDBRANCH  25  26
ENDBRANCH  24  25
ENDBRANCH  23  24
ENDBRANCH  22  23
ENDBRANCH  21  22
ENDBRANCH  20  21
ENDBRANCH  19  20
ENDBRANCH  18  19
ENDBRANCH  17  18
ENDBRANCH   1  17
TORSDOF 26
ENDMDL
MODEL 3
REMARK VINA RESULT:    -4.127      2.281      5.293
REMARK INTER + INTRA:         -15.268
REMARK INTER:                 -10.498
REMARK INTRA:                  -4.770
REMARK UNBOUND:                -4.868
REMARK SMILES CCCCCCCCCCCCCCCCCCCCCCCCCCCC(=O)[O-]
REMARK SMILES IDX 15 1 16 2 17 3 18 4 19 5 20 6 21 7 22 8 23 9 24 10 25 11
REMARK SMILES IDX 26 12 27 13 28 14 29 15 30 16 14 17 13 18 12 19 11 20 10 21
REMARK SMILES IDX 9 22 8 23 7 24 6 25 5 26 4 27 3 28 2 29 1 30
REMARK H PARENT
REMARK Flexibility Score: inf
ROOT
ATOM      1  C   UNL     1     -22.992 -13.847 -18.724  1.00  0.00     0.000 C 
ENDROOT
BRANCH   1   2
ATOM      2  C   UNL     1     -22.775 -14.152 -17.229  1.00  0.00     0.000 C 
BRANCH   2   3
ATOM      3  C   UNL     1     -22.596 -12.910 -16.337  1.00  0.00     0.000 C 
BRANCH   3   4
ATOM      4  C   UNL     1     -22.895 -13.171 -14.845  1.00  0.00     0.000 C 
BRANCH   4   5
ATOM      5  C   UNL     1     -24.248 -12.593 -14.406  1.00  0.00     0.000 C 
BRANCH   5   6
ATOM      6  C   UNL     1     -25.227 -13.714 -14.033  1.00  0.00     0.000 C 
BRANCH   6   7
ATOM      7  C   UNL     1     -24.492 -15.049 -13.841  1.00  0.00     0.000 C 
BRANCH   7   8
ATOM      8  C   UNL     1     -25.266 -16.242 -14.426  1.00  0.00     0.000 C 
BRANCH   8   9
ATOM      9  C   UNL     1     -24.489 -16.959 -15.542  1.00  0.00     0.000 C 
BRANCH   9  10
ATOM     10  C   UNL     1     -23.001 -17.146 -15.201  1.00  0.00     0.000 C 
BRANCH  10  11
ATOM     11  C   UNL     1     -22.765 -18.229 -14.138  1.00  0.00     0.000 C 
BRANCH  11  12
ATOM     12  C   UNL     1     -23.030 -19.628 -14.713  1.00  0.00     0.006 C 
BRANCH  12  13
ATOM     13  C   UNL     1     -22.159 -20.703 -14.050  1.00  0.00     0.053 C 
BRANCH  13  14
ATOM     14  C   UNL     1     -20.838 -20.153 -13.606  1.00  0.00     0.041 C 
ATOM     15  O   UNL     1     -19.976 -19.809 -14.457  1.00  0.00    -0.550 OA
ATOM     16  O   UNL     1     -20.573 -19.987 -12.252  1.00  0.00    -0.550 OA
ENDBRANCH  13  14
ENDBRANCH  12  13
ENDBRANCH  11  12
ENDBRANCH  10  11
ENDBRANCH   9  10
ENDBRANCH   8   9
ENDBRANCH   7   8
ENDBRANCH   6   7
ENDBRANCH   5   6
ENDBRANCH   4   5
ENDBRANCH   3   4
ENDBRANCH   2   3
ENDBRANCH   1   2
BRANCH   1  17
ATOM     17  C   UNL     1     -22.583 -12.427 -19.170  1.00  0.00     0.000 C 
BRANCH  17  18
ATOM     18  C   UNL     1     -21.414 -12.362 -20.171  1.00  0.00     0.000 C 
BRANCH  18  19
ATOM     19  C   UNL     1     -20.068 -12.051 -19.502  1.00  0.00     0.000 C 
BRANCH  19  20
ATOM     20  C   UNL     1     -19.247 -13.332 -19.304  1.00  0.00     0.000 C 
BRANCH  20  21
ATOM     21  C   UNL     1     -19.037 -13.690 -17.822  1.00  0.00     0.000 C 
BRANCH  21  22
ATOM     22  C   UNL     1     -19.287 -15.170 -17.460  1.00  0.00    -0.000 C 
BRANCH  22  23
ATOM     23  C   UNL     1     -19.623 -16.086 -18.651  1.00  0.00    -0.000 C 
BRANCH  23  24
ATOM     24  C   UNL     1     -20.854 -16.967 -18.397  1.00  0.00    -0.000 C 
BRANCH  24  25
ATOM     25  C   UNL     1     -21.662 -17.159 -19.685  1.00  0.00    -0.000 C 
BRANCH  25  26
ATOM     26  C   UNL     1     -20.918 -16.580 -20.898  1.00  0.00    -0.000 C 
BRANCH  26  27
ATOM     27  C   UNL     1     -21.841 -15.730 -21.796  1.00  0.00    -0.000 C 
BRANCH  27  28
ATOM     28  C   UNL     1     -21.146 -15.183 -23.056  1.00  0.00    -0.000 C 
BRANCH  28  29
ATOM     29  C   UNL     1     -19.830 -14.456 -22.746  1.00  0.00    -0.003 C 
ATOM     30  C   UNL     1     -19.635 -13.257 -23.667  1.00  0.00     0.004 C 
ENDBRANCH  28  29
ENDBRANCH  27  28
ENDBRANCH  26  27
ENDBRANCH  25  26
ENDBRANCH  24  25
ENDBRANCH  23  24
ENDBRANCH  22  23
ENDBRANCH  21  22
ENDBRANCH  20  21
ENDBRANCH  19  20
ENDBRANCH  18  19
ENDBRANCH  17  18
ENDBRANCH   1  17
TORSDOF 26
ENDMDL
MODEL 4
REMARK VINA RESULT:    -4.087      3.721      7.321
REMARK INTER + INTRA:         -15.166
REMARK INTER:                 -10.383
REMARK INTRA:                  -4.783
REMARK UNBOUND:                -4.868
REMARK SMILES CCCCCCCCCCCCCCCCCCCCCCCCCCCC(=O)[O-]
REMARK SMILES IDX 15 1 16 2 17 3 18 4 19 5 20 6 21 7 22 8 23 9 24 10 25 11
REMARK SMILES IDX 26 12 27 13 28 14 29 15 30 16 14 17 13 18 12 19 11 20 10 21
REMARK SMILES IDX 9 22 8 23 7 24 6 25 5 26 4 27 3 28 2 29 1 30
REMARK H PARENT
REMARK Flexibility Score: inf
ROOT
ATOM      1  C   UNL     1     -22.528 -13.002 -20.365  1.00  0.00     0.000 C 
ENDROOT
BRANCH   1   2
ATOM      2  C   UNL     1     -22.503 -14.459 -20.868  1.00  0.00     0.000 C 
BRANCH   2   3
ATOM      3  C   UNL     1     -22.659 -15.524 -19.766  1.00  0.00     0.000 C 
BRANCH   3   4
ATOM      4  C   UNL     1     -22.939 -14.931 -18.368  1.00  0.00     0.000 C 
BRANCH   4   5
ATOM      5  C   UNL     1     -21.726 -15.030 -17.433  1.00  0.00     0.000 C 
BRANCH   5   6
ATOM      6  C   UNL     1     -21.570 -13.750 -16.601  1.00  0.00     0.000 C 
BRANCH   6   7
ATOM      7  C   UNL     1     -22.608 -12.695 -17.011  1.00  0.00     0.000 C 
BRANCH   7   8
ATOM      8  C   UNL     1     -23.361 -12.106 -15.807  1.00  0.00     0.000 C 
BRANCH   8   9
ATOM      9  C   UNL     1     -23.376 -13.056 -14.598  1.00  0.00     0.000 C 
BRANCH   9  10
ATOM     10  C   UNL     1     -24.799 -13.362 -14.103  1.00  0.00     0.000 C 
BRANCH  10  11
ATOM     11  C   UNL     1     -25.078 -14.868 -13.987  1.00  0.00     0.000 C 
BRANCH  11  12
ATOM     12  C   UNL     1     -23.906 -15.687 -14.547  1.00  0.00     0.006 C 
BRANCH  12  13
ATOM     13  C   UNL     1     -24.380 -16.876 -15.394  1.00  0.00     0.053 C 
BRANCH  13  14
ATOM     14  C   UNL     1     -24.045 -18.186 -14.751  1.00  0.00     0.041 C 
ATOM     15  O   UNL     1     -23.131 -18.253 -13.887  1.00  0.00    -0.550 OA
ATOM     16  O   UNL     1     -24.766 -19.328 -15.079  1.00  0.00    -0.550 OA
ENDBRANCH  13  14
ENDBRANCH  12  13
ENDBRANCH  11  12
ENDBRANCH  10  11
ENDBRANCH   9  10
ENDBRANCH   8   9
ENDBRANCH   7   8
ENDBRANCH   6   7
ENDBRANCH   5   6
ENDBRANCH   4   5
ENDBRANCH   3   4
ENDBRANCH   2   3
ENDBRANCH   1   2
BRANCH   1  17
ATOM     17  C   UNL     1     -21.274 -12.169 -20.702  1.00  0.00     0.000 C 
BRANCH  17  18
ATOM     18  C   UNL     1     -20.131 -12.945 -21.382  1.00  0.00     0.000 C 
BRANCH  18  19
ATOM     19  C   UNL     1     -19.854 -12.472 -22.816  1.00  0.00     0.000 C 
BRANCH  19  20
ATOM     20  C   UNL     1     -18.669 -13.235 -23.424  1.00  0.00     0.000 C 
BRANCH  20  21
ATOM     21  C   UNL     1     -18.929 -13.701 -24.867  1.00  0.00     0.000 C 
BRANCH  21  22
ATOM     22  C   UNL     1     -20.412 -13.924 -25.230  1.00  0.00    -0.000 C 
BRANCH  22  23
ATOM     23  C   UNL     1     -20.846 -15.398 -25.328  1.00  0.00    -0.000 C 
BRANCH  23  24
ATOM     24  C   UNL     1     -21.301 -15.977 -23.981  1.00  0.00    -0.000 C 
BRANCH  24  25
ATOM     25  C   UNL     1     -20.223 -16.892 -23.389  1.00  0.00    -0.000 C 
BRANCH  25  26
ATOM     26  C   UNL     1     -19.787 -16.409 -21.998  1.00  0.00    -0.000 C 
BRANCH  26  27
ATOM     27  C   UNL     1     -18.279 -16.622 -21.752  1.00  0.00    -0.000 C 
BRANCH  27  28
ATOM     28  C   UNL     1     -17.695 -15.711 -20.658  1.00  0.00    -0.000 C 
BRANCH  28  29
ATOM     29  C   UNL     1     -18.500 -15.755 -19.351  1.00  0.00    -0.003 C 
ATOM     30  C   UNL     1     -18.405 -14.430 -18.603  1.00  0.00     0.004 C 
ENDBRANCH  28  29
ENDBRANCH  27  28
ENDBRANCH  26  27
ENDBRANCH  25  26
ENDBRANCH  24  25
ENDBRANCH  23  24
ENDBRANCH  22  23
ENDBRANCH  21  22
ENDBRANCH  20  21
ENDBRANCH  19  20
ENDBRANCH  18  19
ENDBRANCH  17  18
ENDBRANCH   1  17
TORSDOF 26
ENDMDL
MODEL 5
REMARK VINA RESULT:    -4.058      1.988      4.374
REMARK INTER + INTRA:         -15.094
REMARK INTER:                 -10.407
REMARK INTRA:                  -4.687
REMARK UNBOUND:                -4.868
REMARK SMILES CCCCCCCCCCCCCCCCCCCCCCCCCCCC(=O)[O-]
REMARK SMILES IDX 15 1 16 2 17 3 18 4 19 5 20 6 21 7 22 8 23 9 24 10 25 11
REMARK SMILES IDX 26 12 27 13 28 14 29 15 30 16 14 17 13 18 12 19 11 20 10 21
REMARK SMILES IDX 9 22 8 23 7 24 6 25 5 26 4 27 3 28 2 29 1 30
REMARK H PARENT
REMARK Flexibility Score: inf
ROOT
ATOM      1  C   UNL     1     -22.508 -12.000 -19.177  1.00  0.00     0.000 C 
ENDROOT
BRANCH   1   2
ATOM      2  C   UNL     1     -21.471 -12.566 -20.166  1.00  0.00     0.000 C 
BRANCH   2   3
ATOM      3  C   UNL     1     -20.607 -13.712 -19.608  1.00  0.00     0.000 C 
BRANCH   3   4
ATOM      4  C   UNL     1     -19.444 -13.230 -18.713  1.00  0.00     0.000 C 
BRANCH   4   5
ATOM      5  C   UNL     1     -19.020 -14.285 -17.681  1.00  0.00     0.000 C 
BRANCH   5   6
ATOM      6  C   UNL     1     -19.637 -15.650 -18.009  1.00  0.00     0.000 C 
BRANCH   6   7
ATOM      7  C   UNL     1     -18.956 -16.771 -17.209  1.00  0.00     0.000 C 
BRANCH   7   8
ATOM      8  C   UNL     1     -19.517 -18.163 -17.544  1.00  0.00     0.000 C 
BRANCH   8   9
ATOM      9  C   UNL     1     -19.207 -19.202 -16.453  1.00  0.00     0.000 C 
BRANCH   9  10
ATOM     10  C   UNL     1     -19.871 -18.864 -15.108  1.00  0.00     0.000 C 
BRANCH  10  11
ATOM     11  C   UNL     1     -21.098 -19.740 -14.813  1.00  0.00     0.000 C 
BRANCH  11  12
ATOM     12  C   UNL     1     -21.853 -19.226 -13.578  1.00  0.00     0.006 C 
BRANCH  12  13
ATOM     13  C   UNL     1     -22.014 -20.309 -12.504  1.00  0.00     0.053 C 
BRANCH  13  14
ATOM     14  C   UNL     1     -20.699 -20.697 -11.901  1.00  0.00     0.041 C 
ATOM     15  O   UNL     1     -20.179 -21.810 -12.176  1.00  0.00    -0.550 OA
ATOM     16  O   UNL     1     -20.029 -19.812 -11.065  1.00  0.00    -0.550 OA
ENDBRANCH  13  14
ENDBRANCH  12  13
ENDBRANCH  11  12
ENDBRANCH  10  11
ENDBRANCH   9  10
ENDBRANCH   8   9
ENDBRANCH   7   8
ENDBRANCH   6   7
ENDBRANCH   5   6
ENDBRANCH   4   5
ENDBRANCH   3   4
ENDBRANCH   2   3
ENDBRANCH   1   2
BRANCH   1  17
ATOM     17  C   UNL     1     -23.006 -12.994 -18.107  1.00  0.00     0.000 C 
BRANCH  17  18
ATOM     18  C   UNL     1     -22.790 -12.553 -16.647  1.00  0.00     0.000 C 
BRANCH  18  19
ATOM     19  C   UNL     1     -22.280 -13.688 -15.747  1.00  0.00     0.000 C 
BRANCH  19  20
ATOM     20  C   UNL     1     -23.382 -14.162 -14.790  1.00  0.00     0.000 C 
BRANCH  20  21
ATOM     21  C   UNL     1     -23.656 -15.673 -14.888  1.00  0.00     0.000 C 
BRANCH  21  22
ATOM     22  C   UNL     1     -22.804 -16.431 -15.928  1.00  0.00    -0.000 C 
BRANCH  22  23
ATOM     23  C   UNL     1     -23.604 -17.151 -17.029  1.00  0.00    -0.000 C 
BRANCH  23  24
ATOM     24  C   UNL     1     -22.887 -17.147 -18.387  1.00  0.00    -0.000 C 
BRANCH  24  25
ATOM     25  C   UNL     1     -23.647 -16.286 -19.402  1.00  0.00    -0.000 C 
BRANCH  25  26
ATOM     26  C   UNL     1     -23.139 -16.536 -20.830  1.00  0.00    -0.000 C 
BRANCH  26  27
ATOM     27  C   UNL     1     -21.676 -17.028 -20.851  1.00  0.00    -0.000 C 
BRANCH  27  28
ATOM     28  C   UNL     1     -21.031 -16.989 -22.248  1.00  0.00    -0.000 C 
BRANCH  28  29
ATOM     29  C   UNL     1     -21.205 -15.635 -22.950  1.00  0.00    -0.003 C 
ATOM     30  C   UNL     1     -21.155 -15.793 -24.467  1.00  0.00     0.004 C 
ENDBRANCH  28  29
ENDBRANCH  27  28
ENDBRANCH  26  27
ENDBRANCH  25  26
ENDBRANCH  24  25
ENDBRANCH  23  24
ENDBRANCH  22  23
ENDBRANCH  21  22
ENDBRANCH  20  21
ENDBRANCH  19  20
ENDBRANCH  18  19
ENDBRANCH  17  18
ENDBRANCH   1  17
TORSDOF 26
ENDMDL
MODEL 6
REMARK VINA RESULT:    -4.057      3.991      7.613
REMARK INTER + INTRA:         -15.092
REMARK INTER:                 -10.727
REMARK INTRA:                  -4.366
REMARK UNBOUND:                -4.868
REMARK SMILES CCCCCCCCCCCCCCCCCCCCCCCCCCCC(=O)[O-]
REMARK SMILES IDX 15 1 16 2 17 3 18 4 19 5 20 6 21 7 22 8 23 9 24 10 25 11
REMARK SMILES IDX 26 12 27 13 28 14 29 15 30 16 14 17 13 18 12 19 11 20 10 21
REMARK SMILES IDX 9 22 8 23 7 24 6 25 5 26 4 27 3 28 2 29 1 30
REMARK H PARENT
REMARK Flexibility Score: inf
ROOT
ATOM      1  C   UNL     1     -22.977 -14.023 -19.106  1.00  0.00     0.000 C 
ENDROOT
BRANCH   1   2
ATOM      2  C   UNL     1     -22.599 -12.651 -19.698  1.00  0.00     0.000 C 
BRANCH   2   3
ATOM      3  C   UNL     1     -21.185 -12.578 -20.305  1.00  0.00     0.000 C 
BRANCH   3   4
ATOM      4  C   UNL     1     -20.110 -12.085 -19.312  1.00  0.00     0.000 C 
BRANCH   4   5
ATOM      5  C   UNL     1     -19.028 -13.141 -19.044  1.00  0.00     0.000 C 
BRANCH   5   6
ATOM      6  C   UNL     1     -19.231 -13.796 -17.672  1.00  0.00     0.000 C 
BRANCH   6   7
ATOM      7  C   UNL     1     -18.936 -15.302 -17.729  1.00  0.00     0.000 C 
BRANCH   7   8
ATOM      8  C   UNL     1     -20.174 -16.161 -17.425  1.00  0.00     0.000 C 
BRANCH   8   9
ATOM      9  C   UNL     1     -20.699 -16.900 -18.668  1.00  0.00     0.000 C 
BRANCH   9  10
ATOM     10  C   UNL     1     -19.906 -16.556 -19.940  1.00  0.00     0.000 C 
BRANCH  10  11
ATOM     11  C   UNL     1     -20.808 -16.118 -21.103  1.00  0.00     0.000 C 
BRANCH  11  12
ATOM     12  C   UNL     1     -20.041 -16.153 -22.434  1.00  0.00     0.006 C 
BRANCH  12  13
ATOM     13  C   UNL     1     -20.131 -14.823 -23.192  1.00  0.00     0.053 C 
BRANCH  13  14
ATOM     14  C   UNL     1     -20.289 -15.031 -24.666  1.00  0.00     0.041 C 
ATOM     15  O   UNL     1     -20.693 -14.091 -25.400  1.00  0.00    -0.550 OA
ATOM     16  O   UNL     1     -19.957 -16.254 -25.236  1.00  0.00    -0.550 OA
ENDBRANCH  13  14
ENDBRANCH  12  13
ENDBRANCH  11  12
ENDBRANCH  10  11
ENDBRANCH   9  10
ENDBRANCH   8   9
ENDBRANCH   7   8
ENDBRANCH   6   7
ENDBRANCH   5   6
ENDBRANCH   4   5
ENDBRANCH   3   4
ENDBRANCH   2   3
ENDBRANCH   1   2
BRANCH   1  17
ATOM     17  C   UNL     1     -22.968 -14.098 -17.565  1.00  0.00     0.000 C 
BRANCH  17  18
ATOM     18  C   UNL     1     -22.742 -12.758 -16.841  1.00  0.00     0.000 C 
BRANCH  18  19
ATOM     19  C   UNL     1     -22.740 -12.895 -15.312  1.00  0.00     0.000 C 
BRANCH  19  20
ATOM     20  C   UNL     1     -24.023 -12.306 -14.709  1.00  0.00     0.000 C 
BRANCH  20  21
ATOM     21  C   UNL     1     -24.896 -13.359 -14.005  1.00  0.00     0.000 C 
BRANCH  21  22
ATOM     22  C   UNL     1     -24.326 -14.793 -14.003  1.00  0.00    -0.000 C 
BRANCH  22  23
ATOM     23  C   UNL     1     -25.362 -15.908 -14.236  1.00  0.00    -0.000 C 
BRANCH  23  24
ATOM     24  C   UNL     1     -24.792 -17.096 -15.024  1.00  0.00    -0.000 C 
BRANCH  24  25
ATOM     25  C   UNL     1     -23.271 -16.970 -15.176  1.00  0.00    -0.000 C 
BRANCH  25  26
ATOM     26  C   UNL     1     -22.660 -18.267 -15.727  1.00  0.00    -0.000 C 
BRANCH  26  27
ATOM     27  C   UNL     1     -21.702 -18.934 -14.718  1.00  0.00    -0.000 C 
BRANCH  27  28
ATOM     28  C   UNL     1     -22.225 -18.928 -13.270  1.00  0.00    -0.000 C 
BRANCH  28  29
ATOM     29  C   UNL     1     -21.445 -19.875 -12.348  1.00  0.00    -0.003 C 
ATOM     30  C   UNL     1     -20.621 -20.872 -13.155  1.00  0.00     0.004 C 
ENDBRANCH  28  29
ENDBRANCH  27  28
ENDBRANCH  26  27
ENDBRANCH  25  26
ENDBRANCH  24  25
ENDBRANCH  23  24
ENDBRANCH  22  23
ENDBRANCH  21  22
ENDBRANCH  20  21
ENDBRANCH  19  20
ENDBRANCH  18  19
ENDBRANCH  17  18
ENDBRANCH   1  17
TORSDOF 26
ENDMDL
MODEL 7
REMARK VINA RESULT:    -4.051      2.887      6.528
REMARK INTER + INTRA:         -15.078
REMARK INTER:                  -9.877
REMARK INTRA:                  -5.201
REMARK UNBOUND:                -4.868
REMARK SMILES CCCCCCCCCCCCCCCCCCCCCCCCCCCC(=O)[O-]
REMARK SMILES IDX 15 1 16 2 17 3 18 4 19 5 20 6 21 7 22 8 23 9 24 10 25 11
REMARK SMILES IDX 26 12 27 13 28 14 29 15 30 16 14 17 13 18 12 19 11 20 10 21
REMARK SMILES IDX 9 22 8 23 7 24 6 25 5 26 4 27 3 28 2 29 1 30
REMARK H PARENT
REMARK Flexibility Score: inf
ROOT
ATOM      1  C   UNL     1     -21.953 -13.727 -20.422  1.00  0.00     0.000 C 
ENDROOT
BRANCH   1   2
ATOM      2  C   UNL     1     -22.985 -13.809 -19.280  1.00  0.00     0.000 C 
BRANCH   2   3
ATOM      3  C   UNL     1     -22.927 -12.644 -18.275  1.00  0.00     0.000 C 
BRANCH   3   4
ATOM      4  C   UNL     1     -22.554 -13.081 -16.842  1.00  0.00     0.000 C 
BRANCH   4   5
ATOM      5  C   UNL     1     -23.320 -12.295 -15.768  1.00  0.00     0.000 C 
BRANCH   5   6
ATOM      6  C   UNL     1     -23.369 -13.076 -14.449  1.00  0.00     0.000 C 
BRANCH   6   7
ATOM      7  C   UNL     1     -24.803 -13.518 -14.121  1.00  0.00     0.000 C 
BRANCH   7   8
ATOM      8  C   UNL     1     -24.927 -15.040 -13.940  1.00  0.00     0.000 C 
BRANCH   8   9
ATOM      9  C   UNL     1     -23.731 -15.804 -14.533  1.00  0.00     0.000 C 
BRANCH   9  10
ATOM     10  C   UNL     1     -24.099 -16.580 -15.809  1.00  0.00     0.000 C 
BRANCH  10  11
ATOM     11  C   UNL     1     -22.926 -16.697 -16.794  1.00  0.00     0.000 C 
BRANCH  11  12
ATOM     12  C   UNL     1     -23.373 -17.373 -18.099  1.00  0.00     0.006 C 
BRANCH  12  13
ATOM     13  C   UNL     1     -22.224 -17.507 -19.107  1.00  0.00     0.053 C 
BRANCH  13  14
ATOM     14  C   UNL     1     -22.718 -17.899 -20.465  1.00  0.00     0.041 C 
ATOM     15  O   UNL     1     -22.634 -19.096 -20.849  1.00  0.00    -0.550 OA
ATOM     16  O   UNL     1     -23.305 -16.951 -21.294  1.00  0.00    -0.550 OA
ENDBRANCH  13  14
ENDBRANCH  12  13
ENDBRANCH  11  12
ENDBRANCH  10  11
ENDBRANCH   9  10
ENDBRANCH   8   9
ENDBRANCH   7   8
ENDBRANCH   6   7
ENDBRANCH   5   6
ENDBRANCH   4   5
ENDBRANCH   3   4
ENDBRANCH   2   3
ENDBRANCH   1   2
BRANCH   1  17
ATOM     17  C   UNL     1     -20.595 -14.397 -20.130  1.00  0.00     0.000 C 
BRANCH  17  18
ATOM     18  C   UNL     1     -19.499 -13.459 -19.592  1.00  0.00     0.000 C 
BRANCH  18  19
ATOM     19  C   UNL     1     -19.051 -13.814 -18.167  1.00  0.00     0.000 C 
BRANCH  19  20
ATOM     20  C   UNL     1     -19.705 -15.121 -17.699  1.00  0.00     0.000 C 
BRANCH  20  21
ATOM     21  C   UNL     1     -18.773 -16.340 -17.826  1.00  0.00     0.000 C 
BRANCH  21  22
ATOM     22  C   UNL     1     -18.791 -17.310 -16.627  1.00  0.00    -0.000 C 
BRANCH  22  23
ATOM     23  C   UNL     1     -19.662 -18.566 -16.815  1.00  0.00    -0.000 C 
BRANCH  23  24
ATOM     24  C   UNL     1     -20.237 -19.096 -15.494  1.00  0.00    -0.000 C 
BRANCH  24  25
ATOM     25  C   UNL     1     -21.494 -19.937 -15.744  1.00  0.00    -0.000 C 
BRANCH  25  26
ATOM     26  C   UNL     1     -22.220 -20.254 -14.429  1.00  0.00    -0.000 C 
BRANCH  26  27
ATOM     27  C   UNL     1     -22.340 -19.016 -13.516  1.00  0.00    -0.000 C 
BRANCH  27  28
ATOM     28  C   UNL     1     -23.577 -19.039 -12.600  1.00  0.00    -0.000 C 
BRANCH  28  29
ATOM     29  C   UNL     1     -24.689 -19.961 -13.120  1.00  0.00    -0.003 C 
ATOM     30  C   UNL     1     -25.709 -19.180 -13.942  1.00  0.00     0.004 C 
ENDBRANCH  28  29
ENDBRANCH  27  28
ENDBRANCH  26  27
ENDBRANCH  25  26
ENDBRANCH  24  25
ENDBRANCH  23  24
ENDBRANCH  22  23
ENDBRANCH  21  22
ENDBRANCH  20  21
ENDBRANCH  19  20
ENDBRANCH  18  19
ENDBRANCH  17  18
ENDBRANCH   1  17
TORSDOF 26
ENDMDL
MODEL 8
REMARK VINA RESULT:    -4.038      2.053      4.628
REMARK INTER + INTRA:         -15.043
REMARK INTER:                 -10.565
REMARK INTRA:                  -4.478
REMARK UNBOUND:                -4.868
REMARK SMILES CCCCCCCCCCCCCCCCCCCCCCCCCCCC(=O)[O-]
REMARK SMILES IDX 15 1 16 2 17 3 18 4 19 5 20 6 21 7 22 8 23 9 24 10 25 11
REMARK SMILES IDX 26 12 27 13 28 14 29 15 30 16 14 17 13 18 12 19 11 20 10 21
REMARK SMILES IDX 9 22 8 23 7 24 6 25 5 26 4 27 3 28 2 29 1 30
REMARK H PARENT
REMARK Flexibility Score: inf
ROOT
ATOM      1  C   UNL     1     -23.003 -13.019 -17.781  1.00  0.00     0.000 C 
ENDROOT
BRANCH   1   2
ATOM      2  C   UNL     1     -23.009 -12.304 -16.415  1.00  0.00     0.000 C 
BRANCH   2   3
ATOM      3  C   UNL     1     -22.281 -13.061 -15.288  1.00  0.00     0.000 C 
BRANCH   3   4
ATOM      4  C   UNL     1     -23.207 -13.982 -14.464  1.00  0.00     0.000 C 
BRANCH   4   5
ATOM      5  C   UNL     1     -24.510 -13.286 -14.047  1.00  0.00     0.000 C 
BRANCH   5   6
ATOM      6  C   UNL     1     -25.678 -14.280 -14.021  1.00  0.00     0.000 C 
BRANCH   6   7
ATOM      7  C   UNL     1     -25.193 -15.693 -13.661  1.00  0.00     0.000 C 
BRANCH   7   8
ATOM      8  C   UNL     1     -26.332 -16.603 -13.174  1.00  0.00     0.000 C 
BRANCH   8   9
ATOM      9  C   UNL     1     -25.900 -17.521 -12.018  1.00  0.00     0.000 C 
BRANCH   9  10
ATOM     10  C   UNL     1     -24.577 -18.251 -12.305  1.00  0.00     0.000 C 
BRANCH  10  11
ATOM     11  C   UNL     1     -24.729 -19.371 -13.346  1.00  0.00     0.000 C 
BRANCH  11  12
ATOM     12  C   UNL     1     -23.364 -19.760 -13.934  1.00  0.00     0.006 C 
BRANCH  12  13
ATOM     13  C   UNL     1     -22.839 -21.081 -13.358  1.00  0.00     0.053 C 
BRANCH  13  14
ATOM     14  C   UNL     1     -21.806 -20.855 -12.298  1.00  0.00     0.041 C 
ATOM     15  O   UNL     1     -21.217 -19.745 -12.213  1.00  0.00    -0.550 OA
ATOM     16  O   UNL     1     -21.518 -21.859 -11.381  1.00  0.00    -0.550 OA
ENDBRANCH  13  14
ENDBRANCH  12  13
ENDBRANCH  11  12
ENDBRANCH  10  11
ENDBRANCH   9  10
ENDBRANCH   8   9
ENDBRANCH   7   8
ENDBRANCH   6   7
ENDBRANCH   5   6
ENDBRANCH   4   5
ENDBRANCH   3   4
ENDBRANCH   2   3
ENDBRANCH   1   2
BRANCH   1  17
ATOM     17  C   UNL     1     -22.446 -12.187 -18.955  1.00  0.00     0.000 C 
BRANCH  17  18
ATOM     18  C   UNL     1     -20.937 -11.889 -18.894  1.00  0.00     0.000 C 
BRANCH  18  19
ATOM     19  C   UNL     1     -20.081 -12.993 -19.530  1.00  0.00     0.000 C 
BRANCH  19  20
ATOM     20  C   UNL     1     -18.944 -13.413 -18.589  1.00  0.00     0.000 C 
BRANCH  20  21
ATOM     21  C   UNL     1     -19.434 -14.225 -17.377  1.00  0.00     0.000 C 
BRANCH  21  22
ATOM     22  C   UNL     1     -20.372 -15.404 -17.709  1.00  0.00    -0.000 C 
BRANCH  22  23
ATOM     23  C   UNL     1     -20.025 -16.731 -17.010  1.00  0.00    -0.000 C 
BRANCH  23  24
ATOM     24  C   UNL     1     -21.243 -17.651 -16.840  1.00  0.00    -0.000 C 
BRANCH  24  25
ATOM     25  C   UNL     1     -22.358 -16.942 -16.063  1.00  0.00    -0.000 C 
BRANCH  25  26
ATOM     26  C   UNL     1     -23.616 -16.774 -16.928  1.00  0.00    -0.000 C 
BRANCH  26  27
ATOM     27  C   UNL     1     -23.781 -17.922 -17.945  1.00  0.00    -0.000 C 
BRANCH  27  28
ATOM     28  C   UNL     1     -23.439 -17.522 -19.391  1.00  0.00    -0.000 C 
BRANCH  28  29
ATOM     29  C   UNL     1     -23.547 -16.010 -19.635  1.00  0.00    -0.003 C 
ATOM     30  C   UNL     1     -22.607 -15.565 -20.750  1.00  0.00     0.004 C 
ENDBRANCH  28  29
ENDBRANCH  27  28
ENDBRANCH  26  27
ENDBRANCH  25  26
ENDBRANCH  24  25
ENDBRANCH  23  24
ENDBRANCH  22  23
ENDBRANCH  21  22
ENDBRANCH  20  21
ENDBRANCH  19  20
ENDBRANCH  18  19
ENDBRANCH  17  18
ENDBRANCH   1  17
TORSDOF 26
ENDMDL
MODEL 9
REMARK VINA RESULT:    -4.035      5.080      7.557
REMARK INTER + INTRA:         -15.036
REMARK INTER:                  -9.971
REMARK INTRA:                  -5.065
REMARK UNBOUND:                -4.868
REMARK SMILES CCCCCCCCCCCCCCCCCCCCCCCCCCCC(=O)[O-]
REMARK SMILES IDX 15 1 16 2 17 3 18 4 19 5 20 6 21 7 22 8 23 9 24 10 25 11
REMARK SMILES IDX 26 12 27 13 28 14 29 15 30 16 14 17 13 18 12 19 11 20 10 21
REMARK SMILES IDX 9 22 8 23 7 24 6 25 5 26 4 27 3 28 2 29 1 30
REMARK H PARENT
REMARK Flexibility Score: inf
ROOT
ATOM      1  C   UNL     1     -22.624 -12.402 -19.076  1.00  0.00     0.000 C 
ENDROOT
BRANCH   1   2
ATOM      2  C   UNL     1     -22.194 -13.041 -20.411  1.00  0.00     0.000 C 
BRANCH   2   3
ATOM      3  C   UNL     1     -20.816 -12.588 -20.928  1.00  0.00     0.000 C 
BRANCH   3   4
ATOM      4  C   UNL     1     -19.808 -12.265 -19.803  1.00  0.00     0.000 C 
BRANCH   4   5
ATOM      5  C   UNL     1     -18.872 -13.442 -19.497  1.00  0.00     0.000 C 
BRANCH   5   6
ATOM      6  C   UNL     1     -18.914 -13.801 -18.006  1.00  0.00     0.000 C 
BRANCH   6   7
ATOM      7  C   UNL     1     -19.767 -15.055 -17.763  1.00  0.00     0.000 C 
BRANCH   7   8
ATOM      8  C   UNL     1     -19.554 -16.134 -18.838  1.00  0.00     0.000 C 
BRANCH   8   9
ATOM      9  C   UNL     1     -20.824 -16.404 -19.662  1.00  0.00     0.000 C 
BRANCH   9  10
ATOM     10  C   UNL     1     -20.559 -16.399 -21.176  1.00  0.00     0.000 C 
BRANCH  10  11
ATOM     11  C   UNL     1     -21.848 -16.488 -22.007  1.00  0.00     0.000 C 
BRANCH  11  12
ATOM     12  C   UNL     1     -21.755 -15.602 -23.259  1.00  0.00     0.006 C 
BRANCH  12  13
ATOM     13  C   UNL     1     -20.328 -15.096 -23.507  1.00  0.00     0.053 C 
BRANCH  13  14
ATOM     14  C   UNL     1     -19.901 -15.311 -24.927  1.00  0.00     0.041 C 
ATOM     15  O   UNL     1     -18.856 -14.762 -25.364  1.00  0.00    -0.550 OA
ATOM     16  O   UNL     1     -20.638 -16.147 -25.757  1.00  0.00    -0.550 OA
ENDBRANCH  13  14
ENDBRANCH  12  13
ENDBRANCH  11  12
ENDBRANCH  10  11
ENDBRANCH   9  10
ENDBRANCH   8   9
ENDBRANCH   7   8
ENDBRANCH   6   7
ENDBRANCH   5   6
ENDBRANCH   4   5
ENDBRANCH   3   4
ENDBRANCH   2   3
ENDBRANCH   1   2
BRANCH   1  17
ATOM     17  C   UNL     1     -22.994 -13.400 -17.959  1.00  0.00     0.000 C 
BRANCH  17  18
ATOM     18  C   UNL     1     -22.466 -13.046 -16.557  1.00  0.00     0.000 C 
BRANCH  18  19
ATOM     19  C   UNL     1     -23.365 -12.048 -15.812  1.00  0.00     0.000 C 
BRANCH  19  20
ATOM     20  C   UNL     1     -23.923 -12.671 -14.525  1.00  0.00     0.000 C 
BRANCH  20  21
ATOM     21  C   UNL     1     -23.517 -14.145 -14.344  1.00  0.00     0.000 C 
BRANCH  21  22
ATOM     22  C   UNL     1     -24.688 -15.142 -14.229  1.00  0.00    -0.000 C 
BRANCH  22  23
ATOM     23  C   UNL     1     -24.509 -16.454 -15.013  1.00  0.00    -0.000 C 
BRANCH  23  24
ATOM     24  C   UNL     1     -23.109 -16.595 -15.628  1.00  0.00    -0.000 C 
BRANCH  24  25
ATOM     25  C   UNL     1     -23.201 -16.959 -17.115  1.00  0.00    -0.000 C 
BRANCH  25  26
ATOM     26  C   UNL     1     -23.482 -18.457 -17.302  1.00  0.00    -0.000 C 
BRANCH  26  27
ATOM     27  C   UNL     1     -24.518 -18.721 -18.415  1.00  0.00    -0.000 C 
BRANCH  27  28
ATOM     28  C   UNL     1     -23.932 -18.645 -19.837  1.00  0.00    -0.000 C 
BRANCH  28  29
ATOM     29  C   UNL     1     -23.377 -19.990 -20.327  1.00  0.00    -0.003 C 
ATOM     30  C   UNL     1     -21.853 -19.963 -20.396  1.00  0.00     0.004 C 
ENDBRANCH  28  29
ENDBRANCH  27  28
ENDBRANCH  26  27
ENDBRANCH  25  26
ENDBRANCH  24  25
ENDBRANCH  23  24
ENDBRANCH  22  23
ENDBRANCH  21  22
ENDBRANCH  20  21
ENDBRANCH  19  20
ENDBRANCH  18  19
ENDBRANCH  17  18
ENDBRANCH   1  17
TORSDOF 26
ENDMDL
