MODEL 1
REMARK VINA RESULT:    -4.032      0.000      0.000
REMARK INTER + INTRA:          -6.285
REMARK INTER:                  -5.564
REMARK INTRA:                  -0.721
REMARK UNBOUND:                -0.721
REMARK SMILES OC[C@@H](O)[C@@H](O)[C@@H](O)CO
REMARK SMILES IDX 5 1 3 2 2 3 1 4 4 6 7 8 9 9 10 10 8 12 6 14
REMARK H PARENT 1 5 4 7 10 11 8 13 6 15
REMARK Flexibility Score: inf
ROOT
ATOM      1  C   UNL     1      22.766  23.405  23.693  1.00  0.00     0.176 C 
ENDROOT
BRANCH   1   2
ATOM      2  C   UNL     1      23.999  24.233  23.229  1.00  0.00     0.171 C 
BRANCH   2   3
ATOM      3  C   UNL     1      24.743  24.865  24.420  1.00  0.00     0.190 C 
BRANCH   3   4
ATOM      4  O   UNL     1      24.208  26.131  24.694  1.00  0.00    -0.394 OA
ATOM      5  H   UNL     1      24.738  26.497  25.449  1.00  0.00     0.210 HD
ENDBRANCH   3   4
ENDBRANCH   2   3
BRANCH   2   6
ATOM      6  O   UNL     1      24.890  23.448  22.480  1.00  0.00    -0.388 OA
ATOM      7  H   UNL     1      24.898  22.538  22.878  1.00  0.00     0.211 HD
ENDBRANCH   2   6
ENDBRANCH   1   2
BRANCH   1   8
ATOM      8  C   UNL     1      21.794  23.026  22.537  1.00  0.00     0.171 C 
BRANCH   8   9
ATOM      9  C   UNL     1      21.951  21.582  22.028  1.00  0.00     0.190 C 
BRANCH   9  10
ATOM     10  O   UNL     1      23.039  21.463  21.151  1.00  0.00    -0.394 OA
ATOM     11  H   UNL     1      23.451  22.365  21.086  1.00  0.00     0.210 HD
ENDBRANCH   9  10
ENDBRANCH   8   9
BRANCH   8  12
ATOM     12  O   UNL     1      21.942  23.909  21.455  1.00  0.00    -0.388 OA
ATOM     13  H   UNL     1      22.652  24.557  21.703  1.00  0.00     0.211 HD
ENDBRANCH   8  12
ENDBRANCH   1   8
BRANCH   1  14
ATOM     14  O   UNL     1      22.052  24.147  24.651  1.00  0.00    -0.388 OA
ATOM     15  H   UNL     1      22.411  25.073  24.630  1.00  0.00     0.211 HD
ENDBRANCH   1  14
TORSDOF 9
ENDMDL
MODEL 2
REMARK VINA RESULT:    -3.948      1.907      4.073
REMARK INTER + INTRA:          -6.169
REMARK INTER:                  -5.797
REMARK INTRA:                  -0.372
REMARK UNBOUND:                -0.721
REMARK SMILES OC[C@@H](O)[C@@H](O)[C@@H](O)CO
REMARK SMILES IDX 5 1 3 2 2 3 1 4 4 6 7 8 9 9 10 10 8 12 6 14
REMARK H PARENT 1 5 4 7 10 11 8 13 6 15
REMARK Flexibility Score: inf
ROOT
ATOM      1  C   UNL     1      21.049  22.764  23.720  1.00  0.00     0.176 C 
ENDROOT
BRANCH   1   2
ATOM      2  C   UNL     1      22.104  22.689  22.580  1.00  0.00     0.171 C 
BRANCH   2   3
ATOM      3  C   UNL     1      21.951  21.406  21.744  1.00  0.00     0.190 C 
BRANCH   3   4
ATOM      4  O   UNL     1      23.119  21.182  21.003  1.00  0.00    -0.394 OA
ATOM      5  H   UNL     1      23.873  21.285  21.639  1.00  0.00     0.210 HD
ENDBRANCH   3   4
ENDBRANCH   2   3
BRANCH   2   6
ATOM      6  O   UNL     1      22.028  23.812  21.738  1.00  0.00    -0.388 OA
ATOM      7  H   UNL     1      21.080  24.104  21.711  1.00  0.00     0.211 HD
ENDBRANCH   2   6
ENDBRANCH   1   2
BRANCH   1   8
ATOM      8  C   UNL     1      21.434  23.743  24.868  1.00  0.00     0.171 C 
BRANCH   8   9
ATOM      9  C   UNL     1      20.399  24.854  25.125  1.00  0.00     0.190 C 
BRANCH   9  10
ATOM     10  O   UNL     1      19.665  25.148  23.967  1.00  0.00    -0.394 OA
ATOM     11  H   UNL     1      18.837  24.602  24.009  1.00  0.00     0.210 HD
ENDBRANCH   9  10
ENDBRANCH   8   9
BRANCH   8  12
ATOM     12  O   UNL     1      22.683  24.335  24.618  1.00  0.00    -0.388 OA
ATOM     13  H   UNL     1      22.573  25.312  24.751  1.00  0.00     0.211 HD
ENDBRANCH   8  12
ENDBRANCH   1   8
BRANCH   1  14
ATOM     14  O   UNL     1      20.878  21.480  24.268  1.00  0.00    -0.388 OA
ATOM     15  H   UNL     1      21.378  20.846  23.689  1.00  0.00     0.211 HD
ENDBRANCH   1  14
TORSDOF 9
ENDMDL
MODEL 3
REMARK VINA RESULT:    -3.947      4.103      5.942
REMARK INTER + INTRA:          -6.169
REMARK INTER:                  -5.698
REMARK INTRA:                  -0.471
REMARK UNBOUND:                -0.721
REMARK SMILES OC[C@@H](O)[C@@H](O)[C@@H](O)CO
REMARK SMILES IDX 5 1 3 2 2 3 1 4 4 6 7 8 9 9 10 10 8 12 6 14
REMARK H PARENT 1 5 4 7 10 11 8 13 6 15
REMARK Flexibility Score: inf
ROOT
ATOM      1  C   UNL     1      27.794  26.235  22.498  1.00  0.00     0.176 C 
ENDROOT
BRANCH   1   2
ATOM      2  C   UNL     1      28.457  26.100  21.098  1.00  0.00     0.171 C 
BRANCH   2   3
ATOM      3  C   UNL     1      29.301  24.817  20.987  1.00  0.00     0.190 C 
BRANCH   3   4
ATOM      4  O   UNL     1      30.232  24.772  22.033  1.00  0.00    -0.394 OA
ATOM      5  H   UNL     1      29.707  24.638  22.864  1.00  0.00     0.210 HD
ENDBRANCH   3   4
ENDBRANCH   2   3
BRANCH   2   6
ATOM      6  O   UNL     1      27.496  26.121  20.073  1.00  0.00    -0.388 OA
ATOM      7  H   UNL     1      27.976  26.242  19.212  1.00  0.00     0.211 HD
ENDBRANCH   2   6
ENDBRANCH   1   2
BRANCH   1   8
ATOM      8  C   UNL     1      26.246  26.069  22.478  1.00  0.00     0.171 C 
BRANCH   8   9
ATOM      9  C   UNL     1      25.515  26.817  23.608  1.00  0.00     0.190 C 
BRANCH   9  10
ATOM     10  O   UNL     1      25.204  28.132  23.234  1.00  0.00    -0.394 OA
ATOM     11  H   UNL     1      25.589  28.724  23.932  1.00  0.00     0.210 HD
ENDBRANCH   9  10
ENDBRANCH   8   9
BRANCH   8  12
ATOM     12  O   UNL     1      25.891  24.710  22.528  1.00  0.00    -0.388 OA
ATOM     13  H   UNL     1      26.724  24.188  22.393  1.00  0.00     0.211 HD
ENDBRANCH   8  12
ENDBRANCH   1   8
BRANCH   1  14
ATOM     14  O   UNL     1      28.099  27.502  23.027  1.00  0.00    -0.388 OA
ATOM     15  H   UNL     1      27.789  28.176  22.368  1.00  0.00     0.211 HD
ENDBRANCH   1  14
TORSDOF 9
ENDMDL
MODEL 4
REMARK VINA RESULT:    -3.920      1.486      2.311
REMARK INTER + INTRA:          -6.131
REMARK INTER:                  -5.649
REMARK INTRA:                  -0.482
REMARK UNBOUND:                -0.721
REMARK SMILES OC[C@@H](O)[C@@H](O)[C@@H](O)CO
REMARK SMILES IDX 5 1 3 2 2 3 1 4 4 6 7 8 9 9 10 10 8 12 6 14
REMARK H PARENT 1 5 4 7 10 11 8 13 6 15
REMARK Flexibility Score: inf
ROOT
ATOM      1  C   UNL     1      23.307  23.756  22.741  1.00  0.00     0.176 C 
ENDROOT
BRANCH   1   2
ATOM      2  C   UNL     1      24.311  24.276  23.809  1.00  0.00     0.171 C 
BRANCH   2   3
ATOM      3  C   UNL     1      25.317  25.275  23.208  1.00  0.00     0.190 C 
BRANCH   3   4
ATOM      4  O   UNL     1      26.161  24.611  22.308  1.00  0.00    -0.394 OA
ATOM      5  H   UNL     1      25.761  23.715  22.165  1.00  0.00     0.210 HD
ENDBRANCH   3   4
ENDBRANCH   2   3
BRANCH   2   6
ATOM      6  O   UNL     1      23.642  24.874  24.890  1.00  0.00    -0.388 OA
ATOM      7  H   UNL     1      24.258  24.863  25.669  1.00  0.00     0.211 HD
ENDBRANCH   2   6
ENDBRANCH   1   2
BRANCH   1   8
ATOM      8  C   UNL     1      22.066  23.036  23.345  1.00  0.00     0.171 C 
BRANCH   8   9
ATOM      9  C   UNL     1      21.517  21.888  22.477  1.00  0.00     0.190 C 
BRANCH   9  10
ATOM     10  O   UNL     1      21.042  20.831  23.267  1.00  0.00    -0.394 OA
ATOM     11  H   UNL     1      21.809  20.218  23.412  1.00  0.00     0.210 HD
ENDBRANCH   9  10
ENDBRANCH   8   9
BRANCH   8  12
ATOM     12  O   UNL     1      21.031  23.953  23.593  1.00  0.00    -0.388 OA
ATOM     13  H   UNL     1      20.261  23.433  23.944  1.00  0.00     0.211 HD
ENDBRANCH   8  12
ENDBRANCH   1   8
BRANCH   1  14
ATOM     14  O   UNL     1      23.974  22.857  21.889  1.00  0.00    -0.388 OA
ATOM     15  H   UNL     1      23.338  22.616  21.164  1.00  0.00     0.211 HD
ENDBRANCH   1  14
TORSDOF 9
ENDMDL
MODEL 5
REMARK VINA RESULT:    -3.849      2.046      3.277
REMARK INTER + INTRA:          -6.033
REMARK INTER:                  -5.579
REMARK INTRA:                  -0.453
REMARK UNBOUND:                -0.721
REMARK SMILES OC[C@@H](O)[C@@H](O)[C@@H](O)CO
REMARK SMILES IDX 5 1 3 2 2 3 1 4 4 6 7 8 9 9 10 10 8 12 6 14
REMARK H PARENT 1 5 4 7 10 11 8 13 6 15
REMARK Flexibility Score: inf
ROOT
ATOM      1  C   UNL     1      22.006  21.962  21.986  1.00  0.00     0.176 C 
ENDROOT
BRANCH   1   2
ATOM      2  C   UNL     1      22.410  23.031  23.041  1.00  0.00     0.171 C 
BRANCH   2   3
ATOM      3  C   UNL     1      23.483  23.991  22.498  1.00  0.00     0.190 C 
BRANCH   3   4
ATOM      4  O   UNL     1      24.737  23.366  22.530  1.00  0.00    -0.394 OA
ATOM      5  H   UNL     1      24.812  22.945  23.425  1.00  0.00     0.210 HD
ENDBRANCH   3   4
ENDBRANCH   2   3
BRANCH   2   6
ATOM      6  O   UNL     1      21.295  23.767  23.476  1.00  0.00    -0.388 OA
ATOM      7  H   UNL     1      21.186  24.539  22.861  1.00  0.00     0.211 HD
ENDBRANCH   2   6
ENDBRANCH   1   2
BRANCH   1   8
ATOM      8  C   UNL     1      21.391  20.672  22.604  1.00  0.00     0.171 C 
BRANCH   8   9
ATOM      9  C   UNL     1      20.300  20.014  21.739  1.00  0.00     0.190 C 
BRANCH   9  10
ATOM     10  O   UNL     1      19.741  18.899  22.380  1.00  0.00    -0.394 OA
ATOM     11  H   UNL     1      20.312  18.710  23.171  1.00  0.00     0.210 HD
ENDBRANCH   9  10
ENDBRANCH   8   9
BRANCH   8  12
ATOM     12  O   UNL     1      20.864  20.934  23.880  1.00  0.00    -0.388 OA
ATOM     13  H   UNL     1      20.318  20.145  24.136  1.00  0.00     0.211 HD
ENDBRANCH   8  12
ENDBRANCH   1   8
BRANCH   1  14
ATOM     14  O   UNL     1      23.144  21.602  21.242  1.00  0.00    -0.388 OA
ATOM     15  H   UNL     1      23.067  20.632  21.042  1.00  0.00     0.211 HD
ENDBRANCH   1  14
TORSDOF 9
ENDMDL
MODEL 6
REMARK VINA RESULT:    -3.823      3.738      5.384
REMARK INTER + INTRA:          -5.997
REMARK INTER:                  -5.506
REMARK INTRA:                  -0.491
REMARK UNBOUND:                -0.721
REMARK SMILES OC[C@@H](O)[C@@H](O)[C@@H](O)CO
REMARK SMILES IDX 5 1 3 2 2 3 1 4 4 6 7 8 9 9 10 10 8 12 6 14
REMARK H PARENT 1 5 4 7 10 11 8 13 6 15
REMARK Flexibility Score: inf
ROOT
ATOM      1  C   UNL     1      26.552  26.207  22.399  1.00  0.00     0.176 C 
ENDROOT
BRANCH   1   2
ATOM      2  C   UNL     1      28.103  26.254  22.287  1.00  0.00     0.171 C 
BRANCH   2   3
ATOM      3  C   UNL     1      28.573  26.125  20.827  1.00  0.00     0.190 C 
BRANCH   3   4
ATOM      4  O   UNL     1      27.465  26.144  19.970  1.00  0.00    -0.394 OA
ATOM      5  H   UNL     1      26.873  26.868  20.301  1.00  0.00     0.210 HD
ENDBRANCH   3   4
ENDBRANCH   2   3
BRANCH   2   6
ATOM      6  O   UNL     1      28.620  27.435  22.846  1.00  0.00    -0.388 OA
ATOM      7  H   UNL     1      29.595  27.456  22.657  1.00  0.00     0.211 HD
ENDBRANCH   2   6
ENDBRANCH   1   2
BRANCH   1   8
ATOM      8  C   UNL     1      25.988  26.986  23.624  1.00  0.00     0.171 C 
BRANCH   8   9
ATOM      9  C   UNL     1      25.368  26.089  24.712  1.00  0.00     0.190 C 
BRANCH   9  10
ATOM     10  O   UNL     1      24.141  25.553  24.296  1.00  0.00    -0.394 OA
ATOM     11  H   UNL     1      24.149  25.561  23.302  1.00  0.00     0.210 HD
ENDBRANCH   9  10
ENDBRANCH   8   9
BRANCH   8  12
ATOM     12  O   UNL     1      25.032  27.931  23.215  1.00  0.00    -0.388 OA
ATOM     13  H   UNL     1      25.458  28.825  23.291  1.00  0.00     0.211 HD
ENDBRANCH   8  12
ENDBRANCH   1   8
BRANCH   1  14
ATOM     14  O   UNL     1      26.142  24.865  22.497  1.00  0.00    -0.388 OA
ATOM     15  H   UNL     1      26.811  24.319  22.006  1.00  0.00     0.211 HD
ENDBRANCH   1  14
TORSDOF 9
ENDMDL
MODEL 7
REMARK VINA RESULT:    -3.777      3.651      4.986
REMARK INTER + INTRA:          -5.933
REMARK INTER:                  -5.318
REMARK INTRA:                  -0.615
REMARK UNBOUND:                -0.721
REMARK SMILES OC[C@@H](O)[C@@H](O)[C@@H](O)CO
REMARK SMILES IDX 5 1 3 2 2 3 1 4 4 6 7 8 9 9 10 10 8 12 6 14
REMARK H PARENT 1 5 4 7 10 11 8 13 6 15
REMARK Flexibility Score: inf
ROOT
ATOM      1  C   UNL     1      25.829  27.397  23.329  1.00  0.00     0.176 C 
ENDROOT
BRANCH   1   2
ATOM      2  C   UNL     1      24.929  27.773  24.541  1.00  0.00     0.171 C 
BRANCH   2   3
ATOM      3  C   UNL     1      24.187  29.102  24.309  1.00  0.00     0.190 C 
BRANCH   3   4
ATOM      4  O   UNL     1      24.376  29.525  22.986  1.00  0.00    -0.394 OA
ATOM      5  H   UNL     1      24.780  30.429  23.041  1.00  0.00     0.210 HD
ENDBRANCH   3   4
ENDBRANCH   2   3
BRANCH   2   6
ATOM      6  O   UNL     1      24.000  26.758  24.823  1.00  0.00    -0.388 OA
ATOM      7  H   UNL     1      23.246  26.854  24.184  1.00  0.00     0.211 HD
ENDBRANCH   2   6
ENDBRANCH   1   2
BRANCH   1   8
ATOM      8  C   UNL     1      25.914  25.865  23.064  1.00  0.00     0.171 C 
BRANCH   8   9
ATOM      9  C   UNL     1      27.081  25.446  22.150  1.00  0.00     0.190 C 
BRANCH   9  10
ATOM     10  O   UNL     1      27.134  26.236  20.993  1.00  0.00    -0.394 OA
ATOM     11  H   UNL     1      27.493  25.657  20.270  1.00  0.00     0.210 HD
ENDBRANCH   9  10
ENDBRANCH   8   9
BRANCH   8  12
ATOM     12  O   UNL     1      24.713  25.388  22.515  1.00  0.00    -0.388 OA
ATOM     13  H   UNL     1      24.938  24.584  21.977  1.00  0.00     0.211 HD
ENDBRANCH   8  12
ENDBRANCH   1   8
BRANCH   1  14
ATOM     14  O   UNL     1      27.129  27.883  23.557  1.00  0.00    -0.388 OA
ATOM     15  H   UNL     1      27.175  28.792  23.159  1.00  0.00     0.211 HD
ENDBRANCH   1  14
TORSDOF 9
ENDMDL
MODEL 8
REMARK VINA RESULT:    -3.683      2.345      3.777
REMARK INTER + INTRA:          -5.804
REMARK INTER:                  -5.196
REMARK INTRA:                  -0.608
REMARK UNBOUND:                -0.721
REMARK SMILES OC[C@@H](O)[C@@H](O)[C@@H](O)CO
REMARK SMILES IDX 5 1 3 2 2 3 1 4 4 6 7 8 9 9 10 10 8 12 6 14
REMARK H PARENT 1 5 4 7 10 11 8 13 6 15
REMARK Flexibility Score: inf
ROOT
ATOM      1  C   UNL     1      25.396  25.360  22.800  1.00  0.00     0.176 C 
ENDROOT
BRANCH   1   2
ATOM      2  C   UNL     1      26.144  26.588  23.394  1.00  0.00     0.171 C 
BRANCH   2   3
ATOM      3  C   UNL     1      27.582  26.695  22.853  1.00  0.00     0.190 C 
BRANCH   3   4
ATOM      4  O   UNL     1      27.558  26.744  21.453  1.00  0.00    -0.394 OA
ATOM      5  H   UNL     1      27.520  27.706  21.212  1.00  0.00     0.210 HD
ENDBRANCH   3   4
ENDBRANCH   2   3
BRANCH   2   6
ATOM      6  O   UNL     1      25.454  27.783  23.134  1.00  0.00    -0.388 OA
ATOM      7  H   UNL     1      26.055  28.371  22.606  1.00  0.00     0.211 HD
ENDBRANCH   2   6
ENDBRANCH   1   2
BRANCH   1   8
ATOM      8  C   UNL     1      24.527  24.593  23.839  1.00  0.00     0.171 C 
BRANCH   8   9
ATOM      9  C   UNL     1      23.415  23.728  23.218  1.00  0.00     0.190 C 
BRANCH   9  10
ATOM     10  O   UNL     1      23.885  23.006  22.112  1.00  0.00    -0.394 OA
ATOM     11  H   UNL     1      24.156  23.676  21.430  1.00  0.00     0.210 HD
ENDBRANCH   9  10
ENDBRANCH   8   9
BRANCH   8  12
ATOM     12  O   UNL     1      23.950  25.484  24.759  1.00  0.00    -0.388 OA
ATOM     13  H   UNL     1      24.619  25.632  25.478  1.00  0.00     0.211 HD
ENDBRANCH   8  12
ENDBRANCH   1   8
BRANCH   1  14
ATOM     14  O   UNL     1      26.339  24.467  22.261  1.00  0.00    -0.388 OA
ATOM     15  H   UNL     1      26.926  24.177  23.008  1.00  0.00     0.211 HD
ENDBRANCH   1  14
TORSDOF 9
ENDMDL
MODEL 9
REMARK VINA RESULT:    -3.602      4.715      5.873
REMARK INTER + INTRA:          -5.692
REMARK INTER:                  -5.004
REMARK INTRA:                  -0.689
REMARK UNBOUND:                -0.721
REMARK SMILES OC[C@@H](O)[C@@H](O)[C@@H](O)CO
REMARK SMILES IDX 5 1 3 2 2 3 1 4 4 6 7 8 9 9 10 10 8 12 6 14
REMARK H PARENT 1 5 4 7 10 11 8 13 6 15
REMARK Flexibility Score: inf
ROOT
ATOM      1  C   UNL     1      27.151  26.169  22.601  1.00  0.00     0.176 C 
ENDROOT
BRANCH   1   2
ATOM      2  C   UNL     1      26.864  27.308  23.621  1.00  0.00     0.171 C 
BRANCH   2   3
ATOM      3  C   UNL     1      25.363  27.416  23.948  1.00  0.00     0.190 C 
BRANCH   3   4
ATOM      4  O   UNL     1      24.771  28.389  23.131  1.00  0.00    -0.394 OA
ATOM      5  H   UNL     1      25.309  28.415  22.299  1.00  0.00     0.210 HD
ENDBRANCH   3   4
ENDBRANCH   2   3
BRANCH   2   6
ATOM      6  O   UNL     1      27.592  27.127  24.808  1.00  0.00    -0.388 OA
ATOM      7  H   UNL     1      28.473  27.572  24.693  1.00  0.00     0.211 HD
ENDBRANCH   2   6
ENDBRANCH   1   2
BRANCH   1   8
ATOM      8  C   UNL     1      28.466  26.369  21.792  1.00  0.00     0.171 C 
BRANCH   8   9
ATOM      9  C   UNL     1      28.660  25.364  20.642  1.00  0.00     0.190 C 
BRANCH   9  10
ATOM     10  O   UNL     1      28.001  25.783  19.478  1.00  0.00    -0.394 OA
ATOM     11  H   UNL     1      28.483  26.588  19.153  1.00  0.00     0.210 HD
ENDBRANCH   9  10
ENDBRANCH   8   9
BRANCH   8  12
ATOM     12  O   UNL     1      29.585  26.312  22.640  1.00  0.00    -0.388 OA
ATOM     13  H   UNL     1      29.358  26.832  23.455  1.00  0.00     0.211 HD
ENDBRANCH   8  12
ENDBRANCH   1   8
BRANCH   1  14
ATOM     14  O   UNL     1      26.078  26.088  21.695  1.00  0.00    -0.388 OA
ATOM     15  H   UNL     1      26.393  26.473  20.835  1.00  0.00     0.211 HD
ENDBRANCH   1  14
TORSDOF 9
ENDMDL
