MODEL 1
REMARK VINA RESULT:    -5.108      0.000      0.000
REMARK INTER + INTRA:          -5.774
REMARK INTER:                  -5.705
REMARK INTRA:                  -0.069
REMARK UNBOUND:                -0.069
REMARK SMILES CCc1ccc(O)cc1O
REMARK SMILES IDX 3 1 9 2 8 3 6 4 5 5 4 6 2 7 1 8 10 9 7 11
REMARK H PARENT 10 10 7 12
REMARK Flexibility Score: inf
ROOT
ATOM      1  C   UNL     1      23.803   4.927 102.151  1.00  0.00    -0.006 A 
ATOM      2  C   UNL     1      22.400   4.722 102.102  1.00  0.00     0.122 A 
ATOM      3  C   UNL     1      21.612   5.476 101.223  1.00  0.00     0.092 A 
ATOM      4  C   UNL     1      22.191   6.434 100.387  1.00  0.00     0.119 A 
ATOM      5  C   UNL     1      23.569   6.644 100.428  1.00  0.00     0.047 A 
ATOM      6  C   UNL     1      24.370   5.901 101.297  1.00  0.00     0.011 A 
ENDROOT
BRANCH   1   7
ATOM      7  C   UNL     1      24.648   4.101 103.110  1.00  0.00     0.036 C 
ATOM      8  C   UNL     1      26.003   3.634 102.575  1.00  0.00     0.009 C 
ENDBRANCH   1   7
BRANCH   2   9
ATOM      9  O   UNL     1      21.757   3.781 102.908  1.00  0.00    -0.508 OA
ATOM     10  H   UNL     1      21.346   2.928 102.551  1.00  0.00     0.293 HD
ENDBRANCH   2   9
BRANCH   4  11
ATOM     11  O   UNL     1      21.407   7.184  99.513  1.00  0.00    -0.508 OA
ATOM     12  H   UNL     1      20.715   6.746  98.915  1.00  0.00     0.293 HD
ENDBRANCH   4  11
TORSDOF 3
ENDMDL
MODEL 2
REMARK VINA RESULT:    -4.976      1.865      2.819
REMARK INTER + INTRA:          -5.627
REMARK INTER:                  -5.533
REMARK INTRA:                  -0.093
REMARK UNBOUND:                -0.069
REMARK SMILES CCc1ccc(O)cc1O
REMARK SMILES IDX 3 1 9 2 8 3 6 4 5 5 4 6 2 7 1 8 10 9 7 11
REMARK H PARENT 10 10 7 12
REMARK Flexibility Score: inf
ROOT
ATOM      1  C   UNL     1      22.367   4.489 102.857  1.00  0.00    -0.006 A 
ATOM      2  C   UNL     1      23.766   4.690 102.734  1.00  0.00     0.122 A 
ATOM      3  C   UNL     1      24.274   5.467 101.686  1.00  0.00     0.092 A 
ATOM      4  C   UNL     1      23.416   6.055 100.751  1.00  0.00     0.119 A 
ATOM      5  C   UNL     1      22.039   5.862 100.862  1.00  0.00     0.047 A 
ATOM      6  C   UNL     1      21.515   5.090 101.901  1.00  0.00     0.011 A 
ENDROOT
BRANCH   1   7
ATOM      7  C   UNL     1      21.828   3.642 104.000  1.00  0.00     0.036 C 
ATOM      8  C   UNL     1      21.474   4.397 105.282  1.00  0.00     0.009 C 
ENDBRANCH   1   7
BRANCH   2   9
ATOM      9  O   UNL     1      24.679   4.134 103.634  1.00  0.00    -0.508 OA
ATOM     10  H   UNL     1      25.681   4.249 103.553  1.00  0.00     0.293 HD
ENDBRANCH   2   9
BRANCH   4  11
ATOM     11  O   UNL     1      23.921   6.828  99.708  1.00  0.00    -0.508 OA
ATOM     12  H   UNL     1      24.905   7.066  99.655  1.00  0.00     0.293 HD
ENDBRANCH   4  11
TORSDOF 3
ENDMDL
MODEL 3
REMARK VINA RESULT:    -4.963      3.748      5.190
REMARK INTER + INTRA:          -5.613
REMARK INTER:                  -5.543
REMARK INTRA:                  -0.070
REMARK UNBOUND:                -0.069
REMARK SMILES CCc1ccc(O)cc1O
REMARK SMILES IDX 3 1 9 2 8 3 6 4 5 5 4 6 2 7 1 8 10 9 7 11
REMARK H PARENT 10 10 7 12
REMARK Flexibility Score: inf
ROOT
ATOM      1  C   UNL     1      21.692   2.490 103.973  1.00  0.00    -0.006 A 
ATOM      2  C   UNL     1      21.972   3.867 104.171  1.00  0.00     0.122 A 
ATOM      3  C   UNL     1      21.234   4.606 105.104  1.00  0.00     0.092 A 
ATOM      4  C   UNL     1      20.217   4.002 105.850  1.00  0.00     0.119 A 
ATOM      5  C   UNL     1      19.933   2.650 105.662  1.00  0.00     0.047 A 
ATOM      6  C   UNL     1      20.659   1.898 104.737  1.00  0.00     0.011 A 
ENDROOT
BRANCH   1   7
ATOM      7  C   UNL     1      22.501   1.699 102.957  1.00  0.00     0.036 C 
ATOM      8  C   UNL     1      22.909   0.287 103.379  1.00  0.00     0.009 C 
ENDBRANCH   1   7
BRANCH   2   9
ATOM      9  O   UNL     1      22.974   4.532 103.461  1.00  0.00    -0.508 OA
ATOM     10  H   UNL     1      23.745   4.057 103.008  1.00  0.00     0.293 HD
ENDBRANCH   2   9
BRANCH   4  11
ATOM     11  O   UNL     1      19.483   4.738 106.778  1.00  0.00    -0.508 OA
ATOM     12  H   UNL     1      18.765   5.391 106.486  1.00  0.00     0.293 HD
ENDBRANCH   4  11
TORSDOF 3
ENDMDL
MODEL 4
REMARK VINA RESULT:    -4.873      2.212      4.296
REMARK INTER + INTRA:          -5.512
REMARK INTER:                  -5.433
REMARK INTRA:                  -0.079
REMARK UNBOUND:                -0.069
REMARK SMILES CCc1ccc(O)cc1O
REMARK SMILES IDX 3 1 9 2 8 3 6 4 5 5 4 6 2 7 1 8 10 9 7 11
REMARK H PARENT 10 10 7 12
REMARK Flexibility Score: inf
ROOT
ATOM      1  C   UNL     1      21.660   5.147 102.177  1.00  0.00    -0.006 A 
ATOM      2  C   UNL     1      20.773   5.596 103.189  1.00  0.00     0.122 A 
ATOM      3  C   UNL     1      20.789   4.995 104.454  1.00  0.00     0.092 A 
ATOM      4  C   UNL     1      21.674   3.950 104.736  1.00  0.00     0.119 A 
ATOM      5  C   UNL     1      22.549   3.500 103.748  1.00  0.00     0.047 A 
ATOM      6  C   UNL     1      22.546   4.088 102.482  1.00  0.00     0.011 A 
ENDROOT
BRANCH   1   7
ATOM      7  C   UNL     1      21.631   5.809 100.807  1.00  0.00     0.036 C 
ATOM      8  C   UNL     1      22.908   6.541 100.391  1.00  0.00     0.009 C 
ENDBRANCH   1   7
BRANCH   2   9
ATOM      9  O   UNL     1      19.865   6.636 102.975  1.00  0.00    -0.508 OA
ATOM     10  H   UNL     1      19.569   7.276 103.701  1.00  0.00     0.293 HD
ENDBRANCH   2   9
BRANCH   4  11
ATOM     11  O   UNL     1      21.691   3.352 105.995  1.00  0.00    -0.508 OA
ATOM     12  H   UNL     1      21.573   3.897 106.841  1.00  0.00     0.293 HD
ENDBRANCH   4  11
TORSDOF 3
ENDMDL
MODEL 5
REMARK VINA RESULT:    -4.809      2.926      4.852
REMARK INTER + INTRA:          -5.440
REMARK INTER:                  -5.347
REMARK INTRA:                  -0.093
REMARK UNBOUND:                -0.069
REMARK SMILES CCc1ccc(O)cc1O
REMARK SMILES IDX 3 1 9 2 8 3 6 4 5 5 4 6 2 7 1 8 10 9 7 11
REMARK H PARENT 10 10 7 12
REMARK Flexibility Score: inf
ROOT
ATOM      1  C   UNL     1      22.167   3.989 103.414  1.00  0.00    -0.006 A 
ATOM      2  C   UNL     1      21.934   2.590 103.376  1.00  0.00     0.122 A 
ATOM      3  C   UNL     1      21.148   1.983 104.363  1.00  0.00     0.092 A 
ATOM      4  C   UNL     1      20.584   2.740 105.395  1.00  0.00     0.119 A 
ATOM      5  C   UNL     1      20.809   4.116 105.442  1.00  0.00     0.047 A 
ATOM      6  C   UNL     1      21.589   4.738 104.466  1.00  0.00     0.011 A 
ENDROOT
BRANCH   1   7
ATOM      7  C   UNL     1      23.023   4.636 102.336  1.00  0.00     0.036 C 
ATOM      8  C   UNL     1      22.266   5.221 101.142  1.00  0.00     0.009 C 
ENDBRANCH   1   7
BRANCH   2   9
ATOM      9  O   UNL     1      22.465   1.775 102.374  1.00  0.00    -0.508 OA
ATOM     10  H   UNL     1      23.253   2.041 101.798  1.00  0.00     0.293 HD
ENDBRANCH   2   9
BRANCH   4  11
ATOM     11  O   UNL     1      19.802   2.136 106.377  1.00  0.00    -0.508 OA
ATOM     12  H   UNL     1      19.005   1.558 106.136  1.00  0.00     0.293 HD
ENDBRANCH   4  11
TORSDOF 3
ENDMDL
MODEL 6
REMARK VINA RESULT:    -4.779      4.144      4.859
REMARK INTER + INTRA:          -5.407
REMARK INTER:                  -5.338
REMARK INTRA:                  -0.069
REMARK UNBOUND:                -0.069
REMARK SMILES CCc1ccc(O)cc1O
REMARK SMILES IDX 3 1 9 2 8 3 6 4 5 5 4 6 2 7 1 8 10 9 7 11
REMARK H PARENT 10 10 7 12
REMARK Flexibility Score: inf
ROOT
ATOM      1  C   UNL     1      21.402   2.843 104.485  1.00  0.00    -0.006 A 
ATOM      2  C   UNL     1      20.572   3.050 105.616  1.00  0.00     0.122 A 
ATOM      3  C   UNL     1      20.600   4.275 106.293  1.00  0.00     0.092 A 
ATOM      4  C   UNL     1      21.441   5.308 105.867  1.00  0.00     0.119 A 
ATOM      5  C   UNL     1      22.262   5.114 104.757  1.00  0.00     0.047 A 
ATOM      6  C   UNL     1      22.247   3.899 104.070  1.00  0.00     0.011 A 
ENDROOT
BRANCH   1   7
ATOM      7  C   UNL     1      21.362   1.507 103.759  1.00  0.00     0.036 C 
ATOM      8  C   UNL     1      22.654   1.088 103.056  1.00  0.00     0.009 C 
ENDBRANCH   1   7
BRANCH   2   9
ATOM      9  O   UNL     1      19.707   2.062 106.094  1.00  0.00    -0.508 OA
ATOM     10  H   UNL     1      19.339   1.317 105.517  1.00  0.00     0.293 HD
ENDBRANCH   2   9
BRANCH   4  11
ATOM     11  O   UNL     1      21.469   6.527 106.541  1.00  0.00    -0.508 OA
ATOM     12  H   UNL     1      20.615   7.009 106.797  1.00  0.00     0.293 HD
ENDBRANCH   4  11
TORSDOF 3
ENDMDL
MODEL 7
REMARK VINA RESULT:    -4.735      2.497      3.361
REMARK INTER + INTRA:          -5.358
REMARK INTER:                  -5.265
REMARK INTRA:                  -0.093
REMARK UNBOUND:                -0.069
REMARK SMILES CCc1ccc(O)cc1O
REMARK SMILES IDX 3 1 9 2 8 3 6 4 5 5 4 6 2 7 1 8 10 9 7 11
REMARK H PARENT 10 10 7 12
REMARK Flexibility Score: inf
ROOT
ATOM      1  C   UNL     1      21.686   4.836 104.049  1.00  0.00    -0.006 A 
ATOM      2  C   UNL     1      20.966   5.614 103.107  1.00  0.00     0.122 A 
ATOM      3  C   UNL     1      21.435   5.738 101.793  1.00  0.00     0.092 A 
ATOM      4  C   UNL     1      22.613   5.100 101.393  1.00  0.00     0.119 A 
ATOM      5  C   UNL     1      23.329   4.334 102.312  1.00  0.00     0.047 A 
ATOM      6  C   UNL     1      22.876   4.199 103.625  1.00  0.00     0.011 A 
ENDROOT
BRANCH   1   7
ATOM      7  C   UNL     1      21.165   4.711 105.473  1.00  0.00     0.036 C 
ATOM      8  C   UNL     1      20.309   3.477 105.766  1.00  0.00     0.009 C 
ENDBRANCH   1   7
BRANCH   2   9
ATOM      9  O   UNL     1      19.782   6.277 103.440  1.00  0.00    -0.508 OA
ATOM     10  H   UNL     1      19.005   5.829 103.909  1.00  0.00     0.293 HD
ENDBRANCH   2   9
BRANCH   4  11
ATOM     11  O   UNL     1      23.080   5.222 100.086  1.00  0.00    -0.508 OA
ATOM     12  H   UNL     1      23.632   6.021  99.795  1.00  0.00     0.293 HD
ENDBRANCH   4  11
TORSDOF 3
ENDMDL
MODEL 8
REMARK VINA RESULT:    -4.734      1.577      2.399
REMARK INTER + INTRA:          -5.357
REMARK INTER:                  -5.266
REMARK INTRA:                  -0.091
REMARK UNBOUND:                -0.069
REMARK SMILES CCc1ccc(O)cc1O
REMARK SMILES IDX 3 1 9 2 8 3 6 4 5 5 4 6 2 7 1 8 10 9 7 11
REMARK H PARENT 10 10 7 12
REMARK Flexibility Score: inf
ROOT
ATOM      1  C   UNL     1      23.595   4.822 102.209  1.00  0.00    -0.006 A 
ATOM      2  C   UNL     1      23.518   5.668 101.073  1.00  0.00     0.122 A 
ATOM      3  C   UNL     1      22.342   5.720 100.315  1.00  0.00     0.092 A 
ATOM      4  C   UNL     1      21.232   4.944 100.663  1.00  0.00     0.119 A 
ATOM      5  C   UNL     1      21.298   4.108 101.777  1.00  0.00     0.047 A 
ATOM      6  C   UNL     1      22.462   4.044 102.545  1.00  0.00     0.011 A 
ENDROOT
BRANCH   1   7
ATOM      7  C   UNL     1      24.878   4.775 103.024  1.00  0.00     0.036 C 
ATOM      8  C   UNL     1      25.806   3.592 102.743  1.00  0.00     0.009 C 
ENDBRANCH   1   7
BRANCH   2   9
ATOM      9  O   UNL     1      24.589   6.470 100.670  1.00  0.00    -0.508 OA
ATOM     10  H   UNL     1      25.506   6.105 100.448  1.00  0.00     0.293 HD
ENDBRANCH   2   9
BRANCH   4  11
ATOM     11  O   UNL     1      20.062   4.996  99.909  1.00  0.00    -0.508 OA
ATOM     12  H   UNL     1      19.920   5.708  99.202  1.00  0.00     0.293 HD
ENDBRANCH   4  11
TORSDOF 3
ENDMDL
MODEL 9
REMARK VINA RESULT:    -4.626      1.461      3.612
REMARK INTER + INTRA:          -5.236
REMARK INTER:                  -5.167
REMARK INTRA:                  -0.069
REMARK UNBOUND:                -0.069
REMARK SMILES CCc1ccc(O)cc1O
REMARK SMILES IDX 3 1 9 2 8 3 6 4 5 5 4 6 2 7 1 8 10 9 7 11
REMARK H PARENT 10 10 7 12
REMARK Flexibility Score: inf
ROOT
ATOM      1  C   UNL     1      22.826   5.489 101.099  1.00  0.00    -0.006 A 
ATOM      2  C   UNL     1      21.597   4.787 101.010  1.00  0.00     0.122 A 
ATOM      3  C   UNL     1      21.335   3.717 101.875  1.00  0.00     0.092 A 
ATOM      4  C   UNL     1      22.276   3.328 102.834  1.00  0.00     0.119 A 
ATOM      5  C   UNL     1      23.487   4.011 102.929  1.00  0.00     0.047 A 
ATOM      6  C   UNL     1      23.764   5.080 102.075  1.00  0.00     0.011 A 
ENDROOT
BRANCH   1   7
ATOM      7  C   UNL     1      23.096   6.649 100.152  1.00  0.00     0.036 C 
ATOM      8  C   UNL     1      24.441   7.357 100.330  1.00  0.00     0.009 C 
ENDBRANCH   1   7
BRANCH   2   9
ATOM      9  O   UNL     1      20.613   5.123 100.076  1.00  0.00    -0.508 OA
ATOM     10  H   UNL     1      19.886   4.485  99.778  1.00  0.00     0.293 HD
ENDBRANCH   2   9
BRANCH   4  11
ATOM     11  O   UNL     1      22.016   2.264 103.695  1.00  0.00    -0.508 OA
ATOM     12  H   UNL     1      21.693   1.369 103.347  1.00  0.00     0.293 HD
ENDBRANCH   4  11
TORSDOF 3
ENDMDL
