MODEL 1
REMARK VINA RESULT:    -3.885      0.000      0.000
REMARK INTER + INTRA:          -7.376
REMARK INTER:                  -5.929
REMARK INTRA:                  -1.447
REMARK UNBOUND:                -1.447
REMARK SMILES CCCCCCCCCC=CC(=O)[O-]
REMARK SMILES IDX 7 1 8 2 9 3 10 4 11 5 12 6 13 7 14 8 6 9 5 10 4 11 3 12 2 13
REMARK SMILES IDX 1 14
REMARK H PARENT
REMARK Flexibility Score: inf
ROOT
ATOM      1  C   UNL     1      33.616   9.705  30.878  1.00  0.00     0.000 C 
ENDROOT
BRANCH   1   2
ATOM      2  C   UNL     1      32.479  10.738  30.879  1.00  0.00     0.004 C 
BRANCH   2   3
ATOM      3  C   UNL     1      31.478  10.496  32.019  1.00  0.00     0.027 C 
BRANCH   3   4
ATOM      4  C   UNL     1      30.051  10.563  31.553  1.00  0.00    -0.025 C 
ATOM      5  C   UNL     1      29.587  11.616  30.870  1.00  0.00     0.020 C 
BRANCH   5   6
ATOM      6  C   UNL     1      28.192  11.704  30.410  1.00  0.00     0.064 C 
ATOM      7  O   UNL     1      27.835  11.205  29.310  1.00  0.00    -0.545 OA
ATOM      8  O   UNL     1      27.252  12.349  31.204  1.00  0.00    -0.545 OA
ENDBRANCH   5   6
ENDBRANCH   3   4
ENDBRANCH   2   3
ENDBRANCH   1   2
BRANCH   1   9
ATOM      9  C   UNL     1      33.562   8.832  29.615  1.00  0.00     0.000 C 
BRANCH   9  10
ATOM     10  C   UNL     1      32.390   9.198  28.692  1.00  0.00     0.000 C 
BRANCH  10  11
ATOM     11  C   UNL     1      31.534   7.978  28.307  1.00  0.00    -0.000 C 
BRANCH  11  12
ATOM     12  C   UNL     1      30.257   7.868  29.167  1.00  0.00    -0.000 C 
BRANCH  12  13
ATOM     13  C   UNL     1      30.233   6.628  30.077  1.00  0.00    -0.003 C 
ATOM     14  C   UNL     1      30.994   6.831  31.385  1.00  0.00     0.004 C 
ENDBRANCH  12  13
ENDBRANCH  11  12
ENDBRANCH  10  11
ENDBRANCH   9  10
ENDBRANCH   1   9
TORSDOF 9
ENDMDL
MODEL 2
REMARK VINA RESULT:    -3.880      1.001      2.494
REMARK INTER + INTRA:          -7.369
REMARK INTER:                  -5.791
REMARK INTRA:                  -1.578
REMARK UNBOUND:                -1.447
REMARK SMILES CCCCCCCCCC=CC(=O)[O-]
REMARK SMILES IDX 7 1 8 2 9 3 10 4 11 5 12 6 13 7 14 8 6 9 5 10 4 11 3 12 2 13
REMARK SMILES IDX 1 14
REMARK H PARENT
REMARK Flexibility Score: inf
ROOT
ATOM      1  C   UNL     1      31.854   7.730  32.016  1.00  0.00     0.000 C 
ENDROOT
BRANCH   1   2
ATOM      2  C   UNL     1      31.056   8.998  32.355  1.00  0.00     0.004 C 
BRANCH   2   3
ATOM      3  C   UNL     1      31.700  10.263  31.767  1.00  0.00     0.027 C 
BRANCH   3   4
ATOM      4  C   UNL     1      30.752  11.035  30.892  1.00  0.00    -0.025 C 
ATOM      5  C   UNL     1      29.427  10.881  30.989  1.00  0.00     0.020 C 
BRANCH   5   6
ATOM      6  C   UNL     1      28.483  11.622  30.139  1.00  0.00     0.064 C 
ATOM      7  O   UNL     1      28.117  12.791  30.435  1.00  0.00    -0.545 OA
ATOM      8  O   UNL     1      27.986  11.023  28.988  1.00  0.00    -0.545 OA
ENDBRANCH   5   6
ENDBRANCH   3   4
ENDBRANCH   2   3
ENDBRANCH   1   2
BRANCH   1   9
ATOM      9  C   UNL     1      30.944   6.659  31.396  1.00  0.00     0.000 C 
BRANCH   9  10
ATOM     10  C   UNL     1      29.923   7.248  30.409  1.00  0.00     0.000 C 
BRANCH  10  11
ATOM     11  C   UNL     1      30.379   7.129  28.943  1.00  0.00    -0.000 C 
BRANCH  11  12
ATOM     12  C   UNL     1      30.642   8.508  28.302  1.00  0.00    -0.000 C 
BRANCH  12  13
ATOM     13  C   UNL     1      32.067   8.665  27.745  1.00  0.00    -0.003 C 
ATOM     14  C   UNL     1      33.147   8.545  28.819  1.00  0.00     0.004 C 
ENDBRANCH  12  13
ENDBRANCH  11  12
ENDBRANCH  10  11
ENDBRANCH   9  10
ENDBRANCH   1   9
TORSDOF 9
ENDMDL
MODEL 3
REMARK VINA RESULT:    -3.814      2.611      4.956
REMARK INTER + INTRA:          -7.268
REMARK INTER:                  -5.675
REMARK INTRA:                  -1.593
REMARK UNBOUND:                -1.447
REMARK SMILES CCCCCCCCCC=CC(=O)[O-]
REMARK SMILES IDX 7 1 8 2 9 3 10 4 11 5 12 6 13 7 14 8 6 9 5 10 4 11 3 12 2 13
REMARK SMILES IDX 1 14
REMARK H PARENT
REMARK Flexibility Score: inf
ROOT
ATOM      1  C   UNL     1      29.651  11.114  27.994  1.00  0.00     0.000 C 
ENDROOT
BRANCH   1   2
ATOM      2  C   UNL     1      29.937   9.654  27.613  1.00  0.00     0.004 C 
BRANCH   2   3
ATOM      3  C   UNL     1      31.385   9.247  27.923  1.00  0.00     0.027 C 
BRANCH   3   4
ATOM      4  C   UNL     1      31.464   8.077  28.864  1.00  0.00    -0.025 C 
ATOM      5  C   UNL     1      30.444   7.757  29.668  1.00  0.00     0.020 C 
BRANCH   5   6
ATOM      6  C   UNL     1      30.502   6.620  30.600  1.00  0.00     0.064 C 
ATOM      7  O   UNL     1      30.112   5.472  30.254  1.00  0.00    -0.545 OA
ATOM      8  O   UNL     1      30.996   6.815  31.884  1.00  0.00    -0.545 OA
ENDBRANCH   5   6
ENDBRANCH   3   4
ENDBRANCH   2   3
ENDBRANCH   1   2
BRANCH   1   9
ATOM      9  C   UNL     1      28.283  11.243  28.680  1.00  0.00     0.000 C 
BRANCH   9  10
ATOM     10  C   UNL     1      28.377  11.154  30.211  1.00  0.00     0.000 C 
BRANCH  10  11
ATOM     11  C   UNL     1      29.782  11.495  30.739  1.00  0.00    -0.000 C 
BRANCH  11  12
ATOM     12  C   UNL     1      30.149  10.670  31.991  1.00  0.00    -0.000 C 
BRANCH  12  13
ATOM     13  C   UNL     1      31.643  10.312  32.075  1.00  0.00    -0.003 C 
ATOM     14  C   UNL     1      32.490  11.023  31.021  1.00  0.00     0.004 C 
ENDBRANCH  12  13
ENDBRANCH  11  12
ENDBRANCH  10  11
ENDBRANCH   9  10
ENDBRANCH   1   9
TORSDOF 9
ENDMDL
MODEL 4
REMARK VINA RESULT:    -3.761      1.790      2.924
REMARK INTER + INTRA:          -7.186
REMARK INTER:                  -5.736
REMARK INTRA:                  -1.450
REMARK UNBOUND:                -1.447
REMARK SMILES CCCCCCCCCC=CC(=O)[O-]
REMARK SMILES IDX 7 1 8 2 9 3 10 4 11 5 12 6 13 7 14 8 6 9 5 10 4 11 3 12 2 13
REMARK SMILES IDX 1 14
REMARK H PARENT
REMARK Flexibility Score: inf
ROOT
ATOM      1  C   UNL     1      34.059   8.448  29.762  1.00  0.00     0.000 C 
ENDROOT
BRANCH   1   2
ATOM      2  C   UNL     1      32.936   9.306  29.160  1.00  0.00     0.004 C 
BRANCH   2   3
ATOM      3  C   UNL     1      32.179   8.568  28.045  1.00  0.00     0.027 C 
BRANCH   3   4
ATOM      4  C   UNL     1      30.955   9.315  27.591  1.00  0.00    -0.025 C 
ATOM      5  C   UNL     1      30.196  10.002  28.452  1.00  0.00     0.020 C 
BRANCH   5   6
ATOM      6  C   UNL     1      28.992  10.734  28.029  1.00  0.00     0.064 C 
ATOM      7  O   UNL     1      28.856  11.137  26.843  1.00  0.00    -0.545 OA
ATOM      8  O   UNL     1      27.987  10.988  28.955  1.00  0.00    -0.545 OA
ENDBRANCH   5   6
ENDBRANCH   3   4
ENDBRANCH   2   3
ENDBRANCH   1   2
BRANCH   1   9
ATOM      9  C   UNL     1      33.950   8.401  31.294  1.00  0.00     0.000 C 
BRANCH   9  10
ATOM     10  C   UNL     1      32.769   9.225  31.830  1.00  0.00     0.000 C 
BRANCH  10  11
ATOM     11  C   UNL     1      31.720   8.359  32.550  1.00  0.00    -0.000 C 
BRANCH  11  12
ATOM     12  C   UNL     1      30.566   7.945  31.613  1.00  0.00    -0.000 C 
BRANCH  12  13
ATOM     13  C   UNL     1      30.767   6.564  30.965  1.00  0.00    -0.003 C 
ATOM     14  C   UNL     1      29.800   6.297  29.813  1.00  0.00     0.004 C 
ENDBRANCH  12  13
ENDBRANCH  11  12
ENDBRANCH  10  11
ENDBRANCH   9  10
ENDBRANCH   1   9
TORSDOF 9
ENDMDL
MODEL 5
REMARK VINA RESULT:    -3.720      2.382      3.406
REMARK INTER + INTRA:          -7.124
REMARK INTER:                  -5.921
REMARK INTRA:                  -1.204
REMARK UNBOUND:                -1.447
REMARK SMILES CCCCCCCCCC=CC(=O)[O-]
REMARK SMILES IDX 7 1 8 2 9 3 10 4 11 5 12 6 13 7 14 8 6 9 5 10 4 11 3 12 2 13
REMARK SMILES IDX 1 14
REMARK H PARENT
REMARK Flexibility Score: inf
ROOT
ATOM      1  C   UNL     1      29.290  10.713  27.331  1.00  0.00     0.000 C 
ENDROOT
BRANCH   1   2
ATOM      2  C   UNL     1      28.575  11.490  28.446  1.00  0.00     0.004 C 
BRANCH   2   3
ATOM      3  C   UNL     1      28.668  10.776  29.802  1.00  0.00     0.027 C 
BRANCH   3   4
ATOM      4  C   UNL     1      29.400  11.592  30.831  1.00  0.00    -0.025 C 
ATOM      5  C   UNL     1      30.677  11.952  30.660  1.00  0.00     0.020 C 
BRANCH   5   6
ATOM      6  C   UNL     1      31.413  12.745  31.657  1.00  0.00     0.064 C 
ATOM      7  O   UNL     1      31.563  12.331  32.838  1.00  0.00    -0.545 OA
ATOM      8  O   UNL     1      31.950  13.972  31.291  1.00  0.00    -0.545 OA
ENDBRANCH   5   6
ENDBRANCH   3   4
ENDBRANCH   2   3
ENDBRANCH   1   2
BRANCH   1   9
ATOM      9  C   UNL     1      29.859   9.389  27.864  1.00  0.00     0.000 C 
BRANCH   9  10
ATOM     10  C   UNL     1      31.395   9.354  27.844  1.00  0.00     0.000 C 
BRANCH  10  11
ATOM     11  C   UNL     1      31.974   8.228  28.718  1.00  0.00    -0.000 C 
BRANCH  11  12
ATOM     12  C   UNL     1      31.480   8.312  30.178  1.00  0.00    -0.000 C 
BRANCH  12  13
ATOM     13  C   UNL     1      30.977   6.969  30.735  1.00  0.00    -0.003 C 
ATOM     14  C   UNL     1      29.824   6.379  29.926  1.00  0.00     0.004 C 
ENDBRANCH  12  13
ENDBRANCH  11  12
ENDBRANCH  10  11
ENDBRANCH   9  10
ENDBRANCH   1   9
TORSDOF 9
ENDMDL
MODEL 6
REMARK VINA RESULT:    -3.706      1.378      3.514
REMARK INTER + INTRA:          -7.102
REMARK INTER:                  -5.585
REMARK INTRA:                  -1.518
REMARK UNBOUND:                -1.447
REMARK SMILES CCCCCCCCCC=CC(=O)[O-]
REMARK SMILES IDX 7 1 8 2 9 3 10 4 11 5 12 6 13 7 14 8 6 9 5 10 4 11 3 12 2 13
REMARK SMILES IDX 1 14
REMARK H PARENT
REMARK Flexibility Score: inf
ROOT
ATOM      1  C   UNL     1      30.249   7.403  28.822  1.00  0.00     0.000 C 
ENDROOT
BRANCH   1   2
ATOM      2  C   UNL     1      31.674   7.872  28.491  1.00  0.00     0.004 C 
BRANCH   2   3
ATOM      3  C   UNL     1      31.686   9.248  27.808  1.00  0.00     0.027 C 
BRANCH   3   4
ATOM      4  C   UNL     1      30.487  10.079  28.170  1.00  0.00    -0.025 C 
ATOM      5  C   UNL     1      30.583  11.116  29.009  1.00  0.00     0.020 C 
BRANCH   5   6
ATOM      6  C   UNL     1      29.421  11.938  29.381  1.00  0.00     0.064 C 
ATOM      7  O   UNL     1      28.330  11.846  28.757  1.00  0.00    -0.545 OA
ATOM      8  O   UNL     1      29.528  12.833  30.438  1.00  0.00    -0.545 OA
ENDBRANCH   5   6
ENDBRANCH   3   4
ENDBRANCH   2   3
ENDBRANCH   1   2
BRANCH   1   9
ATOM      9  C   UNL     1      30.202   6.723  30.199  1.00  0.00     0.000 C 
BRANCH   9  10
ATOM     10  C   UNL     1      31.340   7.183  31.125  1.00  0.00     0.000 C 
BRANCH  10  11
ATOM     11  C   UNL     1      30.972   8.436  31.940  1.00  0.00    -0.000 C 
BRANCH  11  12
ATOM     12  C   UNL     1      32.091   9.499  31.908  1.00  0.00    -0.000 C 
BRANCH  12  13
ATOM     13  C   UNL     1      33.476   8.924  31.566  1.00  0.00    -0.003 C 
ATOM     14  C   UNL     1      34.211   9.729  30.497  1.00  0.00     0.004 C 
ENDBRANCH  12  13
ENDBRANCH  11  12
ENDBRANCH  10  11
ENDBRANCH   9  10
ENDBRANCH   1   9
TORSDOF 9
ENDMDL
MODEL 7
REMARK VINA RESULT:    -3.647      1.424      2.622
REMARK INTER + INTRA:          -7.012
REMARK INTER:                  -5.761
REMARK INTRA:                  -1.251
REMARK UNBOUND:                -1.447
REMARK SMILES CCCCCCCCCC=CC(=O)[O-]
REMARK SMILES IDX 7 1 8 2 9 3 10 4 11 5 12 6 13 7 14 8 6 9 5 10 4 11 3 12 2 13
REMARK SMILES IDX 1 14
REMARK H PARENT
REMARK Flexibility Score: inf
ROOT
ATOM      1  C   UNL     1      32.795   8.439  28.488  1.00  0.00     0.000 C 
ENDROOT
BRANCH   1   2
ATOM      2  C   UNL     1      31.696   9.182  27.714  1.00  0.00     0.004 C 
BRANCH   2   3
ATOM      3  C   UNL     1      30.297   8.904  28.284  1.00  0.00     0.027 C 
BRANCH   3   4
ATOM      4  C   UNL     1      29.613  10.155  28.761  1.00  0.00    -0.025 C 
ATOM      5  C   UNL     1      29.378  10.371  30.060  1.00  0.00     0.020 C 
BRANCH   5   6
ATOM      6  C   UNL     1      28.704  11.585  30.548  1.00  0.00     0.064 C 
ATOM      7  O   UNL     1      28.331  12.488  29.752  1.00  0.00    -0.545 OA
ATOM      8  O   UNL     1      28.477  11.739  31.910  1.00  0.00    -0.545 OA
ENDBRANCH   5   6
ENDBRANCH   3   4
ENDBRANCH   2   3
ENDBRANCH   1   2
BRANCH   1   9
ATOM      9  C   UNL     1      33.264   9.260  29.698  1.00  0.00     0.000 C 
BRANCH   9  10
ATOM     10  C   UNL     1      34.240   8.485  30.598  1.00  0.00     0.000 C 
BRANCH  10  11
ATOM     11  C   UNL     1      33.546   7.850  31.817  1.00  0.00    -0.000 C 
BRANCH  11  12
ATOM     12  C   UNL     1      32.115   8.392  32.019  1.00  0.00    -0.000 C 
BRANCH  12  13
ATOM     13  C   UNL     1      31.062   7.288  32.218  1.00  0.00    -0.003 C 
ATOM     14  C   UNL     1      30.709   6.556  30.925  1.00  0.00     0.004 C 
ENDBRANCH  12  13
ENDBRANCH  11  12
ENDBRANCH  10  11
ENDBRANCH   9  10
ENDBRANCH   1   9
TORSDOF 9
ENDMDL
MODEL 8
REMARK VINA RESULT:    -3.629      1.708      3.749
REMARK INTER + INTRA:          -6.986
REMARK INTER:                  -5.403
REMARK INTRA:                  -1.583
REMARK UNBOUND:                -1.447
REMARK SMILES CCCCCCCCCC=CC(=O)[O-]
REMARK SMILES IDX 7 1 8 2 9 3 10 4 11 5 12 6 13 7 14 8 6 9 5 10 4 11 3 12 2 13
REMARK SMILES IDX 1 14
REMARK H PARENT
REMARK Flexibility Score: inf
ROOT
ATOM      1  C   UNL     1      31.330   7.057  31.516  1.00  0.00     0.000 C 
ENDROOT
BRANCH   1   2
ATOM      2  C   UNL     1      30.175   7.244  30.521  1.00  0.00     0.004 C 
BRANCH   2   3
ATOM      3  C   UNL     1      30.673   7.389  29.075  1.00  0.00     0.027 C 
BRANCH   3   4
ATOM      4  C   UNL     1      30.594   8.807  28.581  1.00  0.00    -0.025 C 
ATOM      5  C   UNL     1      29.712   9.676  29.086  1.00  0.00     0.020 C 
BRANCH   5   6
ATOM      6  C   UNL     1      29.614  11.065  28.612  1.00  0.00     0.064 C 
ATOM      7  O   UNL     1      28.641  11.448  27.910  1.00  0.00    -0.545 OA
ATOM      8  O   UNL     1      30.615  11.971  28.943  1.00  0.00    -0.545 OA
ENDBRANCH   5   6
ENDBRANCH   3   4
ENDBRANCH   2   3
ENDBRANCH   1   2
BRANCH   1   9
ATOM      9  C   UNL     1      31.219   8.055  32.679  1.00  0.00     0.000 C 
BRANCH   9  10
ATOM     10  C   UNL     1      31.593   9.488  32.267  1.00  0.00     0.000 C 
BRANCH  10  11
ATOM     11  C   UNL     1      33.102   9.658  32.015  1.00  0.00    -0.000 C 
BRANCH  11  12
ATOM     12  C   UNL     1      33.409  10.011  30.544  1.00  0.00    -0.000 C 
BRANCH  12  13
ATOM     13  C   UNL     1      34.187   8.913  29.798  1.00  0.00    -0.003 C 
ATOM     14  C   UNL     1      35.014   8.028  30.728  1.00  0.00     0.004 C 
ENDBRANCH  12  13
ENDBRANCH  11  12
ENDBRANCH  10  11
ENDBRANCH   9  10
ENDBRANCH   1   9
TORSDOF 9
ENDMDL
MODEL 9
REMARK VINA RESULT:    -3.596      1.729      2.621
REMARK INTER + INTRA:          -6.936
REMARK INTER:                  -5.328
REMARK INTRA:                  -1.607
REMARK UNBOUND:                -1.447
REMARK SMILES CCCCCCCCCC=CC(=O)[O-]
REMARK SMILES IDX 7 1 8 2 9 3 10 4 11 5 12 6 13 7 14 8 6 9 5 10 4 11 3 12 2 13
REMARK SMILES IDX 1 14
REMARK H PARENT
REMARK Flexibility Score: inf
ROOT
ATOM      1  C   UNL     1      32.021  11.509  31.652  1.00  0.00     0.000 C 
ENDROOT
BRANCH   1   2
ATOM      2  C   UNL     1      30.786  11.221  32.517  1.00  0.00     0.004 C 
BRANCH   2   3
ATOM      3  C   UNL     1      29.509  11.081  31.676  1.00  0.00     0.027 C 
BRANCH   3   4
ATOM      4  C   UNL     1      29.785  11.140  30.199  1.00  0.00    -0.025 C 
ATOM      5  C   UNL     1      29.097  10.393  29.329  1.00  0.00     0.020 C 
BRANCH   5   6
ATOM      6  C   UNL     1      29.356  10.431  27.881  1.00  0.00     0.064 C 
ATOM      7  O   UNL     1      28.616  11.092  27.104  1.00  0.00    -0.545 OA
ATOM      8  O   UNL     1      30.435   9.727  27.362  1.00  0.00    -0.545 OA
ENDBRANCH   5   6
ENDBRANCH   3   4
ENDBRANCH   2   3
ENDBRANCH   1   2
BRANCH   1   9
ATOM      9  C   UNL     1      32.984  10.312  31.654  1.00  0.00     0.000 C 
BRANCH   9  10
ATOM     10  C   UNL     1      33.274   9.782  30.241  1.00  0.00     0.000 C 
BRANCH  10  11
ATOM     11  C   UNL     1      32.520   8.477  29.930  1.00  0.00    -0.000 C 
BRANCH  11  12
ATOM     12  C   UNL     1      32.063   7.749  31.213  1.00  0.00    -0.000 C 
BRANCH  12  13
ATOM     13  C   UNL     1      30.601   7.276  31.163  1.00  0.00    -0.003 C 
ATOM     14  C   UNL     1      30.130   6.931  29.751  1.00  0.00     0.004 C 
ENDBRANCH  12  13
ENDBRANCH  11  12
ENDBRANCH  10  11
ENDBRANCH   9  10
ENDBRANCH   1   9
TORSDOF 9
ENDMDL
