MODEL 1
REMARK VINA RESULT:    -5.044      0.000      0.000
REMARK INTER + INTRA:          -5.532
REMARK INTER:                  -5.486
REMARK INTRA:                  -0.046
REMARK UNBOUND:                -0.046
REMARK SMILES COc1ccccc1O
REMARK SMILES IDX 3 1 4 2 5 3 6 4 7 5 8 6 2 7 1 8 9 9
REMARK H PARENT 9 10
REMARK Flexibility Score: inf
ROOT
ATOM      1  C   UNL     1       1.075  -1.140  -0.713  1.00  0.00     0.160 A 
ATOM      2  C   UNL     1       0.221  -1.177   0.408  1.00  0.00     0.050 A 
ATOM      3  C   UNL     1      -0.049  -0.011   1.128  1.00  0.00     0.004 A 
ATOM      4  C   UNL     1       0.525   1.201   0.741  1.00  0.00     0.004 A 
ATOM      5  C   UNL     1       1.373   1.250  -0.368  1.00  0.00     0.050 A 
ATOM      6  C   UNL     1       1.651   0.087  -1.097  1.00  0.00     0.157 A 
ENDROOT
BRANCH   1   7
ATOM      7  O   UNL     1       1.371  -2.291  -1.463  1.00  0.00    -0.493 OA
ATOM      8  C   UNL     1       2.292  -3.300  -1.061  1.00  0.00     0.278 C 
ENDBRANCH   1   7
BRANCH   6   9
ATOM      9  O   UNL     1       2.502   0.172  -2.199  1.00  0.00    -0.504 OA
ATOM     10  H   UNL     1       3.505   0.275  -2.099  1.00  0.00     0.293 HD
ENDBRANCH   6   9
TORSDOF 2
ENDMDL
MODEL 2
REMARK VINA RESULT:    -4.705      0.936      2.500
REMARK INTER + INTRA:          -5.163
REMARK INTER:                  -5.126
REMARK INTRA:                  -0.037
REMARK UNBOUND:                -0.046
REMARK SMILES COc1ccccc1O
REMARK SMILES IDX 3 1 4 2 5 3 6 4 7 5 8 6 2 7 1 8 9 9
REMARK H PARENT 9 10
REMARK Flexibility Score: inf
ROOT
ATOM      1  C   UNL     1       1.177   0.058  -1.322  1.00  0.00     0.160 A 
ATOM      2  C   UNL     1       0.835   1.190  -0.555  1.00  0.00     0.050 A 
ATOM      3  C   UNL     1       0.355   1.041   0.748  1.00  0.00     0.004 A 
ATOM      4  C   UNL     1       0.210  -0.233   1.300  1.00  0.00     0.004 A 
ATOM      5  C   UNL     1       0.545  -1.361   0.550  1.00  0.00     0.050 A 
ATOM      6  C   UNL     1       1.028  -1.224  -0.757  1.00  0.00     0.157 A 
ENDROOT
BRANCH   1   7
ATOM      7  O   UNL     1       1.663   0.167  -2.636  1.00  0.00    -0.493 OA
ATOM      8  C   UNL     1       3.038   0.309  -2.977  1.00  0.00     0.278 C 
ENDBRANCH   1   7
BRANCH   6   9
ATOM      9  O   UNL     1       1.353  -2.373  -1.478  1.00  0.00    -0.504 OA
ATOM     10  H   UNL     1       1.202  -2.444  -2.478  1.00  0.00     0.293 HD
ENDBRANCH   6   9
TORSDOF 2
ENDMDL
MODEL 3
REMARK VINA RESULT:    -4.569      1.092      2.286
REMARK INTER + INTRA:          -5.016
REMARK INTER:                  -4.972
REMARK INTRA:                  -0.044
REMARK UNBOUND:                -0.046
REMARK SMILES COc1ccccc1O
REMARK SMILES IDX 3 1 4 2 5 3 6 4 7 5 8 6 2 7 1 8 9 9
REMARK H PARENT 9 10
REMARK Flexibility Score: inf
ROOT
ATOM      1  C   UNL     1       1.102  -0.991  -0.646  1.00  0.00     0.160 A 
ATOM      2  C   UNL     1       1.946   0.071  -1.029  1.00  0.00     0.050 A 
ATOM      3  C   UNL     1       1.824   1.324  -0.421  1.00  0.00     0.004 A 
ATOM      4  C   UNL     1       0.864   1.531   0.570  1.00  0.00     0.004 A 
ATOM      5  C   UNL     1       0.022   0.487   0.956  1.00  0.00     0.050 A 
ATOM      6  C   UNL     1       0.135  -0.772   0.355  1.00  0.00     0.157 A 
ENDROOT
BRANCH   1   7
ATOM      7  O   UNL     1       1.194  -2.264  -1.233  1.00  0.00    -0.493 OA
ATOM      8  C   UNL     1       2.276  -3.167  -1.032  1.00  0.00     0.278 C 
ENDBRANCH   1   7
BRANCH   6   9
ATOM      9  O   UNL     1      -0.722  -1.793   0.765  1.00  0.00    -0.504 OA
ATOM     10  H   UNL     1      -1.582  -2.006   0.274  1.00  0.00     0.293 HD
ENDBRANCH   6   9
TORSDOF 2
ENDMDL
MODEL 4
REMARK VINA RESULT:    -4.389      9.177     10.566
REMARK INTER + INTRA:          -4.820
REMARK INTER:                  -4.793
REMARK INTRA:                  -0.027
REMARK UNBOUND:                -0.046
REMARK SMILES COc1ccccc1O
REMARK SMILES IDX 3 1 4 2 5 3 6 4 7 5 8 6 2 7 1 8 9 9
REMARK H PARENT 9 10
REMARK Flexibility Score: inf
ROOT
ATOM      1  C   UNL     1      -3.386   8.236  -0.509  1.00  0.00     0.160 A 
ATOM      2  C   UNL     1      -4.068   8.748   0.614  1.00  0.00     0.050 A 
ATOM      3  C   UNL     1      -5.303   9.383   0.460  1.00  0.00     0.004 A 
ATOM      4  C   UNL     1      -5.870   9.515  -0.808  1.00  0.00     0.004 A 
ATOM      5  C   UNL     1      -5.204   9.012  -1.927  1.00  0.00     0.050 A 
ATOM      6  C   UNL     1      -3.966   8.373  -1.785  1.00  0.00     0.157 A 
ENDROOT
BRANCH   1   7
ATOM      7  O   UNL     1      -2.144   7.591  -0.395  1.00  0.00    -0.493 OA
ATOM      8  C   UNL     1      -1.184   7.863   0.620  1.00  0.00     0.278 C 
ENDBRANCH   1   7
BRANCH   6   9
ATOM      9  O   UNL     1      -3.328   7.882  -2.925  1.00  0.00    -0.504 OA
ATOM     10  H   UNL     1      -3.196   8.448  -3.755  1.00  0.00     0.293 HD
ENDBRANCH   6   9
TORSDOF 2
ENDMDL
MODEL 5
REMARK VINA RESULT:    -4.384      8.492     10.098
REMARK INTER + INTRA:          -4.814
REMARK INTER:                  -4.771
REMARK INTRA:                  -0.043
REMARK UNBOUND:                -0.046
REMARK SMILES COc1ccccc1O
REMARK SMILES IDX 3 1 4 2 5 3 6 4 7 5 8 6 2 7 1 8 9 9
REMARK H PARENT 9 10
REMARK Flexibility Score: inf
ROOT
ATOM      1  C   UNL     1      -3.067   8.599  -1.045  1.00  0.00     0.160 A 
ATOM      2  C   UNL     1      -2.804   9.607  -0.094  1.00  0.00     0.050 A 
ATOM      3  C   UNL     1      -1.844   9.406   0.900  1.00  0.00     0.004 A 
ATOM      4  C   UNL     1      -1.137   8.204   0.959  1.00  0.00     0.004 A 
ATOM      5  C   UNL     1      -1.389   7.199   0.023  1.00  0.00     0.050 A 
ATOM      6  C   UNL     1      -2.349   7.389  -0.978  1.00  0.00     0.157 A 
ENDROOT
BRANCH   1   7
ATOM      7  O   UNL     1      -4.024   8.764  -2.059  1.00  0.00    -0.493 OA
ATOM      8  C   UNL     1      -5.428   8.848  -1.837  1.00  0.00     0.278 C 
ENDBRANCH   1   7
BRANCH   6   9
ATOM      9  O   UNL     1      -2.575   6.364  -1.896  1.00  0.00    -0.504 OA
ATOM     10  H   UNL     1      -1.908   6.134  -2.623  1.00  0.00     0.293 HD
ENDBRANCH   6   9
TORSDOF 2
ENDMDL
MODEL 6
REMARK VINA RESULT:    -4.318      2.372      3.504
REMARK INTER + INTRA:          -4.742
REMARK INTER:                  -4.702
REMARK INTRA:                  -0.040
REMARK UNBOUND:                -0.046
REMARK SMILES COc1ccccc1O
REMARK SMILES IDX 3 1 4 2 5 3 6 4 7 5 8 6 2 7 1 8 9 9
REMARK H PARENT 9 10
REMARK Flexibility Score: inf
ROOT
ATOM      1  C   UNL     1       0.603   0.155   0.070  1.00  0.00     0.160 A 
ATOM      2  C   UNL     1       1.896   0.522  -0.354  1.00  0.00     0.050 A 
ATOM      3  C   UNL     1       2.308   0.266  -1.664  1.00  0.00     0.004 A 
ATOM      4  C   UNL     1       1.440  -0.358  -2.562  1.00  0.00     0.004 A 
ATOM      5  C   UNL     1       0.157  -0.726  -2.152  1.00  0.00     0.050 A 
ATOM      6  C   UNL     1      -0.266  -0.473  -0.842  1.00  0.00     0.157 A 
ENDROOT
BRANCH   1   7
ATOM      7  O   UNL     1       0.153   0.397   1.379  1.00  0.00    -0.493 OA
ATOM      8  C   UNL     1       0.342  -0.493   2.474  1.00  0.00     0.278 C 
ENDBRANCH   1   7
BRANCH   6   9
ATOM      9  O   UNL     1      -1.555  -0.855  -0.466  1.00  0.00    -0.504 OA
ATOM     10  H   UNL     1      -2.209  -1.264  -1.122  1.00  0.00     0.293 HD
ENDBRANCH   6   9
TORSDOF 2
ENDMDL
MODEL 7
REMARK VINA RESULT:    -4.191      9.518     10.556
REMARK INTER + INTRA:          -4.604
REMARK INTER:                  -4.578
REMARK INTRA:                  -0.026
REMARK UNBOUND:                -0.046
REMARK SMILES COc1ccccc1O
REMARK SMILES IDX 3 1 4 2 5 3 6 4 7 5 8 6 2 7 1 8 9 9
REMARK H PARENT 9 10
REMARK Flexibility Score: inf
ROOT
ATOM      1  C   UNL     1      -2.494   8.797   0.479  1.00  0.00     0.160 A 
ATOM      2  C   UNL     1      -3.030   9.878   1.207  1.00  0.00     0.050 A 
ATOM      3  C   UNL     1      -4.412  10.010   1.360  1.00  0.00     0.004 A 
ATOM      4  C   UNL     1      -5.273   9.071   0.791  1.00  0.00     0.004 A 
ATOM      5  C   UNL     1      -4.753   7.996   0.067  1.00  0.00     0.050 A 
ATOM      6  C   UNL     1      -3.370   7.854  -0.092  1.00  0.00     0.157 A 
ENDROOT
BRANCH   1   7
ATOM      7  O   UNL     1      -1.110   8.630   0.304  1.00  0.00    -0.493 OA
ATOM      8  C   UNL     1      -0.114   9.288   1.080  1.00  0.00     0.278 C 
ENDBRANCH   1   7
BRANCH   6   9
ATOM      9  O   UNL     1      -2.885   6.768  -0.822  1.00  0.00    -0.504 OA
ATOM     10  H   UNL     1      -1.894   6.612  -0.964  1.00  0.00     0.293 HD
ENDBRANCH   6   9
TORSDOF 2
ENDMDL
MODEL 8
REMARK VINA RESULT:    -4.147      1.970      3.057
REMARK INTER + INTRA:          -4.556
REMARK INTER:                  -4.510
REMARK INTRA:                  -0.046
REMARK UNBOUND:                -0.046
REMARK SMILES COc1ccccc1O
REMARK SMILES IDX 3 1 4 2 5 3 6 4 7 5 8 6 2 7 1 8 9 9
REMARK H PARENT 9 10
REMARK Flexibility Score: inf
ROOT
ATOM      1  C   UNL     1       0.711  -0.512   0.328  1.00  0.00     0.160 A 
ATOM      2  C   UNL     1       0.914  -1.737  -0.340  1.00  0.00     0.050 A 
ATOM      3  C   UNL     1       1.707  -1.791  -1.488  1.00  0.00     0.004 A 
ATOM      4  C   UNL     1       2.305  -0.630  -1.982  1.00  0.00     0.004 A 
ATOM      5  C   UNL     1       2.110   0.588  -1.329  1.00  0.00     0.050 A 
ATOM      6  C   UNL     1       1.318   0.654  -0.177  1.00  0.00     0.157 A 
ENDROOT
BRANCH   1   7
ATOM      7  O   UNL     1      -0.079  -0.418   1.486  1.00  0.00    -0.493 OA
ATOM      8  C   UNL     1       0.347  -0.809   2.787  1.00  0.00     0.278 C 
ENDBRANCH   1   7
BRANCH   6   9
ATOM      9  O   UNL     1       1.145   1.888   0.451  1.00  0.00    -0.504 OA
ATOM     10  H   UNL     1       0.524   2.598   0.083  1.00  0.00     0.293 HD
ENDBRANCH   6   9
TORSDOF 2
ENDMDL
MODEL 9
REMARK VINA RESULT:    -4.090      9.855     11.255
REMARK INTER + INTRA:          -4.494
REMARK INTER:                  -4.469
REMARK INTRA:                  -0.026
REMARK UNBOUND:                -0.046
REMARK SMILES COc1ccccc1O
REMARK SMILES IDX 3 1 4 2 5 3 6 4 7 5 8 6 2 7 1 8 9 9
REMARK H PARENT 9 10
REMARK Flexibility Score: inf
ROOT
ATOM      1  C   UNL     1      -3.254   9.039   0.067  1.00  0.00     0.160 A 
ATOM      2  C   UNL     1      -2.991   8.634  -1.257  1.00  0.00     0.050 A 
ATOM      3  C   UNL     1      -4.022   8.592  -2.200  1.00  0.00     0.004 A 
ATOM      4  C   UNL     1      -5.320   8.952  -1.835  1.00  0.00     0.004 A 
ATOM      5  C   UNL     1      -5.592   9.354  -0.526  1.00  0.00     0.050 A 
ATOM      6  C   UNL     1      -4.567   9.400   0.427  1.00  0.00     0.157 A 
ENDROOT
BRANCH   1   7
ATOM      7  O   UNL     1      -2.244   9.094   1.043  1.00  0.00    -0.493 OA
ATOM      8  C   UNL     1      -0.983   8.442   0.935  1.00  0.00     0.278 C 
ENDBRANCH   1   7
BRANCH   6   9
ATOM      9  O   UNL     1      -4.873   9.807   1.725  1.00  0.00    -0.504 OA
ATOM     10  H   UNL     1      -5.604  10.481   1.921  1.00  0.00     0.293 HD
ENDBRANCH   6   9
TORSDOF 2
ENDMDL
