MODEL 1
REMARK VINA RESULT:    -5.586      0.000      0.000
REMARK INTER + INTRA:          -6.273
REMARK INTER:                  -6.076
REMARK INTRA:                  -0.196
REMARK UNBOUND:                -0.196
REMARK SMILES Cc1ccc(C(C)C)c(O)c1
REMARK SMILES IDX 1 1 2 2 11 3 9 4 5 5 4 6 3 7 10 8 6 10 7 11 8 12
REMARK H PARENT 10 9
REMARK Flexibility Score: inf
ROOT
ATOM      1  C   UNL     1      59.147 152.658   2.762  1.00  0.00     0.044 C 
ATOM      2  C   UNL     1      60.496 152.313   3.318  1.00  0.00    -0.047 A 
ATOM      3  C   UNL     1      60.701 152.279   4.703  1.00  0.00     0.049 A 
ATOM      4  C   UNL     1      61.950 151.921   5.233  1.00  0.00     0.119 A 
ATOM      5  C   UNL     1      63.015 151.578   4.366  1.00  0.00    -0.004 A 
ATOM      6  C   UNL     1      62.789 151.598   2.977  1.00  0.00     0.008 A 
ATOM      7  C   UNL     1      61.542 151.955   2.460  1.00  0.00     0.004 A 
ENDROOT
BRANCH   4   8
ATOM      8  O   UNL     1      62.125 151.905   6.617  1.00  0.00    -0.508 OA
ATOM      9  H   UNL     1      61.766 152.646   7.208  1.00  0.00     0.293 HD
ENDBRANCH   4   8
BRANCH   5  10
ATOM     10  C   UNL     1      64.393 151.183   4.882  1.00  0.00     0.017 C 
ATOM     11  C   UNL     1      65.327 152.393   4.994  1.00  0.00     0.012 C 
ATOM     12  C   UNL     1      65.018 150.064   4.039  1.00  0.00     0.012 C 
ENDBRANCH   5  10
TORSDOF 2
ENDMDL
MODEL 2
REMARK VINA RESULT:    -5.506      2.528      4.246
REMARK INTER + INTRA:          -6.186
REMARK INTER:                  -5.994
REMARK INTRA:                  -0.192
REMARK UNBOUND:                -0.196
REMARK SMILES Cc1ccc(C(C)C)c(O)c1
REMARK SMILES IDX 1 1 2 2 11 3 9 4 5 5 4 6 3 7 10 8 6 10 7 11 8 12
REMARK H PARENT 10 9
REMARK Flexibility Score: inf
ROOT
ATOM      1  C   UNL     1      65.587 152.424   4.629  1.00  0.00     0.044 C 
ATOM      2  C   UNL     1      64.541 151.382   4.892  1.00  0.00    -0.047 A 
ATOM      3  C   UNL     1      63.192 151.656   4.636  1.00  0.00     0.049 A 
ATOM      4  C   UNL     1      62.210 150.675   4.844  1.00  0.00     0.119 A 
ATOM      5  C   UNL     1      62.580 149.391   5.307  1.00  0.00    -0.004 A 
ATOM      6  C   UNL     1      63.942 149.124   5.543  1.00  0.00     0.008 A 
ATOM      7  C   UNL     1      64.912 150.107   5.332  1.00  0.00     0.004 A 
ENDROOT
BRANCH   4   8
ATOM      8  O   UNL     1      60.874 150.982   4.587  1.00  0.00    -0.508 OA
ATOM      9  H   UNL     1      60.493 151.903   4.770  1.00  0.00     0.293 HD
ENDBRANCH   4   8
BRANCH   5  10
ATOM     10  C   UNL     1      61.561 148.286   5.554  1.00  0.00     0.017 C 
ATOM     11  C   UNL     1      60.968 148.363   6.966  1.00  0.00     0.012 C 
ATOM     12  C   UNL     1      62.143 146.897   5.262  1.00  0.00     0.012 C 
ENDBRANCH   5  10
TORSDOF 2
ENDMDL
MODEL 3
REMARK VINA RESULT:    -5.224      1.480      4.181
REMARK INTER + INTRA:          -5.878
REMARK INTER:                  -5.827
REMARK INTRA:                  -0.051
REMARK UNBOUND:                -0.196
REMARK SMILES Cc1ccc(C(C)C)c(O)c1
REMARK SMILES IDX 1 1 2 2 11 3 9 4 5 5 4 6 3 7 10 8 6 10 7 11 8 12
REMARK H PARENT 10 9
REMARK Flexibility Score: inf
ROOT
ATOM      1  C   UNL     1      65.437 149.359   5.663  1.00  0.00     0.044 C 
ATOM      2  C   UNL     1      64.228 149.985   5.034  1.00  0.00    -0.047 A 
ATOM      3  C   UNL     1      62.951 149.721   5.543  1.00  0.00     0.049 A 
ATOM      4  C   UNL     1      61.817 150.331   4.984  1.00  0.00     0.119 A 
ATOM      5  C   UNL     1      61.959 151.231   3.902  1.00  0.00    -0.004 A 
ATOM      6  C   UNL     1      63.251 151.501   3.412  1.00  0.00     0.008 A 
ATOM      7  C   UNL     1      64.373 150.890   3.976  1.00  0.00     0.004 A 
ENDROOT
BRANCH   4   8
ATOM      8  O   UNL     1      60.558 150.041   5.508  1.00  0.00    -0.508 OA
ATOM      9  H   UNL     1      60.198 150.517   6.327  1.00  0.00     0.293 HD
ENDBRANCH   4   8
BRANCH   5  10
ATOM     10  C   UNL     1      60.767 151.922   3.252  1.00  0.00     0.017 C 
ATOM     11  C   UNL     1      61.143 152.564   1.911  1.00  0.00     0.012 C 
ATOM     12  C   UNL     1      60.110 152.935   4.197  1.00  0.00     0.012 C 
ENDBRANCH   5  10
TORSDOF 2
ENDMDL
MODEL 4
REMARK VINA RESULT:    -5.136      2.921      3.755
REMARK INTER + INTRA:          -5.783
REMARK INTER:                  -5.715
REMARK INTRA:                  -0.068
REMARK UNBOUND:                -0.196
REMARK SMILES Cc1ccc(C(C)C)c(O)c1
REMARK SMILES IDX 1 1 2 2 11 3 9 4 5 5 4 6 3 7 10 8 6 10 7 11 8 12
REMARK H PARENT 10 9
REMARK Flexibility Score: inf
ROOT
ATOM      1  C   UNL     1      60.110 147.323   7.289  1.00  0.00     0.044 C 
ATOM      2  C   UNL     1      61.190 148.105   6.602  1.00  0.00    -0.047 A 
ATOM      3  C   UNL     1      61.442 149.432   6.969  1.00  0.00     0.049 A 
ATOM      4  C   UNL     1      62.474 150.161   6.358  1.00  0.00     0.119 A 
ATOM      5  C   UNL     1      63.280 149.550   5.369  1.00  0.00    -0.004 A 
ATOM      6  C   UNL     1      63.028 148.209   5.023  1.00  0.00     0.008 A 
ATOM      7  C   UNL     1      61.998 147.493   5.638  1.00  0.00     0.004 A 
ENDROOT
BRANCH   4   8
ATOM      8  O   UNL     1      62.694 151.484   6.739  1.00  0.00    -0.508 OA
ATOM      9  H   UNL     1      62.197 152.253   6.306  1.00  0.00     0.293 HD
ENDBRANCH   4   8
BRANCH   5  10
ATOM     10  C   UNL     1      64.414 150.288   4.668  1.00  0.00     0.017 C 
ATOM     11  C   UNL     1      63.888 151.388   3.737  1.00  0.00     0.012 C 
ATOM     12  C   UNL     1      65.352 149.326   3.930  1.00  0.00     0.012 C 
ENDBRANCH   5  10
TORSDOF 2
ENDMDL
MODEL 5
REMARK VINA RESULT:    -5.113      3.071      3.832
REMARK INTER + INTRA:          -5.758
REMARK INTER:                  -5.586
REMARK INTRA:                  -0.172
REMARK UNBOUND:                -0.196
REMARK SMILES Cc1ccc(C(C)C)c(O)c1
REMARK SMILES IDX 1 1 2 2 11 3 9 4 5 5 4 6 3 7 10 8 6 10 7 11 8 12
REMARK H PARENT 10 9
REMARK Flexibility Score: inf
ROOT
ATOM      1  C   UNL     1      59.083 149.351   7.400  1.00  0.00     0.044 C 
ATOM      2  C   UNL     1      60.435 149.372   6.753  1.00  0.00    -0.047 A 
ATOM      3  C   UNL     1      61.033 148.179   6.327  1.00  0.00     0.049 A 
ATOM      4  C   UNL     1      62.282 148.192   5.688  1.00  0.00     0.119 A 
ATOM      5  C   UNL     1      62.945 149.420   5.456  1.00  0.00    -0.004 A 
ATOM      6  C   UNL     1      62.325 150.613   5.872  1.00  0.00     0.008 A 
ATOM      7  C   UNL     1      61.081 150.589   6.507  1.00  0.00     0.004 A 
ENDROOT
BRANCH   4   8
ATOM      8  O   UNL     1      62.854 146.986   5.284  1.00  0.00    -0.508 OA
ATOM      9  H   UNL     1      63.176 146.298   5.954  1.00  0.00     0.293 HD
ENDBRANCH   4   8
BRANCH   5  10
ATOM     10  C   UNL     1      64.302 149.499   4.768  1.00  0.00     0.017 C 
ATOM     11  C   UNL     1      65.451 149.199   5.740  1.00  0.00     0.012 C 
ATOM     12  C   UNL     1      64.504 150.840   4.055  1.00  0.00     0.012 C 
ENDBRANCH   5  10
TORSDOF 2
ENDMDL
MODEL 6
REMARK VINA RESULT:    -5.024      1.056      1.235
REMARK INTER + INTRA:          -5.661
REMARK INTER:                  -5.545
REMARK INTRA:                  -0.117
REMARK UNBOUND:                -0.196
REMARK SMILES Cc1ccc(C(C)C)c(O)c1
REMARK SMILES IDX 1 1 2 2 11 3 9 4 5 5 4 6 3 7 10 8 6 10 7 11 8 12
REMARK H PARENT 10 9
REMARK Flexibility Score: inf
ROOT
ATOM      1  C   UNL     1      58.999 153.380   1.951  1.00  0.00     0.044 C 
ATOM      2  C   UNL     1      60.140 152.775   2.714  1.00  0.00    -0.047 A 
ATOM      3  C   UNL     1      60.066 152.639   4.105  1.00  0.00     0.049 A 
ATOM      4  C   UNL     1      61.112 152.041   4.824  1.00  0.00     0.119 A 
ATOM      5  C   UNL     1      62.252 151.556   4.141  1.00  0.00    -0.004 A 
ATOM      6  C   UNL     1      62.305 151.682   2.740  1.00  0.00     0.008 A 
ATOM      7  C   UNL     1      61.258 152.278   2.034  1.00  0.00     0.004 A 
ENDROOT
BRANCH   4   8
ATOM      8  O   UNL     1      61.011 151.928   6.210  1.00  0.00    -0.508 OA
ATOM      9  H   UNL     1      60.628 152.674   6.779  1.00  0.00     0.293 HD
ENDBRANCH   4   8
BRANCH   5  10
ATOM     10  C   UNL     1      63.420 150.898   4.864  1.00  0.00     0.017 C 
ATOM     11  C   UNL     1      64.696 150.910   4.014  1.00  0.00     0.012 C 
ATOM     12  C   UNL     1      63.073 149.483   5.340  1.00  0.00     0.012 C 
ENDBRANCH   5  10
TORSDOF 2
ENDMDL
MODEL 7
REMARK VINA RESULT:    -4.964      2.880      4.673
REMARK INTER + INTRA:          -5.596
REMARK INTER:                  -5.403
REMARK INTRA:                  -0.193
REMARK UNBOUND:                -0.196
REMARK SMILES Cc1ccc(C(C)C)c(O)c1
REMARK SMILES IDX 1 1 2 2 11 3 9 4 5 5 4 6 3 7 10 8 6 10 7 11 8 12
REMARK H PARENT 10 9
REMARK Flexibility Score: inf
ROOT
ATOM      1  C   UNL     1      65.019 152.199   4.250  1.00  0.00     0.044 C 
ATOM      2  C   UNL     1      64.073 151.327   5.021  1.00  0.00    -0.047 A 
ATOM      3  C   UNL     1      64.205 149.934   4.982  1.00  0.00     0.049 A 
ATOM      4  C   UNL     1      63.348 149.111   5.728  1.00  0.00     0.119 A 
ATOM      5  C   UNL     1      62.344 149.689   6.541  1.00  0.00    -0.004 A 
ATOM      6  C   UNL     1      62.234 151.091   6.586  1.00  0.00     0.008 A 
ATOM      7  C   UNL     1      63.093 151.901   5.839  1.00  0.00     0.004 A 
ENDROOT
BRANCH   4   8
ATOM      8  O   UNL     1      63.501 147.727   5.660  1.00  0.00    -0.508 OA
ATOM      9  H   UNL     1      62.704 147.101   5.669  1.00  0.00     0.293 HD
ENDBRANCH   4   8
BRANCH   5  10
ATOM     10  C   UNL     1      61.383 148.849   7.373  1.00  0.00     0.017 C 
ATOM     11  C   UNL     1      59.977 148.821   6.762  1.00  0.00     0.012 C 
ATOM     12  C   UNL     1      61.352 149.300   8.838  1.00  0.00     0.012 C 
ENDBRANCH   5  10
TORSDOF 2
ENDMDL
MODEL 8
REMARK VINA RESULT:    -4.897     18.287     19.820
REMARK INTER + INTRA:          -5.523
REMARK INTER:                  -5.347
REMARK INTRA:                  -0.175
REMARK UNBOUND:                -0.196
REMARK SMILES Cc1ccc(C(C)C)c(O)c1
REMARK SMILES IDX 1 1 2 2 11 3 9 4 5 5 4 6 3 7 10 8 6 10 7 11 8 12
REMARK H PARENT 10 9
REMARK Flexibility Score: inf
ROOT
ATOM      1  C   UNL     1      69.083 137.205  -5.001  1.00  0.00     0.044 C 
ATOM      2  C   UNL     1      69.827 137.829  -6.143  1.00  0.00    -0.047 A 
ATOM      3  C   UNL     1      69.450 139.088  -6.628  1.00  0.00     0.049 A 
ATOM      4  C   UNL     1      70.162 139.696  -7.672  1.00  0.00     0.119 A 
ATOM      5  C   UNL     1      71.283 139.043  -8.239  1.00  0.00    -0.004 A 
ATOM      6  C   UNL     1      71.662 137.788  -7.729  1.00  0.00     0.008 A 
ATOM      7  C   UNL     1      70.947 137.191  -6.689  1.00  0.00     0.004 A 
ENDROOT
BRANCH   4   8
ATOM      8  O   UNL     1      69.756 140.946  -8.139  1.00  0.00    -0.508 OA
ATOM      9  H   UNL     1      70.420 141.688  -8.325  1.00  0.00     0.293 HD
ENDBRANCH   4   8
BRANCH   5  10
ATOM     10  C   UNL     1      72.095 139.652  -9.374  1.00  0.00     0.017 C 
ATOM     11  C   UNL     1      71.436 139.411 -10.738  1.00  0.00     0.012 C 
ATOM     12  C   UNL     1      73.550 139.168  -9.358  1.00  0.00     0.012 C 
ENDBRANCH   5  10
TORSDOF 2
ENDMDL
MODEL 9
REMARK VINA RESULT:    -4.766      2.350      4.397
REMARK INTER + INTRA:          -5.381
REMARK INTER:                  -5.185
REMARK INTRA:                  -0.196
REMARK UNBOUND:                -0.196
REMARK SMILES Cc1ccc(C(C)C)c(O)c1
REMARK SMILES IDX 1 1 2 2 11 3 9 4 5 5 4 6 3 7 10 8 6 10 7 11 8 12
REMARK H PARENT 10 9
REMARK Flexibility Score: inf
ROOT
ATOM      1  C   UNL     1      65.386 149.237   3.876  1.00  0.00     0.044 C 
ATOM      2  C   UNL     1      64.430 150.003   4.741  1.00  0.00    -0.047 A 
ATOM      3  C   UNL     1      64.565 151.389   4.887  1.00  0.00     0.049 A 
ATOM      4  C   UNL     1      63.653 152.120   5.664  1.00  0.00     0.119 A 
ATOM      5  C   UNL     1      62.577 151.458   6.301  1.00  0.00    -0.004 A 
ATOM      6  C   UNL     1      62.443 150.067   6.130  1.00  0.00     0.008 A 
ATOM      7  C   UNL     1      63.355 149.349   5.354  1.00  0.00     0.004 A 
ENDROOT
BRANCH   4   8
ATOM      8  O   UNL     1      63.821 153.498   5.797  1.00  0.00    -0.508 OA
ATOM      9  H   UNL     1      64.705 153.950   5.597  1.00  0.00     0.293 HD
ENDBRANCH   4   8
BRANCH   5  10
ATOM     10  C   UNL     1      61.557 152.195   7.158  1.00  0.00     0.017 C 
ATOM     11  C   UNL     1      61.131 151.366   8.377  1.00  0.00     0.012 C 
ATOM     12  C   UNL     1      60.345 152.653   6.337  1.00  0.00     0.012 C 
ENDBRANCH   5  10
TORSDOF 2
ENDMDL
