MODEL 1
REMARK VINA RESULT:    -3.644      0.000      0.000
REMARK INTER + INTRA:          -5.301
REMARK INTER:                  -4.923
REMARK INTRA:                  -0.378
REMARK UNBOUND:                -0.378
REMARK SMILES CCCCCCC=CC(=O)[O-]
REMARK SMILES IDX 5 1 6 2 7 3 8 4 9 5 10 6 11 7 4 8 3 9 2 10 1 11
REMARK H PARENT
REMARK Flexibility Score: inf
ROOT
ATOM      1  C   UNL     1      -6.397 -10.033  18.891  1.00  0.00     0.004 C 
ENDROOT
BRANCH   1   2
ATOM      2  C   UNL     1      -5.712 -10.908  17.833  1.00  0.00     0.027 C 
BRANCH   2   3
ATOM      3  C   UNL     1      -5.396 -10.118  16.596  1.00  0.00    -0.025 C 
ATOM      4  C   UNL     1      -6.019  -8.967  16.324  1.00  0.00     0.020 C 
BRANCH   4   5
ATOM      5  C   UNL     1      -5.729  -8.191  15.109  1.00  0.00     0.064 C 
ATOM      6  O   UNL     1      -6.678  -7.693  14.448  1.00  0.00    -0.545 OA
ATOM      7  O   UNL     1      -4.421  -7.997  14.678  1.00  0.00    -0.545 OA
ENDBRANCH   4   5
ENDBRANCH   2   3
ENDBRANCH   1   2
BRANCH   1   8
ATOM      8  C   UNL     1      -7.068 -10.895  19.966  1.00  0.00     0.000 C 
BRANCH   8   9
ATOM      9  C   UNL     1      -6.463 -12.304  19.999  1.00  0.00    -0.000 C 
BRANCH   9  10
ATOM     10  C   UNL     1      -7.555 -13.368  20.151  1.00  0.00    -0.003 C 
ATOM     11  C   UNL     1      -8.927 -12.726  20.337  1.00  0.00     0.004 C 
ENDBRANCH   9  10
ENDBRANCH   8   9
ENDBRANCH   1   8
TORSDOF 6
ENDMDL
MODEL 2
REMARK VINA RESULT:    -3.569     12.390     13.840
REMARK INTER + INTRA:          -5.199
REMARK INTER:                  -4.576
REMARK INTRA:                  -0.623
REMARK UNBOUND:                -0.378
REMARK SMILES CCCCCCC=CC(=O)[O-]
REMARK SMILES IDX 5 1 6 2 7 3 8 4 9 5 10 6 11 7 4 8 3 9 2 10 1 11
REMARK H PARENT
REMARK Flexibility Score: inf
ROOT
ATOM      1  C   UNL     1       2.576 -15.656  15.106  1.00  0.00     0.004 C 
ENDROOT
BRANCH   1   2
ATOM      2  C   UNL     1       3.691 -16.224  15.994  1.00  0.00     0.027 C 
BRANCH   2   3
ATOM      3  C   UNL     1       4.344 -17.415  15.353  1.00  0.00    -0.025 C 
ATOM      4  C   UNL     1       5.202 -17.279  14.338  1.00  0.00     0.020 C 
BRANCH   4   5
ATOM      5  C   UNL     1       5.838 -18.437  13.692  1.00  0.00     0.064 C 
ATOM      6  O   UNL     1       6.728 -18.253  12.821  1.00  0.00    -0.545 OA
ATOM      7  O   UNL     1       5.470 -19.736  14.029  1.00  0.00    -0.545 OA
ENDBRANCH   4   5
ENDBRANCH   2   3
ENDBRANCH   1   2
BRANCH   1   8
ATOM      8  C   UNL     1       3.069 -14.437  14.319  1.00  0.00     0.000 C 
BRANCH   8   9
ATOM      9  C   UNL     1       3.952 -13.536  15.193  1.00  0.00    -0.000 C 
BRANCH   9  10
ATOM     10  C   UNL     1       5.278 -13.222  14.493  1.00  0.00    -0.003 C 
ATOM     11  C   UNL     1       6.454 -13.859  15.229  1.00  0.00     0.004 C 
ENDBRANCH   9  10
ENDBRANCH   8   9
ENDBRANCH   1   8
TORSDOF 6
ENDMDL
MODEL 3
REMARK VINA RESULT:    -3.552     12.131     13.392
REMARK INTER + INTRA:          -5.176
REMARK INTER:                  -4.546
REMARK INTRA:                  -0.630
REMARK UNBOUND:                -0.378
REMARK SMILES CCCCCCC=CC(=O)[O-]
REMARK SMILES IDX 5 1 6 2 7 3 8 4 9 5 10 6 11 7 4 8 3 9 2 10 1 11
REMARK H PARENT
REMARK Flexibility Score: inf
ROOT
ATOM      1  C   UNL     1       4.338 -18.358  15.849  1.00  0.00     0.004 C 
ENDROOT
BRANCH   1   2
ATOM      2  C   UNL     1       4.322 -17.212  16.868  1.00  0.00     0.027 C 
BRANCH   2   3
ATOM      3  C   UNL     1       3.796 -15.946  16.255  1.00  0.00    -0.025 C 
ATOM      4  C   UNL     1       3.278 -15.929  15.024  1.00  0.00     0.020 C 
BRANCH   4   5
ATOM      5  C   UNL     1       2.772 -14.695  14.405  1.00  0.00     0.064 C 
ATOM      6  O   UNL     1       1.545 -14.587  14.144  1.00  0.00    -0.545 OA
ATOM      7  O   UNL     1       3.629 -13.641  14.105  1.00  0.00    -0.545 OA
ENDBRANCH   4   5
ENDBRANCH   2   3
ENDBRANCH   1   2
BRANCH   1   8
ATOM      8  C   UNL     1       5.750 -18.582  15.296  1.00  0.00     0.000 C 
BRANCH   8   9
ATOM      9  C   UNL     1       5.776 -18.420  13.771  1.00  0.00    -0.000 C 
BRANCH   9  10
ATOM     10  C   UNL     1       6.994 -17.603  13.326  1.00  0.00    -0.003 C 
ATOM     11  C   UNL     1       7.066 -16.271  14.068  1.00  0.00     0.004 C 
ENDBRANCH   9  10
ENDBRANCH   8   9
ENDBRANCH   1   8
TORSDOF 6
ENDMDL
MODEL 4
REMARK VINA RESULT:    -3.541     10.881     12.115
REMARK INTER + INTRA:          -5.161
REMARK INTER:                  -4.605
REMARK INTRA:                  -0.556
REMARK UNBOUND:                -0.378
REMARK SMILES CCCCCCC=CC(=O)[O-]
REMARK SMILES IDX 5 1 6 2 7 3 8 4 9 5 10 6 11 7 4 8 3 9 2 10 1 11
REMARK H PARENT
REMARK Flexibility Score: inf
ROOT
ATOM      1  C   UNL     1       2.496 -13.804  15.133  1.00  0.00     0.004 C 
ENDROOT
BRANCH   1   2
ATOM      2  C   UNL     1       3.852 -13.337  15.676  1.00  0.00     0.027 C 
BRANCH   2   3
ATOM      3  C   UNL     1       4.338 -12.116  14.949  1.00  0.00    -0.025 C 
ATOM      4  C   UNL     1       5.217 -12.204  13.946  1.00  0.00     0.020 C 
BRANCH   4   5
ATOM      5  C   UNL     1       5.712 -11.016  13.235  1.00  0.00     0.064 C 
ATOM      6  O   UNL     1       5.054  -9.944  13.281  1.00  0.00    -0.545 OA
ATOM      7  O   UNL     1       6.898 -11.058  12.510  1.00  0.00    -0.545 OA
ENDBRANCH   4   5
ENDBRANCH   2   3
ENDBRANCH   1   2
BRANCH   1   8
ATOM      8  C   UNL     1       2.614 -15.183  14.474  1.00  0.00     0.000 C 
BRANCH   8   9
ATOM      9  C   UNL     1       3.477 -16.126  15.321  1.00  0.00    -0.000 C 
BRANCH   9  10
ATOM     10  C   UNL     1       4.527 -16.834  14.457  1.00  0.00    -0.003 C 
ATOM     11  C   UNL     1       5.928 -16.305  14.749  1.00  0.00     0.004 C 
ENDBRANCH   9  10
ENDBRANCH   8   9
ENDBRANCH   1   8
TORSDOF 6
ENDMDL
MODEL 5
REMARK VINA RESULT:    -3.536     10.861     12.001
REMARK INTER + INTRA:          -5.155
REMARK INTER:                  -4.603
REMARK INTRA:                  -0.551
REMARK UNBOUND:                -0.378
REMARK SMILES CCCCCCC=CC(=O)[O-]
REMARK SMILES IDX 5 1 6 2 7 3 8 4 9 5 10 6 11 7 4 8 3 9 2 10 1 11
REMARK H PARENT
REMARK Flexibility Score: inf
ROOT
ATOM      1  C   UNL     1       4.787 -14.489  16.434  1.00  0.00     0.004 C 
ENDROOT
BRANCH   1   2
ATOM      2  C   UNL     1       6.013 -14.656  15.528  1.00  0.00     0.027 C 
BRANCH   2   3
ATOM      3  C   UNL     1       6.246 -13.428  14.696  1.00  0.00    -0.025 C 
ATOM      4  C   UNL     1       5.252 -12.587  14.399  1.00  0.00     0.020 C 
BRANCH   4   5
ATOM      5  C   UNL     1       5.463 -11.388  13.574  1.00  0.00     0.064 C 
ATOM      6  O   UNL     1       4.668 -10.417  13.672  1.00  0.00    -0.545 OA
ATOM      7  O   UNL     1       6.529 -11.310  12.684  1.00  0.00    -0.545 OA
ENDBRANCH   4   5
ENDBRANCH   2   3
ENDBRANCH   1   2
BRANCH   1   8
ATOM      8  C   UNL     1       3.831 -15.679  16.291  1.00  0.00     0.000 C 
BRANCH   8   9
ATOM      9  C   UNL     1       3.544 -15.980  14.814  1.00  0.00    -0.000 C 
BRANCH   9  10
ATOM     10  C   UNL     1       2.575 -14.950  14.223  1.00  0.00    -0.003 C 
ATOM     11  C   UNL     1       1.371 -14.738  15.136  1.00  0.00     0.004 C 
ENDBRANCH   9  10
ENDBRANCH   8   9
ENDBRANCH   1   8
TORSDOF 6
ENDMDL
MODEL 6
REMARK VINA RESULT:    -3.505     12.305     13.526
REMARK INTER + INTRA:          -5.113
REMARK INTER:                  -4.463
REMARK INTRA:                  -0.650
REMARK UNBOUND:                -0.378
REMARK SMILES CCCCCCC=CC(=O)[O-]
REMARK SMILES IDX 5 1 6 2 7 3 8 4 9 5 10 6 11 7 4 8 3 9 2 10 1 11
REMARK H PARENT
REMARK Flexibility Score: inf
ROOT
ATOM      1  C   UNL     1       4.720 -15.855  16.899  1.00  0.00     0.004 C 
ENDROOT
BRANCH   1   2
ATOM      2  C   UNL     1       4.022 -17.220  16.955  1.00  0.00     0.027 C 
BRANCH   2   3
ATOM      3  C   UNL     1       4.615 -18.175  15.959  1.00  0.00    -0.025 C 
ATOM      4  C   UNL     1       5.267 -17.740  14.877  1.00  0.00     0.020 C 
BRANCH   4   5
ATOM      5  C   UNL     1       5.841 -18.663  13.887  1.00  0.00     0.064 C 
ATOM      6  O   UNL     1       5.748 -19.906  14.068  1.00  0.00    -0.545 OA
ATOM      7  O   UNL     1       6.485 -18.185  12.751  1.00  0.00    -0.545 OA
ENDBRANCH   4   5
ENDBRANCH   2   3
ENDBRANCH   1   2
BRANCH   1   8
ATOM      8  C   UNL     1       3.714 -14.735  16.608  1.00  0.00     0.000 C 
BRANCH   8   9
ATOM      9  C   UNL     1       3.925 -14.158  15.202  1.00  0.00    -0.000 C 
BRANCH   9  10
ATOM     10  C   UNL     1       2.939 -14.771  14.202  1.00  0.00    -0.003 C 
ATOM     11  C   UNL     1       1.526 -14.814  14.778  1.00  0.00     0.004 C 
ENDBRANCH   9  10
ENDBRANCH   8   9
ENDBRANCH   1   8
TORSDOF 6
ENDMDL
MODEL 7
REMARK VINA RESULT:    -3.505     11.095     12.429
REMARK INTER + INTRA:          -5.112
REMARK INTER:                  -4.473
REMARK INTRA:                  -0.640
REMARK UNBOUND:                -0.378
REMARK SMILES CCCCCCC=CC(=O)[O-]
REMARK SMILES IDX 5 1 6 2 7 3 8 4 9 5 10 6 11 7 4 8 3 9 2 10 1 11
REMARK H PARENT
REMARK Flexibility Score: inf
ROOT
ATOM      1  C   UNL     1       2.762 -15.178  14.573  1.00  0.00     0.004 C 
ENDROOT
BRANCH   1   2
ATOM      2  C   UNL     1       2.600 -14.013  15.557  1.00  0.00     0.027 C 
BRANCH   2   3
ATOM      3  C   UNL     1       3.422 -12.828  15.136  1.00  0.00    -0.025 C 
ATOM      4  C   UNL     1       4.491 -12.965  14.345  1.00  0.00     0.020 C 
BRANCH   4   5
ATOM      5  C   UNL     1       5.312 -11.816  13.937  1.00  0.00     0.064 C 
ATOM      6  O   UNL     1       6.561 -11.947  13.840  1.00  0.00    -0.545 OA
ATOM      7  O   UNL     1       4.731 -10.584  13.654  1.00  0.00    -0.545 OA
ENDBRANCH   4   5
ENDBRANCH   2   3
ENDBRANCH   1   2
BRANCH   1   8
ATOM      8  C   UNL     1       3.382 -16.398  15.265  1.00  0.00     0.000 C 
BRANCH   8   9
ATOM      9  C   UNL     1       4.661 -16.848  14.549  1.00  0.00    -0.000 C 
BRANCH   9  10
ATOM     10  C   UNL     1       5.908 -16.321  15.268  1.00  0.00    -0.003 C 
ATOM     11  C   UNL     1       6.932 -15.783  14.273  1.00  0.00     0.004 C 
ENDBRANCH   9  10
ENDBRANCH   8   9
ENDBRANCH   1   8
TORSDOF 6
ENDMDL
MODEL 8
REMARK VINA RESULT:    -3.447     13.321     14.458
REMARK INTER + INTRA:          -5.035
REMARK INTER:                  -4.558
REMARK INTRA:                  -0.477
REMARK UNBOUND:                -0.378
REMARK SMILES CCCCCCC=CC(=O)[O-]
REMARK SMILES IDX 5 1 6 2 7 3 8 4 9 5 10 6 11 7 4 8 3 9 2 10 1 11
REMARK H PARENT
REMARK Flexibility Score: inf
ROOT
ATOM      1  C   UNL     1       5.630 -15.002  15.355  1.00  0.00     0.004 C 
ENDROOT
BRANCH   1   2
ATOM      2  C   UNL     1       6.723 -15.544  14.425  1.00  0.00     0.027 C 
BRANCH   2   3
ATOM      3  C   UNL     1       6.740 -17.046  14.424  1.00  0.00    -0.025 C 
ATOM      4  C   UNL     1       6.581 -17.745  13.296  1.00  0.00     0.020 C 
BRANCH   4   5
ATOM      5  C   UNL     1       6.582 -19.215  13.282  1.00  0.00     0.064 C 
ATOM      6  O   UNL     1       5.742 -19.845  13.976  1.00  0.00    -0.545 OA
ATOM      7  O   UNL     1       7.499 -19.923  12.512  1.00  0.00    -0.545 OA
ENDBRANCH   4   5
ENDBRANCH   2   3
ENDBRANCH   1   2
BRANCH   1   8
ATOM      8  C   UNL     1       4.959 -16.139  16.135  1.00  0.00     0.000 C 
BRANCH   8   9
ATOM      9  C   UNL     1       3.440 -16.131  15.923  1.00  0.00    -0.000 C 
BRANCH   9  10
ATOM     10  C   UNL     1       3.080 -15.561  14.547  1.00  0.00    -0.003 C 
ATOM     11  C   UNL     1       1.794 -14.742  14.609  1.00  0.00     0.004 C 
ENDBRANCH   9  10
ENDBRANCH   8   9
ENDBRANCH   1   8
TORSDOF 6
ENDMDL
MODEL 9
REMARK VINA RESULT:    -3.424     10.391     11.557
REMARK INTER + INTRA:          -5.003
REMARK INTER:                  -4.362
REMARK INTRA:                  -0.641
REMARK UNBOUND:                -0.378
REMARK SMILES CCCCCCC=CC(=O)[O-]
REMARK SMILES IDX 5 1 6 2 7 3 8 4 9 5 10 6 11 7 4 8 3 9 2 10 1 11
REMARK H PARENT
REMARK Flexibility Score: inf
ROOT
ATOM      1  C   UNL     1       3.480 -13.078  17.065  1.00  0.00     0.004 C 
ENDROOT
BRANCH   1   2
ATOM      2  C   UNL     1       4.923 -13.144  16.549  1.00  0.00     0.027 C 
BRANCH   2   3
ATOM      3  C   UNL     1       5.213 -12.017  15.599  1.00  0.00    -0.025 C 
ATOM      4  C   UNL     1       5.323 -12.224  14.283  1.00  0.00     0.020 C 
BRANCH   4   5
ATOM      5  C   UNL     1       5.619 -11.133  13.343  1.00  0.00     0.064 C 
ATOM      6  O   UNL     1       4.882 -10.112  13.321  1.00  0.00    -0.545 OA
ATOM      7  O   UNL     1       6.705 -11.210  12.476  1.00  0.00    -0.545 OA
ENDBRANCH   4   5
ENDBRANCH   2   3
ENDBRANCH   1   2
BRANCH   1   8
ATOM      8  C   UNL     1       2.719 -14.367  16.732  1.00  0.00     0.000 C 
BRANCH   8   9
ATOM      9  C   UNL     1       2.074 -14.282  15.343  1.00  0.00    -0.000 C 
BRANCH   9  10
ATOM     10  C   UNL     1       2.831 -15.149  14.332  1.00  0.00    -0.003 C 
ATOM     11  C   UNL     1       3.552 -16.303  15.025  1.00  0.00     0.004 C 
ENDBRANCH   9  10
ENDBRANCH   8   9
ENDBRANCH   1   8
TORSDOF 6
ENDMDL
