MODEL 1
REMARK VINA RESULT:    -3.373      0.000      0.000
REMARK INTER + INTRA:          -4.018
REMARK INTER:                  -3.866
REMARK INTRA:                  -0.152
REMARK UNBOUND:                -0.152
REMARK SMILES O=C([O-])C=Cc1ccc(O)cc1
REMARK SMILES IDX 6 1 7 2 12 3 8 4 11 5 9 6 5 7 4 8 2 9 1 10 3 11 10 12
REMARK H PARENT 10 13
REMARK Flexibility Score: inf
ROOT
ATOM      1  C   UNL     1      -0.125  27.791  32.060  1.00  0.00    -0.025 A 
ATOM      2  C   UNL     1      -0.122  29.193  32.159  1.00  0.00     0.012 A 
ATOM      3  C   UNL     1      -0.105  27.027  33.245  1.00  0.00     0.012 A 
ATOM      4  C   UNL     1      -0.125  29.818  33.409  1.00  0.00     0.047 A 
ATOM      5  C   UNL     1      -0.107  27.657  34.493  1.00  0.00     0.047 A 
ATOM      6  C   UNL     1      -0.119  29.054  34.578  1.00  0.00     0.115 A 
ENDROOT
BRANCH   1   7
ATOM      7  C   UNL     1      -0.111  27.174  30.710  1.00  0.00     0.010 C 
ATOM      8  C   UNL     1       0.201  27.840  29.590  1.00  0.00     0.025 C 
BRANCH   8   9
ATOM      9  C   UNL     1       0.213  27.184  28.273  1.00  0.00     0.064 C 
ATOM     10  O   UNL     1       0.499  27.855  27.247  1.00  0.00    -0.545 OA
ATOM     11  O   UNL     1      -0.088  25.833  28.142  1.00  0.00    -0.545 OA
ENDBRANCH   8   9
ENDBRANCH   1   7
BRANCH   6  12
ATOM     12  O   UNL     1      -0.123  29.691  35.817  1.00  0.00    -0.508 OA
ATOM     13  H   UNL     1      -0.817  29.474  36.523  1.00  0.00     0.293 HD
ENDBRANCH   6  12
TORSDOF 3
ENDMDL
MODEL 2
REMARK VINA RESULT:    -3.314      1.428      6.023
REMARK INTER + INTRA:          -3.951
REMARK INTER:                  -3.799
REMARK INTRA:                  -0.152
REMARK UNBOUND:                -0.152
REMARK SMILES O=C([O-])C=Cc1ccc(O)cc1
REMARK SMILES IDX 6 1 7 2 12 3 8 4 11 5 9 6 5 7 4 8 2 9 1 10 3 11 10 12
REMARK H PARENT 10 13
REMARK Flexibility Score: inf
ROOT
ATOM      1  C   UNL     1       0.203  27.629  30.106  1.00  0.00    -0.025 A 
ATOM      2  C   UNL     1       0.045  26.246  29.916  1.00  0.00     0.012 A 
ATOM      3  C   UNL     1       0.272  28.467  28.973  1.00  0.00     0.012 A 
ATOM      4  C   UNL     1      -0.067  25.712  28.629  1.00  0.00     0.047 A 
ATOM      5  C   UNL     1       0.161  27.927  27.687  1.00  0.00     0.047 A 
ATOM      6  C   UNL     1      -0.011  26.549  27.513  1.00  0.00     0.115 A 
ENDROOT
BRANCH   1   7
ATOM      7  C   UNL     1       0.328  28.147  31.490  1.00  0.00     0.010 C 
ATOM      8  C   UNL     1       0.484  27.365  32.567  1.00  0.00     0.025 C 
BRANCH   8   9
ATOM      9  C   UNL     1       0.615  27.923  33.922  1.00  0.00     0.064 C 
ATOM     10  O   UNL     1       1.352  27.345  34.763  1.00  0.00    -0.545 OA
ATOM     11  O   UNL     1      -0.062  29.080  34.290  1.00  0.00    -0.545 OA
ENDBRANCH   8   9
ENDBRANCH   1   7
BRANCH   6  12
ATOM     12  O   UNL     1      -0.125  26.003  26.236  1.00  0.00    -0.508 OA
ATOM     13  H   UNL     1      -1.008  25.997  25.739  1.00  0.00     0.293 HD
ENDBRANCH   6  12
TORSDOF 3
ENDMDL
MODEL 3
REMARK VINA RESULT:    -3.203      1.368      2.002
REMARK INTER + INTRA:          -3.823
REMARK INTER:                  -3.669
REMARK INTRA:                  -0.154
REMARK UNBOUND:                -0.152
REMARK SMILES O=C([O-])C=Cc1ccc(O)cc1
REMARK SMILES IDX 6 1 7 2 12 3 8 4 11 5 9 6 5 7 4 8 2 9 1 10 3 11 10 12
REMARK H PARENT 10 13
REMARK Flexibility Score: inf
ROOT
ATOM      1  C   UNL     1       0.251  27.698  31.487  1.00  0.00    -0.025 A 
ATOM      2  C   UNL     1      -0.116  26.399  31.879  1.00  0.00     0.012 A 
ATOM      3  C   UNL     1       0.585  28.638  32.484  1.00  0.00     0.012 A 
ATOM      4  C   UNL     1      -0.125  26.038  33.229  1.00  0.00     0.047 A 
ATOM      5  C   UNL     1       0.573  28.273  33.833  1.00  0.00     0.047 A 
ATOM      6  C   UNL     1       0.220  26.972  34.209  1.00  0.00     0.115 A 
ENDROOT
BRANCH   1   7
ATOM      7  C   UNL     1       0.235  28.035  30.043  1.00  0.00     0.010 C 
ATOM      8  C   UNL     1       0.137  27.123  29.065  1.00  0.00     0.025 C 
BRANCH   8   9
ATOM      9  C   UNL     1       0.113  27.505  27.645  1.00  0.00     0.064 C 
ATOM     10  O   UNL     1       0.304  28.707  27.322  1.00  0.00    -0.545 OA
ATOM     11  O   UNL     1      -0.120  26.561  26.651  1.00  0.00    -0.545 OA
ENDBRANCH   8   9
ENDBRANCH   1   7
BRANCH   6  12
ATOM     12  O   UNL     1       0.207  26.598  35.552  1.00  0.00    -0.508 OA
ATOM     13  H   UNL     1      -0.316  27.123  36.243  1.00  0.00     0.293 HD
ENDBRANCH   6  12
TORSDOF 3
ENDMDL
MODEL 4
REMARK VINA RESULT:    -1.870      2.712      3.799
REMARK INTER + INTRA:          -2.295
REMARK INTER:                  -2.142
REMARK INTRA:                  -0.153
REMARK UNBOUND:                -0.152
REMARK SMILES O=C([O-])C=Cc1ccc(O)cc1
REMARK SMILES IDX 6 1 7 2 12 3 8 4 11 5 9 6 5 7 4 8 2 9 1 10 3 11 10 12
REMARK H PARENT 10 13
REMARK Flexibility Score: inf
ROOT
ATOM      1  C   UNL     1       0.153  26.052  30.247  1.00  0.00    -0.025 A 
ATOM      2  C   UNL     1      -0.114  25.821  31.606  1.00  0.00     0.012 A 
ATOM      3  C   UNL     1       0.409  27.372  29.820  1.00  0.00     0.012 A 
ATOM      4  C   UNL     1      -0.101  26.875  32.525  1.00  0.00     0.047 A 
ATOM      5  C   UNL     1       0.419  28.424  30.742  1.00  0.00     0.047 A 
ATOM      6  C   UNL     1       0.166  28.177  32.097  1.00  0.00     0.115 A 
ENDROOT
BRANCH   1   7
ATOM      7  C   UNL     1       0.118  24.903  29.310  1.00  0.00     0.010 C 
ATOM      8  C   UNL     1      -0.057  23.631  29.697  1.00  0.00     0.025 C 
BRANCH   8   9
ATOM      9  C   UNL     1      -0.097  22.523  28.730  1.00  0.00     0.064 C 
ATOM     10  O   UNL     1      -0.116  21.336  29.147  1.00  0.00    -0.545 OA
ATOM     11  O   UNL     1      -0.111  22.765  27.361  1.00  0.00    -0.545 OA
ENDBRANCH   8   9
ENDBRANCH   1   7
BRANCH   6  12
ATOM     12  O   UNL     1       0.176  29.218  33.023  1.00  0.00    -0.508 OA
ATOM     13  H   UNL     1       0.799  30.011  32.923  1.00  0.00     0.293 HD
ENDBRANCH   6  12
TORSDOF 3
ENDMDL
MODEL 5
REMARK VINA RESULT:    -1.194      1.473      1.946
REMARK INTER + INTRA:          -1.521
REMARK INTER:                  -1.382
REMARK INTRA:                  -0.138
REMARK UNBOUND:                -0.152
REMARK SMILES O=C([O-])C=Cc1ccc(O)cc1
REMARK SMILES IDX 6 1 7 2 12 3 8 4 11 5 9 6 5 7 4 8 2 9 1 10 3 11 10 12
REMARK H PARENT 10 13
REMARK Flexibility Score: inf
ROOT
ATOM      1  C   UNL     1       0.411  27.130  31.273  1.00  0.00    -0.025 A 
ATOM      2  C   UNL     1       0.732  28.495  31.371  1.00  0.00     0.012 A 
ATOM      3  C   UNL     1       0.114  26.416  32.452  1.00  0.00     0.012 A 
ATOM      4  C   UNL     1       0.731  29.139  32.612  1.00  0.00     0.047 A 
ATOM      5  C   UNL     1       0.116  27.064  33.691  1.00  0.00     0.047 A 
ATOM      6  C   UNL     1       0.423  28.428  33.774  1.00  0.00     0.115 A 
ENDROOT
BRANCH   1   7
ATOM      7  C   UNL     1       0.435  26.489  29.935  1.00  0.00     0.010 C 
ATOM      8  C   UNL     1      -0.124  25.301  29.668  1.00  0.00     0.025 C 
BRANCH   8   9
ATOM      9  C   UNL     1      -0.086  24.709  28.322  1.00  0.00     0.064 C 
ATOM     10  O   UNL     1      -0.030  23.458  28.195  1.00  0.00    -0.545 OA
ATOM     11  O   UNL     1      -0.108  25.509  27.185  1.00  0.00    -0.545 OA
ENDBRANCH   8   9
ENDBRANCH   1   7
BRANCH   6  12
ATOM     12  O   UNL     1       0.426  29.082  35.003  1.00  0.00    -0.508 OA
ATOM     13  H   UNL     1      -0.413  29.510  35.378  1.00  0.00     0.293 HD
ENDBRANCH   6  12
TORSDOF 3
ENDMDL
