MODEL 1
REMARK VINA RESULT:    -6.322      0.000      0.000
REMARK INTER + INTRA:          -9.124
REMARK INTER:                  -8.539
REMARK INTRA:                  -0.585
REMARK UNBOUND:                -0.585
REMARK SMILES CC(=O)CCC=C(C)CCC=C(C)C
REMARK SMILES IDX 7 1 6 2 8 3 9 4 10 5 11 6 13 7 12 8 14 9 5 10 4 11 2 12 3 13
REMARK SMILES IDX 1 14
REMARK H PARENT
REMARK Flexibility Score: inf
ROOT
ATOM      1  C   UNL     1      28.022  21.276   5.277  1.00  0.00    -0.077 C 
ATOM      2  C   UNL     1      27.165  21.220   4.232  1.00  0.00    -0.028 C 
ATOM      3  C   UNL     1      27.759  22.154   6.479  1.00  0.00     0.039 C 
ENDROOT
BRANCH   1   4
ATOM      4  C   UNL     1      29.269  20.422   5.250  1.00  0.00     0.034 C 
BRANCH   4   5
ATOM      5  C   UNL     1      29.923  20.369   6.635  1.00  0.00     0.032 C 
BRANCH   5   6
ATOM      6  C   UNL     1      31.404  20.642   6.540  1.00  0.00    -0.028 C 
ATOM      7  C   UNL     1      33.566  21.654   7.196  1.00  0.00     0.039 C 
ATOM      8  C   UNL     1      32.091  21.426   7.402  1.00  0.00    -0.080 C 
ATOM      9  C   UNL     1      31.438  22.055   8.608  1.00  0.00     0.039 C 
ENDBRANCH   5   6
ENDBRANCH   4   5
ENDBRANCH   1   4
BRANCH   2  10
ATOM     10  C   UNL     1      25.906  22.043   4.113  1.00  0.00     0.035 C 
BRANCH  10  11
ATOM     11  C   UNL     1      26.169  23.332   3.329  1.00  0.00     0.079 C 
BRANCH  11  12
ATOM     12  C   UNL     1      25.339  24.465   3.872  1.00  0.00     0.130 C 
ATOM     13  O   UNL     1      25.139  24.539   5.075  1.00  0.00    -0.300 OA
ATOM     14  C   UNL     1      24.763  25.515   2.968  1.00  0.00     0.087 C 
ENDBRANCH  11  12
ENDBRANCH  10  11
ENDBRANCH   2  10
TORSDOF 6
ENDMDL
MODEL 2
REMARK VINA RESULT:    -6.268      1.914      6.388
REMARK INTER + INTRA:          -9.051
REMARK INTER:                  -8.262
REMARK INTRA:                  -0.789
REMARK UNBOUND:                -0.585
REMARK SMILES CC(=O)CCC=C(C)CCC=C(C)C
REMARK SMILES IDX 7 1 6 2 8 3 9 4 10 5 11 6 13 7 12 8 14 9 5 10 4 11 2 12 3 13
REMARK SMILES IDX 1 14
REMARK H PARENT
REMARK Flexibility Score: inf
ROOT
ATOM      1  C   UNL     1      28.071  21.314   5.258  1.00  0.00    -0.077 C 
ATOM      2  C   UNL     1      29.204  20.576   5.299  1.00  0.00    -0.028 C 
ATOM      3  C   UNL     1      27.603  22.126   6.444  1.00  0.00     0.039 C 
ENDROOT
BRANCH   1   4
ATOM      4  C   UNL     1      27.261  21.343   3.982  1.00  0.00     0.034 C 
BRANCH   4   5
ATOM      5  C   UNL     1      25.895  21.998   4.219  1.00  0.00     0.032 C 
BRANCH   5   6
ATOM      6  C   UNL     1      25.731  23.224   3.355  1.00  0.00    -0.028 C 
ATOM      7  C   UNL     1      25.009  25.528   2.810  1.00  0.00     0.039 C 
ATOM      8  C   UNL     1      25.146  24.372   3.766  1.00  0.00    -0.080 C 
ATOM      9  C   UNL     1      24.656  24.561   5.181  1.00  0.00     0.039 C 
ENDBRANCH   5   6
ENDBRANCH   4   5
ENDBRANCH   1   4
BRANCH   2  10
ATOM     10  C   UNL     1      30.086  20.431   6.515  1.00  0.00     0.035 C 
BRANCH  10  11
ATOM     11  C   UNL     1      31.291  21.373   6.429  1.00  0.00     0.079 C 
BRANCH  11  12
ATOM     12  C   UNL     1      31.181  22.473   7.452  1.00  0.00     0.130 C 
ATOM     13  O   UNL     1      31.264  23.637   7.094  1.00  0.00    -0.300 OA
ATOM     14  C   UNL     1      30.957  22.169   8.905  1.00  0.00     0.087 C 
ENDBRANCH  11  12
ENDBRANCH  10  11
ENDBRANCH   2  10
TORSDOF 6
ENDMDL
MODEL 3
REMARK VINA RESULT:    -6.153      1.949      6.637
REMARK INTER + INTRA:          -8.896
REMARK INTER:                  -8.408
REMARK INTRA:                  -0.488
REMARK UNBOUND:                -0.585
REMARK SMILES CC(=O)CCC=C(C)CCC=C(C)C
REMARK SMILES IDX 7 1 6 2 8 3 9 4 10 5 11 6 13 7 12 8 14 9 5 10 4 11 2 12 3 13
REMARK SMILES IDX 1 14
REMARK H PARENT
REMARK Flexibility Score: inf
ROOT
ATOM      1  C   UNL     1      27.244  21.244   4.353  1.00  0.00    -0.077 C 
ATOM      2  C   UNL     1      27.829  21.782   5.446  1.00  0.00    -0.028 C 
ATOM      3  C   UNL     1      27.859  20.081   3.609  1.00  0.00     0.039 C 
ENDROOT
BRANCH   1   4
ATOM      4  C   UNL     1      25.927  21.810   3.871  1.00  0.00     0.034 C 
BRANCH   4   5
ATOM      5  C   UNL     1      26.103  23.249   3.372  1.00  0.00     0.032 C 
BRANCH   5   6
ATOM      6  C   UNL     1      25.400  24.223   4.285  1.00  0.00    -0.028 C 
ATOM      7  C   UNL     1      24.110  26.254   4.865  1.00  0.00     0.039 C 
ATOM      8  C   UNL     1      24.755  25.334   3.862  1.00  0.00    -0.080 C 
ATOM      9  C   UNL     1      24.614  25.670   2.397  1.00  0.00     0.039 C 
ENDBRANCH   5   6
ENDBRANCH   4   5
ENDBRANCH   1   4
BRANCH   2  10
ATOM     10  C   UNL     1      29.156  21.339   6.012  1.00  0.00     0.035 C 
BRANCH  10  11
ATOM     11  C   UNL     1      29.040  21.054   7.513  1.00  0.00     0.079 C 
BRANCH  11  12
ATOM     12  C   UNL     1      29.615  22.191   8.316  1.00  0.00     0.130 C 
ATOM     13  O   UNL     1      28.924  23.170   8.552  1.00  0.00    -0.300 OA
ATOM     14  C   UNL     1      31.018  22.142   8.847  1.00  0.00     0.087 C 
ENDBRANCH  11  12
ENDBRANCH  10  11
ENDBRANCH   2  10
TORSDOF 6
ENDMDL
MODEL 4
REMARK VINA RESULT:    -6.119      1.050      1.469
REMARK INTER + INTRA:          -8.850
REMARK INTER:                  -8.448
REMARK INTRA:                  -0.402
REMARK UNBOUND:                -0.585
REMARK SMILES CC(=O)CCC=C(C)CCC=C(C)C
REMARK SMILES IDX 7 1 6 2 8 3 9 4 10 5 11 6 13 7 12 8 14 9 5 10 4 11 2 12 3 13
REMARK SMILES IDX 1 14
REMARK H PARENT
REMARK Flexibility Score: inf
ROOT
ATOM      1  C   UNL     1      27.546  21.972   4.875  1.00  0.00    -0.077 C 
ATOM      2  C   UNL     1      26.857  23.061   4.463  1.00  0.00    -0.028 C 
ATOM      3  C   UNL     1      27.370  20.621   4.222  1.00  0.00     0.039 C 
ENDROOT
BRANCH   1   4
ATOM      4  C   UNL     1      28.536  22.117   6.009  1.00  0.00     0.034 C 
BRANCH   4   5
ATOM      5  C   UNL     1      29.296  20.806   6.239  1.00  0.00     0.032 C 
BRANCH   5   6
ATOM      6  C   UNL     1      30.782  21.014   6.085  1.00  0.00    -0.028 C 
ATOM      7  C   UNL     1      33.044  21.764   6.756  1.00  0.00     0.039 C 
ATOM      8  C   UNL     1      31.574  21.579   7.026  1.00  0.00    -0.080 C 
ATOM      9  C   UNL     1      31.042  21.998   8.375  1.00  0.00     0.039 C 
ENDBRANCH   5   6
ENDBRANCH   4   5
ENDBRANCH   1   4
BRANCH   2  10
ATOM     10  C   UNL     1      25.817  23.050   3.370  1.00  0.00     0.035 C 
BRANCH  10  11
ATOM     11  C   UNL     1      25.351  24.474   3.049  1.00  0.00     0.079 C 
BRANCH  11  12
ATOM     12  C   UNL     1      24.433  24.989   4.125  1.00  0.00     0.130 C 
ATOM     13  O   UNL     1      23.514  24.287   4.518  1.00  0.00    -0.300 OA
ATOM     14  C   UNL     1      24.630  26.345   4.738  1.00  0.00     0.087 C 
ENDBRANCH  11  12
ENDBRANCH  10  11
ENDBRANCH   2  10
TORSDOF 6
ENDMDL
MODEL 5
REMARK VINA RESULT:    -6.117      2.075      6.048
REMARK INTER + INTRA:          -8.847
REMARK INTER:                  -7.907
REMARK INTRA:                  -0.940
REMARK UNBOUND:                -0.585
REMARK SMILES CC(=O)CCC=C(C)CCC=C(C)C
REMARK SMILES IDX 7 1 6 2 8 3 9 4 10 5 11 6 13 7 12 8 14 9 5 10 4 11 2 12 3 13
REMARK SMILES IDX 1 14
REMARK H PARENT
REMARK Flexibility Score: inf
ROOT
ATOM      1  C   UNL     1      29.670  20.048   5.514  1.00  0.00    -0.077 C 
ATOM      2  C   UNL     1      31.013  20.187   5.439  1.00  0.00    -0.028 C 
ATOM      3  C   UNL     1      28.936  20.081   6.835  1.00  0.00     0.039 C 
ENDROOT
BRANCH   1   4
ATOM      4  C   UNL     1      28.877  19.875   4.237  1.00  0.00     0.034 C 
BRANCH   4   5
ATOM      5  C   UNL     1      27.381  20.092   4.491  1.00  0.00     0.032 C 
BRANCH   5   6
ATOM      6  C   UNL     1      26.869  21.272   3.704  1.00  0.00    -0.028 C 
ATOM      7  C   UNL     1      25.908  23.530   3.378  1.00  0.00     0.039 C 
ATOM      8  C   UNL     1      26.426  22.423   4.259  1.00  0.00    -0.080 C 
ATOM      9  C   UNL     1      26.470  22.664   5.748  1.00  0.00     0.039 C 
ENDBRANCH   5   6
ENDBRANCH   4   5
ENDBRANCH   1   4
BRANCH   2  10
ATOM     10  C   UNL     1      31.925  20.331   6.632  1.00  0.00     0.035 C 
BRANCH  10  11
ATOM     11  C   UNL     1      32.498  21.750   6.710  1.00  0.00     0.079 C 
BRANCH  11  12
ATOM     12  C   UNL     1      31.664  22.612   7.621  1.00  0.00     0.130 C 
ATOM     13  O   UNL     1      31.309  23.718   7.243  1.00  0.00    -0.300 OA
ATOM     14  C   UNL     1      31.246  22.135   8.981  1.00  0.00     0.087 C 
ENDBRANCH  11  12
ENDBRANCH  10  11
ENDBRANCH   2  10
TORSDOF 6
ENDMDL
MODEL 6
REMARK VINA RESULT:    -6.074      1.095      1.342
REMARK INTER + INTRA:          -8.789
REMARK INTER:                  -8.044
REMARK INTRA:                  -0.744
REMARK UNBOUND:                -0.585
REMARK SMILES CC(=O)CCC=C(C)CCC=C(C)C
REMARK SMILES IDX 7 1 6 2 8 3 9 4 10 5 11 6 13 7 12 8 14 9 5 10 4 11 2 12 3 13
REMARK SMILES IDX 1 14
REMARK H PARENT
REMARK Flexibility Score: inf
ROOT
ATOM      1  C   UNL     1      28.523  20.775   5.813  1.00  0.00    -0.077 C 
ATOM      2  C   UNL     1      27.999  21.650   4.925  1.00  0.00    -0.028 C 
ATOM      3  C   UNL     1      27.827  20.443   7.113  1.00  0.00     0.039 C 
ENDROOT
BRANCH   1   4
ATOM      4  C   UNL     1      29.834  20.095   5.487  1.00  0.00     0.034 C 
BRANCH   4   5
ATOM      5  C   UNL     1      30.905  20.451   6.524  1.00  0.00     0.032 C 
BRANCH   5   6
ATOM      6  C   UNL     1      31.166  21.937   6.536  1.00  0.00    -0.028 C 
ATOM      7  C   UNL     1      31.416  24.182   7.547  1.00  0.00     0.039 C 
ATOM      8  C   UNL     1      31.171  22.700   7.653  1.00  0.00    -0.080 C 
ATOM      9  C   UNL     1      30.982  22.109   9.029  1.00  0.00     0.039 C 
ENDBRANCH   5   6
ENDBRANCH   4   5
ENDBRANCH   1   4
BRANCH   2  10
ATOM     10  C   UNL     1      26.720  22.422   5.138  1.00  0.00     0.035 C 
BRANCH  10  11
ATOM     11  C   UNL     1      26.251  23.071   3.832  1.00  0.00     0.079 C 
BRANCH  11  12
ATOM     12  C   UNL     1      25.391  24.274   4.114  1.00  0.00     0.130 C 
ATOM     13  O   UNL     1      25.039  24.505   5.260  1.00  0.00    -0.300 OA
ATOM     14  C   UNL     1      24.966  25.206   3.017  1.00  0.00     0.087 C 
ENDBRANCH  11  12
ENDBRANCH  10  11
ENDBRANCH   2  10
TORSDOF 6
ENDMDL
MODEL 7
REMARK VINA RESULT:    -6.049      1.217      1.902
REMARK INTER + INTRA:          -8.755
REMARK INTER:                  -8.320
REMARK INTRA:                  -0.435
REMARK UNBOUND:                -0.585
REMARK SMILES CC(=O)CCC=C(C)CCC=C(C)C
REMARK SMILES IDX 7 1 6 2 8 3 9 4 10 5 11 6 13 7 12 8 14 9 5 10 4 11 2 12 3 13
REMARK SMILES IDX 1 14
REMARK H PARENT
REMARK Flexibility Score: inf
ROOT
ATOM      1  C   UNL     1      26.533  21.529   4.207  1.00  0.00    -0.077 C 
ATOM      2  C   UNL     1      26.614  22.739   3.607  1.00  0.00    -0.028 C 
ATOM      3  C   UNL     1      25.211  20.944   4.649  1.00  0.00     0.039 C 
ENDROOT
BRANCH   1   4
ATOM      4  C   UNL     1      27.799  20.732   4.425  1.00  0.00     0.034 C 
BRANCH   4   5
ATOM      5  C   UNL     1      28.591  21.281   5.617  1.00  0.00     0.032 C 
BRANCH   5   6
ATOM      6  C   UNL     1      30.024  20.814   5.570  1.00  0.00    -0.028 C 
ATOM      7  C   UNL     1      32.393  20.702   6.281  1.00  0.00     0.039 C 
ATOM      8  C   UNL     1      30.983  21.209   6.438  1.00  0.00    -0.080 C 
ATOM      9  C   UNL     1      30.683  22.119   7.604  1.00  0.00     0.039 C 
ENDBRANCH   5   6
ENDBRANCH   4   5
ENDBRANCH   1   4
BRANCH   2  10
ATOM     10  C   UNL     1      25.438  23.651   3.360  1.00  0.00     0.035 C 
BRANCH  10  11
ATOM     11  C   UNL     1      25.292  24.669   4.496  1.00  0.00     0.079 C 
BRANCH  11  12
ATOM     12  C   UNL     1      24.573  25.903   4.016  1.00  0.00     0.130 C 
ATOM     13  O   UNL     1      24.297  26.785   4.814  1.00  0.00    -0.300 OA
ATOM     14  C   UNL     1      24.200  26.078   2.573  1.00  0.00     0.087 C 
ENDBRANCH  11  12
ENDBRANCH  10  11
ENDBRANCH   2  10
TORSDOF 6
ENDMDL
MODEL 8
REMARK VINA RESULT:    -5.620      2.783      6.610
REMARK INTER + INTRA:          -8.176
REMARK INTER:                  -7.504
REMARK INTRA:                  -0.672
REMARK UNBOUND:                -0.585
REMARK SMILES CC(=O)CCC=C(C)CCC=C(C)C
REMARK SMILES IDX 7 1 6 2 8 3 9 4 10 5 11 6 13 7 12 8 14 9 5 10 4 11 2 12 3 13
REMARK SMILES IDX 1 14
REMARK H PARENT
REMARK Flexibility Score: inf
ROOT
ATOM      1  C   UNL     1      28.698  21.909   7.152  1.00  0.00    -0.077 C 
ATOM      2  C   UNL     1      29.221  21.168   6.149  1.00  0.00    -0.028 C 
ATOM      3  C   UNL     1      29.200  21.799   8.573  1.00  0.00     0.039 C 
ENDROOT
BRANCH   1   4
ATOM      4  C   UNL     1      27.591  22.891   6.838  1.00  0.00     0.034 C 
BRANCH   4   5
ATOM      5  C   UNL     1      26.421  22.188   6.141  1.00  0.00     0.032 C 
BRANCH   5   6
ATOM      6  C   UNL     1      25.542  23.186   5.429  1.00  0.00    -0.028 C 
ATOM      7  C   UNL     1      24.661  24.448   3.490  1.00  0.00     0.039 C 
ATOM      8  C   UNL     1      25.563  23.404   4.094  1.00  0.00    -0.080 C 
ATOM      9  C   UNL     1      26.436  22.597   3.164  1.00  0.00     0.039 C 
ENDBRANCH   5   6
ENDBRANCH   4   5
ENDBRANCH   1   4
BRANCH   2  10
ATOM     10  C   UNL     1      30.301  20.129   6.328  1.00  0.00     0.035 C 
BRANCH  10  11
ATOM     11  C   UNL     1      31.594  20.563   5.630  1.00  0.00     0.079 C 
BRANCH  11  12
ATOM     12  C   UNL     1      32.523  21.240   6.602  1.00  0.00     0.130 C 
ATOM     13  O   UNL     1      33.500  20.637   7.019  1.00  0.00    -0.300 OA
ATOM     14  C   UNL     1      32.282  22.648   7.063  1.00  0.00     0.087 C 
ENDBRANCH  11  12
ENDBRANCH  10  11
ENDBRANCH   2  10
TORSDOF 6
ENDMDL
MODEL 9
REMARK VINA RESULT:    -5.538      2.120      5.840
REMARK INTER + INTRA:          -8.066
REMARK INTER:                  -7.918
REMARK INTRA:                  -0.147
REMARK UNBOUND:                -0.585
REMARK SMILES CC(=O)CCC=C(C)CCC=C(C)C
REMARK SMILES IDX 7 1 6 2 8 3 9 4 10 5 11 6 13 7 12 8 14 9 5 10 4 11 2 12 3 13
REMARK SMILES IDX 1 14
REMARK H PARENT
REMARK Flexibility Score: inf
ROOT
ATOM      1  C   UNL     1      30.442  20.510   6.196  1.00  0.00    -0.077 C 
ATOM      2  C   UNL     1      30.322  21.240   7.329  1.00  0.00    -0.028 C 
ATOM      3  C   UNL     1      31.789  20.190   5.591  1.00  0.00     0.039 C 
ENDROOT
BRANCH   1   4
ATOM      4  C   UNL     1      29.192  19.983   5.528  1.00  0.00     0.034 C 
BRANCH   4   5
ATOM      5  C   UNL     1      27.941  20.660   6.099  1.00  0.00     0.032 C 
BRANCH   5   6
ATOM      6  C   UNL     1      27.537  21.841   5.253  1.00  0.00    -0.028 C 
ATOM      7  C   UNL     1      26.431  23.001   3.367  1.00  0.00     0.039 C 
ATOM      8  C   UNL     1      26.749  21.759   4.157  1.00  0.00    -0.080 C 
ATOM      9  C   UNL     1      26.130  20.457   3.710  1.00  0.00     0.039 C 
ENDBRANCH   5   6
ENDBRANCH   4   5
ENDBRANCH   1   4
BRANCH   2  10
ATOM     10  C   UNL     1      31.479  21.855   8.076  1.00  0.00     0.035 C 
BRANCH  10  11
ATOM     11  C   UNL     1      31.924  23.162   7.412  1.00  0.00     0.079 C 
BRANCH  11  12
ATOM     12  C   UNL     1      31.025  24.299   7.818  1.00  0.00     0.130 C 
ATOM     13  O   UNL     1      29.878  24.062   8.166  1.00  0.00    -0.300 OA
ATOM     14  C   UNL     1      31.510  25.719   7.818  1.00  0.00     0.087 C 
ENDBRANCH  11  12
ENDBRANCH  10  11
ENDBRANCH   2  10
TORSDOF 6
ENDMDL
