MODEL 1
REMARK VINA RESULT:    15.494      0.000      0.000
REMARK INTER + INTRA:          15.947
REMARK INTER:                  15.947
REMARK INTRA:                   0.000
REMARK UNBOUND:                 0.000
REMARK SMILES C[C@@H]1CC[C@@]2(OC1)O[C@@H]1C[C@@H]3[C@@H]4CC=C5C[C@@H](O)CC[C@@]5(C)[C@@H]4CC[C@]3(C)[C@@H]1[C@@H]2C
REMARK SMILES IDX 1 1 2 2 3 3 4 4 5 5 29 6 28 7 9 8 8 9 10 10 11 11 26 12
REMARK SMILES IDX 25 13 24 14 23 15 12 16 13 17 14 18 15 19 21 20 20 21 19 22
REMARK SMILES IDX 17 23 16 24 22 25 27 26 30 27 6 28 7 29 18 30
REMARK H PARENT 18 31
REMARK Flexibility Score: inf
ROOT
ATOM      1  C   UNL     1       7.792   7.222  10.961  1.00  0.00     0.010 C 
ATOM      2  C   UNL     1       6.715   7.342  12.044  1.00  0.00     0.012 C 
ATOM      3  C   UNL     1       5.384   6.756  11.557  1.00  0.00     0.011 C 
ATOM      4  C   UNL     1       4.289   7.007  12.594  1.00  0.00     0.066 C 
ATOM      5  C   UNL     1       4.235   8.506  12.991  1.00  0.00     0.171 C 
ATOM      6  C   UNL     1       3.171   8.729  14.103  1.00  0.00     0.052 C 
ATOM      7  C   UNL     1       2.226   9.776  13.519  1.00  0.00     0.033 C 
ATOM      8  C   UNL     1       2.491   9.638  12.034  1.00  0.00     0.126 C 
ATOM      9  O   UNL     1       3.845   9.280  11.863  1.00  0.00    -0.346 OA
ATOM     10  C   UNL     1       2.184  10.998  11.396  1.00  0.00     0.037 C 
ATOM     11  C   UNL     1       1.655  11.876  12.541  1.00  0.00     0.002 C 
ATOM     12  C   UNL     1       2.329  11.311  13.811  1.00  0.00    -0.024 C 
ATOM     13  C   UNL     1       3.797  11.856  13.976  1.00  0.00     0.008 C 
ATOM     14  C   UNL     1       4.203  13.016  13.055  1.00  0.00     0.005 C 
ATOM     15  C   UNL     1       3.087  14.061  12.889  1.00  0.00     0.003 C 
ATOM     16  C   UNL     1       1.763  13.419  12.360  1.00  0.00     0.000 C 
ATOM     17  C   UNL     1       1.398  13.870  10.941  1.00  0.00     0.031 C 
ATOM     18  C   UNL     1       1.393  15.366  10.875  1.00  0.00    -0.027 C 
ATOM     19  C   UNL     1       2.366  16.090  11.461  1.00  0.00    -0.065 C 
ATOM     20  C   UNL     1       3.560  15.380  12.122  1.00  0.00    -0.008 C 
ATOM     21  C   UNL     1       4.239  16.330  13.163  1.00  0.00     0.014 C 
ATOM     22  C   UNL     1       4.428  17.766  12.663  1.00  0.00     0.033 C 
ATOM     23  C   UNL     1       3.085  18.388  12.275  1.00  0.00     0.118 C 
ATOM     24  C   UNL     1       2.420  17.576  11.158  1.00  0.00     0.063 C 
ATOM     25  C   UNL     1       4.584  15.066  10.996  1.00  0.00     0.016 C 
ATOM     26  C   UNL     1       1.493  11.675  15.062  1.00  0.00     0.012 C 
ATOM     27  C   UNL     1       3.693   8.967  15.530  1.00  0.00     0.014 C 
ATOM     28  O   UNL     1       5.515   8.921  13.459  1.00  0.00    -0.349 OA
ATOM     29  C   UNL     1       6.510   8.808  12.456  1.00  0.00     0.167 C 
ENDROOT
BRANCH  23  30
ATOM     30  O   UNL     1       2.246  18.454  13.399  1.00  0.00    -0.393 OA
ATOM     31  H   UNL     1       2.189  17.536  13.772  1.00  0.00     0.210 HD
ENDBRANCH  23  30
TORSDOF 1
ENDMDL
