MODEL 1
REMARK VINA RESULT:    -4.826      0.000      0.000
REMARK INTER + INTRA:          -7.359
REMARK INTER:                  -7.366
REMARK INTRA:                   0.007
REMARK UNBOUND:                 0.007
REMARK SMILES CC1=CCC[C@H](C)C(=O)C[C@@H](C(C)C)C(=O)C1
REMARK SMILES IDX 8 1 9 2 6 3 7 4 5 5 4 6 3 7 2 8 1 9 10 11 11 12 15 13 16 14
REMARK SMILES IDX 17 15 12 17 13 18 14 19
REMARK H PARENT
REMARK Flexibility Score: 70.00
ROOT
ATOM      1  C   UNL     1      30.964  16.722  26.070  1.00  0.00     0.136 C 
ATOM      2  O   UNL     1      31.824  15.858  25.984  1.00  0.00    -0.299 OA
ENDROOT
BRANCH   1   3
ATOM      3  C   UNL     1      30.268  16.914  27.410  1.00  0.00     0.053 C 
ATOM      4  C   UNL     1      29.505  15.644  27.814  1.00  0.00     0.016 C 
BRANCH   3   5
ATOM      5  C   UNL     1      31.236  17.356  28.534  1.00  0.00     0.015 C 
BRANCH   5   6
ATOM      6  C   UNL     1      32.278  18.425  28.138  1.00  0.00     0.028 C 
BRANCH   6   7
ATOM      7  C   UNL     1      31.756  19.818  27.869  1.00  0.00    -0.028 C 
ATOM      8  C   UNL     1      32.111  20.626  26.841  1.00  0.00    -0.070 CG0
ATOM      9  C   UNL     1      31.594  22.042  26.848  1.00  0.00     0.039 C 
ATOM     10  G   UNL     1      32.939  20.168  25.656  1.00  0.00     0.000 G0
ENDBRANCH   6   7
ENDBRANCH   5   6
ENDBRANCH   3   5
ENDBRANCH   1   3
BRANCH   1  11
ATOM     11  C   UNL     1      30.675  17.566  24.838  1.00  0.00     0.087 C 
BRANCH  11  12
ATOM     12  C   UNL     1      31.936  18.209  24.197  1.00  0.00     0.066 C 
BRANCH  12  13
ATOM     13  C   UNL     1      32.044  19.687  24.531  1.00  0.00     0.140 C 
ATOM     14  O   UNL     1      31.365  20.499  23.920  1.00  0.00    -0.299 OA
BRANCH  13  15
ATOM     15  C   UNL     1      32.945  20.172  25.644  1.00  0.00     0.106 CG0
ATOM     16  G   UNL     1      32.115  20.610  26.833  1.00  0.00     0.000 G0
ENDBRANCH  13  15
ENDBRANCH  12  13
BRANCH  12  17
ATOM     17  C   UNL     1      32.077  17.943  22.662  1.00  0.00    -0.006 C 
ATOM     18  C   UNL     1      32.058  16.457  22.260  1.00  0.00     0.008 C 
ATOM     19  C   UNL     1      33.338  18.612  22.090  1.00  0.00     0.008 C 
ENDBRANCH  12  17
ENDBRANCH  11  12
ENDBRANCH   1  11
TORSDOF 1
ENDMDL
MODEL 2
REMARK VINA RESULT:    -4.749      1.935      5.045
REMARK INTER + INTRA:          -7.241
REMARK INTER:                  -7.421
REMARK INTRA:                   0.180
REMARK UNBOUND:                 0.007
REMARK SMILES CC1=CCC[C@H](C)C(=O)C[C@@H](C(C)C)C(=O)C1
REMARK SMILES IDX 8 1 9 2 6 3 7 4 5 5 4 6 3 7 2 8 1 9 10 11 11 12 15 13 16 14
REMARK SMILES IDX 17 15 12 17 13 18 14 19
REMARK H PARENT
REMARK Flexibility Score: 70.00
ROOT
ATOM      1  C   UNL     1      32.904  20.108  27.487  1.00  0.00     0.136 C 
ATOM      2  O   UNL     1      33.958  19.713  27.964  1.00  0.00    -0.299 OA
ENDROOT
BRANCH   1   3
ATOM      3  C   UNL     1      32.857  21.518  26.916  1.00  0.00     0.053 C 
ATOM      4  C   UNL     1      34.045  22.350  27.420  1.00  0.00     0.016 C 
BRANCH   3   5
ATOM      5  C   UNL     1      32.785  21.540  25.370  1.00  0.00     0.015 C 
BRANCH   5   6
ATOM      6  C   UNL     1      31.576  20.810  24.745  1.00  0.00     0.028 C 
BRANCH   6   7
ATOM      7  C   UNL     1      31.880  19.653  23.822  1.00  0.00    -0.028 C 
ATOM      8  C   UNL     1      31.515  18.361  24.003  1.00  0.00    -0.070 CG0
ATOM      9  C   UNL     1      32.061  17.335  23.043  1.00  0.00     0.039 C 
ATOM     10  G   UNL     1      30.540  17.902  25.069  1.00  0.00     0.000 G0
ENDBRANCH   6   7
ENDBRANCH   5   6
ENDBRANCH   3   5
ENDBRANCH   1   3
BRANCH   1  11
ATOM     11  C   UNL     1      31.725  19.148  27.469  1.00  0.00     0.087 C 
BRANCH  11  12
ATOM     12  C   UNL     1      32.113  17.668  27.201  1.00  0.00     0.066 C 
BRANCH  12  13
ATOM     13  C   UNL     1      31.245  17.047  26.120  1.00  0.00     0.140 C 
ATOM     14  O   UNL     1      31.072  15.837  26.100  1.00  0.00    -0.299 OA
BRANCH  13  15
ATOM     15  C   UNL     1      30.547  17.905  25.090  1.00  0.00     0.106 CG0
ATOM     16  G   UNL     1      31.532  18.349  24.027  1.00  0.00     0.000 G0
ENDBRANCH  13  15
ENDBRANCH  12  13
BRANCH  12  17
ATOM     17  C   UNL     1      32.171  16.781  28.488  1.00  0.00    -0.006 C 
ATOM     18  C   UNL     1      31.873  17.528  29.801  1.00  0.00     0.008 C 
ATOM     19  C   UNL     1      33.521  16.055  28.607  1.00  0.00     0.008 C 
ENDBRANCH  12  17
ENDBRANCH  11  12
ENDBRANCH   1  11
TORSDOF 1
ENDMDL
MODEL 3
REMARK VINA RESULT:    -4.350      1.545      4.180
REMARK INTER + INTRA:          -6.632
REMARK INTER:                  -6.695
REMARK INTRA:                   0.063
REMARK UNBOUND:                 0.007
REMARK SMILES CC1=CCC[C@H](C)C(=O)C[C@@H](C(C)C)C(=O)C1
REMARK SMILES IDX 8 1 9 2 6 3 7 4 5 5 4 6 3 7 2 8 1 9 10 11 11 12 15 13 16 14
REMARK SMILES IDX 17 15 12 17 13 18 14 19
REMARK H PARENT
REMARK Flexibility Score: 70.00
ROOT
ATOM      1  C   UNL     1      31.406  17.811  24.499  1.00  0.00     0.136 C 
ATOM      2  O   UNL     1      30.242  17.528  24.254  1.00  0.00    -0.299 OA
ENDROOT
BRANCH   1   3
ATOM      3  C   UNL     1      32.193  18.587  23.453  1.00  0.00     0.053 C 
ATOM      4  C   UNL     1      32.293  17.791  22.144  1.00  0.00     0.016 C 
BRANCH   3   5
ATOM      5  C   UNL     1      31.619  20.002  23.195  1.00  0.00     0.015 C 
BRANCH   5   6
ATOM      6  C   UNL     1      31.270  20.823  24.456  1.00  0.00     0.028 C 
BRANCH   6   7
ATOM      7  C   UNL     1      32.415  21.179  25.377  1.00  0.00    -0.028 C 
ATOM      8  C   UNL     1      32.420  21.084  26.728  1.00  0.00    -0.070 CG0
ATOM      9  C   UNL     1      33.608  21.645  27.468  1.00  0.00     0.039 C 
ATOM     10  G   UNL     1      31.337  20.389  27.529  1.00  0.00     0.000 G0
ENDBRANCH   6   7
ENDBRANCH   5   6
ENDBRANCH   3   5
ENDBRANCH   1   3
BRANCH   1  11
ATOM     11  C   UNL     1      31.973  17.393  25.846  1.00  0.00     0.087 C 
BRANCH  11  12
ATOM     12  C   UNL     1      31.099  17.809  27.062  1.00  0.00     0.066 C 
BRANCH  12  13
ATOM     13  C   UNL     1      31.720  18.961  27.832  1.00  0.00     0.140 C 
ATOM     14  O   UNL     1      32.577  18.738  28.674  1.00  0.00    -0.299 OA
BRANCH  13  15
ATOM     15  C   UNL     1      31.331  20.393  27.542  1.00  0.00     0.106 CG0
ATOM     16  G   UNL     1      32.417  21.075  26.734  1.00  0.00     0.000 G0
ENDBRANCH  13  15
ENDBRANCH  12  13
BRANCH  12  17
ATOM     17  C   UNL     1      30.706  16.621  28.001  1.00  0.00    -0.006 C 
ATOM     18  C   UNL     1      31.854  15.648  28.327  1.00  0.00     0.008 C 
ATOM     19  C   UNL     1      29.512  15.833  27.437  1.00  0.00     0.008 C 
ENDBRANCH  12  17
ENDBRANCH  11  12
ENDBRANCH   1  11
TORSDOF 1
ENDMDL
MODEL 4
REMARK VINA RESULT:    -4.078      1.760      3.850
REMARK INTER + INTRA:          -6.217
REMARK INTER:                  -6.299
REMARK INTRA:                   0.081
REMARK UNBOUND:                 0.007
REMARK SMILES CC1=CCC[C@H](C)C(=O)C[C@@H](C(C)C)C(=O)C1
REMARK SMILES IDX 8 1 9 2 6 3 7 4 5 5 4 6 3 7 2 8 1 9 10 11 11 12 15 13 16 14
REMARK SMILES IDX 17 15 12 17 13 18 14 19
REMARK H PARENT
REMARK Flexibility Score: 70.00
ROOT
ATOM      1  C   UNL     1      32.803  20.539  25.840  1.00  0.00     0.136 C 
ATOM      2  O   UNL     1      32.118  21.502  25.524  1.00  0.00    -0.299 OA
ENDROOT
BRANCH   1   3
ATOM      3  C   UNL     1      33.563  20.599  27.157  1.00  0.00     0.053 C 
ATOM      4  C   UNL     1      33.625  22.039  27.686  1.00  0.00     0.016 C 
BRANCH   3   5
ATOM      5  C   UNL     1      32.987  19.642  28.229  1.00  0.00     0.015 C 
BRANCH   5   6
ATOM      6  C   UNL     1      31.470  19.367  28.135  1.00  0.00     0.028 C 
BRANCH   6   7
ATOM      7  C   UNL     1      31.018  17.949  28.398  1.00  0.00    -0.028 C 
ATOM      8  C   UNL     1      31.047  16.919  27.519  1.00  0.00    -0.070 CG0
ATOM      9  C   UNL     1      30.396  15.623  27.932  1.00  0.00     0.039 C 
ATOM     10  G   UNL     1      31.751  16.974  26.178  1.00  0.00     0.000 G0
ENDBRANCH   6   7
ENDBRANCH   5   6
ENDBRANCH   3   5
ENDBRANCH   1   3
BRANCH   1  11
ATOM     11  C   UNL     1      32.820  19.339  24.907  1.00  0.00     0.087 C 
BRANCH  11  12
ATOM     12  C   UNL     1      31.416  18.906  24.401  1.00  0.00     0.066 C 
BRANCH  12  13
ATOM     13  C   UNL     1      30.897  17.692  25.152  1.00  0.00     0.140 C 
ATOM     14  O   UNL     1      29.783  17.255  24.905  1.00  0.00    -0.299 OA
BRANCH  13  15
ATOM     15  C   UNL     1      31.756  16.979  26.171  1.00  0.00     0.106 CG0
ATOM     16  G   UNL     1      31.039  16.918  27.505  1.00  0.00     0.000 G0
ENDBRANCH  13  15
ENDBRANCH  12  13
BRANCH  12  17
ATOM     17  C   UNL     1      31.327  18.719  22.850  1.00  0.00    -0.006 C 
ATOM     18  C   UNL     1      32.326  17.705  22.264  1.00  0.00     0.008 C 
ATOM     19  C   UNL     1      31.469  20.061  22.114  1.00  0.00     0.008 C 
ENDBRANCH  12  17
ENDBRANCH  11  12
ENDBRANCH   1  11
TORSDOF 1
ENDMDL
MODEL 5
REMARK VINA RESULT:    -3.739      1.687      4.158
REMARK INTER + INTRA:          -5.699
REMARK INTER:                  -6.928
REMARK INTRA:                   1.230
REMARK UNBOUND:                 0.007
REMARK SMILES CC1=CCC[C@H](C)C(=O)C[C@@H](C(C)C)C(=O)C1
REMARK SMILES IDX 8 1 9 2 6 3 7 4 5 5 4 6 3 7 2 8 1 9 10 11 11 12 15 13 16 14
REMARK SMILES IDX 17 15 12 17 13 18 14 19
REMARK H PARENT
REMARK Flexibility Score: 70.00
ROOT
ATOM      1  C   UNL     1      31.352  19.591  27.932  1.00  0.00     0.136 C 
ATOM      2  O   UNL     1      30.702  20.624  27.871  1.00  0.00    -0.299 OA
ENDROOT
BRANCH   1   3
ATOM      3  C   UNL     1      32.837  19.694  28.250  1.00  0.00     0.053 C 
ATOM      4  C   UNL     1      33.416  18.316  28.602  1.00  0.00     0.016 C 
BRANCH   3   5
ATOM      5  C   UNL     1      33.651  20.360  27.114  1.00  0.00     0.015 C 
BRANCH   5   6
ATOM      6  C   UNL     1      32.821  20.950  25.953  1.00  0.00     0.028 C 
BRANCH   6   7
ATOM      7  C   UNL     1      32.957  20.277  24.606  1.00  0.00    -0.028 C 
ATOM      8  C   UNL     1      32.147  19.314  24.103  1.00  0.00    -0.070 CG0
ATOM      9  C   UNL     1      32.555  18.659  22.807  1.00  0.00     0.039 C 
ATOM     10  G   UNL     1      30.829  18.908  24.730  1.00  0.00     0.000 G0
ENDBRANCH   6   7
ENDBRANCH   5   6
ENDBRANCH   3   5
ENDBRANCH   1   3
BRANCH   1  11
ATOM     11  C   UNL     1      30.622  18.274  27.720  1.00  0.00     0.087 C 
BRANCH  11  12
ATOM     12  C   UNL     1      31.342  17.295  26.751  1.00  0.00     0.066 C 
BRANCH  12  13
ATOM     13  C   UNL     1      30.921  17.520  25.310  1.00  0.00     0.140 C 
ATOM     14  O   UNL     1      30.607  16.567  24.612  1.00  0.00    -0.299 OA
BRANCH  13  15
ATOM     15  C   UNL     1      30.836  18.913  24.729  1.00  0.00     0.106 CG0
ATOM     16  G   UNL     1      32.155  19.291  24.084  1.00  0.00     0.000 G0
ENDBRANCH  13  15
ENDBRANCH  12  13
BRANCH  12  17
ATOM     17  C   UNL     1      31.233  15.791  27.167  1.00  0.00    -0.006 C 
ATOM     18  C   UNL     1      29.846  15.362  27.679  1.00  0.00     0.008 C 
ATOM     19  C   UNL     1      32.301  15.418  28.208  1.00  0.00     0.008 C 
ENDBRANCH  12  17
ENDBRANCH  11  12
ENDBRANCH   1  11
TORSDOF 1
ENDMDL
MODEL 6
REMARK VINA RESULT:    -3.699     17.068     19.518
REMARK INTER + INTRA:          -5.638
REMARK INTER:                  -5.384
REMARK INTRA:                  -0.255
REMARK UNBOUND:                 0.007
REMARK SMILES CC1=CCC[C@H](C)C(=O)C[C@@H](C(C)C)C(=O)C1
REMARK SMILES IDX 8 1 9 2 6 3 7 4 5 5 4 6 3 7 2 8 1 9 10 11 11 12 15 13 16 14
REMARK SMILES IDX 17 15 12 17 13 18 14 19
REMARK H PARENT
REMARK Flexibility Score: 70.00
ROOT
ATOM      1  C   UNL     1      20.666  32.268  30.039  1.00  0.00     0.136 C 
ATOM      2  O   UNL     1      21.559  32.121  29.216  1.00  0.00    -0.299 OA
ENDROOT
BRANCH   1   3
ATOM      3  C   UNL     1      20.243  33.685  30.395  1.00  0.00     0.053 C 
ATOM      4  C   UNL     1      21.464  34.549  30.739  1.00  0.00     0.016 C 
BRANCH   3   5
ATOM      5  C   UNL     1      19.388  34.354  29.291  1.00  0.00     0.015 C 
BRANCH   5   6
ATOM      6  C   UNL     1      17.872  34.060  29.348  1.00  0.00     0.028 C 
BRANCH   6   7
ATOM      7  C   UNL     1      17.293  33.725  30.704  1.00  0.00    -0.028 C 
ATOM      8  C   UNL     1      16.602  32.606  31.029  1.00  0.00    -0.070 CG0
ATOM      9  C   UNL     1      15.970  32.543  32.397  1.00  0.00     0.039 C 
ATOM     10  G   UNL     1      16.485  31.395  30.126  1.00  0.00     0.000 G0
ENDBRANCH   6   7
ENDBRANCH   5   6
ENDBRANCH   3   5
ENDBRANCH   1   3
BRANCH   1  11
ATOM     11  C   UNL     1      20.021  31.020  30.621  1.00  0.00     0.087 C 
BRANCH  11  12
ATOM     12  C   UNL     1      18.907  30.404  29.730  1.00  0.00     0.066 C 
BRANCH  12  13
ATOM     13  C   UNL     1      17.567  30.378  30.444  1.00  0.00     0.140 C 
ATOM     14  O   UNL     1      17.360  29.551  31.319  1.00  0.00    -0.299 OA
BRANCH  13  15
ATOM     15  C   UNL     1      16.493  31.394  30.125  1.00  0.00     0.106 CG0
ATOM     16  G   UNL     1      16.616  32.590  31.047  1.00  0.00     0.000 G0
ENDBRANCH  13  15
ENDBRANCH  12  13
BRANCH  12  17
ATOM     17  C   UNL     1      19.274  29.010  29.122  1.00  0.00    -0.006 C 
ATOM     18  C   UNL     1      20.219  28.156  29.989  1.00  0.00     0.008 C 
ATOM     19  C   UNL     1      19.865  29.153  27.710  1.00  0.00     0.008 C 
ENDBRANCH  12  17
ENDBRANCH  11  12
ENDBRANCH   1  11
TORSDOF 1
ENDMDL
MODEL 7
REMARK VINA RESULT:    -3.664     13.616     15.464
REMARK INTER + INTRA:          -5.584
REMARK INTER:                  -5.924
REMARK INTRA:                   0.340
REMARK UNBOUND:                 0.007
REMARK SMILES CC1=CCC[C@H](C)C(=O)C[C@@H](C(C)C)C(=O)C1
REMARK SMILES IDX 8 1 9 2 6 3 7 4 5 5 4 6 3 7 2 8 1 9 10 11 11 12 15 13 16 14
REMARK SMILES IDX 17 15 12 17 13 18 14 19
REMARK H PARENT
REMARK Flexibility Score: 70.00
ROOT
ATOM      1  C   UNL     1      20.723  25.635  28.178  1.00  0.00     0.136 C 
ATOM      2  O   UNL     1      21.240  25.666  29.286  1.00  0.00    -0.299 OA
ENDROOT
BRANCH   1   3
ATOM      3  C   UNL     1      21.478  24.944  27.052  1.00  0.00     0.053 C 
ATOM      4  C   UNL     1      22.993  25.010  27.290  1.00  0.00     0.016 C 
BRANCH   3   5
ATOM      5  C   UNL     1      21.018  23.483  26.826  1.00  0.00     0.015 C 
BRANCH   5   6
ATOM      6  C   UNL     1      19.682  23.311  26.071  1.00  0.00     0.028 C 
BRANCH   6   7
ATOM      7  C   UNL     1      18.610  22.498  26.759  1.00  0.00    -0.028 C 
ATOM      8  C   UNL     1      17.560  22.984  27.464  1.00  0.00    -0.070 CG0
ATOM      9  C   UNL     1      16.696  21.998  28.209  1.00  0.00     0.039 C 
ATOM     10  G   UNL     1      17.168  24.447  27.491  1.00  0.00     0.000 G0
ENDBRANCH   6   7
ENDBRANCH   5   6
ENDBRANCH   3   5
ENDBRANCH   1   3
BRANCH   1  11
ATOM     11  C   UNL     1      19.347  26.262  28.015  1.00  0.00     0.087 C 
BRANCH  11  12
ATOM     12  C   UNL     1      18.394  26.026  29.220  1.00  0.00     0.066 C 
BRANCH  12  13
ATOM     13  C   UNL     1      17.328  24.993  28.899  1.00  0.00     0.140 C 
ATOM     14  O   UNL     1      16.556  24.625  29.772  1.00  0.00    -0.299 OA
BRANCH  13  15
ATOM     15  C   UNL     1      17.170  24.442  27.500  1.00  0.00     0.106 CG0
ATOM     16  G   UNL     1      17.591  22.987  27.462  1.00  0.00     0.000 G0
ENDBRANCH  13  15
ENDBRANCH  12  13
BRANCH  12  17
ATOM     17  C   UNL     1      17.780  27.338  29.812  1.00  0.00    -0.006 C 
ATOM     18  C   UNL     1      18.525  28.630  29.430  1.00  0.00     0.008 C 
ATOM     19  C   UNL     1      17.652  27.255  31.342  1.00  0.00     0.008 C 
ENDBRANCH  12  17
ENDBRANCH  11  12
ENDBRANCH   1  11
TORSDOF 1
ENDMDL
MODEL 8
REMARK VINA RESULT:    -3.636     14.919     16.195
REMARK INTER + INTRA:          -5.542
REMARK INTER:                  -5.371
REMARK INTRA:                  -0.171
REMARK UNBOUND:                 0.007
REMARK SMILES CC1=CCC[C@H](C)C(=O)C[C@@H](C(C)C)C(=O)C1
REMARK SMILES IDX 8 1 9 2 6 3 7 4 5 5 4 6 3 7 2 8 1 9 10 11 11 12 15 13 16 14
REMARK SMILES IDX 17 15 12 17 13 18 14 19
REMARK H PARENT
REMARK Flexibility Score: 70.00
ROOT
ATOM      1  C   UNL     1      17.312  23.743  27.953  1.00  0.00     0.136 C 
ATOM      2  O   UNL     1      17.792  22.705  27.520  1.00  0.00    -0.299 OA
ENDROOT
BRANCH   1   3
ATOM      3  C   UNL     1      16.178  23.644  28.963  1.00  0.00     0.053 C 
ATOM      4  C   UNL     1      15.309  22.409  28.688  1.00  0.00     0.016 C 
BRANCH   3   5
ATOM      5  C   UNL     1      16.675  23.653  30.429  1.00  0.00     0.015 C 
BRANCH   5   6
ATOM      6  C   UNL     1      16.077  24.755  31.332  1.00  0.00     0.028 C 
BRANCH   6   7
ATOM      7  C   UNL     1      15.632  26.028  30.650  1.00  0.00    -0.028 C 
ATOM      8  C   UNL     1      16.416  27.084  30.325  1.00  0.00    -0.070 CG0
ATOM      9  C   UNL     1      15.742  28.324  29.796  1.00  0.00     0.039 C 
ATOM     10  G   UNL     1      17.930  27.064  30.401  1.00  0.00     0.000 G0
ENDBRANCH   6   7
ENDBRANCH   5   6
ENDBRANCH   3   5
ENDBRANCH   1   3
BRANCH   1  11
ATOM     11  C   UNL     1      17.907  25.058  27.474  1.00  0.00     0.087 C 
BRANCH  11  12
ATOM     12  C   UNL     1      18.983  25.653  28.423  1.00  0.00     0.066 C 
BRANCH  12  13
ATOM     13  C   UNL     1      18.546  26.988  29.001  1.00  0.00     0.140 C 
ATOM     14  O   UNL     1      18.638  28.002  28.325  1.00  0.00    -0.299 OA
BRANCH  13  15
ATOM     15  C   UNL     1      17.951  27.082  30.387  1.00  0.00     0.106 CG0
ATOM     16  G   UNL     1      16.438  27.094  30.305  1.00  0.00     0.000 G0
ENDBRANCH  13  15
ENDBRANCH  12  13
BRANCH  12  17
ATOM     17  C   UNL     1      20.415  25.725  27.798  1.00  0.00    -0.006 C 
ATOM     18  C   UNL     1      20.908  24.413  27.161  1.00  0.00     0.008 C 
ATOM     19  C   UNL     1      21.450  26.217  28.822  1.00  0.00     0.008 C 
ENDBRANCH  12  17
ENDBRANCH  11  12
ENDBRANCH   1  11
TORSDOF 1
ENDMDL
MODEL 9
REMARK VINA RESULT:    -3.373     10.260     13.329
REMARK INTER + INTRA:          -5.141
REMARK INTER:                  -5.336
REMARK INTRA:                   0.195
REMARK UNBOUND:                 0.007
REMARK SMILES CC1=CCC[C@H](C)C(=O)C[C@@H](C(C)C)C(=O)C1
REMARK SMILES IDX 8 1 9 2 6 3 7 4 5 5 4 6 3 7 2 8 1 9 10 11 11 12 15 13 16 14
REMARK SMILES IDX 17 15 12 17 13 18 14 19
REMARK H PARENT
REMARK Flexibility Score: 70.00
ROOT
ATOM      1  C   UNL     1      29.973  29.722  27.610  1.00  0.00     0.136 C 
ATOM      2  O   UNL     1      31.145  29.513  27.891  1.00  0.00    -0.299 OA
ENDROOT
BRANCH   1   3
ATOM      3  C   UNL     1      29.243  28.690  26.763  1.00  0.00     0.053 C 
ATOM      4  C   UNL     1      30.206  27.592  26.291  1.00  0.00     0.016 C 
BRANCH   3   5
ATOM      5  C   UNL     1      28.018  28.076  27.484  1.00  0.00     0.015 C 
BRANCH   5   6
ATOM      6  C   UNL     1      26.662  28.758  27.198  1.00  0.00     0.028 C 
BRANCH   6   7
ATOM      7  C   UNL     1      25.689  28.850  28.351  1.00  0.00    -0.028 C 
ATOM      8  C   UNL     1      25.724  29.750  29.363  1.00  0.00    -0.070 CG0
ATOM      9  C   UNL     1      24.753  29.566  30.502  1.00  0.00     0.039 C 
ATOM     10  G   UNL     1      26.633  30.962  29.383  1.00  0.00     0.000 G0
ENDBRANCH   6   7
ENDBRANCH   5   6
ENDBRANCH   3   5
ENDBRANCH   1   3
BRANCH   1  11
ATOM     11  C   UNL     1      29.322  30.983  28.155  1.00  0.00     0.087 C 
BRANCH  11  12
ATOM     12  C   UNL     1      29.253  31.044  29.706  1.00  0.00     0.066 C 
BRANCH  12  13
ATOM     13  C   UNL     1      27.871  30.684  30.222  1.00  0.00     0.140 C 
ATOM     14  O   UNL     1      27.746  30.192  31.334  1.00  0.00    -0.299 OA
BRANCH  13  15
ATOM     15  C   UNL     1      26.633  30.968  29.402  1.00  0.00     0.106 CG0
ATOM     16  G   UNL     1      25.740  29.745  29.365  1.00  0.00     0.000 G0
ENDBRANCH  13  15
ENDBRANCH  12  13
BRANCH  12  17
ATOM     17  C   UNL     1      29.775  32.388  30.315  1.00  0.00    -0.006 C 
ATOM     18  C   UNL     1      29.073  33.652  29.787  1.00  0.00     0.008 C 
ATOM     19  C   UNL     1      31.295  32.532  30.133  1.00  0.00     0.008 C 
ENDBRANCH  12  17
ENDBRANCH  11  12
ENDBRANCH   1  11
TORSDOF 1
ENDMDL
