MODEL 1
REMARK VINA RESULT:    -3.957      0.000      0.000
REMARK INTER + INTRA:          -4.479
REMARK INTER:                  -4.189
REMARK INTRA:                  -0.290
REMARK UNBOUND:                -0.290
REMARK SMILES C=C1CC[C@]2(C(C)C)C[C@H]12
REMARK SMILES IDX 5 1 4 2 3 3 2 4 1 5 10 6 9 7 6 8 7 9 8 10
REMARK H PARENT
REMARK Flexibility Score: inf
ROOT
ATOM      1  C   UNL     1     143.910 142.399 132.802  1.00  0.00    -0.020 C 
ATOM      2  C   UNL     1     144.020 142.562 134.329  1.00  0.00     0.012 C 
ATOM      3  C   UNL     1     143.001 143.624 134.746  1.00  0.00     0.031 C 
ATOM      4  C   UNL     1     142.401 144.106 133.469  1.00  0.00    -0.074 C 
ATOM      5  C   UNL     1     141.496 145.087 133.410  1.00  0.00     0.008 C 
ATOM      6  C   UNL     1     142.906 143.403 132.261  1.00  0.00     0.021 C 
ATOM      7  C   UNL     1     144.390 143.574 131.955  1.00  0.00     0.016 C 
ENDROOT
BRANCH   1   8
ATOM      8  C   UNL     1     143.923 141.003 132.132  1.00  0.00    -0.011 C 
ATOM      9  C   UNL     1     144.561 139.970 133.065  1.00  0.00     0.008 C 
ATOM     10  C   UNL     1     142.513 140.561 131.717  1.00  0.00     0.008 C 
ENDBRANCH   1   8
TORSDOF 1
ENDMDL
MODEL 2
REMARK VINA RESULT:    -3.955      3.243      4.604
REMARK INTER + INTRA:          -4.477
REMARK INTER:                  -4.196
REMARK INTRA:                  -0.281
REMARK UNBOUND:                -0.290
REMARK SMILES C=C1CC[C@]2(C(C)C)C[C@H]12
REMARK SMILES IDX 5 1 4 2 3 3 2 4 1 5 10 6 9 7 6 8 7 9 8 10
REMARK H PARENT
REMARK Flexibility Score: inf
ROOT
ATOM      1  C   UNL     1     142.439 138.270 132.745  1.00  0.00    -0.020 C 
ATOM      2  C   UNL     1     142.607 138.132 134.269  1.00  0.00     0.012 C 
ATOM      3  C   UNL     1     143.651 139.161 134.705  1.00  0.00     0.031 C 
ATOM      4  C   UNL     1     144.120 139.796 133.440  1.00  0.00    -0.074 C 
ATOM      5  C   UNL     1     145.084 140.720 133.399  1.00  0.00     0.008 C 
ATOM      6  C   UNL     1     143.424 139.303 132.223  1.00  0.00     0.021 C 
ATOM      7  C   UNL     1     143.622 137.828 131.888  1.00  0.00     0.016 C 
ENDROOT
BRANCH   1   8
ATOM      8  C   UNL     1     141.043 138.245 132.076  1.00  0.00    -0.011 C 
ATOM      9  C   UNL     1     140.011 137.625 133.022  1.00  0.00     0.008 C 
ATOM     10  C   UNL     1     140.602 139.646 131.635  1.00  0.00     0.008 C 
ENDBRANCH   1   8
TORSDOF 1
ENDMDL
MODEL 3
REMARK VINA RESULT:    -3.953      3.261      4.631
REMARK INTER + INTRA:          -4.474
REMARK INTER:                  -4.179
REMARK INTRA:                  -0.295
REMARK UNBOUND:                -0.290
REMARK SMILES C=C1CC[C@]2(C(C)C)C[C@H]12
REMARK SMILES IDX 5 1 4 2 3 3 2 4 1 5 10 6 9 7 6 8 7 9 8 10
REMARK H PARENT
REMARK Flexibility Score: inf
ROOT
ATOM      1  C   UNL     1     139.784 143.915 132.859  1.00  0.00    -0.020 C 
ATOM      2  C   UNL     1     139.586 144.020 134.383  1.00  0.00     0.012 C 
ATOM      3  C   UNL     1     138.533 142.984 134.776  1.00  0.00     0.031 C 
ATOM      4  C   UNL     1     138.089 142.376 133.489  1.00  0.00    -0.074 C 
ATOM      5  C   UNL     1     137.125 141.455 133.409  1.00  0.00     0.008 C 
ATOM      6  C   UNL     1     138.809 142.894 132.296  1.00  0.00     0.021 C 
ATOM      7  C   UNL     1     138.620 144.375 131.989  1.00  0.00     0.016 C 
ENDROOT
BRANCH   1   8
ATOM      8  C   UNL     1     141.194 143.951 132.220  1.00  0.00    -0.011 C 
ATOM      9  C   UNL     1     142.189 144.633 133.163  1.00  0.00     0.008 C 
ATOM     10  C   UNL     1     141.680 142.547 131.840  1.00  0.00     0.008 C 
ENDBRANCH   1   8
TORSDOF 1
ENDMDL
MODEL 4
REMARK VINA RESULT:    -3.926      4.394      6.470
REMARK INTER + INTRA:          -4.446
REMARK INTER:                  -4.152
REMARK INTRA:                  -0.294
REMARK UNBOUND:                -0.290
REMARK SMILES C=C1CC[C@]2(C(C)C)C[C@H]12
REMARK SMILES IDX 5 1 4 2 3 3 2 4 1 5 10 6 9 7 6 8 7 9 8 10
REMARK H PARENT
REMARK Flexibility Score: inf
ROOT
ATOM      1  C   UNL     1     138.339 139.871 132.944  1.00  0.00    -0.020 C 
ATOM      2  C   UNL     1     138.253 139.644 134.465  1.00  0.00     0.012 C 
ATOM      3  C   UNL     1     139.249 138.539 134.816  1.00  0.00     0.031 C 
ATOM      4  C   UNL     1     139.813 138.097 133.508  1.00  0.00    -0.074 C 
ATOM      5  C   UNL     1     140.690 137.096 133.390  1.00  0.00     0.008 C 
ATOM      6  C   UNL     1     139.306 138.865 132.342  1.00  0.00     0.021 C 
ATOM      7  C   UNL     1     137.812 138.747 132.058  1.00  0.00     0.016 C 
ENDROOT
BRANCH   1   8
ATOM      8  C   UNL     1     138.353 141.295 132.336  1.00  0.00    -0.011 C 
ATOM      9  C   UNL     1     137.743 142.299 133.318  1.00  0.00     0.008 C 
ATOM     10  C   UNL     1     139.769 141.723 131.930  1.00  0.00     0.008 C 
ENDBRANCH   1   8
TORSDOF 1
ENDMDL
MODEL 5
REMARK VINA RESULT:    -3.857      1.727      4.142
REMARK INTER + INTRA:          -4.373
REMARK INTER:                  -4.152
REMARK INTRA:                  -0.220
REMARK UNBOUND:                -0.290
REMARK SMILES C=C1CC[C@]2(C(C)C)C[C@H]12
REMARK SMILES IDX 5 1 4 2 3 3 2 4 1 5 10 6 9 7 6 8 7 9 8 10
REMARK H PARENT
REMARK Flexibility Score: inf
ROOT
ATOM      1  C   UNL     1     144.292 141.327 134.068  1.00  0.00    -0.020 C 
ATOM      2  C   UNL     1     144.552 140.363 132.895  1.00  0.00     0.012 C 
ATOM      3  C   UNL     1     143.707 139.112 133.140  1.00  0.00     0.031 C 
ATOM      4  C   UNL     1     143.061 139.336 134.465  1.00  0.00    -0.074 C 
ATOM      5  C   UNL     1     142.277 138.431 135.058  1.00  0.00     0.008 C 
ATOM      6  C   UNL     1     143.372 140.656 135.074  1.00  0.00     0.021 C 
ATOM      7  C   UNL     1     144.834 140.903 135.429  1.00  0.00     0.016 C 
ENDROOT
BRANCH   1   8
ATOM      8  C   UNL     1     144.080 142.844 133.840  1.00  0.00    -0.011 C 
ATOM      9  C   UNL     1     144.364 143.208 132.380  1.00  0.00     0.008 C 
ATOM     10  C   UNL     1     142.668 143.285 134.245  1.00  0.00     0.008 C 
ENDBRANCH   1   8
TORSDOF 1
ENDMDL
MODEL 6
REMARK VINA RESULT:    -3.847      2.062      4.332
REMARK INTER + INTRA:          -4.363
REMARK INTER:                  -4.125
REMARK INTRA:                  -0.238
REMARK UNBOUND:                -0.290
REMARK SMILES C=C1CC[C@]2(C(C)C)C[C@H]12
REMARK SMILES IDX 5 1 4 2 3 3 2 4 1 5 10 6 9 7 6 8 7 9 8 10
REMARK H PARENT
REMARK Flexibility Score: inf
ROOT
ATOM      1  C   UNL     1     140.909 144.263 134.220  1.00  0.00    -0.020 C 
ATOM      2  C   UNL     1     141.876 144.486 133.042  1.00  0.00     0.012 C 
ATOM      3  C   UNL     1     143.132 143.660 133.325  1.00  0.00     0.031 C 
ATOM      4  C   UNL     1     142.906 143.062 134.672  1.00  0.00    -0.074 C 
ATOM      5  C   UNL     1     143.813 142.308 135.299  1.00  0.00     0.008 C 
ATOM      6  C   UNL     1     141.581 143.387 135.263  1.00  0.00     0.021 C 
ATOM      7  C   UNL     1     141.322 144.859 135.562  1.00  0.00     0.016 C 
ENDROOT
BRANCH   1   8
ATOM      8  C   UNL     1     139.395 144.032 133.993  1.00  0.00    -0.011 C 
ATOM      9  C   UNL     1     139.023 144.326 132.537  1.00  0.00     0.008 C 
ATOM     10  C   UNL     1     138.974 142.610 134.384  1.00  0.00     0.008 C 
ENDBRANCH   1   8
TORSDOF 1
ENDMDL
MODEL 7
REMARK VINA RESULT:    -3.836      1.890      2.631
REMARK INTER + INTRA:          -4.351
REMARK INTER:                  -4.059
REMARK INTRA:                  -0.292
REMARK UNBOUND:                -0.290
REMARK SMILES C=C1CC[C@]2(C(C)C)C[C@H]12
REMARK SMILES IDX 5 1 4 2 3 3 2 4 1 5 10 6 9 7 6 8 7 9 8 10
REMARK H PARENT
REMARK Flexibility Score: inf
ROOT
ATOM      1  C   UNL     1     144.098 140.587 134.593  1.00  0.00    -0.020 C 
ATOM      2  C   UNL     1     144.036 141.652 135.704  1.00  0.00     0.012 C 
ATOM      3  C   UNL     1     143.614 142.967 135.048  1.00  0.00     0.031 C 
ATOM      4  C   UNL     1     143.531 142.663 133.590  1.00  0.00    -0.074 C 
ATOM      5  C   UNL     1     143.241 143.583 132.666  1.00  0.00     0.008 C 
ATOM      6  C   UNL     1     143.809 141.242 133.253  1.00  0.00     0.021 C 
ATOM      7  C   UNL     1     145.215 140.741 133.565  1.00  0.00     0.016 C 
ENDROOT
BRANCH   1   8
ATOM      8  C   UNL     1     143.532 139.161 134.803  1.00  0.00    -0.011 C 
ATOM      9  C   UNL     1     143.434 138.842 136.298  1.00  0.00     0.008 C 
ATOM     10  C   UNL     1     142.169 138.987 134.121  1.00  0.00     0.008 C 
ENDBRANCH   1   8
TORSDOF 1
ENDMDL
MODEL 8
REMARK VINA RESULT:    -3.832      4.522      5.680
REMARK INTER + INTRA:          -4.346
REMARK INTER:                  -4.084
REMARK INTRA:                  -0.262
REMARK UNBOUND:                -0.290
REMARK SMILES C=C1CC[C@]2(C(C)C)C[C@H]12
REMARK SMILES IDX 5 1 4 2 3 3 2 4 1 5 10 6 9 7 6 8 7 9 8 10
REMARK H PARENT
REMARK Flexibility Score: inf
ROOT
ATOM      1  C   UNL     1     137.882 141.018 133.925  1.00  0.00    -0.020 C 
ATOM      2  C   UNL     1     137.765 142.047 132.786  1.00  0.00     0.012 C 
ATOM      3  C   UNL     1     138.635 143.246 133.165  1.00  0.00     0.031 C 
ATOM      4  C   UNL     1     139.155 142.931 134.527  1.00  0.00    -0.074 C 
ATOM      5  C   UNL     1     139.920 143.770 135.230  1.00  0.00     0.008 C 
ATOM      6  C   UNL     1     138.738 141.599 135.039  1.00  0.00     0.021 C 
ATOM      7  C   UNL     1     137.242 141.401 135.256  1.00  0.00     0.016 C 
ENDROOT
BRANCH   1   8
ATOM      8  C   UNL     1     138.052 139.506 133.639  1.00  0.00    -0.011 C 
ATOM      9  C   UNL     1     137.710 139.199 132.178  1.00  0.00     0.008 C 
ATOM     10  C   UNL     1     139.466 139.020 133.980  1.00  0.00     0.008 C 
ENDBRANCH   1   8
TORSDOF 1
ENDMDL
MODEL 9
REMARK VINA RESULT:    -3.811      2.162      3.711
REMARK INTER + INTRA:          -4.324
REMARK INTER:                  -4.020
REMARK INTRA:                  -0.304
REMARK UNBOUND:                -0.290
REMARK SMILES C=C1CC[C@]2(C(C)C)C[C@H]12
REMARK SMILES IDX 5 1 4 2 3 3 2 4 1 5 10 6 9 7 6 8 7 9 8 10
REMARK H PARENT
REMARK Flexibility Score: inf
ROOT
ATOM      1  C   UNL     1     141.509 144.091 134.685  1.00  0.00    -0.020 C 
ATOM      2  C   UNL     1     140.419 144.032 135.771  1.00  0.00     0.012 C 
ATOM      3  C   UNL     1     139.128 143.573 135.093  1.00  0.00     0.031 C 
ATOM      4  C   UNL     1     139.469 143.466 133.645  1.00  0.00    -0.074 C 
ATOM      5  C   UNL     1     138.577 143.140 132.706  1.00  0.00     0.008 C 
ATOM      6  C   UNL     1     140.892 143.763 133.336  1.00  0.00     0.021 C 
ATOM      7  C   UNL     1     141.361 145.183 133.631  1.00  0.00     0.016 C 
ENDROOT
BRANCH   1   8
ATOM      8  C   UNL     1     142.939 143.556 134.942  1.00  0.00    -0.011 C 
ATOM      9  C   UNL     1     143.258 143.584 136.439  1.00  0.00     0.008 C 
ATOM     10  C   UNL     1     143.125 142.143 134.373  1.00  0.00     0.008 C 
ENDBRANCH   1   8
TORSDOF 1
ENDMDL
