MODEL 1
REMARK VINA RESULT:    96.404      0.000      0.000
REMARK INTER + INTRA:         105.175
REMARK INTER:                 104.857
REMARK INTRA:                   0.317
REMARK UNBOUND:                 0.317
REMARK SMILES C=C(C)[C@H]1CC[C@@]2(C)CC[C@]3(C)[C@@H](CC[C@H]4[C@]5(C)CC[C@H](O)C(C)(C)[C@H]5CC[C@]43C)[C@H]12
REMARK SMILES IDX 4 1 5 2 6 3 7 4 31 5 13 6 14 7 15 8 16 9 17 10 19 11 20 12
REMARK SMILES IDX 21 13 23 14 26 15 27 16 28 17 29 18 11 19 10 20 9 21 12 22
REMARK SMILES IDX 30 23 24 24 25 25 18 26 8 27 2 28 3 29 1 30 22 31
REMARK H PARENT 22 32
REMARK Flexibility Score: inf
ROOT
ATOM      1  C   UNL     1     -24.300  32.268  -9.002  1.00  0.00     0.018 C 
ATOM      2  C   UNL     1     -25.068  32.733 -10.263  1.00  0.00     0.009 C 
ATOM      3  C   UNL     1     -25.784  31.496 -10.820  1.00  0.00     0.008 C 
ATOM      4  C   UNL     1     -25.845  30.513  -9.644  1.00  0.00    -0.029 C 
ATOM      5  C   UNL     1     -24.472  30.732  -8.991  1.00  0.00     0.006 C 
ATOM      6  C   UNL     1     -24.344  29.924  -7.653  1.00  0.00    -0.000 C 
ATOM      7  C   UNL     1     -22.988  30.156  -7.001  1.00  0.00     0.005 C 
ATOM      8  C   UNL     1     -21.870  29.418  -7.718  1.00  0.00     0.005 C 
ATOM      9  C   UNL     1     -22.018  27.845  -7.807  1.00  0.00     0.002 C 
ATOM     10  C   UNL     1     -20.750  26.997  -7.215  1.00  0.00    -0.026 C 
ATOM     11  C   UNL     1     -20.328  25.836  -8.169  1.00  0.00     0.010 C 
ATOM     12  C   UNL     1     -19.237  24.903  -7.568  1.00  0.00     0.033 C 
ATOM     13  C   UNL     1     -19.572  24.340  -6.164  1.00  0.00     0.120 C 
ATOM     14  C   UNL     1     -20.064  25.428  -5.135  1.00  0.00    -0.006 C 
ATOM     15  C   UNL     1     -21.143  26.317  -5.856  1.00  0.00     0.003 C 
ATOM     16  C   UNL     1     -22.063  27.232  -5.041  1.00  0.00     0.005 C 
ATOM     17  C   UNL     1     -23.464  27.288  -5.717  1.00  0.00     0.008 C 
ATOM     18  C   UNL     1     -23.468  27.376  -7.307  1.00  0.00    -0.024 C 
ATOM     19  C   UNL     1     -24.672  28.362  -7.838  1.00  0.00    -0.024 C 
ATOM     20  C   UNL     1     -24.989  28.066  -9.367  1.00  0.00     0.008 C 
ATOM     21  C   UNL     1     -25.985  29.027 -10.072  1.00  0.00     0.007 C 
ATOM     22  C   UNL     1     -25.987  28.037  -7.040  1.00  0.00     0.012 C 
ATOM     23  C   UNL     1     -23.755  25.937  -7.893  1.00  0.00     0.012 C 
ATOM     24  C   UNL     1     -20.708  24.680  -3.930  1.00  0.00     0.014 C 
ATOM     25  C   UNL     1     -18.876  26.226  -4.541  1.00  0.00     0.014 C 
ATOM     26  C   UNL     1     -19.495  27.923  -7.094  1.00  0.00     0.012 C 
ATOM     27  C   UNL     1     -27.052  30.943  -8.749  1.00  0.00     0.011 C 
ENDROOT
BRANCH   1  28
ATOM     28  C   UNL     1     -22.856  32.767  -9.042  1.00  0.00    -0.077 C 
ATOM     29  C   UNL     1     -21.708  31.851  -9.398  1.00  0.00     0.039 C 
ATOM     30  C   UNL     1     -22.592  34.069  -8.854  1.00  0.00     0.008 C 
ENDBRANCH   1  28
BRANCH  13  31
ATOM     31  O   UNL     1     -20.553  23.342  -6.318  1.00  0.00    -0.393 OA
ATOM     32  H   UNL     1     -20.429  22.688  -5.580  1.00  0.00     0.210 HD
ENDBRANCH  13  31
TORSDOF 2
ENDMDL
