MODEL 1
REMARK VINA RESULT:    11.816      0.000      0.000
REMARK INTER + INTRA:          24.166
REMARK INTER:                  18.033
REMARK INTRA:                   6.133
REMARK UNBOUND:                 6.133
REMARK SMILES OC[C@@H]1O[C@@H](O[C@@]2(CO)O[C@H](CO)[C@@H](O)[C@@H]2O)[C@@H](O)[C@@H](O)[C@H]1O
REMARK SMILES IDX 6 1 5 2 3 3 22 4 4 5 20 6 18 7 2 8 1 9 23 11 21 13 19 15
REMARK SMILES IDX 7 17 16 18 10 19 14 20 11 21 8 22 9 23 17 25 15 27 12 29
REMARK SMILES IDX 13 30
REMARK H PARENT 1 10 23 12 21 14 19 16 9 24 17 26 15 28 13 31
REMARK Flexibility Score: inf
ROOT
ATOM      1  O   UNL     1       0.472   1.121 -38.463  1.00  0.00    -0.313 OA
ENDROOT
BRANCH   1   2
ATOM      2  C   UNL     1       1.333   1.296 -37.338  1.00  0.00     0.285 C 
ATOM      3  C   UNL     1       2.580   3.045 -38.316  1.00  0.00     0.178 C 
ATOM      4  C   UNL     1       3.885   2.220 -38.347  1.00  0.00     0.177 C 
ATOM      5  O   UNL     1       1.752   2.650 -37.233  1.00  0.00    -0.341 OA
ATOM      6  C   UNL     1       3.531   0.738 -38.516  1.00  0.00     0.179 C 
ATOM      7  C   UNL     1       2.538   0.320 -37.419  1.00  0.00     0.202 C 
BRANCH   3   8
ATOM      8  C   UNL     1       2.850   4.563 -38.219  1.00  0.00     0.191 C 
BRANCH   8   9
ATOM      9  O   UNL     1       4.175   4.904 -37.875  1.00  0.00    -0.394 OA
ATOM     10  H   UNL     1       4.608   4.123 -37.440  1.00  0.00     0.210 HD
ENDBRANCH   8   9
ENDBRANCH   3   8
BRANCH   4  11
ATOM     11  O   UNL     1       4.694   2.633 -39.415  1.00  0.00    -0.387 OA
ATOM     12  H   UNL     1       5.248   3.390 -39.092  1.00  0.00     0.211 HD
ENDBRANCH   4  11
BRANCH   6  13
ATOM     13  O   UNL     1       2.954   0.530 -39.789  1.00  0.00    -0.387 OA
ATOM     14  H   UNL     1       2.369  -0.271 -39.730  1.00  0.00     0.211 HD
ENDBRANCH   6  13
BRANCH   7  15
ATOM     15  O   UNL     1       2.100  -0.990 -37.670  1.00  0.00    -0.385 OA
ATOM     16  H   UNL     1       1.232  -1.091 -37.206  1.00  0.00     0.211 HD
ENDBRANCH   7  15
ENDBRANCH   1   2
BRANCH   1  17
ATOM     17  C   UNL     1       0.211   2.321 -39.193  1.00  0.00     0.224 C 
ATOM     18  C   UNL     1      -0.759   1.955 -40.337  1.00  0.00     0.208 C 
ATOM     19  O   UNL     1       1.400   2.827 -39.773  1.00  0.00    -0.337 OA
ATOM     20  C   UNL     1       0.164   1.679 -41.500  1.00  0.00     0.180 C 
ATOM     21  C   UNL     1       1.449   2.432 -41.129  1.00  0.00     0.179 C 
BRANCH  17  22
ATOM     22  C   UNL     1      -0.403   3.385 -38.242  1.00  0.00     0.225 C 
BRANCH  22  23
ATOM     23  O   UNL     1      -1.423   2.826 -37.455  1.00  0.00    -0.391 OA
ATOM     24  H   UNL     1      -2.061   2.389 -38.077  1.00  0.00     0.210 HD
ENDBRANCH  22  23
ENDBRANCH  17  22
BRANCH  18  25
ATOM     25  O   UNL     1      -1.613   3.025 -40.667  1.00  0.00    -0.385 OA
ATOM     26  H   UNL     1      -2.485   2.859 -40.227  1.00  0.00     0.211 HD
ENDBRANCH  18  25
BRANCH  20  27
ATOM     27  O   UNL     1       0.403   0.301 -41.669  1.00  0.00    -0.387 OA
ATOM     28  H   UNL     1       1.107   0.027 -41.027  1.00  0.00     0.211 HD
ENDBRANCH  20  27
BRANCH  21  29
ATOM     29  C   UNL     1       1.680   3.666 -42.019  1.00  0.00     0.191 C 
BRANCH  29  30
ATOM     30  O   UNL     1       1.354   3.401 -43.360  1.00  0.00    -0.394 OA
ATOM     31  H   UNL     1       2.167   3.600 -43.895  1.00  0.00     0.210 HD
ENDBRANCH  29  30
ENDBRANCH  21  29
ENDBRANCH   1  17
TORSDOF 13
ENDMDL
MODEL 2
REMARK VINA RESULT:    12.050      1.352      4.193
REMARK INTER + INTRA:          24.522
REMARK INTER:                  18.573
REMARK INTRA:                   5.949
REMARK UNBOUND:                 6.133
REMARK SMILES OC[C@@H]1O[C@@H](O[C@@]2(CO)O[C@H](CO)[C@@H](O)[C@@H]2O)[C@@H](O)[C@@H](O)[C@H]1O
REMARK SMILES IDX 6 1 5 2 3 3 22 4 4 5 20 6 18 7 2 8 1 9 23 11 21 13 19 15
REMARK SMILES IDX 7 17 16 18 10 19 14 20 11 21 8 22 9 23 17 25 15 27 12 29
REMARK SMILES IDX 13 30
REMARK H PARENT 1 10 23 12 21 14 19 16 9 24 17 26 15 28 13 31
REMARK Flexibility Score: inf
ROOT
ATOM      1  O   UNL     1       1.680   3.310 -39.968  1.00  0.00    -0.313 OA
ENDROOT
BRANCH   1   2
ATOM      2  C   UNL     1       2.949   2.660 -40.031  1.00  0.00     0.285 C 
ATOM      3  C   UNL     1       2.278   0.793 -38.752  1.00  0.00     0.178 C 
ATOM      4  C   UNL     1       3.249   1.121 -37.597  1.00  0.00     0.177 C 
ATOM      5  O   UNL     1       2.792   1.249 -39.995  1.00  0.00    -0.341 OA
ATOM      6  C   UNL     1       3.436   2.641 -37.523  1.00  0.00     0.179 C 
ATOM      7  C   UNL     1       3.879   3.170 -38.897  1.00  0.00     0.202 C 
BRANCH   3   8
ATOM      8  C   UNL     1       1.977  -0.719 -38.852  1.00  0.00     0.191 C 
BRANCH   8   9
ATOM      9  O   UNL     1       2.877  -1.546 -38.147  1.00  0.00    -0.394 OA
ATOM     10  H   UNL     1       3.179  -1.070 -37.328  1.00  0.00     0.210 HD
ENDBRANCH   8   9
ENDBRANCH   3   8
BRANCH   4  11
ATOM     11  O   UNL     1       2.730   0.654 -36.382  1.00  0.00    -0.387 OA
ATOM     12  H   UNL     1       1.745   0.591 -36.485  1.00  0.00     0.211 HD
ENDBRANCH   4  11
BRANCH   6  13
ATOM     13  O   UNL     1       2.220   3.251 -37.144  1.00  0.00    -0.387 OA
ATOM     14  H   UNL     1       2.156   4.122 -37.618  1.00  0.00     0.211 HD
ENDBRANCH   6  13
BRANCH   7  15
ATOM     15  O   UNL     1       3.898   4.573 -38.866  1.00  0.00    -0.385 OA
ATOM     16  H   UNL     1       4.331   4.869 -39.704  1.00  0.00     0.211 HD
ENDBRANCH   7  15
ENDBRANCH   1   2
BRANCH   1  17
ATOM     17  C   UNL     1       0.565   2.417 -39.944  1.00  0.00     0.224 C 
ATOM     18  C   UNL     1      -0.712   3.285 -39.920  1.00  0.00     0.208 C 
ATOM     19  O   UNL     1       0.578   1.625 -38.769  1.00  0.00    -0.337 OA
ATOM     20  C   UNL     1      -1.024   3.403 -38.447  1.00  0.00     0.180 C 
ATOM     21  C   UNL     1      -0.310   2.194 -37.828  1.00  0.00     0.179 C 
BRANCH  17  22
ATOM     22  C   UNL     1       0.608   1.498 -41.197  1.00  0.00     0.225 C 
BRANCH  22  23
ATOM     23  O   UNL     1       0.934   2.234 -42.347  1.00  0.00    -0.391 OA
ATOM     24  H   UNL     1       1.353   3.079 -42.040  1.00  0.00     0.210 HD
ENDBRANCH  22  23
ENDBRANCH  17  22
BRANCH  18  25
ATOM     25  O   UNL     1      -1.789   2.654 -40.573  1.00  0.00    -0.385 OA
ATOM     26  H   UNL     1      -2.201   2.022 -39.931  1.00  0.00     0.211 HD
ENDBRANCH  18  25
BRANCH  20  27
ATOM     27  O   UNL     1      -0.555   4.615 -37.904  1.00  0.00    -0.387 OA
ATOM     28  H   UNL     1      -1.339   5.180 -37.682  1.00  0.00     0.211 HD
ENDBRANCH  20  27
BRANCH  21  29
ATOM     29  C   UNL     1      -1.296   1.122 -37.334  1.00  0.00     0.191 C 
BRANCH  29  30
ATOM     30  O   UNL     1      -2.409   1.700 -36.699  1.00  0.00    -0.394 OA
ATOM     31  H   UNL     1      -2.107   1.979 -35.794  1.00  0.00     0.210 HD
ENDBRANCH  29  30
ENDBRANCH  21  29
ENDBRANCH   1  17
TORSDOF 13
ENDMDL
MODEL 3
REMARK VINA RESULT:    13.955      1.320      3.302
REMARK INTER + INTRA:          27.430
REMARK INTER:                  21.972
REMARK INTRA:                   5.458
REMARK UNBOUND:                 6.133
REMARK SMILES OC[C@@H]1O[C@@H](O[C@@]2(CO)O[C@H](CO)[C@@H](O)[C@@H]2O)[C@@H](O)[C@@H](O)[C@H]1O
REMARK SMILES IDX 6 1 5 2 3 3 22 4 4 5 20 6 18 7 2 8 1 9 23 11 21 13 19 15
REMARK SMILES IDX 7 17 16 18 10 19 14 20 11 21 8 22 9 23 17 25 15 27 12 29
REMARK SMILES IDX 13 30
REMARK H PARENT 1 10 23 12 21 14 19 16 9 24 17 26 15 28 13 31
REMARK Flexibility Score: inf
ROOT
ATOM      1  O   UNL     1       1.840   0.489 -40.062  1.00  0.00    -0.313 OA
ENDROOT
BRANCH   1   2
ATOM      2  C   UNL     1       1.039  -0.171 -39.082  1.00  0.00     0.285 C 
ATOM      3  C   UNL     1       1.178   1.579 -37.504  1.00  0.00     0.178 C 
ATOM      4  C   UNL     1       1.955   0.719 -36.484  1.00  0.00     0.177 C 
ATOM      5  O   UNL     1       0.322   0.774 -38.301  1.00  0.00    -0.341 OA
ATOM      6  C   UNL     1       2.809  -0.302 -37.244  1.00  0.00     0.179 C 
ATOM      7  C   UNL     1       1.916  -1.105 -38.203  1.00  0.00     0.202 C 
BRANCH   3   8
ATOM      8  C   UNL     1       0.342   2.684 -36.821  1.00  0.00     0.191 C 
BRANCH   8   9
ATOM      9  O   UNL     1      -0.831   3.048 -37.516  1.00  0.00    -0.394 OA
ATOM     10  H   UNL     1      -0.737   2.787 -38.470  1.00  0.00     0.210 HD
ENDBRANCH   8   9
ENDBRANCH   3   8
BRANCH   4  11
ATOM     11  O   UNL     1       2.785   1.532 -35.699  1.00  0.00    -0.387 OA
ATOM     12  H   UNL     1       3.724   1.280 -35.902  1.00  0.00     0.211 HD
ENDBRANCH   4  11
BRANCH   6  13
ATOM     13  O   UNL     1       3.814   0.370 -37.975  1.00  0.00    -0.387 OA
ATOM     14  H   UNL     1       4.667  -0.121 -37.841  1.00  0.00     0.211 HD
ENDBRANCH   6  13
BRANCH   7  15
ATOM     15  O   UNL     1       2.723  -1.927 -39.005  1.00  0.00    -0.385 OA
ATOM     16  H   UNL     1       3.496  -1.378 -39.285  1.00  0.00     0.211 HD
ENDBRANCH   7  15
ENDBRANCH   1   2
BRANCH   1  17
ATOM     17  C   UNL     1       1.505   1.864 -40.262  1.00  0.00     0.224 C 
ATOM     18  C   UNL     1       2.589   2.465 -41.182  1.00  0.00     0.208 C 
ATOM     19  O   UNL     1       1.530   2.572 -39.036  1.00  0.00    -0.337 OA
ATOM     20  C   UNL     1       3.584   3.052 -40.209  1.00  0.00     0.180 C 
ATOM     21  C   UNL     1       2.762   3.255 -38.930  1.00  0.00     0.179 C 
BRANCH  17  22
ATOM     22  C   UNL     1       0.092   1.967 -40.901  1.00  0.00     0.225 C 
BRANCH  22  23
ATOM     23  O   UNL     1      -0.772   2.718 -40.088  1.00  0.00    -0.391 OA
ATOM     24  H   UNL     1      -1.611   2.849 -40.602  1.00  0.00     0.210 HD
ENDBRANCH  22  23
ENDBRANCH  17  22
BRANCH  18  25
ATOM     25  O   UNL     1       2.076   3.494 -41.997  1.00  0.00    -0.385 OA
ATOM     26  H   UNL     1       1.228   3.168 -42.393  1.00  0.00     0.211 HD
ENDBRANCH  18  25
BRANCH  20  27
ATOM     27  O   UNL     1       4.678   2.191 -39.991  1.00  0.00    -0.387 OA
ATOM     28  H   UNL     1       5.396   2.708 -39.544  1.00  0.00     0.211 HD
ENDBRANCH  20  27
BRANCH  21  29
ATOM     29  C   UNL     1       2.506   4.741 -38.630  1.00  0.00     0.191 C 
BRANCH  29  30
ATOM     30  O   UNL     1       3.544   5.298 -37.862  1.00  0.00    -0.394 OA
ATOM     31  H   UNL     1       3.252   5.254 -36.913  1.00  0.00     0.210 HD
ENDBRANCH  29  30
ENDBRANCH  21  29
ENDBRANCH   1  17
TORSDOF 13
ENDMDL
MODEL 4
REMARK VINA RESULT:    14.080      1.222      4.884
REMARK INTER + INTRA:          27.621
REMARK INTER:                  23.234
REMARK INTRA:                   4.387
REMARK UNBOUND:                 6.133
REMARK SMILES OC[C@@H]1O[C@@H](O[C@@]2(CO)O[C@H](CO)[C@@H](O)[C@@H]2O)[C@@H](O)[C@@H](O)[C@H]1O
REMARK SMILES IDX 6 1 5 2 3 3 22 4 4 5 20 6 18 7 2 8 1 9 23 11 21 13 19 15
REMARK SMILES IDX 7 17 16 18 10 19 14 20 11 21 8 22 9 23 17 25 15 27 12 29
REMARK SMILES IDX 13 30
REMARK H PARENT 1 10 23 12 21 14 19 16 9 24 17 26 15 28 13 31
REMARK Flexibility Score: inf
ROOT
ATOM      1  O   UNL     1       2.225   1.791 -40.356  1.00  0.00    -0.313 OA
ENDROOT
BRANCH   1   2
ATOM      2  C   UNL     1       1.484   2.989 -40.586  1.00  0.00     0.285 C 
ATOM      3  C   UNL     1      -0.496   2.193 -39.578  1.00  0.00     0.178 C 
ATOM      4  C   UNL     1      -1.293   2.235 -40.900  1.00  0.00     0.177 C 
ATOM      5  O   UNL     1       0.518   3.186 -39.563  1.00  0.00    -0.341 OA
ATOM      6  C   UNL     1      -0.333   1.974 -42.067  1.00  0.00     0.179 C 
ATOM      7  C   UNL     1       0.839   2.967 -41.998  1.00  0.00     0.202 C 
BRANCH   3   8
ATOM      8  C   UNL     1      -1.404   2.377 -38.342  1.00  0.00     0.191 C 
BRANCH   8   9
ATOM      9  O   UNL     1      -0.898   3.265 -37.368  1.00  0.00    -0.394 OA
ATOM     10  H   UNL     1      -1.002   4.197 -37.695  1.00  0.00     0.210 HD
ENDBRANCH   8   9
ENDBRANCH   3   8
BRANCH   4  11
ATOM     11  O   UNL     1      -2.296   1.256 -40.892  1.00  0.00    -0.387 OA
ATOM     12  H   UNL     1      -2.566   1.100 -41.834  1.00  0.00     0.211 HD
ENDBRANCH   4  11
BRANCH   6  13
ATOM     13  O   UNL     1       0.155   0.650 -41.993  1.00  0.00    -0.387 OA
ATOM     14  H   UNL     1       0.175   0.282 -42.915  1.00  0.00     0.211 HD
ENDBRANCH   6  13
BRANCH   7  15
ATOM     15  O   UNL     1       1.790   2.625 -42.972  1.00  0.00    -0.385 OA
ATOM     16  H   UNL     1       2.001   1.668 -42.838  1.00  0.00     0.211 HD
ENDBRANCH   7  15
ENDBRANCH   1   2
BRANCH   1  17
ATOM     17  C   UNL     1       2.797   1.698 -39.049  1.00  0.00     0.224 C 
ATOM     18  C   UNL     1       1.967   2.614 -38.124  1.00  0.00     0.208 C 
ATOM     19  O   UNL     1       4.132   2.170 -39.048  1.00  0.00    -0.337 OA
ATOM     20  C   UNL     1       2.729   3.918 -38.152  1.00  0.00     0.180 C 
ATOM     21  C   UNL     1       4.144   3.501 -38.572  1.00  0.00     0.179 C 
BRANCH  17  22
ATOM     22  C   UNL     1       2.762   0.220 -38.570  1.00  0.00     0.225 C 
BRANCH  22  23
ATOM     23  O   UNL     1       1.477  -0.327 -38.724  1.00  0.00    -0.391 OA
ATOM     24  H   UNL     1       0.874   0.420 -38.974  1.00  0.00     0.210 HD
ENDBRANCH  22  23
ENDBRANCH  17  22
BRANCH  18  25
ATOM     25  O   UNL     1       1.925   2.130 -36.802  1.00  0.00    -0.385 OA
ATOM     26  H   UNL     1       2.118   2.891 -36.198  1.00  0.00     0.211 HD
ENDBRANCH  18  25
BRANCH  20  27
ATOM     27  O   UNL     1       2.168   4.837 -39.061  1.00  0.00    -0.387 OA
ATOM     28  H   UNL     1       2.682   4.789 -39.908  1.00  0.00     0.211 HD
ENDBRANCH  20  27
BRANCH  21  29
ATOM     29  C   UNL     1       5.157   3.630 -37.423  1.00  0.00     0.191 C 
BRANCH  29  30
ATOM     30  O   UNL     1       4.988   4.836 -36.721  1.00  0.00    -0.394 OA
ATOM     31  H   UNL     1       5.509   4.752 -35.879  1.00  0.00     0.210 HD
ENDBRANCH  29  30
ENDBRANCH  21  29
ENDBRANCH   1  17
TORSDOF 13
ENDMDL
MODEL 5
REMARK VINA RESULT:    14.162      1.480      4.770
REMARK INTER + INTRA:          27.746
REMARK INTER:                  23.500
REMARK INTRA:                   4.247
REMARK UNBOUND:                 6.133
REMARK SMILES OC[C@@H]1O[C@@H](O[C@@]2(CO)O[C@H](CO)[C@@H](O)[C@@H]2O)[C@@H](O)[C@@H](O)[C@H]1O
REMARK SMILES IDX 6 1 5 2 3 3 22 4 4 5 20 6 18 7 2 8 1 9 23 11 21 13 19 15
REMARK SMILES IDX 7 17 16 18 10 19 14 20 11 21 8 22 9 23 17 25 15 27 12 29
REMARK SMILES IDX 13 30
REMARK H PARENT 1 10 23 12 21 14 19 16 9 24 17 26 15 28 13 31
REMARK Flexibility Score: inf
ROOT
ATOM      1  O   UNL     1       1.004   2.473 -37.610  1.00  0.00    -0.313 OA
ENDROOT
BRANCH   1   2
ATOM      2  C   UNL     1      -0.019   1.659 -38.182  1.00  0.00     0.285 C 
ATOM      3  C   UNL     1      -0.091   2.838 -40.225  1.00  0.00     0.178 C 
ATOM      4  C   UNL     1      -1.536   3.332 -39.995  1.00  0.00     0.177 C 
ATOM      5  O   UNL     1       0.127   1.586 -39.593  1.00  0.00    -0.341 OA
ATOM      6  C   UNL     1      -1.769   3.496 -38.488  1.00  0.00     0.179 C 
ATOM      7  C   UNL     1      -1.422   2.181 -37.770  1.00  0.00     0.202 C 
BRANCH   3   8
ATOM      8  C   UNL     1       0.252   2.713 -41.727  1.00  0.00     0.191 C 
BRANCH   8   9
ATOM      9  O   UNL     1       0.899   1.512 -42.084  1.00  0.00    -0.394 OA
ATOM     10  H   UNL     1       1.466   1.675 -42.884  1.00  0.00     0.210 HD
ENDBRANCH   8   9
ENDBRANCH   3   8
BRANCH   4  11
ATOM     11  O   UNL     1      -1.735   4.562 -40.635  1.00  0.00    -0.387 OA
ATOM     12  H   UNL     1      -2.155   4.374 -41.514  1.00  0.00     0.211 HD
ENDBRANCH   4  11
BRANCH   6  13
ATOM     13  O   UNL     1      -0.958   4.540 -37.993  1.00  0.00    -0.387 OA
ATOM     14  H   UNL     1      -1.481   5.032 -37.306  1.00  0.00     0.211 HD
ENDBRANCH   6  13
BRANCH   7  15
ATOM     15  O   UNL     1      -1.489   2.383 -36.383  1.00  0.00    -0.385 OA
ATOM     16  H   UNL     1      -2.378   2.775 -36.196  1.00  0.00     0.211 HD
ENDBRANCH   7  15
ENDBRANCH   1   2
BRANCH   1  17
ATOM     17  C   UNL     1       2.328   2.125 -38.022  1.00  0.00     0.224 C 
ATOM     18  C   UNL     1       2.198   1.326 -39.337  1.00  0.00     0.208 C 
ATOM     19  O   UNL     1       2.951   1.289 -37.063  1.00  0.00    -0.337 OA
ATOM     20  C   UNL     1       2.175  -0.110 -38.871  1.00  0.00     0.180 C 
ATOM     21  C   UNL     1       2.845  -0.053 -37.492  1.00  0.00     0.179 C 
BRANCH  17  22
ATOM     22  C   UNL     1       3.168   3.417 -38.218  1.00  0.00     0.225 C 
BRANCH  22  23
ATOM     23  O   UNL     1       2.347   4.502 -38.565  1.00  0.00    -0.391 OA
ATOM     24  H   UNL     1       1.493   4.387 -38.072  1.00  0.00     0.210 HD
ENDBRANCH  22  23
ENDBRANCH  17  22
BRANCH  18  25
ATOM     25  O   UNL     1       3.308   1.522 -40.183  1.00  0.00    -0.385 OA
ATOM     26  H   UNL     1       3.906   0.738 -40.079  1.00  0.00     0.211 HD
ENDBRANCH  18  25
BRANCH  20  27
ATOM     27  O   UNL     1       0.863  -0.616 -38.789  1.00  0.00    -0.387 OA
ATOM     28  H   UNL     1       0.864  -1.383 -38.160  1.00  0.00     0.211 HD
ENDBRANCH  20  27
BRANCH  21  29
ATOM     29  C   UNL     1       4.237  -0.708 -37.490  1.00  0.00     0.191 C 
BRANCH  29  30
ATOM     30  O   UNL     1       4.242  -1.906 -38.225  1.00  0.00    -0.394 OA
ATOM     31  H   UNL     1       4.545  -1.676 -39.143  1.00  0.00     0.210 HD
ENDBRANCH  29  30
ENDBRANCH  21  29
ENDBRANCH   1  17
TORSDOF 13
ENDMDL
MODEL 6
REMARK VINA RESULT:    14.341      1.482      3.980
REMARK INTER + INTRA:          28.020
REMARK INTER:                  22.770
REMARK INTRA:                   5.250
REMARK UNBOUND:                 6.133
REMARK SMILES OC[C@@H]1O[C@@H](O[C@@]2(CO)O[C@H](CO)[C@@H](O)[C@@H]2O)[C@@H](O)[C@@H](O)[C@H]1O
REMARK SMILES IDX 6 1 5 2 3 3 22 4 4 5 20 6 18 7 2 8 1 9 23 11 21 13 19 15
REMARK SMILES IDX 7 17 16 18 10 19 14 20 11 21 8 22 9 23 17 25 15 27 12 29
REMARK SMILES IDX 13 30
REMARK H PARENT 1 10 23 12 21 14 19 16 9 24 17 26 15 28 13 31
REMARK Flexibility Score: inf
ROOT
ATOM      1  O   UNL     1       1.422   3.747 -37.805  1.00  0.00    -0.313 OA
ENDROOT
BRANCH   1   2
ATOM      2  C   UNL     1       2.013   4.477 -38.880  1.00  0.00     0.285 C 
ATOM      3  C   UNL     1       2.652   2.557 -40.095  1.00  0.00     0.178 C 
ATOM      4  C   UNL     1       4.160   2.853 -39.944  1.00  0.00     0.177 C 
ATOM      5  O   UNL     1       1.895   3.758 -40.100  1.00  0.00    -0.341 OA
ATOM      6  C   UNL     1       4.392   3.584 -38.616  1.00  0.00     0.179 C 
ATOM      7  C   UNL     1       3.489   4.827 -38.552  1.00  0.00     0.202 C 
BRANCH   3   8
ATOM      8  C   UNL     1       2.339   1.756 -41.378  1.00  0.00     0.191 C 
BRANCH   8   9
ATOM      9  O   UNL     1       1.073   2.021 -41.942  1.00  0.00    -0.394 OA
ATOM     10  H   UNL     1       1.174   2.700 -42.660  1.00  0.00     0.210 HD
ENDBRANCH   8   9
ENDBRANCH   3   8
BRANCH   4  11
ATOM     11  O   UNL     1       4.891   1.657 -39.953  1.00  0.00    -0.387 OA
ATOM     12  H   UNL     1       4.337   0.974 -40.413  1.00  0.00     0.211 HD
ENDBRANCH   4  11
BRANCH   6  13
ATOM     13  O   UNL     1       4.094   2.719 -37.540  1.00  0.00    -0.387 OA
ATOM     14  H   UNL     1       3.843   1.836 -37.920  1.00  0.00     0.211 HD
ENDBRANCH   6  13
BRANCH   7  15
ATOM     15  O   UNL     1       3.591   5.404 -37.276  1.00  0.00    -0.385 OA
ATOM     16  H   UNL     1       2.840   5.045 -36.743  1.00  0.00     0.211 HD
ENDBRANCH   7  15
ENDBRANCH   1   2
BRANCH   1  17
ATOM     17  C   UNL     1       0.607   2.649 -38.222  1.00  0.00     0.224 C 
ATOM     18  C   UNL     1       0.213   1.868 -36.950  1.00  0.00     0.208 C 
ATOM     19  O   UNL     1       1.334   1.773 -39.065  1.00  0.00    -0.337 OA
ATOM     20  C   UNL     1       1.272   0.795 -36.859  1.00  0.00     0.180 C 
ATOM     21  C   UNL     1       1.795   0.681 -38.297  1.00  0.00     0.179 C 
BRANCH  17  22
ATOM     22  C   UNL     1      -0.643   3.185 -38.974  1.00  0.00     0.225 C 
BRANCH  22  23
ATOM     23  O   UNL     1      -0.863   2.464 -40.159  1.00  0.00    -0.391 OA
ATOM     24  H   UNL     1      -1.609   2.913 -40.636  1.00  0.00     0.210 HD
ENDBRANCH  22  23
ENDBRANCH  17  22
BRANCH  18  25
ATOM     25  O   UNL     1      -1.052   1.261 -37.076  1.00  0.00    -0.385 OA
ATOM     26  H   UNL     1      -0.921   0.383 -37.515  1.00  0.00     0.211 HD
ENDBRANCH  18  25
BRANCH  20  27
ATOM     27  O   UNL     1       2.299   1.143 -35.960  1.00  0.00    -0.387 OA
ATOM     28  H   UNL     1       2.423   0.393 -35.325  1.00  0.00     0.211 HD
ENDBRANCH  20  27
BRANCH  21  29
ATOM     29  C   UNL     1       1.375  -0.638 -38.969  1.00  0.00     0.191 C 
BRANCH  29  30
ATOM     30  O   UNL     1       2.302  -1.663 -38.714  1.00  0.00    -0.394 OA
ATOM     31  H   UNL     1       2.189  -1.919 -37.760  1.00  0.00     0.210 HD
ENDBRANCH  29  30
ENDBRANCH  21  29
ENDBRANCH   1  17
TORSDOF 13
ENDMDL
MODEL 7
REMARK VINA RESULT:    14.441      1.342      4.600
REMARK INTER + INTRA:          28.172
REMARK INTER:                  25.469
REMARK INTRA:                   2.703
REMARK UNBOUND:                 6.133
REMARK SMILES OC[C@@H]1O[C@@H](O[C@@]2(CO)O[C@H](CO)[C@@H](O)[C@@H]2O)[C@@H](O)[C@@H](O)[C@H]1O
REMARK SMILES IDX 6 1 5 2 3 3 22 4 4 5 20 6 18 7 2 8 1 9 23 11 21 13 19 15
REMARK SMILES IDX 7 17 16 18 10 19 14 20 11 21 8 22 9 23 17 25 15 27 12 29
REMARK SMILES IDX 13 30
REMARK H PARENT 1 10 23 12 21 14 19 16 9 24 17 26 15 28 13 31
REMARK Flexibility Score: inf
ROOT
ATOM      1  O   UNL     1       1.210   1.987 -37.446  1.00  0.00    -0.313 OA
ENDROOT
BRANCH   1   2
ATOM      2  C   UNL     1       0.133   1.189 -37.937  1.00  0.00     0.285 C 
ATOM      3  C   UNL     1       0.212   2.075 -40.123  1.00  0.00     0.178 C 
ATOM      4  C   UNL     1      -1.190   2.713 -40.012  1.00  0.00     0.177 C 
ATOM      5  O   UNL     1       0.306   0.909 -39.319  1.00  0.00    -0.341 OA
ATOM      6  C   UNL     1      -1.443   3.103 -38.552  1.00  0.00     0.179 C 
ATOM      7  C   UNL     1      -1.228   1.877 -37.650  1.00  0.00     0.202 C 
BRANCH   3   8
ATOM      8  C   UNL     1       0.577   1.716 -41.581  1.00  0.00     0.191 C 
BRANCH   8   9
ATOM      9  O   UNL     1       1.028   2.803 -42.360  1.00  0.00    -0.394 OA
ATOM     10  H   UNL     1       0.361   3.538 -42.305  1.00  0.00     0.210 HD
ENDBRANCH   8   9
ENDBRANCH   3   8
BRANCH   4  11
ATOM     11  O   UNL     1      -1.267   3.855 -40.821  1.00  0.00    -0.387 OA
ATOM     12  H   UNL     1      -1.686   3.584 -41.679  1.00  0.00     0.211 HD
ENDBRANCH   4  11
BRANCH   6  13
ATOM     13  O   UNL     1      -0.556   4.136 -38.175  1.00  0.00    -0.387 OA
ATOM     14  H   UNL     1      -0.273   4.609 -39.001  1.00  0.00     0.211 HD
ENDBRANCH   6  13
BRANCH   7  15
ATOM     15  O   UNL     1      -1.309   2.274 -36.306  1.00  0.00    -0.385 OA
ATOM     16  H   UNL     1      -0.826   3.133 -36.235  1.00  0.00     0.211 HD
ENDBRANCH   7  15
ENDBRANCH   1   2
BRANCH   1  17
ATOM     17  C   UNL     1       2.496   1.601 -37.937  1.00  0.00     0.224 C 
ATOM     18  C   UNL     1       3.481   2.731 -37.566  1.00  0.00     0.208 C 
ATOM     19  O   UNL     1       2.482   1.480 -39.348  1.00  0.00    -0.337 OA
ATOM     20  C   UNL     1       3.489   3.604 -38.798  1.00  0.00     0.180 C 
ATOM     21  C   UNL     1       3.013   2.661 -39.912  1.00  0.00     0.179 C 
BRANCH  17  22
ATOM     22  C   UNL     1       2.911   0.247 -37.297  1.00  0.00     0.225 C 
BRANCH  22  23
ATOM     23  O   UNL     1       2.613  -0.825 -38.154  1.00  0.00    -0.391 OA
ATOM     24  H   UNL     1       2.623  -1.648 -37.600  1.00  0.00     0.210 HD
ENDBRANCH  22  23
ENDBRANCH  17  22
BRANCH  18  25
ATOM     25  O   UNL     1       4.782   2.241 -37.336  1.00  0.00    -0.385 OA
ATOM     26  H   UNL     1       4.926   2.221 -36.356  1.00  0.00     0.211 HD
ENDBRANCH  18  25
BRANCH  20  27
ATOM     27  O   UNL     1       2.635   4.716 -38.661  1.00  0.00    -0.387 OA
ATOM     28  H   UNL     1       1.740   4.389 -38.388  1.00  0.00     0.211 HD
ENDBRANCH  20  27
BRANCH  21  29
ATOM     29  C   UNL     1       4.140   2.304 -40.895  1.00  0.00     0.191 C 
BRANCH  29  30
ATOM     30  O   UNL     1       5.364   2.118 -40.230  1.00  0.00    -0.394 OA
ATOM     31  H   UNL     1       5.987   1.709 -40.888  1.00  0.00     0.210 HD
ENDBRANCH  29  30
ENDBRANCH  21  29
ENDBRANCH   1  17
TORSDOF 13
ENDMDL
MODEL 8
REMARK VINA RESULT:    14.464      1.192      4.981
REMARK INTER + INTRA:          28.207
REMARK INTER:                  25.258
REMARK INTRA:                   2.949
REMARK UNBOUND:                 6.133
REMARK SMILES OC[C@@H]1O[C@@H](O[C@@]2(CO)O[C@H](CO)[C@@H](O)[C@@H]2O)[C@@H](O)[C@@H](O)[C@H]1O
REMARK SMILES IDX 6 1 5 2 3 3 22 4 4 5 20 6 18 7 2 8 1 9 23 11 21 13 19 15
REMARK SMILES IDX 7 17 16 18 10 19 14 20 11 21 8 22 9 23 17 25 15 27 12 29
REMARK SMILES IDX 13 30
REMARK H PARENT 1 10 23 12 21 14 19 16 9 24 17 26 15 28 13 31
REMARK Flexibility Score: inf
ROOT
ATOM      1  O   UNL     1       2.653   2.072 -40.157  1.00  0.00    -0.313 OA
ENDROOT
BRANCH   1   2
ATOM      2  C   UNL     1       1.961   3.254 -40.558  1.00  0.00     0.285 C 
ATOM      3  C   UNL     1       0.020   2.783 -39.299  1.00  0.00     0.178 C 
ATOM      4  C   UNL     1      -0.867   2.637 -40.554  1.00  0.00     0.177 C 
ATOM      5  O   UNL     1       1.084   3.695 -39.531  1.00  0.00    -0.341 OA
ATOM      6  C   UNL     1      -0.010   2.108 -41.710  1.00  0.00     0.179 C 
ATOM      7  C   UNL     1       1.214   3.019 -41.898  1.00  0.00     0.202 C 
BRANCH   3   8
ATOM      8  C   UNL     1      -0.784   3.246 -38.064  1.00  0.00     0.191 C 
BRANCH   8   9
ATOM      9  O   UNL     1      -1.574   2.241 -37.466  1.00  0.00    -0.394 OA
ATOM     10  H   UNL     1      -1.234   1.351 -37.749  1.00  0.00     0.210 HD
ENDBRANCH   8   9
ENDBRANCH   3   8
BRANCH   4  11
ATOM     11  O   UNL     1      -1.917   1.742 -40.303  1.00  0.00    -0.387 OA
ATOM     12  H   UNL     1      -2.021   1.173 -41.109  1.00  0.00     0.211 HD
ENDBRANCH   4  11
BRANCH   6  13
ATOM     13  O   UNL     1       0.412   0.791 -41.423  1.00  0.00    -0.387 OA
ATOM     14  H   UNL     1      -0.372   0.190 -41.528  1.00  0.00     0.211 HD
ENDBRANCH   6  13
BRANCH   7  15
ATOM     15  O   UNL     1       2.072   2.446 -42.850  1.00  0.00    -0.385 OA
ATOM     16  H   UNL     1       2.986   2.751 -42.627  1.00  0.00     0.211 HD
ENDBRANCH   7  15
ENDBRANCH   1   2
BRANCH   1  17
ATOM     17  C   UNL     1       3.076   2.076 -38.791  1.00  0.00     0.224 C 
ATOM     18  C   UNL     1       3.506   0.634 -38.446  1.00  0.00     0.208 C 
ATOM     19  O   UNL     1       2.006   2.431 -37.933  1.00  0.00    -0.337 OA
ATOM     20  C   UNL     1       2.254   0.031 -37.853  1.00  0.00     0.180 C 
ATOM     21  C   UNL     1       1.450   1.253 -37.388  1.00  0.00     0.179 C 
BRANCH  17  22
ATOM     22  C   UNL     1       4.249   3.080 -38.613  1.00  0.00     0.225 C 
BRANCH  22  23
ATOM     23  O   UNL     1       3.772   4.345 -38.231  1.00  0.00    -0.391 OA
ATOM     24  H   UNL     1       3.107   4.621 -38.913  1.00  0.00     0.210 HD
ENDBRANCH  22  23
ENDBRANCH  17  22
BRANCH  18  25
ATOM     25  O   UNL     1       4.534   0.608 -37.483  1.00  0.00    -0.385 OA
ATOM     26  H   UNL     1       5.392   0.756 -37.956  1.00  0.00     0.211 HD
ENDBRANCH  18  25
BRANCH  20  27
ATOM     27  O   UNL     1       1.539  -0.732 -38.796  1.00  0.00    -0.387 OA
ATOM     28  H   UNL     1       2.022  -0.690 -39.661  1.00  0.00     0.211 HD
ENDBRANCH  20  27
BRANCH  21  29
ATOM     29  C   UNL     1       1.394   1.368 -35.855  1.00  0.00     0.191 C 
BRANCH  29  30
ATOM     30  O   UNL     1       2.649   1.114 -35.275  1.00  0.00    -0.394 OA
ATOM     31  H   UNL     1       2.497   0.456 -34.546  1.00  0.00     0.210 HD
ENDBRANCH  29  30
ENDBRANCH  21  29
ENDBRANCH   1  17
TORSDOF 13
ENDMDL
