MODEL 1
REMARK VINA RESULT:    -4.299      0.000      0.000
REMARK INTER + INTRA:          -9.615
REMARK INTER:                  -8.069
REMARK INTRA:                  -1.546
REMARK UNBOUND:                -1.546
REMARK SMILES CCCCCCCCC=CCCCCCCCC(=O)[O-]
REMARK SMILES IDX 10 1 9 2 11 3 12 4 13 5 14 6 15 7 16 8 17 9 18 10 19 11
REMARK SMILES IDX 20 12 8 13 7 14 6 15 5 16 4 17 3 18 2 19 1 20
REMARK H PARENT
REMARK Flexibility Score: inf
ROOT
ATOM      1  C   UNL     1      -2.351  14.096 -18.035  1.00  0.00    -0.031 C 
ATOM      2  C   UNL     1      -2.230  13.711 -16.757  1.00  0.00    -0.031 C 
ENDROOT
BRANCH   1   3
ATOM      3  C   UNL     1      -1.136  14.456 -18.846  1.00  0.00     0.027 C 
BRANCH   3   4
ATOM      4  C   UNL     1      -0.382  15.666 -18.269  1.00  0.00     0.004 C 
BRANCH   4   5
ATOM      5  C   UNL     1       1.096  15.743 -18.695  1.00  0.00     0.000 C 
BRANCH   5   6
ATOM      6  C   UNL     1       1.587  17.189 -18.879  1.00  0.00     0.000 C 
BRANCH   6   7
ATOM      7  C   UNL     1       0.907  17.902 -20.061  1.00  0.00     0.000 C 
BRANCH   7   8
ATOM      8  C   UNL     1       0.493  19.355 -19.748  1.00  0.00     0.006 C 
BRANCH   8   9
ATOM      9  C   UNL     1       0.648  19.696 -18.260  1.00  0.00     0.053 C 
BRANCH   9  10
ATOM     10  C   UNL     1      -0.685  19.692 -17.580  1.00  0.00     0.041 C 
ATOM     11  O   UNL     1      -1.725  19.406 -18.227  1.00  0.00    -0.550 OA
ATOM     12  O   UNL     1      -0.771  19.955 -16.219  1.00  0.00    -0.550 OA
ENDBRANCH   9  10
ENDBRANCH   8   9
ENDBRANCH   7   8
ENDBRANCH   6   7
ENDBRANCH   5   6
ENDBRANCH   4   5
ENDBRANCH   3   4
ENDBRANCH   1   3
BRANCH   2  13
ATOM     13  C   UNL     1      -3.426  13.351 -15.919  1.00  0.00     0.027 C 
BRANCH  13  14
ATOM     14  C   UNL     1      -3.154  12.186 -14.951  1.00  0.00     0.004 C 
BRANCH  14  15
ATOM     15  C   UNL     1      -3.594  10.811 -15.488  1.00  0.00     0.000 C 
BRANCH  15  16
ATOM     16  C   UNL     1      -4.106  10.866 -16.939  1.00  0.00     0.000 C 
BRANCH  16  17
ATOM     17  C   UNL     1      -3.115  10.250 -17.938  1.00  0.00    -0.000 C 
BRANCH  17  18
ATOM     18  C   UNL     1      -3.292  10.807 -19.361  1.00  0.00    -0.000 C 
BRANCH  18  19
ATOM     19  C   UNL     1      -4.602  11.592 -19.527  1.00  0.00    -0.003 C 
ATOM     20  C   UNL     1      -5.517  10.994 -20.596  1.00  0.00     0.004 C 
ENDBRANCH  18  19
ENDBRANCH  17  18
ENDBRANCH  16  17
ENDBRANCH  15  16
ENDBRANCH  14  15
ENDBRANCH  13  14
ENDBRANCH   2  13
TORSDOF 15
ENDMDL
MODEL 2
REMARK VINA RESULT:    -4.133      3.414      8.065
REMARK INTER + INTRA:          -9.303
REMARK INTER:                  -7.954
REMARK INTRA:                  -1.349
REMARK UNBOUND:                -1.546
REMARK SMILES CCCCCCCCC=CCCCCCCCC(=O)[O-]
REMARK SMILES IDX 10 1 9 2 11 3 12 4 13 5 14 6 15 7 16 8 17 9 18 10 19 11
REMARK SMILES IDX 20 12 8 13 7 14 6 15 5 16 4 17 3 18 2 19 1 20
REMARK H PARENT
REMARK Flexibility Score: inf
ROOT
ATOM      1  C   UNL     1      -2.314  13.840 -16.569  1.00  0.00    -0.031 C 
ATOM      2  C   UNL     1      -2.430  13.844 -17.904  1.00  0.00    -0.031 C 
ENDROOT
BRANCH   1   3
ATOM      3  C   UNL     1      -3.434  13.327 -15.704  1.00  0.00     0.027 C 
BRANCH   3   4
ATOM      4  C   UNL     1      -2.991  12.166 -14.798  1.00  0.00     0.004 C 
BRANCH   4   5
ATOM      5  C   UNL     1      -3.466  10.781 -15.278  1.00  0.00     0.000 C 
BRANCH   5   6
ATOM      6  C   UNL     1      -3.967  10.795 -16.731  1.00  0.00     0.000 C 
BRANCH   6   7
ATOM      7  C   UNL     1      -2.894  10.338 -17.735  1.00  0.00     0.000 C 
BRANCH   7   8
ATOM      8  C   UNL     1      -3.371  10.367 -19.202  1.00  0.00     0.006 C 
BRANCH   8   9
ATOM      9  C   UNL     1      -4.504  11.378 -19.425  1.00  0.00     0.053 C 
BRANCH   9  10
ATOM     10  C   UNL     1      -5.343  10.973 -20.596  1.00  0.00     0.041 C 
ATOM     11  O   UNL     1      -6.590  11.145 -20.571  1.00  0.00    -0.550 OA
ATOM     12  O   UNL     1      -4.743  10.452 -21.735  1.00  0.00    -0.550 OA
ENDBRANCH   9  10
ENDBRANCH   8   9
ENDBRANCH   7   8
ENDBRANCH   6   7
ENDBRANCH   5   6
ENDBRANCH   4   5
ENDBRANCH   3   4
ENDBRANCH   1   3
BRANCH   2  13
ATOM     13  C   UNL     1      -1.330  14.356 -18.794  1.00  0.00     0.027 C 
BRANCH  13  14
ATOM     14  C   UNL     1      -0.395  15.351 -18.084  1.00  0.00     0.004 C 
BRANCH  14  15
ATOM     15  C   UNL     1       0.819  15.781 -18.929  1.00  0.00     0.000 C 
BRANCH  15  16
ATOM     16  C   UNL     1       1.166  17.272 -18.771  1.00  0.00     0.000 C 
BRANCH  16  17
ATOM     17  C   UNL     1       0.576  18.137 -19.897  1.00  0.00    -0.000 C 
BRANCH  17  18
ATOM     18  C   UNL     1      -0.268  19.305 -19.360  1.00  0.00    -0.000 C 
BRANCH  18  19
ATOM     19  C   UNL     1      -0.964  18.967 -18.032  1.00  0.00    -0.003 C 
ATOM     20  C   UNL     1      -1.885  20.086 -17.546  1.00  0.00     0.004 C 
ENDBRANCH  18  19
ENDBRANCH  17  18
ENDBRANCH  16  17
ENDBRANCH  15  16
ENDBRANCH  14  15
ENDBRANCH  13  14
ENDBRANCH   2  13
TORSDOF 15
ENDMDL
MODEL 3
REMARK VINA RESULT:    -3.949      1.219      2.883
REMARK INTER + INTRA:          -8.958
REMARK INTER:                  -7.767
REMARK INTRA:                  -1.191
REMARK UNBOUND:                -1.546
REMARK SMILES CCCCCCCCC=CCCCCCCCC(=O)[O-]
REMARK SMILES IDX 10 1 9 2 11 3 12 4 13 5 14 6 15 7 16 8 17 9 18 10 19 11
REMARK SMILES IDX 20 12 8 13 7 14 6 15 5 16 4 17 3 18 2 19 1 20
REMARK H PARENT
REMARK Flexibility Score: inf
ROOT
ATOM      1  C   UNL     1      -1.536  14.567 -18.975  1.00  0.00    -0.031 C 
ATOM      2  C   UNL     1      -2.020  13.434 -18.449  1.00  0.00    -0.031 C 
ENDROOT
BRANCH   1   3
ATOM      3  C   UNL     1      -0.634  15.463 -18.170  1.00  0.00     0.027 C 
BRANCH   3   4
ATOM      4  C   UNL     1       0.798  15.510 -18.729  1.00  0.00     0.004 C 
BRANCH   4   5
ATOM      5  C   UNL     1       1.409  16.923 -18.768  1.00  0.00     0.000 C 
BRANCH   5   6
ATOM      6  C   UNL     1       1.627  17.436 -20.201  1.00  0.00     0.000 C 
BRANCH   6   7
ATOM      7  C   UNL     1       0.994  18.818 -20.440  1.00  0.00     0.000 C 
BRANCH   7   8
ATOM      8  C   UNL     1       0.636  19.566 -19.139  1.00  0.00     0.006 C 
BRANCH   8   9
ATOM      9  C   UNL     1      -0.880  19.691 -18.938  1.00  0.00     0.053 C 
BRANCH   9  10
ATOM     10  C   UNL     1      -1.196  19.974 -17.503  1.00  0.00     0.041 C 
ATOM     11  O   UNL     1      -2.393  20.032 -17.118  1.00  0.00    -0.550 OA
ATOM     12  O   UNL     1      -0.168  20.124 -16.581  1.00  0.00    -0.550 OA
ENDBRANCH   9  10
ENDBRANCH   8   9
ENDBRANCH   7   8
ENDBRANCH   6   7
ENDBRANCH   5   6
ENDBRANCH   4   5
ENDBRANCH   3   4
ENDBRANCH   1   3
BRANCH   2  13
ATOM     13  C   UNL     1      -2.929  12.522 -19.227  1.00  0.00     0.027 C 
BRANCH  13  14
ATOM     14  C   UNL     1      -2.866  11.059 -18.750  1.00  0.00     0.004 C 
BRANCH  14  15
ATOM     15  C   UNL     1      -3.598  10.805 -17.418  1.00  0.00     0.000 C 
BRANCH  15  16
ATOM     16  C   UNL     1      -4.678  11.857 -17.113  1.00  0.00     0.000 C 
BRANCH  16  17
ATOM     17  C   UNL     1      -4.632  12.344 -15.656  1.00  0.00    -0.000 C 
BRANCH  17  18
ATOM     18  C   UNL     1      -3.881  11.367 -14.734  1.00  0.00    -0.000 C 
BRANCH  18  19
ATOM     19  C   UNL     1      -2.506  11.901 -14.307  1.00  0.00    -0.003 C 
ATOM     20  C   UNL     1      -2.220  13.301 -14.852  1.00  0.00     0.004 C 
ENDBRANCH  18  19
ENDBRANCH  17  18
ENDBRANCH  16  17
ENDBRANCH  15  16
ENDBRANCH  14  15
ENDBRANCH  13  14
ENDBRANCH   2  13
TORSDOF 15
ENDMDL
MODEL 4
REMARK VINA RESULT:    -3.946      3.683      8.200
REMARK INTER + INTRA:          -8.952
REMARK INTER:                  -7.530
REMARK INTRA:                  -1.422
REMARK UNBOUND:                -1.546
REMARK SMILES CCCCCCCCC=CCCCCCCCC(=O)[O-]
REMARK SMILES IDX 10 1 9 2 11 3 12 4 13 5 14 6 15 7 16 8 17 9 18 10 19 11
REMARK SMILES IDX 20 12 8 13 7 14 6 15 5 16 4 17 3 18 2 19 1 20
REMARK H PARENT
REMARK Flexibility Score: inf
ROOT
ATOM      1  C   UNL     1      -1.650  13.739 -19.152  1.00  0.00    -0.031 C 
ATOM      2  C   UNL     1      -1.620  14.741 -18.263  1.00  0.00    -0.031 C 
ENDROOT
BRANCH   1   3
ATOM      3  C   UNL     1      -2.861  12.853 -19.268  1.00  0.00     0.027 C 
BRANCH   3   4
ATOM      4  C   UNL     1      -2.611  11.440 -18.716  1.00  0.00     0.004 C 
BRANCH   4   5
ATOM      5  C   UNL     1      -3.598  11.015 -17.613  1.00  0.00     0.000 C 
BRANCH   5   6
ATOM      6  C   UNL     1      -4.378  12.201 -17.023  1.00  0.00     0.000 C 
BRANCH   6   7
ATOM      7  C   UNL     1      -3.579  12.965 -15.954  1.00  0.00     0.000 C 
BRANCH   7   8
ATOM      8  C   UNL     1      -3.818  12.449 -14.519  1.00  0.00     0.006 C 
BRANCH   8   9
ATOM      9  C   UNL     1      -2.869  11.301 -14.150  1.00  0.00     0.053 C 
BRANCH   9  10
ATOM     10  C   UNL     1      -3.644  10.054 -13.858  1.00  0.00     0.041 C 
ATOM     11  O   UNL     1      -3.261   9.267 -12.954  1.00  0.00    -0.550 OA
ATOM     12  O   UNL     1      -4.819   9.789 -14.550  1.00  0.00    -0.550 OA
ENDBRANCH   9  10
ENDBRANCH   8   9
ENDBRANCH   7   8
ENDBRANCH   6   7
ENDBRANCH   5   6
ENDBRANCH   4   5
ENDBRANCH   3   4
ENDBRANCH   1   3
BRANCH   2  13
ATOM     13  C   UNL     1      -0.421  15.639 -18.120  1.00  0.00     0.027 C 
BRANCH  13  14
ATOM     14  C   UNL     1       0.730  15.262 -19.070  1.00  0.00     0.004 C 
BRANCH  14  15
ATOM     15  C   UNL     1       1.809  16.352 -19.207  1.00  0.00     0.000 C 
BRANCH  15  16
ATOM     16  C   UNL     1       1.793  17.047 -20.581  1.00  0.00     0.000 C 
BRANCH  16  17
ATOM     17  C   UNL     1       1.642  18.572 -20.467  1.00  0.00    -0.000 C 
BRANCH  17  18
ATOM     18  C   UNL     1       0.969  19.000 -19.151  1.00  0.00    -0.000 C 
BRANCH  18  19
ATOM     19  C   UNL     1      -0.530  19.286 -19.323  1.00  0.00    -0.003 C 
ATOM     20  C   UNL     1      -1.271  19.374 -17.988  1.00  0.00     0.004 C 
ENDBRANCH  18  19
ENDBRANCH  17  18
ENDBRANCH  16  17
ENDBRANCH  15  16
ENDBRANCH  14  15
ENDBRANCH  13  14
ENDBRANCH   2  13
TORSDOF 15
ENDMDL
MODEL 5
REMARK VINA RESULT:    -3.931      2.881      8.095
REMARK INTER + INTRA:          -8.924
REMARK INTER:                  -7.780
REMARK INTRA:                  -1.144
REMARK UNBOUND:                -1.546
REMARK SMILES CCCCCCCCC=CCCCCCCCC(=O)[O-]
REMARK SMILES IDX 10 1 9 2 11 3 12 4 13 5 14 6 15 7 16 8 17 9 18 10 19 11
REMARK SMILES IDX 20 12 8 13 7 14 6 15 5 16 4 17 3 18 2 19 1 20
REMARK H PARENT
REMARK Flexibility Score: inf
ROOT
ATOM      1  C   UNL     1      -1.644  14.513 -16.941  1.00  0.00    -0.031 C 
ATOM      2  C   UNL     1      -1.255  14.886 -18.169  1.00  0.00    -0.031 C 
ENDROOT
BRANCH   1   3
ATOM      3  C   UNL     1      -2.816  13.588 -16.756  1.00  0.00     0.027 C 
BRANCH   3   4
ATOM      4  C   UNL     1      -2.912  13.041 -15.322  1.00  0.00     0.004 C 
BRANCH   4   5
ATOM      5  C   UNL     1      -3.297  11.552 -15.244  1.00  0.00     0.000 C 
BRANCH   5   6
ATOM      6  C   UNL     1      -3.919  11.030 -16.549  1.00  0.00     0.000 C 
BRANCH   6   7
ATOM      7  C   UNL     1      -2.910  10.272 -17.428  1.00  0.00     0.000 C 
BRANCH   7   8
ATOM      8  C   UNL     1      -2.777  10.851 -18.853  1.00  0.00     0.006 C 
BRANCH   8   9
ATOM      9  C   UNL     1      -3.845  10.299 -19.806  1.00  0.00     0.053 C 
BRANCH   9  10
ATOM     10  C   UNL     1      -4.919  11.315 -20.033  1.00  0.00     0.041 C 
ATOM     11  O   UNL     1      -4.826  12.461 -19.521  1.00  0.00    -0.550 OA
ATOM     12  O   UNL     1      -6.000  11.013 -20.851  1.00  0.00    -0.550 OA
ENDBRANCH   9  10
ENDBRANCH   8   9
ENDBRANCH   7   8
ENDBRANCH   6   7
ENDBRANCH   5   6
ENDBRANCH   4   5
ENDBRANCH   3   4
ENDBRANCH   1   3
BRANCH   2  13
ATOM     13  C   UNL     1      -0.091  15.814 -18.385  1.00  0.00     0.027 C 
BRANCH  13  14
ATOM     14  C   UNL     1       1.088  15.142 -19.112  1.00  0.00     0.004 C 
BRANCH  14  15
ATOM     15  C   UNL     1       2.031  16.132 -19.821  1.00  0.00     0.000 C 
BRANCH  15  16
ATOM     16  C   UNL     1       1.827  17.589 -19.367  1.00  0.00     0.000 C 
BRANCH  16  17
ATOM     17  C   UNL     1       1.295  18.487 -20.495  1.00  0.00    -0.000 C 
BRANCH  17  18
ATOM     18  C   UNL     1       0.331  19.570 -19.979  1.00  0.00    -0.000 C 
BRANCH  18  19
ATOM     19  C   UNL     1       0.080  19.461 -18.467  1.00  0.00    -0.003 C 
ATOM     20  C   UNL     1      -1.407  19.397 -18.119  1.00  0.00     0.004 C 
ENDBRANCH  18  19
ENDBRANCH  17  18
ENDBRANCH  16  17
ENDBRANCH  15  16
ENDBRANCH  14  15
ENDBRANCH  13  14
ENDBRANCH   2  13
TORSDOF 15
ENDMDL
MODEL 6
REMARK VINA RESULT:    -3.833      2.632      7.954
REMARK INTER + INTRA:          -8.741
REMARK INTER:                  -7.677
REMARK INTRA:                  -1.064
REMARK UNBOUND:                -1.546
REMARK SMILES CCCCCCCCC=CCCCCCCCC(=O)[O-]
REMARK SMILES IDX 10 1 9 2 11 3 12 4 13 5 14 6 15 7 16 8 17 9 18 10 19 11
REMARK SMILES IDX 20 12 8 13 7 14 6 15 5 16 4 17 3 18 2 19 1 20
REMARK H PARENT
REMARK Flexibility Score: inf
ROOT
ATOM      1  C   UNL     1      -1.585  14.410 -18.887  1.00  0.00    -0.031 C 
ATOM      2  C   UNL     1      -0.901  15.182 -18.031  1.00  0.00    -0.031 C 
ENDROOT
BRANCH   1   3
ATOM      3  C   UNL     1      -2.383  13.236 -18.391  1.00  0.00     0.027 C 
BRANCH   3   4
ATOM      4  C   UNL     1      -3.247  12.603 -19.496  1.00  0.00     0.004 C 
BRANCH   4   5
ATOM      5  C   UNL     1      -4.154  11.460 -19.004  1.00  0.00     0.000 C 
BRANCH   5   6
ATOM      6  C   UNL     1      -3.363  10.306 -18.366  1.00  0.00     0.000 C 
BRANCH   6   7
ATOM      7  C   UNL     1      -3.086  10.531 -16.870  1.00  0.00     0.000 C 
BRANCH   7   8
ATOM      8  C   UNL     1      -4.348  10.887 -16.056  1.00  0.00     0.006 C 
BRANCH   8   9
ATOM      9  C   UNL     1      -4.257  12.282 -15.424  1.00  0.00     0.053 C 
BRANCH   9  10
ATOM     10  C   UNL     1      -2.940  12.460 -14.735  1.00  0.00     0.041 C 
ATOM     11  O   UNL     1      -2.549  11.615 -13.888  1.00  0.00    -0.550 OA
ATOM     12  O   UNL     1      -2.123  13.533 -15.065  1.00  0.00    -0.550 OA
ENDBRANCH   9  10
ENDBRANCH   8   9
ENDBRANCH   7   8
ENDBRANCH   6   7
ENDBRANCH   5   6
ENDBRANCH   4   5
ENDBRANCH   3   4
ENDBRANCH   1   3
BRANCH   2  13
ATOM     13  C   UNL     1      -0.089  16.359 -18.498  1.00  0.00     0.027 C 
BRANCH  13  14
ATOM     14  C   UNL     1       1.361  15.986 -18.856  1.00  0.00     0.004 C 
BRANCH  14  15
ATOM     15  C   UNL     1       1.937  16.784 -20.041  1.00  0.00     0.000 C 
BRANCH  15  16
ATOM     16  C   UNL     1       1.122  18.047 -20.371  1.00  0.00     0.000 C 
BRANCH  16  17
ATOM     17  C   UNL     1       1.746  19.322 -19.780  1.00  0.00    -0.000 C 
BRANCH  17  18
ATOM     18  C   UNL     1       0.895  19.923 -18.648  1.00  0.00    -0.000 C 
BRANCH  18  19
ATOM     19  C   UNL     1      -0.601  19.959 -18.992  1.00  0.00    -0.003 C 
ATOM     20  C   UNL     1      -1.494  19.709 -17.776  1.00  0.00     0.004 C 
ENDBRANCH  18  19
ENDBRANCH  17  18
ENDBRANCH  16  17
ENDBRANCH  15  16
ENDBRANCH  14  15
ENDBRANCH  13  14
ENDBRANCH   2  13
TORSDOF 15
ENDMDL
MODEL 7
REMARK VINA RESULT:    -3.678      0.837      1.781
REMARK INTER + INTRA:          -8.449
REMARK INTER:                  -7.399
REMARK INTRA:                  -1.051
REMARK UNBOUND:                -1.546
REMARK SMILES CCCCCCCCC=CCCCCCCCC(=O)[O-]
REMARK SMILES IDX 10 1 9 2 11 3 12 4 13 5 14 6 15 7 16 8 17 9 18 10 19 11
REMARK SMILES IDX 20 12 8 13 7 14 6 15 5 16 4 17 3 18 2 19 1 20
REMARK H PARENT
REMARK Flexibility Score: inf
ROOT
ATOM      1  C   UNL     1      -0.197  15.469 -18.392  1.00  0.00    -0.031 C 
ATOM      2  C   UNL     1      -0.961  14.367 -18.364  1.00  0.00    -0.031 C 
ENDROOT
BRANCH   1   3
ATOM      3  C   UNL     1       1.218  15.408 -18.899  1.00  0.00     0.027 C 
BRANCH   3   4
ATOM      4  C   UNL     1       1.844  16.803 -19.059  1.00  0.00     0.004 C 
BRANCH   4   5
ATOM      5  C   UNL     1       1.448  17.522 -20.362  1.00  0.00     0.000 C 
BRANCH   5   6
ATOM      6  C   UNL     1       1.796  19.020 -20.344  1.00  0.00     0.000 C 
BRANCH   6   7
ATOM      7  C   UNL     1       0.563  19.919 -20.537  1.00  0.00     0.000 C 
BRANCH   7   8
ATOM      8  C   UNL     1      -0.508  19.742 -19.440  1.00  0.00     0.006 C 
BRANCH   8   9
ATOM      9  C   UNL     1       0.018  20.124 -18.049  1.00  0.00     0.053 C 
BRANCH   9  10
ATOM     10  C   UNL     1      -1.090  20.091 -17.044  1.00  0.00     0.041 C 
ATOM     11  O   UNL     1      -2.286  19.987 -17.422  1.00  0.00    -0.550 OA
ATOM     12  O   UNL     1      -0.797  20.124 -15.686  1.00  0.00    -0.550 OA
ENDBRANCH   9  10
ENDBRANCH   8   9
ENDBRANCH   7   8
ENDBRANCH   6   7
ENDBRANCH   5   6
ENDBRANCH   4   5
ENDBRANCH   3   4
ENDBRANCH   1   3
BRANCH   2  13
ATOM     13  C   UNL     1      -2.377  14.395 -17.857  1.00  0.00     0.027 C 
BRANCH  13  14
ATOM     14  C   UNL     1      -2.554  13.645 -16.524  1.00  0.00     0.004 C 
BRANCH  14  15
ATOM     15  C   UNL     1      -3.659  12.572 -16.553  1.00  0.00     0.000 C 
BRANCH  15  16
ATOM     16  C   UNL     1      -3.104  11.136 -16.579  1.00  0.00     0.000 C 
BRANCH  16  17
ATOM     17  C   UNL     1      -3.290  10.457 -17.946  1.00  0.00    -0.000 C 
BRANCH  17  18
ATOM     18  C   UNL     1      -3.831  11.424 -19.013  1.00  0.00    -0.000 C 
BRANCH  18  19
ATOM     19  C   UNL     1      -4.391  10.691 -20.242  1.00  0.00    -0.003 C 
ATOM     20  C   UNL     1      -5.822  11.113 -20.578  1.00  0.00     0.004 C 
ENDBRANCH  18  19
ENDBRANCH  17  18
ENDBRANCH  16  17
ENDBRANCH  15  16
ENDBRANCH  14  15
ENDBRANCH  13  14
ENDBRANCH   2  13
TORSDOF 15
ENDMDL
MODEL 8
REMARK VINA RESULT:    -3.005      2.721      7.540
REMARK INTER + INTRA:          -7.186
REMARK INTER:                  -6.501
REMARK INTRA:                  -0.686
REMARK UNBOUND:                -1.546
REMARK SMILES CCCCCCCCC=CCCCCCCCC(=O)[O-]
REMARK SMILES IDX 10 1 9 2 11 3 12 4 13 5 14 6 15 7 16 8 17 9 18 10 19 11
REMARK SMILES IDX 20 12 8 13 7 14 6 15 5 16 4 17 3 18 2 19 1 20
REMARK H PARENT
REMARK Flexibility Score: inf
ROOT
ATOM      1  C   UNL     1      -2.657  11.906 -18.491  1.00  0.00    -0.031 C 
ATOM      2  C   UNL     1      -2.319  13.090 -19.021  1.00  0.00    -0.031 C 
ENDROOT
BRANCH   1   3
ATOM      3  C   UNL     1      -3.062  10.758 -19.375  1.00  0.00     0.027 C 
BRANCH   3   4
ATOM      4  C   UNL     1      -4.498  10.906 -19.908  1.00  0.00     0.004 C 
BRANCH   4   5
ATOM      5  C   UNL     1      -5.216  12.181 -19.427  1.00  0.00     0.000 C 
BRANCH   5   6
ATOM      6  C   UNL     1      -6.172  11.917 -18.252  1.00  0.00     0.000 C 
BRANCH   6   7
ATOM      7  C   UNL     1      -5.744  12.638 -16.962  1.00  0.00     0.000 C 
BRANCH   7   8
ATOM      8  C   UNL     1      -4.744  11.830 -16.108  1.00  0.00     0.006 C 
BRANCH   8   9
ATOM      9  C   UNL     1      -4.381  12.551 -14.803  1.00  0.00     0.053 C 
BRANCH   9  10
ATOM     10  C   UNL     1      -2.901  12.522 -14.582  1.00  0.00     0.041 C 
ATOM     11  O   UNL     1      -2.370  11.556 -13.975  1.00  0.00    -0.550 OA
ATOM     12  O   UNL     1      -2.102  13.537 -15.093  1.00  0.00    -0.550 OA
ENDBRANCH   9  10
ENDBRANCH   8   9
ENDBRANCH   7   8
ENDBRANCH   6   7
ENDBRANCH   5   6
ENDBRANCH   4   5
ENDBRANCH   3   4
ENDBRANCH   1   3
BRANCH   2  13
ATOM     13  C   UNL     1      -1.915  14.257 -18.162  1.00  0.00     0.027 C 
BRANCH  13  14
ATOM     14  C   UNL     1      -1.090  15.309 -18.926  1.00  0.00     0.004 C 
BRANCH  14  15
ATOM     15  C   UNL     1       0.266  15.636 -18.272  1.00  0.00     0.000 C 
BRANCH  15  16
ATOM     16  C   UNL     1       1.336  16.072 -19.289  1.00  0.00     0.000 C 
BRANCH  16  17
ATOM     17  C   UNL     1       1.023  17.437 -19.924  1.00  0.00    -0.000 C 
BRANCH  17  18
ATOM     18  C   UNL     1       0.753  18.526 -18.872  1.00  0.00    -0.000 C 
BRANCH  18  19
ATOM     19  C   UNL     1      -0.632  19.171 -19.034  1.00  0.00    -0.003 C 
ATOM     20  C   UNL     1      -1.264  19.557 -17.697  1.00  0.00     0.004 C 
ENDBRANCH  18  19
ENDBRANCH  17  18
ENDBRANCH  16  17
ENDBRANCH  15  16
ENDBRANCH  14  15
ENDBRANCH  13  14
ENDBRANCH   2  13
TORSDOF 15
ENDMDL
