MODEL 1
REMARK VINA RESULT:    -4.535      0.000      0.000
REMARK INTER + INTRA:          -7.192
REMARK INTER:                  -6.126
REMARK INTRA:                  -1.067
REMARK UNBOUND:                -1.067
REMARK SMILES CC(=O)CCC=C(C)CCC=C(C)C
REMARK SMILES IDX 7 1 6 2 8 3 9 4 10 5 11 6 13 7 12 8 14 9 5 10 4 11 2 12 3 13
REMARK SMILES IDX 1 14
REMARK H PARENT
REMARK Flexibility Score: inf
ROOT
ATOM      1  C   UNL     1     -14.637  11.189 -30.357  1.00  0.00    -0.077 C 
ATOM      2  C   UNL     1     -15.111  11.761 -31.486  1.00  0.00    -0.028 C 
ATOM      3  C   UNL     1     -13.410  11.728 -29.660  1.00  0.00     0.039 C 
ENDROOT
BRANCH   1   4
ATOM      4  C   UNL     1     -15.348   9.986 -29.782  1.00  0.00     0.034 C 
BRANCH   4   5
ATOM      5  C   UNL     1     -16.303  10.402 -28.657  1.00  0.00     0.032 C 
BRANCH   5   6
ATOM      6  C   UNL     1     -17.649  10.794 -29.214  1.00  0.00    -0.028 C 
ATOM      7  C   UNL     1     -19.482  12.340 -29.828  1.00  0.00     0.039 C 
ATOM      8  C   UNL     1     -18.107  12.065 -29.276  1.00  0.00    -0.080 C 
ATOM      9  C   UNL     1     -17.266  13.242 -28.848  1.00  0.00     0.039 C 
ENDBRANCH   5   6
ENDBRANCH   4   5
ENDBRANCH   1   4
BRANCH   2  10
ATOM     10  C   UNL     1     -14.470  12.966 -32.132  1.00  0.00     0.035 C 
BRANCH  10  11
ATOM     11  C   UNL     1     -14.952  14.266 -31.480  1.00  0.00     0.079 C 
BRANCH  11  12
ATOM     12  C   UNL     1     -13.790  15.178 -31.187  1.00  0.00     0.130 C 
ATOM     13  O   UNL     1     -13.976  16.201 -30.546  1.00  0.00    -0.300 OA
ATOM     14  C   UNL     1     -12.407  14.863 -31.673  1.00  0.00     0.087 C 
ENDBRANCH  11  12
ENDBRANCH  10  11
ENDBRANCH   2  10
TORSDOF 6
ENDMDL
MODEL 2
REMARK VINA RESULT:    -4.525      9.315     12.485
REMARK INTER + INTRA:          -7.179
REMARK INTER:                  -5.939
REMARK INTRA:                  -1.240
REMARK UNBOUND:                -1.067
REMARK SMILES CC(=O)CCC=C(C)CCC=C(C)C
REMARK SMILES IDX 7 1 6 2 8 3 9 4 10 5 11 6 13 7 12 8 14 9 5 10 4 11 2 12 3 13
REMARK SMILES IDX 1 14
REMARK H PARENT
REMARK Flexibility Score: inf
ROOT
ATOM      1  C   UNL     1     -28.996  11.861 -29.539  1.00  0.00    -0.077 C 
ATOM      2  C   UNL     1     -28.187  11.779 -28.459  1.00  0.00    -0.028 C 
ATOM      3  C   UNL     1     -29.326  10.641 -30.367  1.00  0.00     0.039 C 
ENDROOT
BRANCH   1   4
ATOM      4  C   UNL     1     -29.581  13.200 -29.926  1.00  0.00     0.034 C 
BRANCH   4   5
ATOM      5  C   UNL     1     -28.836  13.793 -31.128  1.00  0.00     0.032 C 
BRANCH   5   6
ATOM      6  C   UNL     1     -27.425  14.169 -30.751  1.00  0.00    -0.028 C 
ATOM      7  C   UNL     1     -24.957  13.981 -30.742  1.00  0.00     0.039 C 
ATOM      8  C   UNL     1     -26.320  13.538 -31.208  1.00  0.00    -0.080 C 
ATOM      9  C   UNL     1     -26.396  12.418 -32.216  1.00  0.00     0.039 C 
ENDBRANCH   5   6
ENDBRANCH   4   5
ENDBRANCH   1   4
BRANCH   2  10
ATOM     10  C   UNL     1     -27.560  10.487 -27.995  1.00  0.00     0.035 C 
BRANCH  10  11
ATOM     11  C   UNL     1     -26.050  10.646 -27.789  1.00  0.00     0.079 C 
BRANCH  11  12
ATOM     12  C   UNL     1     -25.308  10.402 -29.076  1.00  0.00     0.130 C 
ATOM     13  O   UNL     1     -25.887   9.875 -30.014  1.00  0.00    -0.300 OA
ATOM     14  C   UNL     1     -23.865  10.783 -29.231  1.00  0.00     0.087 C 
ENDBRANCH  11  12
ENDBRANCH  10  11
ENDBRANCH   2  10
TORSDOF 6
ENDMDL
MODEL 3
REMARK VINA RESULT:    -4.521      9.726     11.541
REMARK INTER + INTRA:          -7.173
REMARK INTER:                  -5.948
REMARK INTRA:                  -1.225
REMARK UNBOUND:                -1.067
REMARK SMILES CC(=O)CCC=C(C)CCC=C(C)C
REMARK SMILES IDX 7 1 6 2 8 3 9 4 10 5 11 6 13 7 12 8 14 9 5 10 4 11 2 12 3 13
REMARK SMILES IDX 1 14
REMARK H PARENT
REMARK Flexibility Score: inf
ROOT
ATOM      1  C   UNL     1     -25.386  10.858 -28.900  1.00  0.00    -0.077 C 
ATOM      2  C   UNL     1     -25.093  12.176 -28.963  1.00  0.00    -0.028 C 
ATOM      3  C   UNL     1     -25.170   9.948 -30.086  1.00  0.00     0.039 C 
ENDROOT
BRANCH   1   4
ATOM      4  C   UNL     1     -25.943  10.284 -27.617  1.00  0.00     0.034 C 
BRANCH   4   5
ATOM      5  C   UNL     1     -27.421   9.911 -27.783  1.00  0.00     0.032 C 
BRANCH   5   6
ATOM      6  C   UNL     1     -28.228  11.106 -28.225  1.00  0.00    -0.028 C 
ATOM      7  C   UNL     1     -29.654  12.436 -29.749  1.00  0.00     0.039 C 
ATOM      8  C   UNL     1     -28.901  11.180 -29.396  1.00  0.00    -0.080 C 
ATOM      9  C   UNL     1     -28.964  10.021 -30.359  1.00  0.00     0.039 C 
ENDBRANCH   5   6
ENDBRANCH   4   5
ENDBRANCH   1   4
BRANCH   2  10
ATOM     10  C   UNL     1     -24.531  12.837 -30.198  1.00  0.00     0.035 C 
BRANCH  10  11
ATOM     11  C   UNL     1     -25.312  14.108 -30.550  1.00  0.00     0.079 C 
BRANCH  11  12
ATOM     12  C   UNL     1     -26.563  13.771 -31.317  1.00  0.00     0.130 C 
ATOM     13  O   UNL     1     -27.519  14.530 -31.273  1.00  0.00    -0.300 OA
ATOM     14  C   UNL     1     -26.667  12.514 -32.130  1.00  0.00     0.087 C 
ENDBRANCH  11  12
ENDBRANCH  10  11
ENDBRANCH   2  10
TORSDOF 6
ENDMDL
MODEL 4
REMARK VINA RESULT:    -4.514      2.274      3.723
REMARK INTER + INTRA:          -7.164
REMARK INTER:                  -5.961
REMARK INTRA:                  -1.204
REMARK UNBOUND:                -1.067
REMARK SMILES CC(=O)CCC=C(C)CCC=C(C)C
REMARK SMILES IDX 7 1 6 2 8 3 9 4 10 5 11 6 13 7 12 8 14 9 5 10 4 11 2 12 3 13
REMARK SMILES IDX 1 14
REMARK H PARENT
REMARK Flexibility Score: inf
ROOT
ATOM      1  C   UNL     1     -14.419  12.615 -31.140  1.00  0.00    -0.077 C 
ATOM      2  C   UNL     1     -14.358  11.340 -30.696  1.00  0.00    -0.028 C 
ATOM      3  C   UNL     1     -13.620  13.715 -30.481  1.00  0.00     0.039 C 
ENDROOT
BRANCH   1   4
ATOM      4  C   UNL     1     -15.305  12.948 -32.319  1.00  0.00     0.034 C 
BRANCH   4   5
ATOM      5  C   UNL     1     -16.572  13.679 -31.859  1.00  0.00     0.032 C 
BRANCH   5   6
ATOM      6  C   UNL     1     -17.592  12.702 -31.330  1.00  0.00    -0.028 C 
ATOM      7  C   UNL     1     -18.876  11.488 -29.598  1.00  0.00     0.039 C 
ATOM      8  C   UNL     1     -17.855  12.513 -30.017  1.00  0.00    -0.080 C 
ATOM      9  C   UNL     1     -17.187  13.330 -28.939  1.00  0.00     0.039 C 
ENDBRANCH   5   6
ENDBRANCH   4   5
ENDBRANCH   1   4
BRANCH   2  10
ATOM     10  C   UNL     1     -13.501  10.913 -29.529  1.00  0.00     0.035 C 
BRANCH  10  11
ATOM     11  C   UNL     1     -14.360  10.421 -28.360  1.00  0.00     0.079 C 
BRANCH  11  12
ATOM     12  C   UNL     1     -14.239  11.350 -27.181  1.00  0.00     0.130 C 
ATOM     13  O   UNL     1     -15.237  11.645 -26.542  1.00  0.00    -0.300 OA
ATOM     14  C   UNL     1     -12.916  11.930 -26.776  1.00  0.00     0.087 C 
ENDBRANCH  11  12
ENDBRANCH  10  11
ENDBRANCH   2  10
TORSDOF 6
ENDMDL
MODEL 5
REMARK VINA RESULT:    -4.496      1.999      3.520
REMARK INTER + INTRA:          -7.140
REMARK INTER:                  -6.199
REMARK INTRA:                  -0.941
REMARK UNBOUND:                -1.067
REMARK SMILES CC(=O)CCC=C(C)CCC=C(C)C
REMARK SMILES IDX 7 1 6 2 8 3 9 4 10 5 11 6 13 7 12 8 14 9 5 10 4 11 2 12 3 13
REMARK SMILES IDX 1 14
REMARK H PARENT
REMARK Flexibility Score: inf
ROOT
ATOM      1  C   UNL     1     -15.817  14.088 -30.537  1.00  0.00    -0.077 C 
ATOM      2  C   UNL     1     -14.552  14.562 -30.490  1.00  0.00    -0.028 C 
ATOM      3  C   UNL     1     -16.441  13.645 -31.839  1.00  0.00     0.039 C 
ENDROOT
BRANCH   1   4
ATOM      4  C   UNL     1     -16.623  14.002 -29.261  1.00  0.00     0.034 C 
BRANCH   4   5
ATOM      5  C   UNL     1     -17.117  12.570 -29.023  1.00  0.00     0.032 C 
BRANCH   5   6
ATOM      6  C   UNL     1     -16.163  11.817 -28.130  1.00  0.00    -0.028 C 
ATOM      7  C   UNL     1     -14.402  10.167 -27.580  1.00  0.00     0.039 C 
ATOM      8  C   UNL     1     -15.291  10.880 -28.566  1.00  0.00    -0.080 C 
ATOM      9  C   UNL     1     -15.139  10.544 -30.029  1.00  0.00     0.039 C 
ENDBRANCH   5   6
ENDBRANCH   4   5
ENDBRANCH   1   4
BRANCH   2  10
ATOM     10  C   UNL     1     -13.670  14.682 -31.709  1.00  0.00     0.035 C 
BRANCH  10  11
ATOM     11  C   UNL     1     -12.787  13.441 -31.879  1.00  0.00     0.079 C 
BRANCH  11  12
ATOM     12  C   UNL     1     -11.761  13.661 -32.960  1.00  0.00     0.130 C 
ATOM     13  O   UNL     1     -11.729  12.906 -33.920  1.00  0.00    -0.300 OA
ATOM     14  C   UNL     1     -10.769  14.782 -32.880  1.00  0.00     0.087 C 
ENDBRANCH  11  12
ENDBRANCH  10  11
ENDBRANCH   2  10
TORSDOF 6
ENDMDL
MODEL 6
REMARK VINA RESULT:    -4.494      1.511      3.256
REMARK INTER + INTRA:          -7.137
REMARK INTER:                  -5.900
REMARK INTRA:                  -1.237
REMARK UNBOUND:                -1.067
REMARK SMILES CC(=O)CCC=C(C)CCC=C(C)C
REMARK SMILES IDX 7 1 6 2 8 3 9 4 10 5 11 6 13 7 12 8 14 9 5 10 4 11 2 12 3 13
REMARK SMILES IDX 1 14
REMARK H PARENT
REMARK Flexibility Score: inf
ROOT
ATOM      1  C   UNL     1     -16.574  12.521 -29.850  1.00  0.00    -0.077 C 
ATOM      2  C   UNL     1     -16.079  12.340 -31.095  1.00  0.00    -0.028 C 
ATOM      3  C   UNL     1     -16.627  13.893 -29.219  1.00  0.00     0.039 C 
ENDROOT
BRANCH   1   4
ATOM      4  C   UNL     1     -17.080  11.327 -29.074  1.00  0.00     0.034 C 
BRANCH   4   5
ATOM      5  C   UNL     1     -15.926  10.390 -28.700  1.00  0.00     0.032 C 
BRANCH   5   6
ATOM      6  C   UNL     1     -15.039  11.024 -27.657  1.00  0.00    -0.028 C 
ATOM      7  C   UNL     1     -12.948  11.984 -26.745  1.00  0.00     0.039 C 
ATOM      8  C   UNL     1     -13.753  11.384 -27.869  1.00  0.00    -0.080 C 
ATOM      9  C   UNL     1     -13.093  11.246 -29.218  1.00  0.00     0.039 C 
ENDBRANCH   5   6
ENDBRANCH   4   5
ENDBRANCH   1   4
BRANCH   2  10
ATOM     10  C   UNL     1     -15.554  13.470 -31.947  1.00  0.00     0.035 C 
BRANCH  10  11
ATOM     11  C   UNL     1     -14.054  13.311 -32.215  1.00  0.00     0.079 C 
BRANCH  11  12
ATOM     12  C   UNL     1     -13.315  14.580 -31.880  1.00  0.00     0.130 C 
ATOM     13  O   UNL     1     -12.392  14.944 -32.592  1.00  0.00    -0.300 OA
ATOM     14  C   UNL     1     -13.680  15.404 -30.681  1.00  0.00     0.087 C 
ENDBRANCH  11  12
ENDBRANCH  10  11
ENDBRANCH   2  10
TORSDOF 6
ENDMDL
MODEL 7
REMARK VINA RESULT:    -4.434      8.889     11.437
REMARK INTER + INTRA:          -7.056
REMARK INTER:                  -5.842
REMARK INTRA:                  -1.214
REMARK UNBOUND:                -1.067
REMARK SMILES CC(=O)CCC=C(C)CCC=C(C)C
REMARK SMILES IDX 7 1 6 2 8 3 9 4 10 5 11 6 13 7 12 8 14 9 5 10 4 11 2 12 3 13
REMARK SMILES IDX 1 14
REMARK H PARENT
REMARK Flexibility Score: inf
ROOT
ATOM      1  C   UNL     1     -28.367  11.826 -29.122  1.00  0.00    -0.077 C 
ATOM      2  C   UNL     1     -27.537  12.835 -29.467  1.00  0.00    -0.028 C 
ATOM      3  C   UNL     1     -29.411  11.305 -30.082  1.00  0.00     0.039 C 
ENDROOT
BRANCH   1   4
ATOM      4  C   UNL     1     -28.249  11.207 -27.748  1.00  0.00     0.034 C 
BRANCH   4   5
ATOM      5  C   UNL     1     -27.479   9.882 -27.810  1.00  0.00     0.032 C 
BRANCH   5   6
ATOM      6  C   UNL     1     -26.036  10.083 -27.421  1.00  0.00    -0.028 C 
ATOM      7  C   UNL     1     -23.593  10.236 -27.788  1.00  0.00     0.039 C 
ATOM      8  C   UNL     1     -25.001  10.050 -28.292  1.00  0.00    -0.080 C 
ATOM      9  C   UNL     1     -25.206   9.875 -29.776  1.00  0.00     0.039 C 
ENDBRANCH   5   6
ENDBRANCH   4   5
ENDBRANCH   1   4
BRANCH   2  10
ATOM     10  C   UNL     1     -27.578  13.512 -30.816  1.00  0.00     0.035 C 
BRANCH  10  11
ATOM     11  C   UNL     1     -26.205  13.480 -31.495  1.00  0.00     0.079 C 
BRANCH  11  12
ATOM     12  C   UNL     1     -25.168  14.148 -30.631  1.00  0.00     0.130 C 
ATOM     13  O   UNL     1     -25.260  15.344 -30.396  1.00  0.00    -0.300 OA
ATOM     14  C   UNL     1     -24.014  13.379 -30.059  1.00  0.00     0.087 C 
ENDBRANCH  11  12
ENDBRANCH  10  11
ENDBRANCH   2  10
TORSDOF 6
ENDMDL
MODEL 8
REMARK VINA RESULT:    -4.377      2.269      4.889
REMARK INTER + INTRA:          -6.980
REMARK INTER:                  -5.676
REMARK INTRA:                  -1.304
REMARK UNBOUND:                -1.067
REMARK SMILES CC(=O)CCC=C(C)CCC=C(C)C
REMARK SMILES IDX 7 1 6 2 8 3 9 4 10 5 11 6 13 7 12 8 14 9 5 10 4 11 2 12 3 13
REMARK SMILES IDX 1 14
REMARK H PARENT
REMARK Flexibility Score: inf
ROOT
ATOM      1  C   UNL     1     -17.090  12.354 -30.068  1.00  0.00    -0.077 C 
ATOM      2  C   UNL     1     -16.880  11.035 -29.863  1.00  0.00    -0.028 C 
ATOM      3  C   UNL     1     -16.981  13.351 -28.937  1.00  0.00     0.039 C 
ENDROOT
BRANCH   1   4
ATOM      4  C   UNL     1     -17.443  12.842 -31.455  1.00  0.00     0.034 C 
BRANCH   4   5
ATOM      5  C   UNL     1     -16.374  13.807 -31.981  1.00  0.00     0.032 C 
BRANCH   5   6
ATOM      6  C   UNL     1     -15.055  13.098 -32.163  1.00  0.00    -0.028 C 
ATOM      7  C   UNL     1     -12.606  12.792 -31.980  1.00  0.00     0.039 C 
ATOM      8  C   UNL     1     -13.869  13.571 -31.717  1.00  0.00    -0.080 C 
ATOM      9  C   UNL     1     -13.763  14.845 -30.918  1.00  0.00     0.039 C 
ENDBRANCH   5   6
ENDBRANCH   4   5
ENDBRANCH   1   4
BRANCH   2  10
ATOM     10  C   UNL     1     -16.522  10.456 -28.516  1.00  0.00     0.035 C 
BRANCH  10  11
ATOM     11  C   UNL     1     -15.063   9.987 -28.485  1.00  0.00     0.079 C 
BRANCH  11  12
ATOM     12  C   UNL     1     -14.220  10.921 -27.658  1.00  0.00     0.130 C 
ATOM     13  O   UNL     1     -14.104  10.725 -26.458  1.00  0.00    -0.300 OA
ATOM     14  C   UNL     1     -13.524  12.099 -28.275  1.00  0.00     0.087 C 
ENDBRANCH  11  12
ENDBRANCH  10  11
ENDBRANCH   2  10
TORSDOF 6
ENDMDL
MODEL 9
REMARK VINA RESULT:    -4.347      1.856      4.587
REMARK INTER + INTRA:          -6.939
REMARK INTER:                  -5.986
REMARK INTRA:                  -0.953
REMARK UNBOUND:                -1.067
REMARK SMILES CC(=O)CCC=C(C)CCC=C(C)C
REMARK SMILES IDX 7 1 6 2 8 3 9 4 10 5 11 6 13 7 12 8 14 9 5 10 4 11 2 12 3 13
REMARK SMILES IDX 1 14
REMARK H PARENT
REMARK Flexibility Score: inf
ROOT
ATOM      1  C   UNL     1     -14.681  11.075 -28.731  1.00  0.00    -0.077 C 
ATOM      2  C   UNL     1     -15.636  10.478 -29.478  1.00  0.00    -0.028 C 
ATOM      3  C   UNL     1     -14.980  11.593 -27.344  1.00  0.00     0.039 C 
ENDROOT
BRANCH   1   4
ATOM      4  C   UNL     1     -13.287  11.229 -29.295  1.00  0.00     0.034 C 
BRANCH   4   5
ATOM      5  C   UNL     1     -13.309  12.057 -30.585  1.00  0.00     0.032 C 
BRANCH   5   6
ATOM      6  C   UNL     1     -13.803  13.456 -30.314  1.00  0.00    -0.028 C 
ATOM      7  C   UNL     1     -13.949  15.906 -30.633  1.00  0.00     0.039 C 
ATOM      8  C   UNL     1     -13.412  14.549 -31.009  1.00  0.00    -0.080 C 
ATOM      9  C   UNL     1     -12.478  14.457 -32.190  1.00  0.00     0.039 C 
ENDBRANCH   5   6
ENDBRANCH   4   5
ENDBRANCH   1   4
BRANCH   2  10
ATOM     10  C   UNL     1     -17.053  10.278 -28.999  1.00  0.00     0.035 C 
BRANCH  10  11
ATOM     11  C   UNL     1     -18.054  10.992 -29.914  1.00  0.00     0.079 C 
BRANCH  11  12
ATOM     12  C   UNL     1     -17.686  12.443 -30.078  1.00  0.00     0.130 C 
ATOM     13  O   UNL     1     -17.733  13.188 -29.112  1.00  0.00    -0.300 OA
ATOM     14  C   UNL     1     -17.271  12.998 -31.409  1.00  0.00     0.087 C 
ENDBRANCH  11  12
ENDBRANCH  10  11
ENDBRANCH   2  10
TORSDOF 6
ENDMDL
