MODEL 1
REMARK VINA RESULT:    -5.199      0.000      0.000
REMARK INTER + INTRA:          -8.491
REMARK INTER:                  -7.934
REMARK INTRA:                  -0.557
REMARK UNBOUND:                -0.557
REMARK SMILES CCCCCCCCCC=CC(=O)[O-]
REMARK SMILES IDX 7 1 8 2 9 3 10 4 11 5 12 6 13 7 14 8 6 9 5 10 4 11 3 12 2 13
REMARK SMILES IDX 1 14
REMARK H PARENT
REMARK Flexibility Score: inf
ROOT
ATOM      1  C   UNL     1      13.731  15.480  28.099  1.00  0.00     0.000 C 
ENDROOT
BRANCH   1   2
ATOM      2  C   UNL     1      13.421  16.934  28.487  1.00  0.00     0.004 C 
BRANCH   2   3
ATOM      3  C   UNL     1      13.349  17.868  27.268  1.00  0.00     0.027 C 
BRANCH   3   4
ATOM      4  C   UNL     1      11.929  18.063  26.813  1.00  0.00    -0.025 C 
ATOM      5  C   UNL     1      11.416  17.660  25.637  1.00  0.00     0.020 C 
BRANCH   5   6
ATOM      6  C   UNL     1      12.125  16.923  24.571  1.00  0.00     0.064 C 
ATOM      7  O   UNL     1      11.937  15.695  24.368  1.00  0.00    -0.545 OA
ATOM      8  O   UNL     1      13.014  17.612  23.757  1.00  0.00    -0.545 OA
ENDBRANCH   5   6
ENDBRANCH   3   4
ENDBRANCH   2   3
ENDBRANCH   1   2
BRANCH   1   9
ATOM      9  C   UNL     1      15.200  15.101  28.357  1.00  0.00     0.000 C 
BRANCH   9  10
ATOM     10  C   UNL     1      15.521  14.957  29.853  1.00  0.00     0.000 C 
BRANCH  10  11
ATOM     11  C   UNL     1      14.532  14.028  30.581  1.00  0.00    -0.000 C 
BRANCH  11  12
ATOM     12  C   UNL     1      15.112  13.455  31.885  1.00  0.00    -0.000 C 
BRANCH  12  13
ATOM     13  C   UNL     1      15.813  12.104  31.676  1.00  0.00    -0.003 C 
ATOM     14  C   UNL     1      15.433  11.490  30.332  1.00  0.00     0.004 C 
ENDBRANCH  12  13
ENDBRANCH  11  12
ENDBRANCH  10  11
ENDBRANCH   9  10
ENDBRANCH   1   9
TORSDOF 9
ENDMDL
MODEL 2
REMARK VINA RESULT:    -5.155      1.368      2.072
REMARK INTER + INTRA:          -8.425
REMARK INTER:                  -7.807
REMARK INTRA:                  -0.618
REMARK UNBOUND:                -0.557
REMARK SMILES CCCCCCCCCC=CC(=O)[O-]
REMARK SMILES IDX 7 1 8 2 9 3 10 4 11 5 12 6 13 7 14 8 6 9 5 10 4 11 3 12 2 13
REMARK SMILES IDX 1 14
REMARK H PARENT
REMARK Flexibility Score: inf
ROOT
ATOM      1  C   UNL     1      13.203  16.627  27.711  1.00  0.00     0.000 C 
ENDROOT
BRANCH   1   2
ATOM      2  C   UNL     1      12.780  15.499  26.757  1.00  0.00     0.004 C 
BRANCH   2   3
ATOM      3  C   UNL     1      13.627  15.464  25.473  1.00  0.00     0.027 C 
BRANCH   3   4
ATOM      4  C   UNL     1      14.262  16.801  25.202  1.00  0.00    -0.025 C 
ATOM      5  C   UNL     1      13.766  17.762  24.404  1.00  0.00     0.020 C 
BRANCH   5   6
ATOM      6  C   UNL     1      12.491  17.719  23.658  1.00  0.00     0.064 C 
ATOM      7  O   UNL     1      12.447  17.796  22.403  1.00  0.00    -0.545 OA
ATOM      8  O   UNL     1      11.306  17.570  24.366  1.00  0.00    -0.545 OA
ENDBRANCH   5   6
ENDBRANCH   3   4
ENDBRANCH   2   3
ENDBRANCH   1   2
BRANCH   1   9
ATOM      9  C   UNL     1      13.848  16.096  29.003  1.00  0.00     0.000 C 
BRANCH   9  10
ATOM     10  C   UNL     1      15.127  15.286  28.737  1.00  0.00     0.000 C 
BRANCH  10  11
ATOM     11  C   UNL     1      15.568  14.460  29.959  1.00  0.00    -0.000 C 
BRANCH  11  12
ATOM     12  C   UNL     1      14.452  14.315  31.006  1.00  0.00    -0.000 C 
BRANCH  12  13
ATOM     13  C   UNL     1      14.859  13.417  32.185  1.00  0.00    -0.003 C 
ATOM     14  C   UNL     1      15.671  12.218  31.705  1.00  0.00     0.004 C 
ENDBRANCH  12  13
ENDBRANCH  11  12
ENDBRANCH  10  11
ENDBRANCH   9  10
ENDBRANCH   1   9
TORSDOF 9
ENDMDL
MODEL 3
REMARK VINA RESULT:    -4.992      1.104      1.965
REMARK INTER + INTRA:          -8.175
REMARK INTER:                  -7.798
REMARK INTRA:                  -0.377
REMARK UNBOUND:                -0.557
REMARK SMILES CCCCCCCCCC=CC(=O)[O-]
REMARK SMILES IDX 7 1 8 2 9 3 10 4 11 5 12 6 13 7 14 8 6 9 5 10 4 11 3 12 2 13
REMARK SMILES IDX 1 14
REMARK H PARENT
REMARK Flexibility Score: inf
ROOT
ATOM      1  C   UNL     1      13.266  17.047  28.483  1.00  0.00     0.000 C 
ENDROOT
BRANCH   1   2
ATOM      2  C   UNL     1      12.734  18.002  27.403  1.00  0.00     0.004 C 
BRANCH   2   3
ATOM      3  C   UNL     1      11.544  17.412  26.629  1.00  0.00     0.027 C 
BRANCH   3   4
ATOM      4  C   UNL     1      11.645  17.715  25.159  1.00  0.00    -0.025 C 
ATOM      5  C   UNL     1      12.684  17.414  24.362  1.00  0.00     0.020 C 
BRANCH   5   6
ATOM      6  C   UNL     1      13.919  16.701  24.753  1.00  0.00     0.064 C 
ATOM      7  O   UNL     1      15.039  17.273  24.787  1.00  0.00    -0.545 OA
ATOM      8  O   UNL     1      13.835  15.362  25.109  1.00  0.00    -0.545 OA
ENDBRANCH   5   6
ENDBRANCH   3   4
ENDBRANCH   2   3
ENDBRANCH   1   2
BRANCH   1   9
ATOM      9  C   UNL     1      14.719  16.612  28.222  1.00  0.00     0.000 C 
BRANCH   9  10
ATOM     10  C   UNL     1      14.929  15.102  28.413  1.00  0.00     0.000 C 
BRANCH  10  11
ATOM     11  C   UNL     1      15.472  14.753  29.810  1.00  0.00    -0.000 C 
BRANCH  11  12
ATOM     12  C   UNL     1      14.363  14.324  30.784  1.00  0.00    -0.000 C 
BRANCH  12  13
ATOM     13  C   UNL     1      14.910  13.599  32.023  1.00  0.00    -0.003 C 
ATOM     14  C   UNL     1      15.699  12.354  31.626  1.00  0.00     0.004 C 
ENDBRANCH  12  13
ENDBRANCH  11  12
ENDBRANCH  10  11
ENDBRANCH   9  10
ENDBRANCH   1   9
TORSDOF 9
ENDMDL
MODEL 4
REMARK VINA RESULT:    -4.884      3.622      6.935
REMARK INTER + INTRA:          -8.010
REMARK INTER:                  -7.190
REMARK INTRA:                  -0.821
REMARK UNBOUND:                -0.557
REMARK SMILES CCCCCCCCCC=CC(=O)[O-]
REMARK SMILES IDX 7 1 8 2 9 3 10 4 11 5 12 6 13 7 14 8 6 9 5 10 4 11 3 12 2 13
REMARK SMILES IDX 1 14
REMARK H PARENT
REMARK Flexibility Score: inf
ROOT
ATOM      1  C   UNL     1      14.348  16.553  27.558  1.00  0.00     0.000 C 
ENDROOT
BRANCH   1   2
ATOM      2  C   UNL     1      13.193  15.817  28.255  1.00  0.00     0.004 C 
BRANCH   2   3
ATOM      3  C   UNL     1      13.635  15.120  29.553  1.00  0.00     0.027 C 
BRANCH   3   4
ATOM      4  C   UNL     1      15.134  15.012  29.631  1.00  0.00    -0.025 C 
ATOM      5  C   UNL     1      15.824  14.216  30.465  1.00  0.00     0.020 C 
BRANCH   5   6
ATOM      6  C   UNL     1      15.260  13.266  31.448  1.00  0.00     0.064 C 
ATOM      7  O   UNL     1      15.369  12.020  31.313  1.00  0.00    -0.545 OA
ATOM      8  O   UNL     1      14.605  13.768  32.564  1.00  0.00    -0.545 OA
ENDBRANCH   5   6
ENDBRANCH   3   4
ENDBRANCH   2   3
ENDBRANCH   1   2
BRANCH   1   9
ATOM      9  C   UNL     1      14.487  16.162  26.076  1.00  0.00     0.000 C 
BRANCH   9  10
ATOM     10  C   UNL     1      14.776  17.368  25.169  1.00  0.00     0.000 C 
BRANCH  10  11
ATOM     11  C   UNL     1      13.590  17.712  24.250  1.00  0.00    -0.000 C 
BRANCH  11  12
ATOM     12  C   UNL     1      12.431  16.712  24.383  1.00  0.00    -0.000 C 
BRANCH  12  13
ATOM     13  C   UNL     1      11.110  17.387  24.783  1.00  0.00    -0.003 C 
ATOM     14  C   UNL     1      11.131  17.805  26.251  1.00  0.00     0.004 C 
ENDBRANCH  12  13
ENDBRANCH  11  12
ENDBRANCH  10  11
ENDBRANCH   9  10
ENDBRANCH   1   9
TORSDOF 9
ENDMDL
MODEL 5
REMARK VINA RESULT:    -4.779      3.460      7.072
REMARK INTER + INTRA:          -7.851
REMARK INTER:                  -7.188
REMARK INTRA:                  -0.663
REMARK UNBOUND:                -0.557
REMARK SMILES CCCCCCCCCC=CC(=O)[O-]
REMARK SMILES IDX 7 1 8 2 9 3 10 4 11 5 12 6 13 7 14 8 6 9 5 10 4 11 3 12 2 13
REMARK SMILES IDX 1 14
REMARK H PARENT
REMARK Flexibility Score: inf
ROOT
ATOM      1  C   UNL     1      14.150  15.375  26.725  1.00  0.00     0.000 C 
ENDROOT
BRANCH   1   2
ATOM      2  C   UNL     1      14.918  15.845  27.971  1.00  0.00     0.004 C 
BRANCH   2   3
ATOM      3  C   UNL     1      15.388  14.675  28.851  1.00  0.00     0.027 C 
BRANCH   3   4
ATOM      4  C   UNL     1      14.647  14.645  30.160  1.00  0.00    -0.025 C 
ATOM      5  C   UNL     1      14.687  13.653  31.066  1.00  0.00     0.020 C 
BRANCH   5   6
ATOM      6  C   UNL     1      15.484  12.411  30.980  1.00  0.00     0.064 C 
ATOM      7  O   UNL     1      15.258  11.530  30.110  1.00  0.00    -0.545 OA
ATOM      8  O   UNL     1      16.525  12.220  31.878  1.00  0.00    -0.545 OA
ENDBRANCH   5   6
ENDBRANCH   3   4
ENDBRANCH   2   3
ENDBRANCH   1   2
BRANCH   1   9
ATOM      9  C   UNL     1      12.644  15.679  26.812  1.00  0.00     0.000 C 
BRANCH   9  10
ATOM     10  C   UNL     1      12.351  17.176  27.002  1.00  0.00     0.000 C 
BRANCH  10  11
ATOM     11  C   UNL     1      11.550  17.773  25.832  1.00  0.00    -0.000 C 
BRANCH  11  12
ATOM     12  C   UNL     1      11.822  17.052  24.502  1.00  0.00    -0.000 C 
BRANCH  12  13
ATOM     13  C   UNL     1      12.679  17.888  23.539  1.00  0.00    -0.003 C 
ATOM     14  C   UNL     1      14.098  18.055  24.073  1.00  0.00     0.004 C 
ENDBRANCH  12  13
ENDBRANCH  11  12
ENDBRANCH  10  11
ENDBRANCH   9  10
ENDBRANCH   1   9
TORSDOF 9
ENDMDL
MODEL 6
REMARK VINA RESULT:    -4.654      3.577      7.141
REMARK INTER + INTRA:          -7.660
REMARK INTER:                  -7.291
REMARK INTRA:                  -0.369
REMARK UNBOUND:                -0.557
REMARK SMILES CCCCCCCCCC=CC(=O)[O-]
REMARK SMILES IDX 7 1 8 2 9 3 10 4 11 5 12 6 13 7 14 8 6 9 5 10 4 11 3 12 2 13
REMARK SMILES IDX 1 14
REMARK H PARENT
REMARK Flexibility Score: inf
ROOT
ATOM      1  C   UNL     1      14.347  17.106  28.065  1.00  0.00     0.000 C 
ENDROOT
BRANCH   1   2
ATOM      2  C   UNL     1      13.151  16.551  28.855  1.00  0.00     0.004 C 
BRANCH   2   3
ATOM      3  C   UNL     1      13.526  15.335  29.718  1.00  0.00     0.027 C 
BRANCH   3   4
ATOM      4  C   UNL     1      14.905  14.834  29.384  1.00  0.00    -0.025 C 
ATOM      5  C   UNL     1      15.620  13.954  30.106  1.00  0.00     0.020 C 
BRANCH   5   6
ATOM      6  C   UNL     1      15.193  13.278  31.349  1.00  0.00     0.064 C 
ATOM      7  O   UNL     1      15.520  12.092  31.613  1.00  0.00    -0.545 OA
ATOM      8  O   UNL     1      14.419  13.982  32.262  1.00  0.00    -0.545 OA
ENDBRANCH   5   6
ENDBRANCH   3   4
ENDBRANCH   2   3
ENDBRANCH   1   2
BRANCH   1   9
ATOM      9  C   UNL     1      13.991  17.425  26.603  1.00  0.00     0.000 C 
BRANCH   9  10
ATOM     10  C   UNL     1      14.061  16.189  25.692  1.00  0.00     0.000 C 
BRANCH  10  11
ATOM     11  C   UNL     1      12.750  15.949  24.922  1.00  0.00    -0.000 C 
BRANCH  11  12
ATOM     12  C   UNL     1      12.130  17.251  24.390  1.00  0.00    -0.000 C 
BRANCH  12  13
ATOM     13  C   UNL     1      12.867  17.797  23.157  1.00  0.00    -0.003 C 
ATOM     14  C   UNL     1      11.929  17.893  21.957  1.00  0.00     0.004 C 
ENDBRANCH  12  13
ENDBRANCH  11  12
ENDBRANCH  10  11
ENDBRANCH   9  10
ENDBRANCH   1   9
TORSDOF 9
ENDMDL
MODEL 7
REMARK VINA RESULT:    -4.642      1.964      2.694
REMARK INTER + INTRA:          -7.641
REMARK INTER:                  -7.480
REMARK INTRA:                  -0.160
REMARK UNBOUND:                -0.557
REMARK SMILES CCCCCCCCCC=CC(=O)[O-]
REMARK SMILES IDX 7 1 8 2 9 3 10 4 11 5 12 6 13 7 14 8 6 9 5 10 4 11 3 12 2 13
REMARK SMILES IDX 1 14
REMARK H PARENT
REMARK Flexibility Score: inf
ROOT
ATOM      1  C   UNL     1      14.189  15.630  25.359  1.00  0.00     0.000 C 
ENDROOT
BRANCH   1   2
ATOM      2  C   UNL     1      14.766  17.048  25.231  1.00  0.00     0.004 C 
BRANCH   2   3
ATOM      3  C   UNL     1      13.702  18.086  24.837  1.00  0.00     0.027 C 
BRANCH   3   4
ATOM      4  C   UNL     1      12.426  17.419  24.399  1.00  0.00    -0.025 C 
ATOM      5  C   UNL     1      11.298  17.324  25.123  1.00  0.00     0.020 C 
BRANCH   5   6
ATOM      6  C   UNL     1      11.067  17.877  26.474  1.00  0.00     0.064 C 
ATOM      7  O   UNL     1       9.912  18.115  26.912  1.00  0.00    -0.545 OA
ATOM      8  O   UNL     1      12.161  18.124  27.292  1.00  0.00    -0.545 OA
ENDBRANCH   5   6
ENDBRANCH   3   4
ENDBRANCH   2   3
ENDBRANCH   1   2
BRANCH   1   9
ATOM      9  C   UNL     1      13.955  15.218  26.823  1.00  0.00     0.000 C 
BRANCH   9  10
ATOM     10  C   UNL     1      14.799  16.039  27.811  1.00  0.00     0.000 C 
BRANCH  10  11
ATOM     11  C   UNL     1      15.470  15.162  28.884  1.00  0.00    -0.000 C 
BRANCH  11  12
ATOM     12  C   UNL     1      14.473  14.652  29.937  1.00  0.00    -0.000 C 
BRANCH  12  13
ATOM     13  C   UNL     1      15.041  13.499  30.780  1.00  0.00    -0.003 C 
ATOM     14  C   UNL     1      14.726  13.695  32.260  1.00  0.00     0.004 C 
ENDBRANCH  12  13
ENDBRANCH  11  12
ENDBRANCH  10  11
ENDBRANCH   9  10
ENDBRANCH   1   9
TORSDOF 9
ENDMDL
MODEL 8
REMARK VINA RESULT:    -4.396      3.522      7.017
REMARK INTER + INTRA:          -7.266
REMARK INTER:                  -6.686
REMARK INTRA:                  -0.580
REMARK UNBOUND:                -0.557
REMARK SMILES CCCCCCCCCC=CC(=O)[O-]
REMARK SMILES IDX 7 1 8 2 9 3 10 4 11 5 12 6 13 7 14 8 6 9 5 10 4 11 3 12 2 13
REMARK SMILES IDX 1 14
REMARK H PARENT
REMARK Flexibility Score: inf
ROOT
ATOM      1  C   UNL     1      13.753  16.816  28.786  1.00  0.00     0.000 C 
ENDROOT
BRANCH   1   2
ATOM      2  C   UNL     1      13.769  15.305  29.068  1.00  0.00     0.004 C 
BRANCH   2   3
ATOM      3  C   UNL     1      14.956  14.882  29.949  1.00  0.00     0.027 C 
BRANCH   3   4
ATOM      4  C   UNL     1      14.494  14.421  31.304  1.00  0.00    -0.025 C 
ATOM      5  C   UNL     1      14.744  13.221  31.856  1.00  0.00     0.020 C 
BRANCH   5   6
ATOM      6  C   UNL     1      15.544  12.127  31.265  1.00  0.00     0.064 C 
ATOM      7  O   UNL     1      15.263  11.620  30.148  1.00  0.00    -0.545 OA
ATOM      8  O   UNL     1      16.650  11.657  31.959  1.00  0.00    -0.545 OA
ENDBRANCH   5   6
ENDBRANCH   3   4
ENDBRANCH   2   3
ENDBRANCH   1   2
BRANCH   1   9
ATOM      9  C   UNL     1      14.364  17.167  27.418  1.00  0.00     0.000 C 
BRANCH   9  10
ATOM     10  C   UNL     1      14.600  15.928  26.539  1.00  0.00     0.000 C 
BRANCH  10  11
ATOM     11  C   UNL     1      13.706  15.916  25.285  1.00  0.00    -0.000 C 
BRANCH  11  12
ATOM     12  C   UNL     1      13.859  17.191  24.439  1.00  0.00    -0.000 C 
BRANCH  12  13
ATOM     13  C   UNL     1      12.532  17.945  24.260  1.00  0.00    -0.003 C 
ATOM     14  C   UNL     1      11.416  17.290  25.068  1.00  0.00     0.004 C 
ENDBRANCH  12  13
ENDBRANCH  11  12
ENDBRANCH  10  11
ENDBRANCH   9  10
ENDBRANCH   1   9
TORSDOF 9
ENDMDL
MODEL 9
REMARK VINA RESULT:    -2.496     17.105     18.947
REMARK INTER + INTRA:          -4.367
REMARK INTER:                  -3.975
REMARK INTRA:                  -0.392
REMARK UNBOUND:                -0.557
REMARK SMILES CCCCCCCCCC=CC(=O)[O-]
REMARK SMILES IDX 7 1 8 2 9 3 10 4 11 5 12 6 13 7 14 8 6 9 5 10 4 11 3 12 2 13
REMARK SMILES IDX 1 14
REMARK H PARENT
REMARK Flexibility Score: inf
ROOT
ATOM      1  C   UNL     1       5.563   2.636  33.813  1.00  0.00     0.000 C 
ENDROOT
BRANCH   1   2
ATOM      2  C   UNL     1       5.991   1.425  34.658  1.00  0.00     0.004 C 
BRANCH   2   3
ATOM      3  C   UNL     1       6.536   0.271  33.800  1.00  0.00     0.027 C 
BRANCH   3   4
ATOM      4  C   UNL     1       6.648  -0.998  34.600  1.00  0.00    -0.025 C 
ATOM      5  C   UNL     1       7.514  -2.000  34.372  1.00  0.00     0.020 C 
BRANCH   5   6
ATOM      6  C   UNL     1       8.548  -2.049  33.317  1.00  0.00     0.064 C 
ATOM      7  O   UNL     1       8.255  -2.125  32.095  1.00  0.00    -0.545 OA
ATOM      8  O   UNL     1       9.885  -1.993  33.686  1.00  0.00    -0.545 OA
ENDBRANCH   5   6
ENDBRANCH   3   4
ENDBRANCH   2   3
ENDBRANCH   1   2
BRANCH   1   9
ATOM      9  C   UNL     1       4.033   2.782  33.724  1.00  0.00     0.000 C 
BRANCH   9  10
ATOM     10  C   UNL     1       3.553   3.128  32.306  1.00  0.00     0.000 C 
BRANCH  10  11
ATOM     11  C   UNL     1       2.134   3.725  32.293  1.00  0.00    -0.000 C 
BRANCH  11  12
ATOM     12  C   UNL     1       1.216   3.043  31.265  1.00  0.00    -0.000 C 
BRANCH  12  13
ATOM     13  C   UNL     1       1.989   2.152  30.281  1.00  0.00    -0.003 C 
ATOM     14  C   UNL     1       1.206   0.882  29.960  1.00  0.00     0.004 C 
ENDBRANCH  12  13
ENDBRANCH  11  12
ENDBRANCH  10  11
ENDBRANCH   9  10
ENDBRANCH   1   9
TORSDOF 9
ENDMDL
