MODEL 1
REMARK VINA RESULT:    -3.179      0.000      0.000
REMARK INTER + INTRA:          -5.172
REMARK INTER:                  -4.480
REMARK INTRA:                  -0.692
REMARK UNBOUND:                -0.692
REMARK SMILES CCCCCCCCC(=O)[O-]
REMARK SMILES IDX 6 1 7 2 8 3 9 4 10 5 11 6 5 7 4 8 3 9 2 10 1 11
REMARK H PARENT
REMARK Flexibility Score: inf
ROOT
ATOM      1  C   UNL     1     -94.990 147.909 238.764  1.00  0.00     0.000 C 
ENDROOT
BRANCH   1   2
ATOM      2  C   UNL     1     -96.392 148.469 239.065  1.00  0.00     0.006 C 
BRANCH   2   3
ATOM      3  C   UNL     1     -96.498 150.000 238.971  1.00  0.00     0.053 C 
BRANCH   3   4
ATOM      4  C   UNL     1     -97.867 150.491 239.328  1.00  0.00     0.041 C 
ATOM      5  O   UNL     1     -98.282 150.409 240.513  1.00  0.00    -0.550 OA
ATOM      6  O   UNL     1     -98.675 151.067 238.356  1.00  0.00    -0.550 OA
ENDBRANCH   3   4
ENDBRANCH   2   3
ENDBRANCH   1   2
BRANCH   1   7
ATOM      7  C   UNL     1     -94.233 148.736 237.711  1.00  0.00     0.000 C 
BRANCH   7   8
ATOM      8  C   UNL     1     -93.816 147.904 236.485  1.00  0.00    -0.000 C 
BRANCH   8   9
ATOM      9  C   UNL     1     -94.661 148.131 235.215  1.00  0.00    -0.000 C 
BRANCH   9  10
ATOM     10  C   UNL     1     -95.492 149.426 235.210  1.00  0.00    -0.003 C 
ATOM     11  C   UNL     1     -96.995 149.170 235.317  1.00  0.00     0.004 C 
ENDBRANCH   9  10
ENDBRANCH   8   9
ENDBRANCH   7   8
ENDBRANCH   1   7
TORSDOF 7
ENDMDL
MODEL 2
REMARK VINA RESULT:    -3.096      2.274      3.532
REMARK INTER + INTRA:          -5.055
REMARK INTER:                  -4.731
REMARK INTRA:                  -0.325
REMARK UNBOUND:                -0.692
REMARK SMILES CCCCCCCCC(=O)[O-]
REMARK SMILES IDX 6 1 7 2 8 3 9 4 10 5 11 6 5 7 4 8 3 9 2 10 1 11
REMARK H PARENT
REMARK Flexibility Score: inf
ROOT
ATOM      1  C   UNL     1     -97.473 148.593 240.184  1.00  0.00     0.000 C 
ENDROOT
BRANCH   1   2
ATOM      2  C   UNL     1     -98.313 148.912 241.435  1.00  0.00     0.006 C 
BRANCH   2   3
ATOM      3  C   UNL     1     -98.806 150.366 241.515  1.00  0.00     0.053 C 
BRANCH   3   4
ATOM      4  C   UNL     1     -99.162 150.762 242.915  1.00  0.00     0.041 C 
ATOM      5  O   UNL     1     -98.922 151.927 243.326  1.00  0.00    -0.550 OA
ATOM      6  O   UNL     1     -99.786 149.851 243.758  1.00  0.00    -0.550 OA
ENDBRANCH   3   4
ENDBRANCH   2   3
ENDBRANCH   1   2
BRANCH   1   7
ATOM      7  C   UNL     1     -97.278 149.816 239.273  1.00  0.00     0.000 C 
BRANCH   7   8
ATOM      8  C   UNL     1     -95.850 149.917 238.704  1.00  0.00    -0.000 C 
BRANCH   8   9
ATOM      9  C   UNL     1     -95.098 148.577 238.571  1.00  0.00    -0.000 C 
BRANCH   9  10
ATOM     10  C   UNL     1     -94.213 148.449 237.319  1.00  0.00    -0.003 C 
ATOM     11  C   UNL     1     -94.822 149.123 236.089  1.00  0.00     0.004 C 
ENDBRANCH   9  10
ENDBRANCH   8   9
ENDBRANCH   7   8
ENDBRANCH   1   7
TORSDOF 7
ENDMDL
MODEL 3
REMARK VINA RESULT:    -3.090      1.362      1.862
REMARK INTER + INTRA:          -5.047
REMARK INTER:                  -4.514
REMARK INTRA:                  -0.532
REMARK UNBOUND:                -0.692
REMARK SMILES CCCCCCCCC(=O)[O-]
REMARK SMILES IDX 6 1 7 2 8 3 9 4 10 5 11 6 5 7 4 8 3 9 2 10 1 11
REMARK H PARENT
REMARK Flexibility Score: inf
ROOT
ATOM      1  C   UNL     1     -95.617 149.500 238.621  1.00  0.00     0.000 C 
ENDROOT
BRANCH   1   2
ATOM      2  C   UNL     1     -97.142 149.599 238.434  1.00  0.00     0.006 C 
BRANCH   2   3
ATOM      3  C   UNL     1     -97.840 150.561 239.409  1.00  0.00     0.053 C 
BRANCH   3   4
ATOM      4  C   UNL     1     -98.255 149.875 240.674  1.00  0.00     0.041 C 
ATOM      5  O   UNL     1     -98.190 148.621 240.766  1.00  0.00    -0.550 OA
ATOM      6  O   UNL     1     -98.684 150.623 241.762  1.00  0.00    -0.550 OA
ENDBRANCH   3   4
ENDBRANCH   2   3
ENDBRANCH   1   2
BRANCH   1   7
ATOM      7  C   UNL     1     -95.150 148.074 238.959  1.00  0.00     0.000 C 
BRANCH   7   8
ATOM      8  C   UNL     1     -94.529 147.346 237.752  1.00  0.00    -0.000 C 
BRANCH   8   9
ATOM      9  C   UNL     1     -93.877 148.261 236.696  1.00  0.00    -0.000 C 
BRANCH   9  10
ATOM     10  C   UNL     1     -94.471 148.147 235.281  1.00  0.00    -0.003 C 
ATOM     11  C   UNL     1     -95.467 149.263 234.963  1.00  0.00     0.004 C 
ENDBRANCH   9  10
ENDBRANCH   8   9
ENDBRANCH   7   8
ENDBRANCH   1   7
TORSDOF 7
ENDMDL
MODEL 4
REMARK VINA RESULT:    -3.051      1.968      3.895
REMARK INTER + INTRA:          -4.992
REMARK INTER:                  -4.274
REMARK INTRA:                  -0.718
REMARK UNBOUND:                -0.692
REMARK SMILES CCCCCCCCC(=O)[O-]
REMARK SMILES IDX 6 1 7 2 8 3 9 4 10 5 11 6 5 7 4 8 3 9 2 10 1 11
REMARK H PARENT
REMARK Flexibility Score: inf
ROOT
ATOM      1  C   UNL     1     -93.861 147.849 236.896  1.00  0.00     0.000 C 
ENDROOT
BRANCH   1   2
ATOM      2  C   UNL     1     -94.448 148.174 235.510  1.00  0.00     0.006 C 
BRANCH   2   3
ATOM      3  C   UNL     1     -95.360 149.412 235.481  1.00  0.00     0.053 C 
BRANCH   3   4
ATOM      4  C   UNL     1     -96.786 149.052 235.199  1.00  0.00     0.041 C 
ATOM      5  O   UNL     1     -97.405 148.268 235.964  1.00  0.00    -0.550 OA
ATOM      6  O   UNL     1     -97.441 149.607 234.107  1.00  0.00    -0.550 OA
ENDBRANCH   3   4
ENDBRANCH   2   3
ENDBRANCH   1   2
BRANCH   1   7
ATOM      7  C   UNL     1     -94.457 148.722 238.013  1.00  0.00     0.000 C 
BRANCH   7   8
ATOM      8  C   UNL     1     -95.383 147.935 238.958  1.00  0.00    -0.000 C 
BRANCH   8   9
ATOM      9  C   UNL     1     -96.673 148.668 239.378  1.00  0.00    -0.000 C 
BRANCH   9  10
ATOM     10  C   UNL     1     -96.690 150.178 239.081  1.00  0.00    -0.003 C 
ATOM     11  C   UNL     1     -98.102 150.731 238.889  1.00  0.00     0.004 C 
ENDBRANCH   9  10
ENDBRANCH   8   9
ENDBRANCH   7   8
ENDBRANCH   1   7
TORSDOF 7
ENDMDL
MODEL 5
REMARK VINA RESULT:    -3.030      2.920      5.423
REMARK INTER + INTRA:          -4.963
REMARK INTER:                  -4.423
REMARK INTRA:                  -0.539
REMARK UNBOUND:                -0.692
REMARK SMILES CCCCCCCCC(=O)[O-]
REMARK SMILES IDX 6 1 7 2 8 3 9 4 10 5 11 6 5 7 4 8 3 9 2 10 1 11
REMARK H PARENT
REMARK Flexibility Score: inf
ROOT
ATOM      1  C   UNL     1     -96.744 150.313 239.165  1.00  0.00     0.000 C 
ENDROOT
BRANCH   1   2
ATOM      2  C   UNL     1     -96.296 149.063 238.385  1.00  0.00     0.006 C 
BRANCH   2   3
ATOM      3  C   UNL     1     -94.772 148.870 238.315  1.00  0.00     0.053 C 
BRANCH   3   4
ATOM      4  C   UNL     1     -94.296 148.678 236.908  1.00  0.00     0.041 C 
ATOM      5  O   UNL     1     -93.436 147.797 236.644  1.00  0.00    -0.550 OA
ATOM      6  O   UNL     1     -94.823 149.453 235.883  1.00  0.00    -0.550 OA
ENDBRANCH   3   4
ENDBRANCH   2   3
ENDBRANCH   1   2
BRANCH   1   7
ATOM      7  C   UNL     1     -98.206 150.697 238.884  1.00  0.00     0.000 C 
BRANCH   7   8
ATOM      8  C   UNL     1     -99.163 150.278 240.015  1.00  0.00    -0.000 C 
BRANCH   8   9
ATOM      9  C   UNL     1     -98.484 149.901 241.347  1.00  0.00    -0.000 C 
BRANCH   9  10
ATOM     10  C   UNL     1     -98.801 148.485 241.861  1.00  0.00    -0.003 C 
ATOM     11  C   UNL     1     -97.891 147.415 241.258  1.00  0.00     0.004 C 
ENDBRANCH   9  10
ENDBRANCH   8   9
ENDBRANCH   7   8
ENDBRANCH   1   7
TORSDOF 7
ENDMDL
MODEL 6
REMARK VINA RESULT:    -2.994      1.983      4.223
REMARK INTER + INTRA:          -4.912
REMARK INTER:                  -4.297
REMARK INTRA:                  -0.614
REMARK UNBOUND:                -0.692
REMARK SMILES CCCCCCCCC(=O)[O-]
REMARK SMILES IDX 6 1 7 2 8 3 9 4 10 5 11 6 5 7 4 8 3 9 2 10 1 11
REMARK H PARENT
REMARK Flexibility Score: inf
ROOT
ATOM      1  C   UNL     1     -94.216 148.759 237.606  1.00  0.00     0.000 C 
ENDROOT
BRANCH   1   2
ATOM      2  C   UNL     1     -94.327 148.437 236.104  1.00  0.00     0.006 C 
BRANCH   2   3
ATOM      3  C   UNL     1     -95.291 149.350 235.328  1.00  0.00     0.053 C 
BRANCH   3   4
ATOM      4  C   UNL     1     -96.647 148.734 235.176  1.00  0.00     0.041 C 
ATOM      5  O   UNL     1     -96.789 147.667 234.524  1.00  0.00    -0.550 OA
ATOM      6  O   UNL     1     -97.750 149.323 235.780  1.00  0.00    -0.550 OA
ENDBRANCH   3   4
ENDBRANCH   2   3
ENDBRANCH   1   2
BRANCH   1   7
ATOM      7  C   UNL     1     -95.033 147.796 238.483  1.00  0.00     0.000 C 
BRANCH   7   8
ATOM      8  C   UNL     1     -96.322 148.434 239.032  1.00  0.00    -0.000 C 
BRANCH   8   9
ATOM      9  C   UNL     1     -96.372 149.974 238.974  1.00  0.00    -0.000 C 
BRANCH   9  10
ATOM     10  C   UNL     1     -97.778 150.586 239.110  1.00  0.00    -0.003 C 
ATOM     11  C   UNL     1     -98.408 150.329 240.479  1.00  0.00     0.004 C 
ENDBRANCH   9  10
ENDBRANCH   8   9
ENDBRANCH   7   8
ENDBRANCH   1   7
TORSDOF 7
ENDMDL
MODEL 7
REMARK VINA RESULT:    -2.913      2.815      4.893
REMARK INTER + INTRA:          -4.798
REMARK INTER:                  -4.312
REMARK INTRA:                  -0.486
REMARK UNBOUND:                -0.692
REMARK SMILES CCCCCCCCC(=O)[O-]
REMARK SMILES IDX 6 1 7 2 8 3 9 4 10 5 11 6 5 7 4 8 3 9 2 10 1 11
REMARK H PARENT
REMARK Flexibility Score: inf
ROOT
ATOM      1  C   UNL     1     -95.498 148.048 239.014  1.00  0.00     0.000 C 
ENDROOT
BRANCH   1   2
ATOM      2  C   UNL     1     -94.610 147.393 237.940  1.00  0.00     0.006 C 
BRANCH   2   3
ATOM      3  C   UNL     1     -93.901 148.389 237.007  1.00  0.00     0.053 C 
BRANCH   3   4
ATOM      4  C   UNL     1     -94.346 148.241 235.585  1.00  0.00     0.041 C 
ATOM      5  O   UNL     1     -93.851 147.343 234.856  1.00  0.00    -0.550 OA
ATOM      6  O   UNL     1     -95.331 149.076 235.074  1.00  0.00    -0.550 OA
ENDBRANCH   3   4
ENDBRANCH   2   3
ENDBRANCH   1   2
BRANCH   1   7
ATOM      7  C   UNL     1     -95.827 149.516 238.698  1.00  0.00     0.000 C 
BRANCH   7   8
ATOM      8  C   UNL     1     -97.280 149.717 238.231  1.00  0.00    -0.000 C 
BRANCH   8   9
ATOM      9  C   UNL     1     -98.126 150.670 239.099  1.00  0.00    -0.000 C 
BRANCH   9  10
ATOM     10  C   UNL     1     -98.314 150.225 240.560  1.00  0.00    -0.003 C 
ATOM     11  C   UNL     1     -98.924 148.829 240.683  1.00  0.00     0.004 C 
ENDBRANCH   9  10
ENDBRANCH   8   9
ENDBRANCH   7   8
ENDBRANCH   1   7
TORSDOF 7
ENDMDL
MODEL 8
REMARK VINA RESULT:    -2.903      3.034      4.760
REMARK INTER + INTRA:          -4.784
REMARK INTER:                  -4.239
REMARK INTRA:                  -0.545
REMARK UNBOUND:                -0.692
REMARK SMILES CCCCCCCCC(=O)[O-]
REMARK SMILES IDX 6 1 7 2 8 3 9 4 10 5 11 6 5 7 4 8 3 9 2 10 1 11
REMARK H PARENT
REMARK Flexibility Score: inf
ROOT
ATOM      1  C   UNL     1     -95.003 149.146 238.554  1.00  0.00     0.000 C 
ENDROOT
BRANCH   1   2
ATOM      2  C   UNL     1     -94.251 148.732 237.276  1.00  0.00     0.006 C 
BRANCH   2   3
ATOM      3  C   UNL     1     -94.959 149.123 235.968  1.00  0.00     0.053 C 
BRANCH   3   4
ATOM      4  C   UNL     1     -94.842 148.055 234.925  1.00  0.00     0.041 C 
ATOM      5  O   UNL     1     -95.757 147.893 234.076  1.00  0.00    -0.550 OA
ATOM      6  O   UNL     1     -93.707 147.257 234.872  1.00  0.00    -0.550 OA
ENDBRANCH   3   4
ENDBRANCH   2   3
ENDBRANCH   1   2
BRANCH   1   7
ATOM      7  C   UNL     1     -96.054 148.110 238.988  1.00  0.00     0.000 C 
BRANCH   7   8
ATOM      8  C   UNL     1     -97.288 148.750 239.648  1.00  0.00    -0.000 C 
BRANCH   8   9
ATOM      9  C   UNL     1     -97.472 150.258 239.380  1.00  0.00    -0.000 C 
BRANCH   9  10
ATOM     10  C   UNL     1     -98.706 150.623 238.537  1.00  0.00    -0.003 C 
ATOM     11  C   UNL     1     -98.702 149.960 237.159  1.00  0.00     0.004 C 
ENDBRANCH   9  10
ENDBRANCH   8   9
ENDBRANCH   7   8
ENDBRANCH   1   7
TORSDOF 7
ENDMDL
