MODEL 1
REMARK VINA RESULT:    -3.903      0.000      0.000
REMARK INTER + INTRA:          -6.115
REMARK INTER:                  -5.728
REMARK INTRA:                  -0.387
REMARK UNBOUND:                -0.387
REMARK SMILES O=C([O-])CCCCCCCC(=O)[O-]
REMARK SMILES IDX 7 1 6 2 5 3 4 4 2 5 1 6 3 7 8 8 9 9 10 10 11 11 12 12 13 13
REMARK H PARENT
REMARK Flexibility Score: inf
ROOT
ATOM      1  C   UNL     1      46.360  26.715   5.667  1.00  0.00     0.000 C 
ENDROOT
BRANCH   1   2
ATOM      2  C   UNL     1      46.011  28.124   6.167  1.00  0.00     0.000 C 
BRANCH   2   3
ATOM      3  C   UNL     1      45.669  28.165   7.667  1.00  0.00     0.006 C 
BRANCH   3   4
ATOM      4  C   UNL     1      45.630  26.780   8.339  1.00  0.00     0.053 C 
BRANCH   4   5
ATOM      5  C   UNL     1      45.784  26.854   9.827  1.00  0.00     0.041 C 
ATOM      6  O   UNL     1      46.152  25.842  10.479  1.00  0.00    -0.550 OA
ATOM      7  O   UNL     1      45.491  28.034  10.499  1.00  0.00    -0.550 OA
ENDBRANCH   4   5
ENDBRANCH   3   4
ENDBRANCH   2   3
ENDBRANCH   1   2
BRANCH   1   8
ATOM      8  C   UNL     1      46.270  26.635   4.138  1.00  0.00     0.000 C 
BRANCH   8   9
ATOM      9  C   UNL     1      44.884  26.158   3.691  1.00  0.00     0.006 C 
BRANCH   9  10
ATOM     10  C   UNL     1      44.106  27.288   3.012  1.00  0.00     0.053 C 
BRANCH  10  11
ATOM     11  C   UNL     1      44.907  27.880   1.897  1.00  0.00     0.041 C 
ATOM     12  O   UNL     1      45.193  27.189   0.884  1.00  0.00    -0.550 OA
ATOM     13  O   UNL     1      45.296  29.213   1.951  1.00  0.00    -0.550 OA
ENDBRANCH  10  11
ENDBRANCH   9  10
ENDBRANCH   8   9
ENDBRANCH   1   8
TORSDOF 8
ENDMDL
MODEL 2
REMARK VINA RESULT:    -3.866      1.016      6.990
REMARK INTER + INTRA:          -6.061
REMARK INTER:                  -5.761
REMARK INTRA:                  -0.300
REMARK UNBOUND:                -0.387
REMARK SMILES O=C([O-])CCCCCCCC(=O)[O-]
REMARK SMILES IDX 7 1 6 2 5 3 4 4 2 5 1 6 3 7 8 8 9 9 10 10 11 11 12 12 13 13
REMARK H PARENT
REMARK Flexibility Score: inf
ROOT
ATOM      1  C   UNL     1      45.983  27.352   6.921  1.00  0.00     0.000 C 
ENDROOT
BRANCH   1   2
ATOM      2  C   UNL     1      46.001  27.723   5.431  1.00  0.00     0.000 C 
BRANCH   2   3
ATOM      3  C   UNL     1      45.951  26.496   4.503  1.00  0.00     0.006 C 
BRANCH   3   4
ATOM      4  C   UNL     1      44.679  26.414   3.640  1.00  0.00     0.053 C 
BRANCH   4   5
ATOM      5  C   UNL     1      44.651  27.443   2.551  1.00  0.00     0.041 C 
ATOM      6  O   UNL     1      44.039  28.531   2.720  1.00  0.00    -0.550 OA
ATOM      7  O   UNL     1      45.275  27.188   1.337  1.00  0.00    -0.550 OA
ENDBRANCH   4   5
ENDBRANCH   3   4
ENDBRANCH   2   3
ENDBRANCH   1   2
BRANCH   1   8
ATOM      8  C   UNL     1      45.507  28.532   7.777  1.00  0.00     0.000 C 
BRANCH   8   9
ATOM      9  C   UNL     1      45.173  28.081   9.203  1.00  0.00     0.006 C 
BRANCH   9  10
ATOM     10  C   UNL     1      45.521  26.604   9.408  1.00  0.00     0.053 C 
BRANCH  10  11
ATOM     11  C   UNL     1      46.425  26.437  10.587  1.00  0.00     0.041 C 
ATOM     12  O   UNL     1      46.890  27.447  11.178  1.00  0.00    -0.550 OA
ATOM     13  O   UNL     1      46.714  25.166  11.068  1.00  0.00    -0.550 OA
ENDBRANCH  10  11
ENDBRANCH   9  10
ENDBRANCH   8   9
ENDBRANCH   1   8
TORSDOF 8
ENDMDL
MODEL 3
REMARK VINA RESULT:    -3.864      1.881      2.732
REMARK INTER + INTRA:          -6.058
REMARK INTER:                  -5.496
REMARK INTRA:                  -0.563
REMARK UNBOUND:                -0.387
REMARK SMILES O=C([O-])CCCCCCCC(=O)[O-]
REMARK SMILES IDX 7 1 6 2 5 3 4 4 2 5 1 6 3 7 8 8 9 9 10 10 11 11 12 12 13 13
REMARK H PARENT
REMARK Flexibility Score: inf
ROOT
ATOM      1  C   UNL     1      46.363  28.748   7.813  1.00  0.00     0.000 C 
ENDROOT
BRANCH   1   2
ATOM      2  C   UNL     1      45.278  28.388   8.838  1.00  0.00     0.000 C 
BRANCH   2   3
ATOM      3  C   UNL     1      45.189  26.877   9.117  1.00  0.00     0.006 C 
BRANCH   3   4
ATOM      4  C   UNL     1      46.550  26.207   9.382  1.00  0.00     0.053 C 
BRANCH   4   5
ATOM      5  C   UNL     1      46.830  26.022  10.842  1.00  0.00     0.041 C 
ATOM      6  O   UNL     1      46.875  24.866  11.338  1.00  0.00    -0.550 OA
ATOM      7  O   UNL     1      47.008  27.129  11.661  1.00  0.00    -0.550 OA
ENDBRANCH   4   5
ENDBRANCH   3   4
ENDBRANCH   2   3
ENDBRANCH   1   2
BRANCH   1   8
ATOM      8  C   UNL     1      45.760  28.935   6.415  1.00  0.00     0.000 C 
BRANCH   8   9
ATOM      9  C   UNL     1      46.406  27.982   5.403  1.00  0.00     0.006 C 
BRANCH   9  10
ATOM     10  C   UNL     1      45.756  26.597   5.458  1.00  0.00     0.053 C 
BRANCH  10  11
ATOM     11  C   UNL     1      45.668  26.004   4.088  1.00  0.00     0.041 C 
ATOM     12  O   UNL     1      44.615  26.130   3.409  1.00  0.00    -0.550 OA
ATOM     13  O   UNL     1      46.767  25.356   3.539  1.00  0.00    -0.550 OA
ENDBRANCH  10  11
ENDBRANCH   9  10
ENDBRANCH   8   9
ENDBRANCH   1   8
TORSDOF 8
ENDMDL
MODEL 4
REMARK VINA RESULT:    -3.792      1.179      1.782
REMARK INTER + INTRA:          -5.952
REMARK INTER:                  -5.445
REMARK INTRA:                  -0.507
REMARK UNBOUND:                -0.387
REMARK SMILES O=C([O-])CCCCCCCC(=O)[O-]
REMARK SMILES IDX 7 1 6 2 5 3 4 4 2 5 1 6 3 7 8 8 9 9 10 10 11 11 12 12 13 13
REMARK H PARENT
REMARK Flexibility Score: inf
ROOT
ATOM      1  C   UNL     1      46.597  28.138   6.663  1.00  0.00     0.000 C 
ENDROOT
BRANCH   1   2
ATOM      2  C   UNL     1      45.506  29.085   7.184  1.00  0.00     0.000 C 
BRANCH   2   3
ATOM      3  C   UNL     1      45.648  29.402   8.684  1.00  0.00     0.006 C 
BRANCH   3   4
ATOM      4  C   UNL     1      44.859  28.452   9.603  1.00  0.00     0.053 C 
BRANCH   4   5
ATOM      5  C   UNL     1      45.725  27.405  10.234  1.00  0.00     0.041 C 
ATOM      6  O   UNL     1      46.521  27.713  11.160  1.00  0.00    -0.550 OA
ATOM      7  O   UNL     1      45.676  26.095   9.778  1.00  0.00    -0.550 OA
ENDBRANCH   4   5
ENDBRANCH   3   4
ENDBRANCH   2   3
ENDBRANCH   1   2
BRANCH   1   8
ATOM      8  C   UNL     1      46.013  26.762   6.319  1.00  0.00     0.000 C 
BRANCH   8   9
ATOM      9  C   UNL     1      46.249  26.416   4.844  1.00  0.00     0.006 C 
BRANCH   9  10
ATOM     10  C   UNL     1      44.936  26.045   4.149  1.00  0.00     0.053 C 
BRANCH  10  11
ATOM     11  C   UNL     1      44.582  27.066   3.116  1.00  0.00     0.041 C 
ATOM     12  O   UNL     1      44.173  26.704   1.981  1.00  0.00    -0.550 OA
ATOM     13  O   UNL     1      44.655  28.419   3.421  1.00  0.00    -0.550 OA
ENDBRANCH  10  11
ENDBRANCH   9  10
ENDBRANCH   8   9
ENDBRANCH   1   8
TORSDOF 8
ENDMDL
MODEL 5
REMARK VINA RESULT:    -3.673      4.202      6.341
REMARK INTER + INTRA:          -5.778
REMARK INTER:                  -5.568
REMARK INTRA:                  -0.210
REMARK UNBOUND:                -0.387
REMARK SMILES O=C([O-])CCCCCCCC(=O)[O-]
REMARK SMILES IDX 7 1 6 2 5 3 4 4 2 5 1 6 3 7 8 8 9 9 10 10 11 11 12 12 13 13
REMARK H PARENT
REMARK Flexibility Score: inf
ROOT
ATOM      1  C   UNL     1      45.346  28.586  -0.481  1.00  0.00     0.000 C 
ENDROOT
BRANCH   1   2
ATOM      2  C   UNL     1      45.743  27.831   0.795  1.00  0.00     0.000 C 
BRANCH   2   3
ATOM      3  C   UNL     1      44.997  28.327   2.048  1.00  0.00     0.006 C 
BRANCH   3   4
ATOM      4  C   UNL     1      44.214  27.227   2.787  1.00  0.00     0.053 C 
BRANCH   4   5
ATOM      5  C   UNL     1      45.059  26.477   3.771  1.00  0.00     0.041 C 
ATOM      6  O   UNL     1      45.148  25.223   3.705  1.00  0.00    -0.550 OA
ATOM      7  O   UNL     1      45.723  27.160   4.781  1.00  0.00    -0.550 OA
ENDBRANCH   4   5
ENDBRANCH   3   4
ENDBRANCH   2   3
ENDBRANCH   1   2
BRANCH   1   8
ATOM      8  C   UNL     1      45.654  27.754  -1.731  1.00  0.00     0.000 C 
BRANCH   8   9
ATOM      9  C   UNL     1      44.835  28.240  -2.933  1.00  0.00     0.006 C 
BRANCH   9  10
ATOM     10  C   UNL     1      43.968  27.113  -3.500  1.00  0.00     0.053 C 
BRANCH  10  11
ATOM     11  C   UNL     1      42.972  27.656  -4.474  1.00  0.00     0.041 C 
ATOM     12  O   UNL     1      43.226  27.658  -5.707  1.00  0.00    -0.550 OA
ATOM     13  O   UNL     1      41.740  28.116  -4.025  1.00  0.00    -0.550 OA
ENDBRANCH  10  11
ENDBRANCH   9  10
ENDBRANCH   8   9
ENDBRANCH   1   8
TORSDOF 8
ENDMDL
MODEL 6
REMARK VINA RESULT:    -3.648      4.216      9.345
REMARK INTER + INTRA:          -5.742
REMARK INTER:                  -5.488
REMARK INTRA:                  -0.254
REMARK UNBOUND:                -0.387
REMARK SMILES O=C([O-])CCCCCCCC(=O)[O-]
REMARK SMILES IDX 7 1 6 2 5 3 4 4 2 5 1 6 3 7 8 8 9 9 10 10 11 11 12 12 13 13
REMARK H PARENT
REMARK Flexibility Score: inf
ROOT
ATOM      1  C   UNL     1      45.623  28.683  -0.390  1.00  0.00     0.000 C 
ENDROOT
BRANCH   1   2
ATOM      2  C   UNL     1      45.287  27.658  -1.483  1.00  0.00     0.000 C 
BRANCH   2   3
ATOM      3  C   UNL     1      44.669  28.298  -2.740  1.00  0.00     0.006 C 
BRANCH   3   4
ATOM      4  C   UNL     1      44.097  27.280  -3.744  1.00  0.00     0.053 C 
BRANCH   4   5
ATOM      5  C   UNL     1      43.023  27.863  -4.611  1.00  0.00     0.041 C 
ATOM      6  O   UNL     1      41.923  28.215  -4.110  1.00  0.00    -0.550 OA
ATOM      7  O   UNL     1      43.226  27.987  -5.979  1.00  0.00    -0.550 OA
ENDBRANCH   4   5
ENDBRANCH   3   4
ENDBRANCH   2   3
ENDBRANCH   1   2
BRANCH   1   8
ATOM      8  C   UNL     1      45.868  27.991   0.956  1.00  0.00     0.000 C 
BRANCH   8   9
ATOM      9  C   UNL     1      44.884  28.490   2.020  1.00  0.00     0.006 C 
BRANCH   9  10
ATOM     10  C   UNL     1      44.119  27.324   2.652  1.00  0.00     0.053 C 
BRANCH  10  11
ATOM     11  C   UNL     1      44.955  26.652   3.694  1.00  0.00     0.041 C 
ATOM     12  O   UNL     1      45.085  25.399   3.691  1.00  0.00    -0.550 OA
ATOM     13  O   UNL     1      45.633  27.411   4.639  1.00  0.00    -0.550 OA
ENDBRANCH  10  11
ENDBRANCH   9  10
ENDBRANCH   8   9
ENDBRANCH   1   8
TORSDOF 8
ENDMDL
MODEL 7
REMARK VINA RESULT:    -3.572      1.711      2.528
REMARK INTER + INTRA:          -5.629
REMARK INTER:                  -5.263
REMARK INTRA:                  -0.366
REMARK UNBOUND:                -0.387
REMARK SMILES O=C([O-])CCCCCCCC(=O)[O-]
REMARK SMILES IDX 7 1 6 2 5 3 4 4 2 5 1 6 3 7 8 8 9 9 10 10 11 11 12 12 13 13
REMARK H PARENT
REMARK Flexibility Score: inf
ROOT
ATOM      1  C   UNL     1      45.902  26.737   7.095  1.00  0.00     0.000 C 
ENDROOT
BRANCH   1   2
ATOM      2  C   UNL     1      46.708  26.392   8.355  1.00  0.00     0.000 C 
BRANCH   2   3
ATOM      3  C   UNL     1      45.940  26.674   9.659  1.00  0.00     0.006 C 
BRANCH   3   4
ATOM      4  C   UNL     1      44.903  27.806   9.543  1.00  0.00     0.053 C 
BRANCH   4   5
ATOM      5  C   UNL     1      45.129  28.901  10.541  1.00  0.00     0.041 C 
ATOM      6  O   UNL     1      46.185  28.929  11.226  1.00  0.00    -0.550 OA
ATOM      7  O   UNL     1      44.156  29.873  10.738  1.00  0.00    -0.550 OA
ENDBRANCH   4   5
ENDBRANCH   3   4
ENDBRANCH   2   3
ENDBRANCH   1   2
BRANCH   1   8
ATOM      8  C   UNL     1      46.593  27.841   6.284  1.00  0.00     0.000 C 
BRANCH   8   9
ATOM      9  C   UNL     1      46.679  27.464   4.801  1.00  0.00     0.006 C 
BRANCH   9  10
ATOM     10  C   UNL     1      45.376  27.801   4.071  1.00  0.00     0.053 C 
BRANCH  10  11
ATOM     11  C   UNL     1      44.787  26.572   3.455  1.00  0.00     0.041 C 
ATOM     12  O   UNL     1      43.970  26.670   2.502  1.00  0.00    -0.550 OA
ATOM     13  O   UNL     1      45.179  25.315   3.898  1.00  0.00    -0.550 OA
ENDBRANCH  10  11
ENDBRANCH   9  10
ENDBRANCH   8   9
ENDBRANCH   1   8
TORSDOF 8
ENDMDL
MODEL 8
REMARK VINA RESULT:    -3.532      2.034      6.312
REMARK INTER + INTRA:          -5.571
REMARK INTER:                  -5.229
REMARK INTRA:                  -0.343
REMARK UNBOUND:                -0.387
REMARK SMILES O=C([O-])CCCCCCCC(=O)[O-]
REMARK SMILES IDX 7 1 6 2 5 3 4 4 2 5 1 6 3 7 8 8 9 9 10 10 11 11 12 12 13 13
REMARK H PARENT
REMARK Flexibility Score: inf
ROOT
ATOM      1  C   UNL     1      45.932  26.979   7.141  1.00  0.00     0.000 C 
ENDROOT
BRANCH   1   2
ATOM      2  C   UNL     1      47.120  26.713   6.205  1.00  0.00     0.000 C 
BRANCH   2   3
ATOM      3  C   UNL     1      46.988  27.423   4.845  1.00  0.00     0.006 C 
BRANCH   3   4
ATOM      4  C   UNL     1      45.534  27.682   4.413  1.00  0.00     0.053 C 
BRANCH   4   5
ATOM      5  C   UNL     1      44.977  26.580   3.563  1.00  0.00     0.041 C 
ATOM      6  O   UNL     1      44.293  26.849   2.541  1.00  0.00    -0.550 OA
ATOM      7  O   UNL     1      45.188  25.254   3.919  1.00  0.00    -0.550 OA
ENDBRANCH   4   5
ENDBRANCH   3   4
ENDBRANCH   2   3
ENDBRANCH   1   2
BRANCH   1   8
ATOM      8  C   UNL     1      46.223  26.470   8.558  1.00  0.00     0.000 C 
BRANCH   8   9
ATOM      9  C   UNL     1      46.207  27.620   9.571  1.00  0.00     0.006 C 
BRANCH   9  10
ATOM     10  C   UNL     1      44.773  27.989   9.962  1.00  0.00     0.053 C 
BRANCH  10  11
ATOM     11  C   UNL     1      44.559  29.464   9.836  1.00  0.00     0.041 C 
ATOM     12  O   UNL     1      44.087  30.120  10.802  1.00  0.00    -0.550 OA
ATOM     13  O   UNL     1      44.927  30.124   8.671  1.00  0.00    -0.550 OA
ENDBRANCH  10  11
ENDBRANCH   9  10
ENDBRANCH   8   9
ENDBRANCH   1   8
TORSDOF 8
ENDMDL
MODEL 9
REMARK VINA RESULT:    -3.452      1.977      3.088
REMARK INTER + INTRA:          -5.453
REMARK INTER:                  -5.181
REMARK INTRA:                  -0.272
REMARK UNBOUND:                -0.387
REMARK SMILES O=C([O-])CCCCCCCC(=O)[O-]
REMARK SMILES IDX 7 1 6 2 5 3 4 4 2 5 1 6 3 7 8 8 9 9 10 10 11 11 12 12 13 13
REMARK H PARENT
REMARK Flexibility Score: inf
ROOT
ATOM      1  C   UNL     1      44.109  26.871   3.006  1.00  0.00     0.000 C 
ENDROOT
BRANCH   1   2
ATOM      2  C   UNL     1      44.994  26.161   4.041  1.00  0.00     0.000 C 
BRANCH   2   3
ATOM      3  C   UNL     1      45.829  27.136   4.892  1.00  0.00     0.006 C 
BRANCH   3   4
ATOM      4  C   UNL     1      46.420  26.506   6.166  1.00  0.00     0.053 C 
BRANCH   4   5
ATOM      5  C   UNL     1      45.889  27.131   7.420  1.00  0.00     0.041 C 
ATOM      6  O   UNL     1      45.793  26.453   8.476  1.00  0.00    -0.550 OA
ATOM      7  O   UNL     1      45.471  28.456   7.414  1.00  0.00    -0.550 OA
ENDBRANCH   4   5
ENDBRANCH   3   4
ENDBRANCH   2   3
ENDBRANCH   1   2
BRANCH   1   8
ATOM      8  C   UNL     1      44.790  28.139   2.477  1.00  0.00     0.000 C 
BRANCH   8   9
ATOM      9  C   UNL     1      45.705  27.819   1.289  1.00  0.00     0.006 C 
BRANCH   9  10
ATOM     10  C   UNL     1      45.562  28.870   0.186  1.00  0.00     0.053 C 
BRANCH  10  11
ATOM     11  C   UNL     1      45.712  28.240  -1.162  1.00  0.00     0.041 C 
ATOM     12  O   UNL     1      46.417  28.794  -2.046  1.00  0.00    -0.550 OA
ATOM     13  O   UNL     1      45.115  27.014  -1.427  1.00  0.00    -0.550 OA
ENDBRANCH  10  11
ENDBRANCH   9  10
ENDBRANCH   8   9
ENDBRANCH   1   8
TORSDOF 8
ENDMDL
