MODEL 1
REMARK VINA RESULT:    -4.214      0.000      0.000
REMARK INTER + INTRA:          -3.834
REMARK INTER:                  -4.460
REMARK INTRA:                   0.627
REMARK UNBOUND:                 0.627
REMARK SMILES CC1=C[C@H]2C(=C(C)CC[C@H]2C(C)C)CC1
REMARK SMILES IDX 1 1 2 2 3 3 4 4 10 5 9 6 8 7 6 8 5 9 14 10 15 11 7 12 11 13
REMARK SMILES IDX 12 14 13 15
REMARK H PARENT
REMARK Flexibility Score: inf
ROOT
ATOM      1  C   UNL     1     153.143 138.336 119.845  1.00  0.00     0.039 C 
ATOM      2  C   UNL     1     153.947 138.255 121.113  1.00  0.00    -0.076 C 
ATOM      3  C   UNL     1     153.826 137.185 121.917  1.00  0.00    -0.020 C 
ATOM      4  C   UNL     1     154.607 137.094 123.213  1.00  0.00     0.041 C 
ATOM      5  C   UNL     1     154.030 136.026 124.178  1.00  0.00     0.003 C 
ATOM      6  C   UNL     1     154.902 136.016 125.449  1.00  0.00     0.009 C 
ATOM      7  C   UNL     1     154.947 137.373 126.155  1.00  0.00     0.031 C 
ATOM      8  C   UNL     1     154.970 138.574 125.225  1.00  0.00    -0.073 C 
ATOM      9  C   UNL     1     154.776 138.463 123.877  1.00  0.00    -0.064 C 
ATOM     10  C   UNL     1     154.773 139.702 122.986  1.00  0.00     0.036 C 
ATOM     11  C   UNL     1     154.899 139.358 121.498  1.00  0.00     0.035 C 
ATOM     12  C   UNL     1     155.125 139.926 125.882  1.00  0.00     0.039 C 
ENDROOT
BRANCH   5  13
ATOM     13  C   UNL     1     152.471 136.075 124.413  1.00  0.00    -0.013 C 
ATOM     14  C   UNL     1     151.847 137.393 123.932  1.00  0.00     0.007 C 
ATOM     15  C   UNL     1     151.666 134.882 123.869  1.00  0.00     0.007 C 
ENDBRANCH   5  13
TORSDOF 1
ENDMDL
MODEL 2
REMARK VINA RESULT:    -3.989     14.449     16.917
REMARK INTER + INTRA:          -3.596
REMARK INTER:                  -3.654
REMARK INTRA:                   0.058
REMARK UNBOUND:                 0.627
REMARK SMILES CC1=C[C@H]2C(=C(C)CC[C@H]2C(C)C)CC1
REMARK SMILES IDX 1 1 2 2 3 3 4 4 10 5 9 6 8 7 6 8 5 9 14 10 15 11 7 12 11 13
REMARK SMILES IDX 12 14 13 15
REMARK H PARENT
REMARK Flexibility Score: inf
ROOT
ATOM      1  C   UNL     1     135.621 139.944 125.644  1.00  0.00     0.039 C 
ATOM      2  C   UNL     1     135.875 139.002 124.501  1.00  0.00    -0.076 C 
ATOM      3  C   UNL     1     136.475 137.821 124.725  1.00  0.00    -0.020 C 
ATOM      4  C   UNL     1     136.765 136.866 123.584  1.00  0.00     0.041 C 
ATOM      5  C   UNL     1     137.812 135.787 123.966  1.00  0.00     0.003 C 
ATOM      6  C   UNL     1     138.019 134.875 122.741  1.00  0.00     0.009 C 
ATOM      7  C   UNL     1     138.497 135.636 121.502  1.00  0.00     0.031 C 
ATOM      8  C   UNL     1     137.888 137.017 121.329  1.00  0.00    -0.073 C 
ATOM      9  C   UNL     1     137.123 137.609 122.294  1.00  0.00    -0.064 C 
ATOM     10  C   UNL     1     136.560 139.012 122.089  1.00  0.00     0.036 C 
ATOM     11  C   UNL     1     135.458 139.358 123.097  1.00  0.00     0.035 C 
ATOM     12  C   UNL     1     138.251 137.753 120.060  1.00  0.00     0.039 C 
ENDROOT
BRANCH   5  13
ATOM     13  C   UNL     1     139.125 136.313 124.663  1.00  0.00    -0.013 C 
ATOM     14  C   UNL     1     139.390 135.624 126.010  1.00  0.00     0.007 C 
ATOM     15  C   UNL     1     140.402 136.298 123.805  1.00  0.00     0.007 C 
ENDBRANCH   5  13
TORSDOF 1
ENDMDL
MODEL 3
REMARK VINA RESULT:    -3.980     14.515     16.582
REMARK INTER + INTRA:          -3.586
REMARK INTER:                  -4.343
REMARK INTRA:                   0.757
REMARK UNBOUND:                 0.627
REMARK SMILES CC1=C[C@H]2C(=C(C)CC[C@H]2C(C)C)CC1
REMARK SMILES IDX 1 1 2 2 3 3 4 4 10 5 9 6 8 7 6 8 5 9 14 10 15 11 7 12 11 13
REMARK SMILES IDX 12 14 13 15
REMARK H PARENT
REMARK Flexibility Score: inf
ROOT
ATOM      1  C   UNL     1     138.409 137.502 119.858  1.00  0.00     0.039 C 
ATOM      2  C   UNL     1     138.297 136.689 121.117  1.00  0.00    -0.076 C 
ATOM      3  C   UNL     1     137.225 136.831 121.914  1.00  0.00    -0.020 C 
ATOM      4  C   UNL     1     137.103 136.041 123.202  1.00  0.00     0.041 C 
ATOM      5  C   UNL     1     136.043 136.638 124.165  1.00  0.00     0.003 C 
ATOM      6  C   UNL     1     136.000 135.755 125.427  1.00  0.00     0.009 C 
ATOM      7  C   UNL     1     137.350 135.667 126.143  1.00  0.00     0.031 C 
ATOM      8  C   UNL     1     138.557 135.620 125.221  1.00  0.00    -0.073 C 
ATOM      9  C   UNL     1     138.462 135.829 123.874  1.00  0.00    -0.064 C 
ATOM     10  C   UNL     1     139.707 135.807 122.993  1.00  0.00     0.036 C 
ATOM     11  C   UNL     1     139.371 135.704 121.501  1.00  0.00     0.035 C 
ATOM     12  C   UNL     1     139.899 135.422 125.887  1.00  0.00     0.039 C 
ENDROOT
BRANCH   5  13
ATOM     13  C   UNL     1     136.132 138.192 124.415  1.00  0.00    -0.013 C 
ATOM     14  C   UNL     1     137.367 138.823 123.753  1.00  0.00     0.007 C 
ATOM     15  C   UNL     1     134.875 139.008 124.067  1.00  0.00     0.007 C 
ENDBRANCH   5  13
TORSDOF 1
ENDMDL
MODEL 4
REMARK VINA RESULT:    -3.691     22.552     23.496
REMARK INTER + INTRA:          -3.280
REMARK INTER:                  -3.296
REMARK INTRA:                   0.016
REMARK UNBOUND:                 0.627
REMARK SMILES CC1=C[C@H]2C(=C(C)CC[C@H]2C(C)C)CC1
REMARK SMILES IDX 1 1 2 2 3 3 4 4 10 5 9 6 8 7 6 8 5 9 14 10 15 11 7 12 11 13
REMARK SMILES IDX 12 14 13 15
REMARK H PARENT
REMARK Flexibility Score: inf
ROOT
ATOM      1  C   UNL     1     137.133 152.111 119.810  1.00  0.00     0.039 C 
ATOM      2  C   UNL     1     136.447 152.311 121.132  1.00  0.00    -0.076 C 
ATOM      3  C   UNL     1     136.742 153.384 121.885  1.00  0.00    -0.020 C 
ATOM      4  C   UNL     1     136.082 153.593 123.234  1.00  0.00     0.041 C 
ATOM      5  C   UNL     1     136.843 154.620 124.113  1.00  0.00     0.003 C 
ATOM      6  C   UNL     1     136.081 154.758 125.446  1.00  0.00     0.009 C 
ATOM      7  C   UNL     1     135.954 153.434 126.202  1.00  0.00     0.031 C 
ATOM      8  C   UNL     1     135.732 152.216 125.320  1.00  0.00    -0.073 C 
ATOM      9  C   UNL     1     135.826 152.268 123.957  1.00  0.00    -0.064 C 
ATOM     10  C   UNL     1     135.629 151.012 123.115  1.00  0.00     0.036 C 
ATOM     11  C   UNL     1     135.420 151.326 121.629  1.00  0.00     0.035 C 
ATOM     12  C   UNL     1     135.491 150.907 126.035  1.00  0.00     0.039 C 
ENDROOT
BRANCH   5  13
ATOM     13  C   UNL     1     138.401 154.413 124.227  1.00  0.00    -0.013 C 
ATOM     14  C   UNL     1     139.173 155.124 123.105  1.00  0.00     0.007 C 
ATOM     15  C   UNL     1     139.031 154.746 125.591  1.00  0.00     0.007 C 
ENDBRANCH   5  13
TORSDOF 1
ENDMDL
MODEL 5
REMARK VINA RESULT:    -3.532     21.843     23.061
REMARK INTER + INTRA:          -3.112
REMARK INTER:                  -3.195
REMARK INTRA:                   0.083
REMARK UNBOUND:                 0.627
REMARK SMILES CC1=C[C@H]2C(=C(C)CC[C@H]2C(C)C)CC1
REMARK SMILES IDX 1 1 2 2 3 3 4 4 10 5 9 6 8 7 6 8 5 9 14 10 15 11 7 12 11 13
REMARK SMILES IDX 12 14 13 15
REMARK H PARENT
REMARK Flexibility Score: inf
ROOT
ATOM      1  C   UNL     1     140.068 154.801 125.881  1.00  0.00     0.039 C 
ATOM      2  C   UNL     1     139.099 154.641 124.742  1.00  0.00    -0.076 C 
ATOM      3  C   UNL     1     137.903 154.068 124.955  1.00  0.00    -0.020 C 
ATOM      4  C   UNL     1     136.921 153.872 123.817  1.00  0.00     0.041 C 
ATOM      5  C   UNL     1     135.814 152.840 124.160  1.00  0.00     0.003 C 
ATOM      6  C   UNL     1     134.875 152.731 122.943  1.00  0.00     0.009 C 
ATOM      7  C   UNL     1     135.599 152.299 121.666  1.00  0.00     0.031 C 
ATOM      8  C   UNL     1     136.996 152.873 121.501  1.00  0.00    -0.073 C 
ATOM      9  C   UNL     1     137.629 153.564 122.496  1.00  0.00    -0.064 C 
ATOM     10  C   UNL     1     139.047 154.092 122.297  1.00  0.00     0.036 C 
ATOM     11  C   UNL     1     139.445 155.125 123.357  1.00  0.00     0.035 C 
ATOM     12  C   UNL     1     137.699 152.559 120.201  1.00  0.00     0.039 C 
ENDROOT
BRANCH   5  13
ATOM     13  C   UNL     1     136.308 151.475 124.775  1.00  0.00    -0.013 C 
ATOM     14  C   UNL     1     135.571 151.113 126.073  1.00  0.00     0.007 C 
ATOM     15  C   UNL     1     136.318 150.267 123.822  1.00  0.00     0.007 C 
ENDBRANCH   5  13
TORSDOF 1
ENDMDL
MODEL 6
REMARK VINA RESULT:    -2.181     14.385     16.750
REMARK INTER + INTRA:          -1.681
REMARK INTER:                  -2.436
REMARK INTRA:                   0.754
REMARK UNBOUND:                 0.627
REMARK SMILES CC1=C[C@H]2C(=C(C)CC[C@H]2C(C)C)CC1
REMARK SMILES IDX 1 1 2 2 3 3 4 4 10 5 9 6 8 7 6 8 5 9 14 10 15 11 7 12 11 13
REMARK SMILES IDX 12 14 13 15
REMARK H PARENT
REMARK Flexibility Score: inf
ROOT
ATOM      1  C   UNL     1     134.875 139.669 122.608  1.00  0.00     0.039 C 
ATOM      2  C   UNL     1     135.904 138.959 123.444  1.00  0.00    -0.076 C 
ATOM      3  C   UNL     1     137.066 138.572 122.891  1.00  0.00    -0.020 C 
ATOM      4  C   UNL     1     138.107 137.832 123.707  1.00  0.00     0.041 C 
ATOM      5  C   UNL     1     139.156 137.114 122.818  1.00  0.00     0.003 C 
ATOM      6  C   UNL     1     140.161 136.408 123.749  1.00  0.00     0.009 C 
ATOM      7  C   UNL     1     139.501 135.391 124.682  1.00  0.00     0.031 C 
ATOM      8  C   UNL     1     138.135 135.803 125.207  1.00  0.00    -0.073 C 
ATOM      9  C   UNL     1     137.468 136.899 124.740  1.00  0.00    -0.064 C 
ATOM     10  C   UNL     1     136.083 137.253 125.272  1.00  0.00     0.036 C 
ATOM     11  C   UNL     1     135.657 138.680 124.904  1.00  0.00     0.035 C 
ATOM     12  C   UNL     1     137.500 134.875 126.218  1.00  0.00     0.039 C 
ENDROOT
BRANCH   5  13
ATOM     13  C   UNL     1     138.582 136.243 121.636  1.00  0.00    -0.013 C 
ATOM     14  C   UNL     1     137.397 135.368 122.073  1.00  0.00     0.007 C 
ATOM     15  C   UNL     1     138.227 137.001 120.345  1.00  0.00     0.007 C 
ENDBRANCH   5  13
TORSDOF 1
ENDMDL
MODEL 7
REMARK VINA RESULT:    -1.893     21.691     23.398
REMARK INTER + INTRA:          -1.377
REMARK INTER:                  -1.602
REMARK INTRA:                   0.225
REMARK UNBOUND:                 0.627
REMARK SMILES CC1=C[C@H]2C(=C(C)CC[C@H]2C(C)C)CC1
REMARK SMILES IDX 1 1 2 2 3 3 4 4 10 5 9 6 8 7 6 8 5 9 14 10 15 11 7 12 11 13
REMARK SMILES IDX 12 14 13 15
REMARK H PARENT
REMARK Flexibility Score: inf
ROOT
ATOM      1  C   UNL     1     137.697 148.812 125.259  1.00  0.00     0.039 C 
ATOM      2  C   UNL     1     136.701 149.883 124.911  1.00  0.00    -0.076 C 
ATOM      3  C   UNL     1     136.633 150.353 123.654  1.00  0.00    -0.020 C 
ATOM      4  C   UNL     1     135.655 151.452 123.287  1.00  0.00     0.041 C 
ATOM      5  C   UNL     1     136.012 152.137 121.942  1.00  0.00     0.003 C 
ATOM      6  C   UNL     1     134.952 153.222 121.668  1.00  0.00     0.009 C 
ATOM      7  C   UNL     1     134.875 154.276 122.774  1.00  0.00     0.031 C 
ATOM      8  C   UNL     1     135.067 153.737 124.182  1.00  0.00    -0.073 C 
ATOM      9  C   UNL     1     135.463 152.452 124.429  1.00  0.00    -0.064 C 
ATOM     10  C   UNL     1     135.676 151.965 125.859  1.00  0.00     0.036 C 
ATOM     11  C   UNL     1     135.765 150.438 125.954  1.00  0.00     0.035 C 
ATOM     12  C   UNL     1     134.888 154.729 125.308  1.00  0.00     0.039 C 
ENDROOT
BRANCH   5  13
ATOM     13  C   UNL     1     137.514 152.582 121.769  1.00  0.00    -0.013 C 
ATOM     14  C   UNL     1     137.861 152.928 120.313  1.00  0.00     0.007 C 
ATOM     15  C   UNL     1     138.002 153.701 122.706  1.00  0.00     0.007 C 
ENDBRANCH   5  13
TORSDOF 1
ENDMDL
MODEL 8
REMARK VINA RESULT:    -1.766     13.354     16.034
REMARK INTER + INTRA:          -1.242
REMARK INTER:                  -1.462
REMARK INTRA:                   0.219
REMARK UNBOUND:                 0.627
REMARK SMILES CC1=C[C@H]2C(=C(C)CC[C@H]2C(C)C)CC1
REMARK SMILES IDX 1 1 2 2 3 3 4 4 10 5 9 6 8 7 6 8 5 9 14 10 15 11 7 12 11 13
REMARK SMILES IDX 12 14 13 15
REMARK H PARENT
REMARK Flexibility Score: inf
ROOT
ATOM      1  C   UNL     1     141.948 137.625 125.314  1.00  0.00     0.039 C 
ATOM      2  C   UNL     1     140.874 136.643 124.937  1.00  0.00    -0.076 C 
ATOM      3  C   UNL     1     140.426 136.592 123.672  1.00  0.00    -0.020 C 
ATOM      4  C   UNL     1     139.324 135.629 123.275  1.00  0.00     0.041 C 
ATOM      5  C   UNL     1     138.667 136.006 121.921  1.00  0.00     0.003 C 
ATOM      6  C   UNL     1     137.576 134.960 121.618  1.00  0.00     0.009 C 
ATOM      7  C   UNL     1     136.502 134.882 122.704  1.00  0.00     0.031 C 
ATOM      8  C   UNL     1     137.018 135.055 124.123  1.00  0.00    -0.073 C 
ATOM      9  C   UNL     1     138.301 135.435 124.397  1.00  0.00    -0.064 C 
ATOM     10  C   UNL     1     138.765 135.630 125.838  1.00  0.00     0.036 C 
ATOM     11  C   UNL     1     140.291 135.702 125.961  1.00  0.00     0.035 C 
ATOM     12  C   UNL     1     136.004 134.875 125.230  1.00  0.00     0.039 C 
ENDROOT
BRANCH   5  13
ATOM     13  C   UNL     1     138.240 137.514 121.756  1.00  0.00    -0.013 C 
ATOM     14  C   UNL     1     137.874 137.866 120.306  1.00  0.00     0.007 C 
ATOM     15  C   UNL     1     137.143 138.017 122.711  1.00  0.00     0.007 C 
ENDBRANCH   5  13
TORSDOF 1
ENDMDL
