MODEL 1
REMARK VINA RESULT:    -5.186      0.000      0.000
REMARK INTER + INTRA:          -8.554
REMARK INTER:                  -7.915
REMARK INTRA:                  -0.639
REMARK UNBOUND:                -0.639
REMARK SMILES CC1=CCC[C@H](C)C(=O)C[C@H](C(C)C)C(=O)C1
REMARK SMILES IDX 8 1 9 2 6 3 7 4 5 5 4 6 3 7 2 8 1 9 10 11 11 12 15 13 16 14
REMARK SMILES IDX 17 15 12 17 13 18 14 19
REMARK H PARENT
REMARK Flexibility Score: 70.00
ROOT
ATOM      1  C   UNL     1      -7.203  29.999  23.205  1.00  0.00     0.136 C 
ATOM      2  O   UNL     1      -6.181  29.400  23.510  1.00  0.00    -0.299 OA
ENDROOT
BRANCH   1   3
ATOM      3  C   UNL     1      -8.559  29.311  23.319  1.00  0.00     0.053 C 
ATOM      4  C   UNL     1      -8.651  28.052  22.439  1.00  0.00     0.016 C 
BRANCH   3   5
ATOM      5  C   UNL     1      -8.936  28.997  24.785  1.00  0.00     0.015 C 
BRANCH   5   6
ATOM      6  C   UNL     1      -9.863  30.055  25.412  1.00  0.00     0.028 C 
BRANCH   6   7
ATOM      7  C   UNL     1      -9.130  31.064  26.262  1.00  0.00    -0.028 C 
ATOM      8  C   UNL     1      -8.897  32.366  25.952  1.00  0.00    -0.070 CG0
ATOM      9  C   UNL     1      -8.032  33.155  26.907  1.00  0.00     0.039 C 
ATOM     10  G   UNL     1      -9.506  33.101  24.760  1.00  0.00     0.000 G0
ENDBRANCH   6   7
ENDBRANCH   5   6
ENDBRANCH   3   5
ENDBRANCH   1   3
BRANCH   1  11
ATOM     11  C   UNL     1      -7.102  31.409  22.674  1.00  0.00     0.087 C 
BRANCH  11  12
ATOM     12  C   UNL     1      -8.463  32.151  22.537  1.00  0.00     0.066 C 
BRANCH  12  13
ATOM     13  C   UNL     1      -8.582  33.273  23.569  1.00  0.00     0.140 C 
ATOM     14  O   UNL     1      -7.989  34.331  23.405  1.00  0.00    -0.299 OA
BRANCH  13  15
ATOM     15  C   UNL     1      -9.496  33.117  24.758  1.00  0.00     0.106 CG0
ATOM     16  G   UNL     1      -8.895  32.358  25.939  1.00  0.00     0.000 G0
ENDBRANCH  13  15
ENDBRANCH  12  13
BRANCH  12  17
ATOM     17  C   UNL     1      -8.804  32.638  21.085  1.00  0.00    -0.006 C 
ATOM     18  C   UNL     1      -7.554  32.978  20.252  1.00  0.00     0.008 C 
ATOM     19  C   UNL     1      -9.617  31.569  20.327  1.00  0.00     0.008 C 
ENDBRANCH  12  17
ENDBRANCH  11  12
ENDBRANCH   1  11
TORSDOF 1
ENDMDL
MODEL 2
REMARK VINA RESULT:    -4.942      1.862      4.105
REMARK INTER + INTRA:          -8.181
REMARK INTER:                  -7.891
REMARK INTRA:                  -0.290
REMARK UNBOUND:                -0.639
REMARK SMILES CC1=CCC[C@H](C)C(=O)C[C@H](C(C)C)C(=O)C1
REMARK SMILES IDX 8 1 9 2 6 3 7 4 5 5 4 6 3 7 2 8 1 9 10 11 11 12 15 13 16 14
REMARK SMILES IDX 17 15 12 17 13 18 14 19
REMARK H PARENT
REMARK Flexibility Score: 70.00
ROOT
ATOM      1  C   UNL     1      -7.968  33.816  22.099  1.00  0.00     0.136 C 
ATOM      2  O   UNL     1      -8.194  34.978  21.792  1.00  0.00    -0.299 OA
ENDROOT
BRANCH   1   3
ATOM      3  C   UNL     1      -8.008  32.720  21.039  1.00  0.00     0.053 C 
ATOM      4  C   UNL     1      -7.255  33.118  19.758  1.00  0.00     0.016 C 
BRANCH   3   5
ATOM      5  C   UNL     1      -7.510  31.361  21.582  1.00  0.00     0.015 C 
BRANCH   5   6
ATOM      6  C   UNL     1      -8.652  30.375  21.887  1.00  0.00     0.028 C 
BRANCH   6   7
ATOM      7  C   UNL     1      -8.512  29.694  23.227  1.00  0.00    -0.028 C 
ATOM      8  C   UNL     1      -8.978  30.150  24.419  1.00  0.00    -0.070 CG0
ATOM      9  C   UNL     1      -8.610  29.355  25.650  1.00  0.00     0.039 C 
ATOM     10  G   UNL     1      -9.903  31.353  24.591  1.00  0.00     0.000 G0
ENDBRANCH   6   7
ENDBRANCH   5   6
ENDBRANCH   3   5
ENDBRANCH   1   3
BRANCH   1  11
ATOM     11  C   UNL     1      -7.693  33.474  23.544  1.00  0.00     0.087 C 
BRANCH  11  12
ATOM     12  C   UNL     1      -8.864  33.790  24.520  1.00  0.00     0.066 C 
BRANCH  12  13
ATOM     13  C   UNL     1      -9.270  32.546  25.310  1.00  0.00     0.140 C 
ATOM     14  O   UNL     1      -9.155  32.520  26.528  1.00  0.00    -0.299 OA
BRANCH  13  15
ATOM     15  C   UNL     1      -9.893  31.368  24.602  1.00  0.00     0.106 CG0
ATOM     16  G   UNL     1      -8.970  30.165  24.417  1.00  0.00     0.000 G0
ENDBRANCH  13  15
ENDBRANCH  12  13
BRANCH  12  17
ATOM     17  C   UNL     1      -8.629  35.034  25.447  1.00  0.00    -0.006 C 
ATOM     18  C   UNL     1      -7.141  35.397  25.608  1.00  0.00     0.008 C 
ATOM     19  C   UNL     1      -9.374  36.269  24.903  1.00  0.00     0.008 C 
ENDBRANCH  12  17
ENDBRANCH  11  12
ENDBRANCH   1  11
TORSDOF 1
ENDMDL
MODEL 3
REMARK VINA RESULT:    -4.814      1.475      3.824
REMARK INTER + INTRA:          -7.986
REMARK INTER:                  -7.980
REMARK INTRA:                  -0.006
REMARK UNBOUND:                -0.639
REMARK SMILES CC1=CCC[C@H](C)C(=O)C[C@H](C(C)C)C(=O)C1
REMARK SMILES IDX 8 1 9 2 6 3 7 4 5 5 4 6 3 7 2 8 1 9 10 11 11 12 15 13 16 14
REMARK SMILES IDX 17 15 12 17 13 18 14 19
REMARK H PARENT
REMARK Flexibility Score: 70.00
ROOT
ATOM      1  C   UNL     1      -7.692  34.567  23.760  1.00  0.00     0.136 C 
ATOM      2  O   UNL     1      -6.735  34.930  23.091  1.00  0.00    -0.299 OA
ENDROOT
BRANCH   1   3
ATOM      3  C   UNL     1      -7.960  35.196  25.123  1.00  0.00     0.053 C 
ATOM      4  C   UNL     1      -9.380  35.779  25.229  1.00  0.00     0.016 C 
BRANCH   3   5
ATOM      5  C   UNL     1      -7.668  34.221  26.287  1.00  0.00     0.015 C 
BRANCH   5   6
ATOM      6  C   UNL     1      -8.841  33.273  26.593  1.00  0.00     0.028 C 
BRANCH   6   7
ATOM      7  C   UNL     1      -8.409  31.848  26.844  1.00  0.00    -0.028 C 
ATOM      8  C   UNL     1      -8.553  30.797  25.995  1.00  0.00    -0.070 CG0
ATOM      9  C   UNL     1      -8.155  29.436  26.514  1.00  0.00     0.039 C 
ATOM     10  G   UNL     1      -9.010  30.907  24.541  1.00  0.00     0.000 G0
ENDBRANCH   6   7
ENDBRANCH   5   6
ENDBRANCH   3   5
ENDBRANCH   1   3
BRANCH   1  11
ATOM     11  C   UNL     1      -8.578  33.458  23.241  1.00  0.00     0.087 C 
BRANCH  11  12
ATOM     12  C   UNL     1      -7.812  32.255  22.617  1.00  0.00     0.066 C 
BRANCH  12  13
ATOM     13  C   UNL     1      -7.910  31.020  23.513  1.00  0.00     0.140 C 
ATOM     14  O   UNL     1      -7.060  30.141  23.453  1.00  0.00    -0.299 OA
BRANCH  13  15
ATOM     15  C   UNL     1      -9.011  30.912  24.538  1.00  0.00     0.106 CG0
ATOM     16  G   UNL     1      -8.536  30.814  25.986  1.00  0.00     0.000 G0
ENDBRANCH  13  15
ENDBRANCH  12  13
BRANCH  12  17
ATOM     17  C   UNL     1      -8.186  31.941  21.126  1.00  0.00    -0.006 C 
ATOM     18  C   UNL     1      -9.705  31.913  20.875  1.00  0.00     0.008 C 
ATOM     19  C   UNL     1      -7.555  32.978  20.175  1.00  0.00     0.008 C 
ENDBRANCH  12  17
ENDBRANCH  11  12
ENDBRANCH   1  11
TORSDOF 1
ENDMDL
MODEL 4
REMARK VINA RESULT:    -4.788      2.155      4.932
REMARK INTER + INTRA:          -7.946
REMARK INTER:                  -7.954
REMARK INTRA:                   0.007
REMARK UNBOUND:                -0.639
REMARK SMILES CC1=CCC[C@H](C)C(=O)C[C@H](C(C)C)C(=O)C1
REMARK SMILES IDX 8 1 9 2 6 3 7 4 5 5 4 6 3 7 2 8 1 9 10 11 11 12 15 13 16 14
REMARK SMILES IDX 17 15 12 17 13 18 14 19
REMARK H PARENT
REMARK Flexibility Score: 70.00
ROOT
ATOM      1  C   UNL     1      -8.758  32.661  25.000  1.00  0.00     0.136 C 
ATOM      2  O   UNL     1      -9.553  32.095  25.737  1.00  0.00    -0.299 OA
ENDROOT
BRANCH   1   3
ATOM      3  C   UNL     1      -8.547  34.167  25.110  1.00  0.00     0.053 C 
ATOM      4  C   UNL     1      -8.207  34.606  26.544  1.00  0.00     0.016 C 
BRANCH   3   5
ATOM      5  C   UNL     1      -7.496  34.687  24.102  1.00  0.00     0.015 C 
BRANCH   5   6
ATOM      6  C   UNL     1      -8.117  35.220  22.799  1.00  0.00     0.028 C 
BRANCH   6   7
ATOM      7  C   UNL     1      -7.568  34.557  21.559  1.00  0.00    -0.028 C 
ATOM      8  C   UNL     1      -8.024  33.416  20.981  1.00  0.00    -0.070 CG0
ATOM      9  C   UNL     1      -7.236  32.874  19.812  1.00  0.00     0.039 C 
ATOM     10  G   UNL     1      -9.310  32.692  21.377  1.00  0.00     0.000 G0
ENDBRANCH   6   7
ENDBRANCH   5   6
ENDBRANCH   3   5
ENDBRANCH   1   3
BRANCH   1  11
ATOM     11  C   UNL     1      -8.023  31.859  23.951  1.00  0.00     0.087 C 
BRANCH  11  12
ATOM     12  C   UNL     1      -8.899  30.811  23.204  1.00  0.00     0.066 C 
BRANCH  12  13
ATOM     13  C   UNL     1      -9.125  31.224  21.750  1.00  0.00     0.140 C 
ATOM     14  O   UNL     1      -9.232  30.376  20.874  1.00  0.00    -0.299 OA
BRANCH  13  15
ATOM     15  C   UNL     1      -9.301  32.679  21.393  1.00  0.00     0.106 CG0
ATOM     16  G   UNL     1      -8.021  33.399  20.974  1.00  0.00     0.000 G0
ENDBRANCH  13  15
ENDBRANCH  12  13
BRANCH  12  17
ATOM     17  C   UNL     1      -8.401  29.328  23.332  1.00  0.00    -0.006 C 
ATOM     18  C   UNL     1      -6.903  29.163  23.018  1.00  0.00     0.008 C 
ATOM     19  C   UNL     1      -8.663  28.786  24.752  1.00  0.00     0.008 C 
ENDBRANCH  12  17
ENDBRANCH  11  12
ENDBRANCH   1  11
TORSDOF 1
ENDMDL
MODEL 5
REMARK VINA RESULT:    -4.668      1.668      4.019
REMARK INTER + INTRA:          -7.763
REMARK INTER:                  -7.481
REMARK INTRA:                  -0.282
REMARK UNBOUND:                -0.639
REMARK SMILES CC1=CCC[C@H](C)C(=O)C[C@H](C(C)C)C(=O)C1
REMARK SMILES IDX 8 1 9 2 6 3 7 4 5 5 4 6 3 7 2 8 1 9 10 11 11 12 15 13 16 14
REMARK SMILES IDX 17 15 12 17 13 18 14 19
REMARK H PARENT
REMARK Flexibility Score: 70.00
ROOT
ATOM      1  C   UNL     1      -8.048  30.887  22.518  1.00  0.00     0.136 C 
ATOM      2  O   UNL     1      -7.020  30.276  22.771  1.00  0.00    -0.299 OA
ENDROOT
BRANCH   1   3
ATOM      3  C   UNL     1      -8.213  31.590  21.175  1.00  0.00     0.053 C 
ATOM      4  C   UNL     1      -9.691  31.763  20.783  1.00  0.00     0.016 C 
BRANCH   3   5
ATOM      5  C   UNL     1      -7.459  32.939  21.122  1.00  0.00     0.015 C 
BRANCH   5   6
ATOM      6  C   UNL     1      -8.289  34.119  21.660  1.00  0.00     0.028 C 
BRANCH   6   7
ATOM      7  C   UNL     1      -7.717  34.728  22.918  1.00  0.00    -0.028 C 
ATOM      8  C   UNL     1      -8.216  34.605  24.176  1.00  0.00    -0.070 CG0
ATOM      9  C   UNL     1      -7.543  35.408  25.263  1.00  0.00     0.039 C 
ATOM     10  G   UNL     1      -9.348  33.661  24.576  1.00  0.00     0.000 G0
ENDBRANCH   6   7
ENDBRANCH   5   6
ENDBRANCH   3   5
ENDBRANCH   1   3
BRANCH   1  11
ATOM     11  C   UNL     1      -9.132  30.976  23.567  1.00  0.00     0.087 C 
BRANCH  11  12
ATOM     12  C   UNL     1      -8.613  31.165  25.022  1.00  0.00     0.066 C 
BRANCH  12  13
ATOM     13  C   UNL     1      -8.959  32.556  25.551  1.00  0.00     0.140 C 
ATOM     14  O   UNL     1      -8.850  32.812  26.743  1.00  0.00    -0.299 OA
BRANCH  13  15
ATOM     15  C   UNL     1      -9.360  33.652  24.596  1.00  0.00     0.106 CG0
ATOM     16  G   UNL     1      -8.227  34.585  24.173  1.00  0.00     0.000 G0
ENDBRANCH  13  15
ENDBRANCH  12  13
BRANCH  12  17
ATOM     17  C   UNL     1      -9.028  30.027  26.021  1.00  0.00    -0.006 C 
ATOM     18  C   UNL     1      -9.811  28.886  25.346  1.00  0.00     0.008 C 
ATOM     19  C   UNL     1      -7.786  29.425  26.708  1.00  0.00     0.008 C 
ENDBRANCH  12  17
ENDBRANCH  11  12
ENDBRANCH   1  11
TORSDOF 1
ENDMDL
MODEL 6
REMARK VINA RESULT:    -4.535      1.631      3.794
REMARK INTER + INTRA:          -7.561
REMARK INTER:                  -7.233
REMARK INTRA:                  -0.327
REMARK UNBOUND:                -0.639
REMARK SMILES CC1=CCC[C@H](C)C(=O)C[C@H](C(C)C)C(=O)C1
REMARK SMILES IDX 8 1 9 2 6 3 7 4 5 5 4 6 3 7 2 8 1 9 10 11 11 12 15 13 16 14
REMARK SMILES IDX 17 15 12 17 13 18 14 19
REMARK H PARENT
REMARK Flexibility Score: 70.00
ROOT
ATOM      1  C   UNL     1      -9.272  32.260  22.020  1.00  0.00     0.136 C 
ATOM      2  O   UNL     1     -10.113  32.369  21.138  1.00  0.00    -0.299 OA
ENDROOT
BRANCH   1   3
ATOM      3  C   UNL     1      -7.978  33.064  21.952  1.00  0.00     0.053 C 
ATOM      4  C   UNL     1      -7.470  33.233  20.510  1.00  0.00     0.016 C 
BRANCH   3   5
ATOM      5  C   UNL     1      -8.098  34.430  22.666  1.00  0.00     0.015 C 
BRANCH   5   6
ATOM      6  C   UNL     1      -9.091  34.414  23.842  1.00  0.00     0.028 C 
BRANCH   6   7
ATOM      7  C   UNL     1      -8.418  34.397  25.193  1.00  0.00    -0.028 C 
ATOM      8  C   UNL     1      -8.564  33.454  26.159  1.00  0.00    -0.070 CG0
ATOM      9  C   UNL     1      -7.884  33.713  27.482  1.00  0.00     0.039 C 
ATOM     10  G   UNL     1      -9.297  32.126  25.976  1.00  0.00     0.000 G0
ENDBRANCH   6   7
ENDBRANCH   5   6
ENDBRANCH   3   5
ENDBRANCH   1   3
BRANCH   1  11
ATOM     11  C   UNL     1      -9.510  31.286  23.150  1.00  0.00     0.087 C 
BRANCH  11  12
ATOM     12  C   UNL     1      -8.228  30.868  23.928  1.00  0.00     0.066 C 
BRANCH  12  13
ATOM     13  C   UNL     1      -8.438  30.997  25.437  1.00  0.00     0.140 C 
ATOM     14  O   UNL     1      -7.867  30.237  26.209  1.00  0.00    -0.299 OA
BRANCH  13  15
ATOM     15  C   UNL     1      -9.285  32.114  25.993  1.00  0.00     0.106 CG0
ATOM     16  G   UNL     1      -8.561  33.448  26.165  1.00  0.00     0.000 G0
ENDBRANCH  13  15
ENDBRANCH  12  13
BRANCH  12  17
ATOM     17  C   UNL     1      -7.641  29.470  23.524  1.00  0.00    -0.006 C 
ATOM     18  C   UNL     1      -8.515  28.718  22.504  1.00  0.00     0.008 C 
ATOM     19  C   UNL     1      -6.225  29.624  22.932  1.00  0.00     0.008 C 
ENDBRANCH  12  17
ENDBRANCH  11  12
ENDBRANCH   1  11
TORSDOF 1
ENDMDL
MODEL 7
REMARK VINA RESULT:    -4.474      2.032      4.152
REMARK INTER + INTRA:          -7.467
REMARK INTER:                  -7.775
REMARK INTRA:                   0.308
REMARK UNBOUND:                -0.639
REMARK SMILES CC1=CCC[C@H](C)C(=O)C[C@H](C(C)C)C(=O)C1
REMARK SMILES IDX 8 1 9 2 6 3 7 4 5 5 4 6 3 7 2 8 1 9 10 11 11 12 15 13 16 14
REMARK SMILES IDX 17 15 12 17 13 18 14 19
REMARK H PARENT
REMARK Flexibility Score: 70.00
ROOT
ATOM      1  C   UNL     1      -8.248  33.921  23.924  1.00  0.00     0.136 C 
ATOM      2  O   UNL     1      -7.684  34.507  23.011  1.00  0.00    -0.299 OA
ENDROOT
BRANCH   1   3
ATOM      3  C   UNL     1      -8.236  34.504  25.333  1.00  0.00     0.053 C 
ATOM      4  C   UNL     1      -8.799  35.935  25.379  1.00  0.00     0.016 C 
BRANCH   3   5
ATOM      5  C   UNL     1      -8.954  33.589  26.352  1.00  0.00     0.015 C 
BRANCH   5   6
ATOM      6  C   UNL     1      -7.983  32.837  27.280  1.00  0.00     0.028 C 
BRANCH   6   7
ATOM      7  C   UNL     1      -8.621  31.669  27.994  1.00  0.00    -0.028 C 
ATOM      8  C   UNL     1      -8.784  30.412  27.504  1.00  0.00    -0.070 CG0
ATOM      9  C   UNL     1      -9.563  29.439  28.357  1.00  0.00     0.039 C 
ATOM     10  G   UNL     1      -8.173  29.898  26.202  1.00  0.00     0.000 G0
ENDBRANCH   6   7
ENDBRANCH   5   6
ENDBRANCH   3   5
ENDBRANCH   1   3
BRANCH   1  11
ATOM     11  C   UNL     1      -8.916  32.594  23.650  1.00  0.00     0.087 C 
BRANCH  11  12
ATOM     12  C   UNL     1      -8.055  31.348  24.005  1.00  0.00     0.066 C 
BRANCH  12  13
ATOM     13  C   UNL     1      -8.816  30.403  24.934  1.00  0.00     0.140 C 
ATOM     14  O   UNL     1      -9.928  29.992  24.625  1.00  0.00    -0.299 OA
BRANCH  13  15
ATOM     15  C   UNL     1      -8.171  29.901  26.201  1.00  0.00     0.106 CG0
ATOM     16  G   UNL     1      -8.795  30.424  27.494  1.00  0.00     0.000 G0
ENDBRANCH  13  15
ENDBRANCH  12  13
BRANCH  12  17
ATOM     17  C   UNL     1      -7.438  30.602  22.770  1.00  0.00    -0.006 C 
ATOM     18  C   UNL     1      -6.765  29.267  23.143  1.00  0.00     0.008 C 
ATOM     19  C   UNL     1      -8.518  30.321  21.707  1.00  0.00     0.008 C 
ENDBRANCH  12  17
ENDBRANCH  11  12
ENDBRANCH   1  11
TORSDOF 1
ENDMDL
MODEL 8
REMARK VINA RESULT:    -4.107      2.067      4.064
REMARK INTER + INTRA:          -6.907
REMARK INTER:                  -7.381
REMARK INTRA:                   0.474
REMARK UNBOUND:                -0.639
REMARK SMILES CC1=CCC[C@H](C)C(=O)C[C@H](C(C)C)C(=O)C1
REMARK SMILES IDX 8 1 9 2 6 3 7 4 5 5 4 6 3 7 2 8 1 9 10 11 11 12 15 13 16 14
REMARK SMILES IDX 17 15 12 17 13 18 14 19
REMARK H PARENT
REMARK Flexibility Score: 70.00
ROOT
ATOM      1  C   UNL     1      -8.474  32.174  26.883  1.00  0.00     0.136 C 
ATOM      2  O   UNL     1      -7.608  32.946  27.271  1.00  0.00    -0.299 OA
ENDROOT
BRANCH   1   3
ATOM      3  C   UNL     1      -8.743  30.879  27.642  1.00  0.00     0.053 C 
ATOM      4  C   UNL     1     -10.124  30.873  28.318  1.00  0.00     0.016 C 
BRANCH   3   5
ATOM      5  C   UNL     1      -8.551  29.628  26.753  1.00  0.00     0.015 C 
BRANCH   5   6
ATOM      6  C   UNL     1      -9.757  29.340  25.843  1.00  0.00     0.028 C 
BRANCH   6   7
ATOM      7  C   UNL     1      -9.385  28.637  24.560  1.00  0.00    -0.028 C 
ATOM      8  C   UNL     1      -8.575  29.116  23.579  1.00  0.00    -0.070 CG0
ATOM      9  C   UNL     1      -8.445  28.283  22.327  1.00  0.00     0.039 C 
ATOM     10  G   UNL     1      -7.734  30.387  23.687  1.00  0.00     0.000 G0
ENDBRANCH   6   7
ENDBRANCH   5   6
ENDBRANCH   3   5
ENDBRANCH   1   3
BRANCH   1  11
ATOM     11  C   UNL     1      -9.240  32.496  25.622  1.00  0.00     0.087 C 
BRANCH  11  12
ATOM     12  C   UNL     1      -8.350  32.826  24.388  1.00  0.00     0.066 C 
BRANCH  12  13
ATOM     13  C   UNL     1      -8.390  31.692  23.365  1.00  0.00     0.140 C 
ATOM     14  O   UNL     1      -8.925  31.857  22.276  1.00  0.00    -0.299 OA
BRANCH  13  15
ATOM     15  C   UNL     1      -7.697  30.384  23.655  1.00  0.00     0.106 CG0
ATOM     16  G   UNL     1      -8.594  29.149  23.578  1.00  0.00     0.000 G0
ENDBRANCH  13  15
ENDBRANCH  12  13
BRANCH  12  17
ATOM     17  C   UNL     1      -8.624  34.227  23.736  1.00  0.00    -0.006 C 
ATOM     18  C   UNL     1      -8.641  35.378  24.759  1.00  0.00     0.008 C 
ATOM     19  C   UNL     1      -7.565  34.546  22.662  1.00  0.00     0.008 C 
ENDBRANCH  12  17
ENDBRANCH  11  12
ENDBRANCH   1  11
TORSDOF 1
ENDMDL
MODEL 9
REMARK VINA RESULT:    -3.572      1.872      3.112
REMARK INTER + INTRA:          -6.091
REMARK INTER:                  -7.317
REMARK INTRA:                   1.226
REMARK UNBOUND:                -0.639
REMARK SMILES CC1=CCC[C@H](C)C(=O)C[C@H](C(C)C)C(=O)C1
REMARK SMILES IDX 8 1 9 2 6 3 7 4 5 5 4 6 3 7 2 8 1 9 10 11 11 12 15 13 16 14
REMARK SMILES IDX 17 15 12 17 13 18 14 19
REMARK H PARENT
REMARK Flexibility Score: 70.00
ROOT
ATOM      1  C   UNL     1      -8.576  31.545  23.304  1.00  0.00     0.136 C 
ATOM      2  O   UNL     1      -7.433  31.936  23.114  1.00  0.00    -0.299 OA
ENDROOT
BRANCH   1   3
ATOM      3  C   UNL     1      -8.923  30.072  23.121  1.00  0.00     0.053 C 
ATOM      4  C   UNL     1      -9.001  29.669  21.638  1.00  0.00     0.016 C 
BRANCH   3   5
ATOM      5  C   UNL     1      -7.968  29.142  23.903  1.00  0.00     0.015 C 
BRANCH   5   6
ATOM      6  C   UNL     1      -7.356  29.809  25.148  1.00  0.00     0.028 C 
BRANCH   6   7
ATOM      7  C   UNL     1      -8.042  29.417  26.435  1.00  0.00    -0.028 C 
ATOM      8  C   UNL     1      -9.043  30.094  27.057  1.00  0.00    -0.070 CG0
ATOM      9  C   UNL     1      -9.490  29.574  28.403  1.00  0.00     0.039 C 
ATOM     10  G   UNL     1      -9.793  31.284  26.461  1.00  0.00     0.000 G0
ENDBRANCH   6   7
ENDBRANCH   5   6
ENDBRANCH   3   5
ENDBRANCH   1   3
BRANCH   1  11
ATOM     11  C   UNL     1      -9.646  32.544  23.677  1.00  0.00     0.087 C 
BRANCH  11  12
ATOM     12  C   UNL     1      -9.325  33.397  24.939  1.00  0.00     0.066 C 
BRANCH  12  13
ATOM     13  C   UNL     1      -8.954  32.504  26.123  1.00  0.00     0.140 C 
ATOM     14  O   UNL     1      -8.009  32.792  26.845  1.00  0.00    -0.299 OA
BRANCH  13  15
ATOM     15  C   UNL     1      -9.801  31.303  26.463  1.00  0.00     0.106 CG0
ATOM     16  G   UNL     1      -9.034  30.116  27.041  1.00  0.00     0.000 G0
ENDBRANCH  13  15
ENDBRANCH  12  13
BRANCH  12  17
ATOM     17  C   UNL     1      -8.281  34.545  24.709  1.00  0.00    -0.006 C 
ATOM     18  C   UNL     1      -8.052  34.865  23.220  1.00  0.00     0.008 C 
ATOM     19  C   UNL     1      -8.726  35.838  25.421  1.00  0.00     0.008 C 
ENDBRANCH  12  17
ENDBRANCH  11  12
ENDBRANCH   1  11
TORSDOF 1
ENDMDL
