MODEL 1
REMARK VINA RESULT:    -5.320      0.000      0.000
REMARK INTER + INTRA:          -5.843
REMARK INTER:                  -5.786
REMARK INTRA:                  -0.057
REMARK UNBOUND:                -0.057
REMARK SMILES COc1cc2ccc(=O)oc2cc1O
REMARK SMILES IDX 3 1 13 2 12 3 11 4 5 5 4 6 6 7 7 8 8 9 9 10 10 11 2 12 1 13
REMARK SMILES IDX 14 14
REMARK H PARENT 14 15
REMARK Flexibility Score: inf
ROOT
ATOM      1  C   UNL     1      31.954  11.613  29.557  1.00  0.00     0.161 A 
ATOM      2  C   UNL     1      32.590  12.093  30.713  1.00  0.00     0.161 A 
ATOM      3  C   UNL     1      32.691  11.285  31.854  1.00  0.00     0.098 A 
ATOM      4  C   UNL     1      32.157   9.994  31.851  1.00  0.00     0.142 A 
ATOM      5  C   UNL     1      31.515   9.503  30.695  1.00  0.00     0.022 A 
ATOM      6  C   UNL     1      31.416  10.310  29.553  1.00  0.00     0.062 A 
ATOM      7  C   UNL     1      30.991   8.207  30.723  1.00  0.00     0.019 A 
ATOM      8  C   UNL     1      31.116   7.443  31.883  1.00  0.00     0.094 A 
ATOM      9  C   UNL     1      31.765   7.995  32.992  1.00  0.00     0.336 A 
ATOM     10  O   UNL     1      31.889   7.322  34.048  1.00  0.00    -0.246 OA
ATOM     11  O   UNL     1      32.255   9.232  32.938  1.00  0.00    -0.423 OA
ENDROOT
BRANCH   1  12
ATOM     12  O   UNL     1      31.877  12.456  28.437  1.00  0.00    -0.493 OA
ATOM     13  C   UNL     1      32.326  12.106  27.132  1.00  0.00     0.278 C 
ENDBRANCH   1  12
BRANCH   2  14
ATOM     14  O   UNL     1      33.125  13.381  30.717  1.00  0.00    -0.504 OA
ATOM     15  H   UNL     1      33.661  13.730  31.503  1.00  0.00     0.293 HD
ENDBRANCH   2  14
TORSDOF 2
ENDMDL
MODEL 2
REMARK VINA RESULT:    -5.124      1.250      5.468
REMARK INTER + INTRA:          -5.631
REMARK INTER:                  -5.566
REMARK INTRA:                  -0.065
REMARK UNBOUND:                -0.057
REMARK SMILES COc1cc2ccc(=O)oc2cc1O
REMARK SMILES IDX 3 1 13 2 12 3 11 4 5 5 4 6 6 7 7 8 8 9 9 10 10 11 2 12 1 13
REMARK SMILES IDX 14 14
REMARK H PARENT 14 15
REMARK Flexibility Score: inf
ROOT
ATOM      1  C   UNL     1      31.779   8.180  32.974  1.00  0.00     0.161 A 
ATOM      2  C   UNL     1      31.020   7.840  31.843  1.00  0.00     0.161 A 
ATOM      3  C   UNL     1      30.964   8.706  30.742  1.00  0.00     0.098 A 
ATOM      4  C   UNL     1      31.660   9.916  30.761  1.00  0.00     0.142 A 
ATOM      5  C   UNL     1      32.425  10.266  31.894  1.00  0.00     0.022 A 
ATOM      6  C   UNL     1      32.483   9.401  32.995  1.00  0.00     0.062 A 
ATOM      7  C   UNL     1      33.111  11.485  31.884  1.00  0.00     0.019 A 
ATOM      8  C   UNL     1      33.022  12.312  30.764  1.00  0.00     0.094 A 
ATOM      9  C   UNL     1      32.246  11.899  29.677  1.00  0.00     0.336 A 
ATOM     10  O   UNL     1      32.153  12.630  28.657  1.00  0.00    -0.246 OA
ATOM     11  O   UNL     1      31.602  10.734  29.713  1.00  0.00    -0.423 OA
ENDROOT
BRANCH   1  12
ATOM     12  O   UNL     1      31.808   7.282  34.054  1.00  0.00    -0.493 OA
ATOM     13  C   UNL     1      31.149   7.495  35.298  1.00  0.00     0.278 C 
ENDBRANCH   1  12
BRANCH   2  14
ATOM     14  O   UNL     1      30.324   6.632  31.821  1.00  0.00    -0.504 OA
ATOM     15  H   UNL     1      30.663   5.834  31.296  1.00  0.00     0.293 HD
ENDBRANCH   2  14
TORSDOF 2
ENDMDL
MODEL 3
REMARK VINA RESULT:    -5.046      1.601      1.951
REMARK INTER + INTRA:          -5.545
REMARK INTER:                  -5.497
REMARK INTRA:                  -0.048
REMARK UNBOUND:                -0.057
REMARK SMILES COc1cc2ccc(=O)oc2cc1O
REMARK SMILES IDX 3 1 13 2 12 3 11 4 5 5 4 6 6 7 7 8 8 9 9 10 10 11 2 12 1 13
REMARK SMILES IDX 14 14
REMARK H PARENT 14 15
REMARK Flexibility Score: inf
ROOT
ATOM      1  C   UNL     1      32.358  10.971  30.704  1.00  0.00     0.161 A 
ATOM      2  C   UNL     1      32.501  12.018  31.628  1.00  0.00     0.161 A 
ATOM      3  C   UNL     1      32.275  11.793  32.994  1.00  0.00     0.098 A 
ATOM      4  C   UNL     1      31.906  10.525  33.446  1.00  0.00     0.142 A 
ATOM      5  C   UNL     1      31.761   9.466  32.525  1.00  0.00     0.022 A 
ATOM      6  C   UNL     1      31.986   9.690  31.160  1.00  0.00     0.062 A 
ATOM      7  C   UNL     1      31.390   8.208  33.009  1.00  0.00     0.019 A 
ATOM      8  C   UNL     1      31.177   8.035  34.376  1.00  0.00     0.094 A 
ATOM      9  C   UNL     1      31.340   9.129  35.231  1.00  0.00     0.336 A 
ATOM     10  O   UNL     1      31.153   8.994  36.468  1.00  0.00    -0.246 OA
ATOM     11  O   UNL     1      31.694  10.317  34.744  1.00  0.00    -0.423 OA
ENDROOT
BRANCH   1  12
ATOM     12  O   UNL     1      32.594  11.242  29.346  1.00  0.00    -0.493 OA
ATOM     13  C   UNL     1      31.926  10.596  28.267  1.00  0.00     0.278 C 
ENDBRANCH   1  12
BRANCH   2  14
ATOM     14  O   UNL     1      32.870  13.286  31.179  1.00  0.00    -0.504 OA
ATOM     15  H   UNL     1      33.791  13.465  30.797  1.00  0.00     0.293 HD
ENDBRANCH   2  14
TORSDOF 2
ENDMDL
MODEL 4
REMARK VINA RESULT:    -4.932      2.041      2.893
REMARK INTER + INTRA:          -5.421
REMARK INTER:                  -5.367
REMARK INTRA:                  -0.055
REMARK UNBOUND:                -0.057
REMARK SMILES COc1cc2ccc(=O)oc2cc1O
REMARK SMILES IDX 3 1 13 2 12 3 11 4 5 5 4 6 6 7 7 8 8 9 9 10 10 11 2 12 1 13
REMARK SMILES IDX 14 14
REMARK H PARENT 14 15
REMARK Flexibility Score: inf
ROOT
ATOM      1  C   UNL     1      32.071  11.602  26.634  1.00  0.00     0.161 A 
ATOM      2  C   UNL     1      32.076  12.355  27.818  1.00  0.00     0.161 A 
ATOM      3  C   UNL     1      31.786  11.744  29.047  1.00  0.00     0.098 A 
ATOM      4  C   UNL     1      31.488  10.381  29.102  1.00  0.00     0.142 A 
ATOM      5  C   UNL     1      31.480   9.617  27.916  1.00  0.00     0.022 A 
ATOM      6  C   UNL     1      31.771  10.226  26.689  1.00  0.00     0.062 A 
ATOM      7  C   UNL     1      31.178   8.254  28.004  1.00  0.00     0.019 A 
ATOM      8  C   UNL     1      30.896   7.694  29.250  1.00  0.00     0.094 A 
ATOM      9  C   UNL     1      30.923   8.513  30.383  1.00  0.00     0.336 A 
ATOM     10  O   UNL     1      30.672   8.027  31.517  1.00  0.00    -0.246 OA
ATOM     11  O   UNL     1      31.213   9.807  30.272  1.00  0.00    -0.423 OA
ENDROOT
BRANCH   1  12
ATOM     12  O   UNL     1      32.368  12.254  25.426  1.00  0.00    -0.493 OA
ATOM     13  C   UNL     1      31.582  12.157  24.242  1.00  0.00     0.278 C 
ENDBRANCH   1  12
BRANCH   2  14
ATOM     14  O   UNL     1      32.375  13.716  27.766  1.00  0.00    -0.504 OA
ATOM     15  H   UNL     1      31.675  14.420  27.968  1.00  0.00     0.293 HD
ENDBRANCH   2  14
TORSDOF 2
ENDMDL
MODEL 5
REMARK VINA RESULT:    -4.911      1.242      4.755
REMARK INTER + INTRA:          -5.398
REMARK INTER:                  -5.353
REMARK INTRA:                  -0.046
REMARK UNBOUND:                -0.057
REMARK SMILES COc1cc2ccc(=O)oc2cc1O
REMARK SMILES IDX 3 1 13 2 12 3 11 4 5 5 4 6 6 7 7 8 8 9 9 10 10 11 2 12 1 13
REMARK SMILES IDX 14 14
REMARK H PARENT 14 15
REMARK Flexibility Score: inf
ROOT
ATOM      1  C   UNL     1      31.870  10.258  32.189  1.00  0.00     0.161 A 
ATOM      2  C   UNL     1      32.343  11.580  32.165  1.00  0.00     0.161 A 
ATOM      3  C   UNL     1      32.552  12.235  30.943  1.00  0.00     0.098 A 
ATOM      4  C   UNL     1      32.293  11.578  29.739  1.00  0.00     0.142 A 
ATOM      5  C   UNL     1      31.818  10.250  29.753  1.00  0.00     0.022 A 
ATOM      6  C   UNL     1      31.607   9.594  30.973  1.00  0.00     0.062 A 
ATOM      7  C   UNL     1      31.568   9.619  28.530  1.00  0.00     0.019 A 
ATOM      8  C   UNL     1      31.793  10.314  27.342  1.00  0.00     0.094 A 
ATOM      9  C   UNL     1      32.264  11.629  27.404  1.00  0.00     0.336 A 
ATOM     10  O   UNL     1      32.473  12.274  26.344  1.00  0.00    -0.246 OA
ATOM     11  O   UNL     1      32.495  12.206  28.582  1.00  0.00    -0.423 OA
ENDROOT
BRANCH   1  12
ATOM     12  O   UNL     1      31.674   9.641  33.434  1.00  0.00    -0.493 OA
ATOM     13  C   UNL     1      31.545   8.236  33.627  1.00  0.00     0.278 C 
ENDBRANCH   1  12
BRANCH   2  14
ATOM     14  O   UNL     1      32.601  12.238  33.367  1.00  0.00    -0.504 OA
ATOM     15  H   UNL     1      32.447  13.234  33.470  1.00  0.00     0.293 HD
ENDBRANCH   2  14
TORSDOF 2
ENDMDL
MODEL 6
REMARK VINA RESULT:    -4.871      1.849      2.651
REMARK INTER + INTRA:          -5.355
REMARK INTER:                  -5.309
REMARK INTRA:                  -0.045
REMARK UNBOUND:                -0.057
REMARK SMILES COc1cc2ccc(=O)oc2cc1O
REMARK SMILES IDX 3 1 13 2 12 3 11 4 5 5 4 6 6 7 7 8 8 9 9 10 10 11 2 12 1 13
REMARK SMILES IDX 14 14
REMARK H PARENT 14 15
REMARK Flexibility Score: inf
ROOT
ATOM      1  C   UNL     1      31.607  10.044  28.401  1.00  0.00     0.161 A 
ATOM      2  C   UNL     1      32.327  11.244  28.511  1.00  0.00     0.161 A 
ATOM      3  C   UNL     1      32.738  11.709  29.768  1.00  0.00     0.098 A 
ATOM      4  C   UNL     1      32.435  10.984  30.922  1.00  0.00     0.142 A 
ATOM      5  C   UNL     1      31.712   9.777  30.820  1.00  0.00     0.022 A 
ATOM      6  C   UNL     1      31.301   9.310  29.565  1.00  0.00     0.062 A 
ATOM      7  C   UNL     1      31.423   9.072  31.993  1.00  0.00     0.019 A 
ATOM      8  C   UNL     1      31.855   9.577  33.220  1.00  0.00     0.094 A 
ATOM      9  C   UNL     1      32.568  10.780  33.244  1.00  0.00     0.336 A 
ATOM     10  O   UNL     1      32.966  11.253  34.340  1.00  0.00    -0.246 OA
ATOM     11  O   UNL     1      32.829  11.431  32.112  1.00  0.00    -0.423 OA
ENDROOT
BRANCH   1  12
ATOM     12  O   UNL     1      31.215   9.615  27.122  1.00  0.00    -0.493 OA
ATOM     13  C   UNL     1      30.693   8.323  26.830  1.00  0.00     0.278 C 
ENDBRANCH   1  12
BRANCH   2  14
ATOM     14  O   UNL     1      32.631  11.971  27.361  1.00  0.00    -0.504 OA
ATOM     15  H   UNL     1      31.907  12.300  26.734  1.00  0.00     0.293 HD
ENDBRANCH   2  14
TORSDOF 2
ENDMDL
MODEL 7
REMARK VINA RESULT:    -4.854      1.922      4.115
REMARK INTER + INTRA:          -5.336
REMARK INTER:                  -5.285
REMARK INTRA:                  -0.051
REMARK UNBOUND:                -0.057
REMARK SMILES COc1cc2ccc(=O)oc2cc1O
REMARK SMILES IDX 3 1 13 2 12 3 11 4 5 5 4 6 6 7 7 8 8 9 9 10 10 11 2 12 1 13
REMARK SMILES IDX 14 14
REMARK H PARENT 14 15
REMARK Flexibility Score: inf
ROOT
ATOM      1  C   UNL     1      32.517  11.163  31.550  1.00  0.00     0.161 A 
ATOM      2  C   UNL     1      32.566  12.120  30.525  1.00  0.00     0.161 A 
ATOM      3  C   UNL     1      32.057  11.822  29.253  1.00  0.00     0.098 A 
ATOM      4  C   UNL     1      31.497  10.570  28.994  1.00  0.00     0.142 A 
ATOM      5  C   UNL     1      31.443   9.601  30.019  1.00  0.00     0.022 A 
ATOM      6  C   UNL     1      31.951   9.898  31.291  1.00  0.00     0.062 A 
ATOM      7  C   UNL     1      30.876   8.356  29.729  1.00  0.00     0.019 A 
ATOM      8  C   UNL     1      30.384   8.109  28.448  1.00  0.00     0.094 A 
ATOM      9  C   UNL     1      30.470   9.117  27.482  1.00  0.00     0.336 A 
ATOM     10  O   UNL     1      30.032   8.914  26.321  1.00  0.00    -0.246 OA
ATOM     11  O   UNL     1      31.015  10.293  27.784  1.00  0.00    -0.423 OA
ENDROOT
BRANCH   1  12
ATOM     12  O   UNL     1      33.038  11.504  32.809  1.00  0.00    -0.493 OA
ATOM     13  C   UNL     1      32.444  11.144  34.052  1.00  0.00     0.278 C 
ENDBRANCH   1  12
BRANCH   2  14
ATOM     14  O   UNL     1      33.125  13.372  30.781  1.00  0.00    -0.504 OA
ATOM     15  H   UNL     1      33.896  13.731  30.231  1.00  0.00     0.293 HD
ENDBRANCH   2  14
TORSDOF 2
ENDMDL
MODEL 8
REMARK VINA RESULT:    -4.810      1.892      2.950
REMARK INTER + INTRA:          -5.289
REMARK INTER:                  -5.240
REMARK INTRA:                  -0.049
REMARK UNBOUND:                -0.057
REMARK SMILES COc1cc2ccc(=O)oc2cc1O
REMARK SMILES IDX 3 1 13 2 12 3 11 4 5 5 4 6 6 7 7 8 8 9 9 10 10 11 2 12 1 13
REMARK SMILES IDX 14 14
REMARK H PARENT 14 15
REMARK Flexibility Score: inf
ROOT
ATOM      1  C   UNL     1      32.018  10.573  28.380  1.00  0.00     0.161 A 
ATOM      2  C   UNL     1      31.172   9.495  28.683  1.00  0.00     0.161 A 
ATOM      3  C   UNL     1      30.942   9.129  30.016  1.00  0.00     0.098 A 
ATOM      4  C   UNL     1      31.553   9.833  31.055  1.00  0.00     0.142 A 
ATOM      5  C   UNL     1      32.405  10.919  30.760  1.00  0.00     0.022 A 
ATOM      6  C   UNL     1      32.635  11.286  29.428  1.00  0.00     0.062 A 
ATOM      7  C   UNL     1      33.002  11.604  31.823  1.00  0.00     0.019 A 
ATOM      8  C   UNL     1      32.741  11.201  33.132  1.00  0.00     0.094 A 
ATOM      9  C   UNL     1      31.885  10.116  33.349  1.00  0.00     0.336 A 
ATOM     10  O   UNL     1      31.637   9.737  34.523  1.00  0.00    -0.246 OA
ATOM     11  O   UNL     1      31.330   9.480  32.320  1.00  0.00    -0.423 OA
ENDROOT
BRANCH   1  12
ATOM     12  O   UNL     1      32.220  10.906  27.030  1.00  0.00    -0.493 OA
ATOM     13  C   UNL     1      32.375  12.234  26.541  1.00  0.00     0.278 C 
ENDBRANCH   1  12
BRANCH   2  14
ATOM     14  O   UNL     1      30.560   8.790  27.646  1.00  0.00    -0.504 OA
ATOM     15  H   UNL     1      30.513   9.164  26.706  1.00  0.00     0.293 HD
ENDBRANCH   2  14
TORSDOF 2
ENDMDL
MODEL 9
REMARK VINA RESULT:    -4.707      2.624      3.571
REMARK INTER + INTRA:          -5.177
REMARK INTER:                  -5.112
REMARK INTRA:                  -0.065
REMARK UNBOUND:                -0.057
REMARK SMILES COc1cc2ccc(=O)oc2cc1O
REMARK SMILES IDX 3 1 13 2 12 3 11 4 5 5 4 6 6 7 7 8 8 9 9 10 10 11 2 12 1 13
REMARK SMILES IDX 14 14
REMARK H PARENT 14 15
REMARK Flexibility Score: inf
ROOT
ATOM      1  C   UNL     1      32.037  10.233  32.437  1.00  0.00     0.161 A 
ATOM      2  C   UNL     1      31.814  11.312  33.307  1.00  0.00     0.161 A 
ATOM      3  C   UNL     1      31.432  11.083  34.636  1.00  0.00     0.098 A 
ATOM      4  C   UNL     1      31.269   9.779  35.107  1.00  0.00     0.142 A 
ATOM      5  C   UNL     1      31.491   8.688  34.240  1.00  0.00     0.022 A 
ATOM      6  C   UNL     1      31.874   8.916  32.911  1.00  0.00     0.062 A 
ATOM      7  C   UNL     1      31.320   7.394  34.741  1.00  0.00     0.019 A 
ATOM      8  C   UNL     1      30.938   7.218  36.071  1.00  0.00     0.094 A 
ATOM      9  C   UNL     1      30.736   8.346  36.872  1.00  0.00     0.336 A 
ATOM     10  O   UNL     1      30.392   8.210  38.075  1.00  0.00    -0.246 OA
ATOM     11  O   UNL     1      30.906   9.568  36.370  1.00  0.00    -0.423 OA
ENDROOT
BRANCH   1  12
ATOM     12  O   UNL     1      32.419  10.509  31.114  1.00  0.00    -0.493 OA
ATOM     13  C   UNL     1      31.547  10.440  29.991  1.00  0.00     0.278 C 
ENDBRANCH   1  12
BRANCH   2  14
ATOM     14  O   UNL     1      31.977  12.616  32.839  1.00  0.00    -0.504 OA
ATOM     15  H   UNL     1      31.351  13.014  32.149  1.00  0.00     0.293 HD
ENDBRANCH   2  14
TORSDOF 2
ENDMDL
