MODEL 1
REMARK VINA RESULT:    -4.801      0.000      0.000
REMARK INTER + INTRA:          -5.249
REMARK INTER:                  -5.222
REMARK INTRA:                  -0.027
REMARK UNBOUND:                -0.027
REMARK SMILES O=C([O-])c1ccc(O)cc1
REMARK SMILES IDX 4 1 5 2 10 3 6 4 9 5 7 6 2 7 1 8 3 9 8 10
REMARK H PARENT 8 11
REMARK Flexibility Score: inf
ROOT
ATOM      1  C   UNL     1      47.274  48.639  35.581  1.00  0.00    -0.003 A 
ATOM      2  C   UNL     1      47.552  49.840  34.900  1.00  0.00     0.014 A 
ATOM      3  C   UNL     1      48.209  48.150  36.510  1.00  0.00     0.014 A 
ATOM      4  C   UNL     1      48.741  50.534  35.147  1.00  0.00     0.047 A 
ATOM      5  C   UNL     1      49.397  48.847  36.754  1.00  0.00     0.047 A 
ATOM      6  C   UNL     1      49.666  50.039  36.074  1.00  0.00     0.115 A 
ENDROOT
BRANCH   1   7
ATOM      7  C   UNL     1      46.018  47.900  35.325  1.00  0.00     0.071 C 
ATOM      8  O   UNL     1      46.010  46.892  34.571  1.00  0.00    -0.545 OA
ATOM      9  O   UNL     1      44.828  48.310  35.916  1.00  0.00    -0.545 OA
ENDBRANCH   1   7
BRANCH   6  10
ATOM     10  O   UNL     1      50.853  50.723  36.328  1.00  0.00    -0.508 OA
ATOM     11  H   UNL     1      51.406  51.121  35.578  1.00  0.00     0.293 HD
ENDBRANCH   6  10
TORSDOF 2
ENDMDL
MODEL 2
REMARK VINA RESULT:    -4.800      2.012      4.514
REMARK INTER + INTRA:          -5.248
REMARK INTER:                  -5.221
REMARK INTRA:                  -0.027
REMARK UNBOUND:                -0.027
REMARK SMILES O=C([O-])c1ccc(O)cc1
REMARK SMILES IDX 4 1 5 2 10 3 6 4 9 5 7 6 2 7 1 8 3 9 8 10
REMARK H PARENT 8 11
REMARK Flexibility Score: inf
ROOT
ATOM      1  C   UNL     1      47.177  48.493  34.933  1.00  0.00    -0.003 A 
ATOM      2  C   UNL     1      45.971  48.180  35.590  1.00  0.00     0.014 A 
ATOM      3  C   UNL     1      47.705  47.576  34.007  1.00  0.00     0.014 A 
ATOM      4  C   UNL     1      45.311  46.977  35.323  1.00  0.00     0.047 A 
ATOM      5  C   UNL     1      47.043  46.374  33.743  1.00  0.00     0.047 A 
ATOM      6  C   UNL     1      45.846  46.070  34.399  1.00  0.00     0.115 A 
ENDROOT
BRANCH   1   7
ATOM      7  C   UNL     1      47.879  49.765  35.211  1.00  0.00     0.071 C 
ATOM      8  O   UNL     1      48.843  49.802  36.021  1.00  0.00    -0.545 OA
ATOM      9  O   UNL     1      47.485  50.939  34.579  1.00  0.00    -0.545 OA
ENDBRANCH   1   7
BRANCH   6  10
ATOM     10  O   UNL     1      45.196  44.869  34.125  1.00  0.00    -0.508 OA
ATOM     11  H   UNL     1      44.593  44.764  33.318  1.00  0.00     0.293 HD
ENDBRANCH   6  10
TORSDOF 2
ENDMDL
MODEL 3
REMARK VINA RESULT:    -4.783      1.987      4.495
REMARK INTER + INTRA:          -5.229
REMARK INTER:                  -5.202
REMARK INTRA:                  -0.027
REMARK UNBOUND:                -0.027
REMARK SMILES O=C([O-])c1ccc(O)cc1
REMARK SMILES IDX 4 1 5 2 10 3 6 4 9 5 7 6 2 7 1 8 3 9 8 10
REMARK H PARENT 8 11
REMARK Flexibility Score: inf
ROOT
ATOM      1  C   UNL     1      47.175  48.500  34.971  1.00  0.00    -0.003 A 
ATOM      2  C   UNL     1      47.682  47.571  34.042  1.00  0.00     0.014 A 
ATOM      3  C   UNL     1      45.975  48.208  35.641  1.00  0.00     0.014 A 
ATOM      4  C   UNL     1      46.999  46.376  33.793  1.00  0.00     0.047 A 
ATOM      5  C   UNL     1      45.296  47.012  35.390  1.00  0.00     0.047 A 
ATOM      6  C   UNL     1      45.804  46.094  34.466  1.00  0.00     0.115 A 
ENDROOT
BRANCH   1   7
ATOM      7  C   UNL     1      47.893  49.766  35.239  1.00  0.00     0.071 C 
ATOM      8  O   UNL     1      48.865  49.795  36.039  1.00  0.00    -0.545 OA
ATOM      9  O   UNL     1      47.505  50.942  34.607  1.00  0.00    -0.545 OA
ENDBRANCH   1   7
BRANCH   6  10
ATOM     10  O   UNL     1      45.117  44.906  34.226  1.00  0.00    -0.508 OA
ATOM     11  H   UNL     1      44.305  44.877  33.620  1.00  0.00     0.293 HD
ENDBRANCH   6  10
TORSDOF 2
ENDMDL
MODEL 4
REMARK VINA RESULT:    -4.768      1.932      2.608
REMARK INTER + INTRA:          -5.213
REMARK INTER:                  -5.179
REMARK INTRA:                  -0.033
REMARK UNBOUND:                -0.027
REMARK SMILES O=C([O-])c1ccc(O)cc1
REMARK SMILES IDX 4 1 5 2 10 3 6 4 9 5 7 6 2 7 1 8 3 9 8 10
REMARK H PARENT 8 11
REMARK Flexibility Score: inf
ROOT
ATOM      1  C   UNL     1      46.527  47.246  34.608  1.00  0.00    -0.003 A 
ATOM      2  C   UNL     1      47.633  47.177  33.740  1.00  0.00     0.014 A 
ATOM      3  C   UNL     1      46.303  48.431  35.332  1.00  0.00     0.014 A 
ATOM      4  C   UNL     1      48.494  48.271  33.601  1.00  0.00     0.047 A 
ATOM      5  C   UNL     1      47.165  49.522  35.191  1.00  0.00     0.047 A 
ATOM      6  C   UNL     1      48.262  49.446  34.327  1.00  0.00     0.115 A 
ENDROOT
BRANCH   1   7
ATOM      7  C   UNL     1      45.613  46.092  34.759  1.00  0.00     0.071 C 
ATOM      8  O   UNL     1      44.393  46.270  35.013  1.00  0.00    -0.545 OA
ATOM      9  O   UNL     1      46.090  44.794  34.619  1.00  0.00    -0.545 OA
ENDBRANCH   1   7
BRANCH   6  10
ATOM     10  O   UNL     1      49.112  50.542  34.195  1.00  0.00    -0.508 OA
ATOM     11  H   UNL     1      49.700  50.661  33.379  1.00  0.00     0.293 HD
ENDBRANCH   6  10
TORSDOF 2
ENDMDL
MODEL 5
REMARK VINA RESULT:    -4.762      1.917      2.552
REMARK INTER + INTRA:          -5.207
REMARK INTER:                  -5.173
REMARK INTRA:                  -0.033
REMARK UNBOUND:                -0.027
REMARK SMILES O=C([O-])c1ccc(O)cc1
REMARK SMILES IDX 4 1 5 2 10 3 6 4 9 5 7 6 2 7 1 8 3 9 8 10
REMARK H PARENT 8 11
REMARK Flexibility Score: inf
ROOT
ATOM      1  C   UNL     1      46.532  47.279  34.614  1.00  0.00    -0.003 A 
ATOM      2  C   UNL     1      46.319  48.465  35.343  1.00  0.00     0.014 A 
ATOM      3  C   UNL     1      47.635  47.204  33.744  1.00  0.00     0.014 A 
ATOM      4  C   UNL     1      47.191  49.549  35.202  1.00  0.00     0.047 A 
ATOM      5  C   UNL     1      48.504  48.290  33.607  1.00  0.00     0.047 A 
ATOM      6  C   UNL     1      48.286  49.464  34.334  1.00  0.00     0.115 A 
ENDROOT
BRANCH   1   7
ATOM      7  C   UNL     1      45.613  46.129  34.759  1.00  0.00     0.071 C 
ATOM      8  O   UNL     1      44.397  46.310  35.027  1.00  0.00    -0.545 OA
ATOM      9  O   UNL     1      46.082  44.830  34.598  1.00  0.00    -0.545 OA
ENDBRANCH   1   7
BRANCH   6  10
ATOM     10  O   UNL     1      49.161  50.538  34.187  1.00  0.00    -0.508 OA
ATOM     11  H   UNL     1      50.144  50.455  34.418  1.00  0.00     0.293 HD
ENDBRANCH   6  10
TORSDOF 2
ENDMDL
MODEL 6
REMARK VINA RESULT:    -4.656      1.204      4.151
REMARK INTER + INTRA:          -5.091
REMARK INTER:                  -5.057
REMARK INTRA:                  -0.035
REMARK UNBOUND:                -0.027
REMARK SMILES O=C([O-])c1ccc(O)cc1
REMARK SMILES IDX 4 1 5 2 10 3 6 4 9 5 7 6 2 7 1 8 3 9 8 10
REMARK H PARENT 8 11
REMARK Flexibility Score: inf
ROOT
ATOM      1  C   UNL     1      48.392  49.384  35.836  1.00  0.00    -0.003 A 
ATOM      2  C   UNL     1      47.187  49.432  35.110  1.00  0.00     0.014 A 
ATOM      3  C   UNL     1      48.606  48.320  36.731  1.00  0.00     0.014 A 
ATOM      4  C   UNL     1      46.219  48.436  35.277  1.00  0.00     0.047 A 
ATOM      5  C   UNL     1      47.637  47.327  36.895  1.00  0.00     0.047 A 
ATOM      6  C   UNL     1      46.442  47.380  36.171  1.00  0.00     0.115 A 
ENDROOT
BRANCH   1   7
ATOM      7  C   UNL     1      49.419  50.435  35.663  1.00  0.00     0.071 C 
ATOM      8  O   UNL     1      49.104  51.574  35.228  1.00  0.00    -0.545 OA
ATOM      9  O   UNL     1      50.748  50.179  35.981  1.00  0.00    -0.545 OA
ENDBRANCH   1   7
BRANCH   6  10
ATOM     10  O   UNL     1      45.486  46.382  36.344  1.00  0.00    -0.508 OA
ATOM     11  H   UNL     1      44.503  46.603  36.450  1.00  0.00     0.293 HD
ENDBRANCH   6  10
TORSDOF 2
ENDMDL
MODEL 7
REMARK VINA RESULT:    -4.656      1.189      4.412
REMARK INTER + INTRA:          -5.091
REMARK INTER:                  -5.057
REMARK INTRA:                  -0.034
REMARK UNBOUND:                -0.027
REMARK SMILES O=C([O-])c1ccc(O)cc1
REMARK SMILES IDX 4 1 5 2 10 3 6 4 9 5 7 6 2 7 1 8 3 9 8 10
REMARK H PARENT 8 11
REMARK Flexibility Score: inf
ROOT
ATOM      1  C   UNL     1      48.455  49.386  35.852  1.00  0.00    -0.003 A 
ATOM      2  C   UNL     1      48.651  48.319  36.749  1.00  0.00     0.014 A 
ATOM      3  C   UNL     1      47.256  49.448  35.120  1.00  0.00     0.014 A 
ATOM      4  C   UNL     1      47.668  47.337  36.908  1.00  0.00     0.047 A 
ATOM      5  C   UNL     1      46.275  48.465  35.282  1.00  0.00     0.047 A 
ATOM      6  C   UNL     1      46.478  47.408  36.174  1.00  0.00     0.115 A 
ENDROOT
BRANCH   1   7
ATOM      7  C   UNL     1      49.491  50.428  35.681  1.00  0.00     0.071 C 
ATOM      8  O   UNL     1      49.184  51.574  35.260  1.00  0.00    -0.545 OA
ATOM      9  O   UNL     1      50.820  50.155  35.984  1.00  0.00    -0.545 OA
ENDBRANCH   1   7
BRANCH   6  10
ATOM     10  O   UNL     1      45.491  46.435  36.325  1.00  0.00    -0.508 OA
ATOM     11  H   UNL     1      45.024  46.026  35.524  1.00  0.00     0.293 HD
ENDBRANCH   6  10
TORSDOF 2
ENDMDL
MODEL 8
REMARK VINA RESULT:    -4.426     13.171     14.070
REMARK INTER + INTRA:          -4.842
REMARK INTER:                  -4.807
REMARK INTRA:                  -0.035
REMARK UNBOUND:                -0.027
REMARK SMILES O=C([O-])c1ccc(O)cc1
REMARK SMILES IDX 4 1 5 2 10 3 6 4 9 5 7 6 2 7 1 8 3 9 8 10
REMARK H PARENT 8 11
REMARK Flexibility Score: inf
ROOT
ATOM      1  C   UNL     1      41.082  57.610  26.366  1.00  0.00    -0.003 A 
ATOM      2  C   UNL     1      41.609  58.289  27.481  1.00  0.00     0.014 A 
ATOM      3  C   UNL     1      41.941  56.823  25.579  1.00  0.00     0.014 A 
ATOM      4  C   UNL     1      42.966  58.179  27.800  1.00  0.00     0.047 A 
ATOM      5  C   UNL     1      43.297  56.715  25.901  1.00  0.00     0.047 A 
ATOM      6  C   UNL     1      43.814  57.392  27.010  1.00  0.00     0.115 A 
ENDROOT
BRANCH   1   7
ATOM      7  C   UNL     1      39.646  57.723  26.024  1.00  0.00     0.071 C 
ATOM      8  O   UNL     1      39.087  56.847  25.313  1.00  0.00    -0.545 OA
ATOM      9  O   UNL     1      38.896  58.798  26.486  1.00  0.00    -0.545 OA
ENDBRANCH   1   7
BRANCH   6  10
ATOM     10  O   UNL     1      45.167  57.275  27.319  1.00  0.00    -0.508 OA
ATOM     11  H   UNL     1      45.547  57.642  28.183  1.00  0.00     0.293 HD
ENDBRANCH   6  10
TORSDOF 2
ENDMDL
MODEL 9
REMARK VINA RESULT:    -4.386      2.419      4.315
REMARK INTER + INTRA:          -4.797
REMARK INTER:                  -4.767
REMARK INTRA:                  -0.031
REMARK UNBOUND:                -0.027
REMARK SMILES O=C([O-])c1ccc(O)cc1
REMARK SMILES IDX 4 1 5 2 10 3 6 4 9 5 7 6 2 7 1 8 3 9 8 10
REMARK H PARENT 8 11
REMARK Flexibility Score: inf
ROOT
ATOM      1  C   UNL     1      48.152  47.973  33.754  1.00  0.00    -0.003 A 
ATOM      2  C   UNL     1      47.786  49.076  34.548  1.00  0.00     0.014 A 
ATOM      3  C   UNL     1      47.366  46.808  33.803  1.00  0.00     0.014 A 
ATOM      4  C   UNL     1      46.659  49.012  35.373  1.00  0.00     0.047 A 
ATOM      5  C   UNL     1      46.240  46.748  34.629  1.00  0.00     0.047 A 
ATOM      6  C   UNL     1      45.883  47.847  35.415  1.00  0.00     0.115 A 
ENDROOT
BRANCH   1   7
ATOM      7  C   UNL     1      49.344  48.036  32.879  1.00  0.00     0.071 C 
ATOM      8  O   UNL     1      50.436  48.483  33.315  1.00  0.00    -0.545 OA
ATOM      9  O   UNL     1      49.272  47.599  31.561  1.00  0.00    -0.545 OA
ENDBRANCH   1   7
BRANCH   6  10
ATOM     10  O   UNL     1      44.757  47.772  36.233  1.00  0.00    -0.508 OA
ATOM     11  H   UNL     1      43.992  47.142  36.025  1.00  0.00     0.293 HD
ENDBRANCH   6  10
TORSDOF 2
ENDMDL
