MODEL 1
REMARK VINA RESULT:    -3.244      0.000      0.000
REMARK INTER + INTRA:          -3.844
REMARK INTER:                  -3.812
REMARK INTRA:                  -0.032
REMARK UNBOUND:                -0.032
REMARK SMILES O=C([O-])CCC(=O)[O-]
REMARK SMILES IDX 4 1 2 2 1 3 3 4 5 5 6 6 7 7 8 8
REMARK H PARENT
REMARK Flexibility Score: inf
ROOT
ATOM      1  C   UNL     1     -41.619 -35.640  36.368  1.00  0.00     0.059 C 
ENDROOT
BRANCH   1   2
ATOM      2  C   UNL     1     -40.324 -35.151  36.943  1.00  0.00     0.042 C 
ATOM      3  O   UNL     1     -40.291 -34.087  37.616  1.00  0.00    -0.550 OA
ATOM      4  O   UNL     1     -39.163 -35.893  36.769  1.00  0.00    -0.550 OA
ENDBRANCH   1   2
BRANCH   1   5
ATOM      5  C   UNL     1     -42.809 -35.262  37.257  1.00  0.00     0.059 C 
BRANCH   5   6
ATOM      6  C   UNL     1     -44.111 -35.666  36.636  1.00  0.00     0.042 C 
ATOM      7  O   UNL     1     -44.368 -36.883  36.436  1.00  0.00    -0.550 OA
ATOM      8  O   UNL     1     -45.056 -34.700  36.311  1.00  0.00    -0.550 OA
ENDBRANCH   5   6
ENDBRANCH   1   5
TORSDOF 3
ENDMDL
MODEL 2
REMARK VINA RESULT:    -3.238      0.081      4.452
REMARK INTER + INTRA:          -3.838
REMARK INTER:                  -3.805
REMARK INTRA:                  -0.032
REMARK UNBOUND:                -0.032
REMARK SMILES O=C([O-])CCC(=O)[O-]
REMARK SMILES IDX 4 1 2 2 1 3 3 4 5 5 6 6 7 7 8 8
REMARK H PARENT
REMARK Flexibility Score: inf
ROOT
ATOM      1  C   UNL     1     -42.831 -35.293  37.254  1.00  0.00     0.059 C 
ENDROOT
BRANCH   1   2
ATOM      2  C   UNL     1     -44.130 -35.753  36.663  1.00  0.00     0.042 C 
ATOM      3  O   UNL     1     -44.340 -36.979  36.471  1.00  0.00    -0.550 OA
ATOM      4  O   UNL     1     -45.123 -34.828  36.364  1.00  0.00    -0.550 OA
ENDBRANCH   1   2
BRANCH   1   5
ATOM      5  C   UNL     1     -41.645 -35.646  36.350  1.00  0.00     0.059 C 
BRANCH   5   6
ATOM      6  C   UNL     1     -40.353 -35.142  36.917  1.00  0.00     0.042 C 
ATOM      7  O   UNL     1     -40.327 -34.079  37.592  1.00  0.00    -0.550 OA
ATOM      8  O   UNL     1     -39.182 -35.868  36.731  1.00  0.00    -0.550 OA
ENDBRANCH   5   6
ENDBRANCH   1   5
TORSDOF 3
ENDMDL
MODEL 3
REMARK VINA RESULT:    -3.228     15.526     16.482
REMARK INTER + INTRA:          -3.826
REMARK INTER:                  -3.771
REMARK INTRA:                  -0.055
REMARK UNBOUND:                -0.032
REMARK SMILES O=C([O-])CCC(=O)[O-]
REMARK SMILES IDX 4 1 2 2 1 3 3 4 5 5 6 6 7 7 8 8
REMARK H PARENT
REMARK Flexibility Score: inf
ROOT
ATOM      1  C   UNL     1     -49.539 -22.752  45.282  1.00  0.00     0.059 C 
ENDROOT
BRANCH   1   2
ATOM      2  C   UNL     1     -48.593 -22.481  46.412  1.00  0.00     0.042 C 
ATOM      3  O   UNL     1     -47.532 -23.150  46.526  1.00  0.00    -0.550 OA
ATOM      4  O   UNL     1     -48.865 -21.462  47.317  1.00  0.00    -0.550 OA
ENDBRANCH   1   2
BRANCH   1   5
ATOM      5  C   UNL     1     -50.493 -23.905  45.609  1.00  0.00     0.059 C 
BRANCH   5   6
ATOM      6  C   UNL     1     -50.438 -24.978  44.565  1.00  0.00     0.042 C 
ATOM      7  O   UNL     1     -50.224 -24.680  43.360  1.00  0.00    -0.550 OA
ATOM      8  O   UNL     1     -50.584 -26.311  44.929  1.00  0.00    -0.550 OA
ENDBRANCH   5   6
ENDBRANCH   1   5
TORSDOF 3
ENDMDL
MODEL 4
REMARK VINA RESULT:    -3.160      1.965      4.664
REMARK INTER + INTRA:          -3.746
REMARK INTER:                  -3.655
REMARK INTRA:                  -0.091
REMARK UNBOUND:                -0.032
REMARK SMILES O=C([O-])CCC(=O)[O-]
REMARK SMILES IDX 4 1 2 2 1 3 3 4 5 5 6 6 7 7 8 8
REMARK H PARENT
REMARK Flexibility Score: inf
ROOT
ATOM      1  C   UNL     1     -45.254 -35.674  36.830  1.00  0.00     0.059 C 
ENDROOT
BRANCH   1   2
ATOM      2  C   UNL     1     -45.676 -37.108  36.938  1.00  0.00     0.042 C 
ATOM      3  O   UNL     1     -44.944 -38.022  36.474  1.00  0.00    -0.550 OA
ATOM      4  O   UNL     1     -46.859 -37.437  37.588  1.00  0.00    -0.550 OA
ENDBRANCH   1   2
BRANCH   1   5
ATOM      5  C   UNL     1     -43.777 -35.549  36.439  1.00  0.00     0.059 C 
BRANCH   5   6
ATOM      6  C   UNL     1     -42.926 -35.182  37.616  1.00  0.00     0.042 C 
ATOM      7  O   UNL     1     -43.436 -35.083  38.763  1.00  0.00    -0.550 OA
ATOM      8  O   UNL     1     -41.560 -34.985  37.451  1.00  0.00    -0.550 OA
ENDBRANCH   5   6
ENDBRANCH   1   5
TORSDOF 3
ENDMDL
MODEL 5
REMARK VINA RESULT:    -3.155      1.966      2.758
REMARK INTER + INTRA:          -3.740
REMARK INTER:                  -3.651
REMARK INTRA:                  -0.090
REMARK UNBOUND:                -0.032
REMARK SMILES O=C([O-])CCC(=O)[O-]
REMARK SMILES IDX 4 1 2 2 1 3 3 4 5 5 6 6 7 7 8 8
REMARK H PARENT
REMARK Flexibility Score: inf
ROOT
ATOM      1  C   UNL     1     -43.775 -35.536  36.452  1.00  0.00     0.059 C 
ENDROOT
BRANCH   1   2
ATOM      2  C   UNL     1     -42.945 -35.102  37.622  1.00  0.00     0.042 C 
ATOM      3  O   UNL     1     -43.490 -34.854  38.730  1.00  0.00    -0.550 OA
ATOM      4  O   UNL     1     -41.564 -35.010  37.498  1.00  0.00    -0.550 OA
ENDBRANCH   1   2
BRANCH   1   5
ATOM      5  C   UNL     1     -45.256 -35.659  36.827  1.00  0.00     0.059 C 
BRANCH   5   6
ATOM      6  C   UNL     1     -45.668 -37.092  36.976  1.00  0.00     0.042 C 
ATOM      7  O   UNL     1     -46.757 -37.384  37.537  1.00  0.00    -0.550 OA
ATOM      8  O   UNL     1     -44.867 -38.103  36.460  1.00  0.00    -0.550 OA
ENDBRANCH   5   6
ENDBRANCH   1   5
TORSDOF 3
ENDMDL
MODEL 6
REMARK VINA RESULT:    -3.121     16.396     17.278
REMARK INTER + INTRA:          -3.701
REMARK INTER:                  -3.591
REMARK INTRA:                  -0.109
REMARK UNBOUND:                -0.032
REMARK SMILES O=C([O-])CCC(=O)[O-]
REMARK SMILES IDX 4 1 2 2 1 3 3 4 5 5 6 6 7 7 8 8
REMARK H PARENT
REMARK Flexibility Score: inf
ROOT
ATOM      1  C   UNL     1     -48.308 -23.109  46.257  1.00  0.00     0.059 C 
ENDROOT
BRANCH   1   2
ATOM      2  C   UNL     1     -48.099 -21.736  46.821  1.00  0.00     0.042 C 
ATOM      3  O   UNL     1     -49.049 -21.130  47.384  1.00  0.00    -0.550 OA
ATOM      4  O   UNL     1     -46.844 -21.144  46.762  1.00  0.00    -0.550 OA
ENDBRANCH   1   2
BRANCH   1   5
ATOM      5  C   UNL     1     -49.401 -23.116  45.182  1.00  0.00     0.059 C 
BRANCH   5   6
ATOM      6  C   UNL     1     -50.553 -23.990  45.574  1.00  0.00     0.042 C 
ATOM      7  O   UNL     1     -51.496 -23.524  46.266  1.00  0.00    -0.550 OA
ATOM      8  O   UNL     1     -50.602 -25.310  45.144  1.00  0.00    -0.550 OA
ENDBRANCH   5   6
ENDBRANCH   1   5
TORSDOF 3
ENDMDL
MODEL 7
REMARK VINA RESULT:    -3.092      3.300      3.889
REMARK INTER + INTRA:          -3.667
REMARK INTER:                  -3.559
REMARK INTRA:                  -0.108
REMARK UNBOUND:                -0.032
REMARK SMILES O=C([O-])CCC(=O)[O-]
REMARK SMILES IDX 4 1 2 2 1 3 3 4 5 5 6 6 7 7 8 8
REMARK H PARENT
REMARK Flexibility Score: inf
ROOT
ATOM      1  C   UNL     1     -45.257 -34.391  36.784  1.00  0.00     0.059 C 
ENDROOT
BRANCH   1   2
ATOM      2  C   UNL     1     -44.685 -33.598  37.920  1.00  0.00     0.042 C 
ATOM      3  O   UNL     1     -44.226 -34.184  38.935  1.00  0.00    -0.550 OA
ATOM      4  O   UNL     1     -44.623 -32.213  37.838  1.00  0.00    -0.550 OA
ENDBRANCH   1   2
BRANCH   1   5
ATOM      5  C   UNL     1     -44.391 -35.613  36.458  1.00  0.00     0.059 C 
BRANCH   5   6
ATOM      6  C   UNL     1     -45.124 -36.893  36.723  1.00  0.00     0.042 C 
ATOM      7  O   UNL     1     -46.268 -36.872  37.249  1.00  0.00    -0.550 OA
ATOM      8  O   UNL     1     -44.558 -38.107  36.352  1.00  0.00    -0.550 OA
ENDBRANCH   5   6
ENDBRANCH   1   5
TORSDOF 3
ENDMDL
MODEL 8
REMARK VINA RESULT:    -3.091      3.659      4.598
REMARK INTER + INTRA:          -3.665
REMARK INTER:                  -3.547
REMARK INTRA:                  -0.118
REMARK UNBOUND:                -0.032
REMARK SMILES O=C([O-])CCC(=O)[O-]
REMARK SMILES IDX 4 1 2 2 1 3 3 4 5 5 6 6 7 7 8 8
REMARK H PARENT
REMARK Flexibility Score: inf
ROOT
ATOM      1  C   UNL     1     -44.479 -35.947  37.331  1.00  0.00     0.059 C 
ENDROOT
BRANCH   1   2
ATOM      2  C   UNL     1     -45.189 -37.212  36.952  1.00  0.00     0.042 C 
ATOM      3  O   UNL     1     -44.573 -38.126  36.343  1.00  0.00    -0.550 OA
ATOM      4  O   UNL     1     -46.519 -37.396  37.310  1.00  0.00    -0.550 OA
ENDBRANCH   1   2
BRANCH   1   5
ATOM      5  C   UNL     1     -44.928 -34.767  36.462  1.00  0.00     0.059 C 
BRANCH   5   6
ATOM      6  C   UNL     1     -45.770 -33.801  37.237  1.00  0.00     0.042 C 
ATOM      7  O   UNL     1     -45.926 -32.622  36.824  1.00  0.00    -0.550 OA
ATOM      8  O   UNL     1     -46.413 -34.215  38.397  1.00  0.00    -0.550 OA
ENDBRANCH   5   6
ENDBRANCH   1   5
TORSDOF 3
ENDMDL
MODEL 9
REMARK VINA RESULT:    -3.033     15.390     16.658
REMARK INTER + INTRA:          -3.598
REMARK INTER:                  -3.507
REMARK INTRA:                  -0.090
REMARK UNBOUND:                -0.032
REMARK SMILES O=C([O-])CCC(=O)[O-]
REMARK SMILES IDX 4 1 2 2 1 3 3 4 5 5 6 6 7 7 8 8
REMARK H PARENT
REMARK Flexibility Score: inf
ROOT
ATOM      1  C   UNL     1     -50.467 -23.899  45.647  1.00  0.00     0.059 C 
ENDROOT
BRANCH   1   2
ATOM      2  C   UNL     1     -50.424 -24.941  44.570  1.00  0.00     0.042 C 
ATOM      3  O   UNL     1     -50.541 -26.160  44.863  1.00  0.00    -0.550 OA
ATOM      4  O   UNL     1     -50.296 -24.561  43.240  1.00  0.00    -0.550 OA
ENDBRANCH   1   2
BRANCH   1   5
ATOM      5  C   UNL     1     -49.970 -22.542  45.137  1.00  0.00     0.059 C 
BRANCH   5   6
ATOM      6  C   UNL     1     -48.580 -22.250  45.613  1.00  0.00     0.042 C 
ATOM      7  O   UNL     1     -48.013 -21.172  45.292  1.00  0.00    -0.550 OA
ATOM      8  O   UNL     1     -47.926 -23.151  46.444  1.00  0.00    -0.550 OA
ENDBRANCH   5   6
ENDBRANCH   1   5
TORSDOF 3
ENDMDL
