MODEL 1
REMARK VINA RESULT:    13.497      0.000      0.000
REMARK INTER + INTRA:          24.204
REMARK INTER:                  24.543
REMARK INTRA:                  -0.339
REMARK UNBOUND:                -0.339
REMARK SMILES CCCCCCCCCCCCCCCC(=O)[O-]
REMARK SMILES IDX 9 1 10 2 11 3 12 4 13 5 14 6 15 7 16 8 17 9 18 10 8 11 7 12
REMARK SMILES IDX 6 13 5 14 4 15 3 16 2 17 1 18
REMARK H PARENT
REMARK Flexibility Score: inf
ROOT
ATOM      1  C   UNL     1       5.914  19.579  50.493  1.00  0.00     0.000 C 
ENDROOT
BRANCH   1   2
ATOM      2  C   UNL     1       5.514  19.154  49.070  1.00  0.00     0.000 C 
BRANCH   2   3
ATOM      3  C   UNL     1       6.236  17.876  48.606  1.00  0.00     0.000 C 
BRANCH   3   4
ATOM      4  C   UNL     1       6.064  17.616  47.101  1.00  0.00     0.000 C 
BRANCH   4   5
ATOM      5  C   UNL     1       6.393  16.169  46.706  1.00  0.00     0.000 C 
BRANCH   5   6
ATOM      6  C   UNL     1       7.436  16.132  45.580  1.00  0.00     0.006 C 
BRANCH   6   7
ATOM      7  C   UNL     1       8.625  15.222  45.919  1.00  0.00     0.053 C 
BRANCH   7   8
ATOM      8  C   UNL     1       8.969  14.311  44.780  1.00  0.00     0.041 C 
ATOM      9  O   UNL     1       9.202  14.784  43.636  1.00  0.00    -0.550 OA
ATOM     10  O   UNL     1       9.000  12.936  44.976  1.00  0.00    -0.550 OA
ENDBRANCH   7   8
ENDBRANCH   6   7
ENDBRANCH   5   6
ENDBRANCH   4   5
ENDBRANCH   3   4
ENDBRANCH   2   3
ENDBRANCH   1   2
BRANCH   1  11
ATOM     11  C   UNL     1       4.874  20.445  51.231  1.00  0.00     0.000 C 
BRANCH  11  12
ATOM     12  C   UNL     1       5.180  20.640  52.732  1.00  0.00    -0.000 C 
BRANCH  12  13
ATOM     13  C   UNL     1       3.919  20.993  53.540  1.00  0.00    -0.000 C 
BRANCH  13  14
ATOM     14  C   UNL     1       4.216  21.225  55.029  1.00  0.00    -0.000 C 
BRANCH  14  15
ATOM     15  C   UNL     1       5.606  21.843  55.266  1.00  0.00    -0.000 C 
BRANCH  15  16
ATOM     16  C   UNL     1       6.610  20.833  55.845  1.00  0.00    -0.000 C 
BRANCH  16  17
ATOM     17  C   UNL     1       7.984  21.459  56.119  1.00  0.00    -0.003 C 
ATOM     18  C   UNL     1       9.102  20.621  55.505  1.00  0.00     0.004 C 
ENDBRANCH  16  17
ENDBRANCH  15  16
ENDBRANCH  14  15
ENDBRANCH  13  14
ENDBRANCH  12  13
ENDBRANCH  11  12
ENDBRANCH   1  11
TORSDOF 14
ENDMDL
MODEL 2
REMARK VINA RESULT:    15.787      4.631     10.051
REMARK INTER + INTRA:          28.370
REMARK INTER:                  28.813
REMARK INTRA:                  -0.443
REMARK UNBOUND:                -0.339
REMARK SMILES CCCCCCCCCCCCCCCC(=O)[O-]
REMARK SMILES IDX 9 1 10 2 11 3 12 4 13 5 14 6 15 7 16 8 17 9 18 10 8 11 7 12
REMARK SMILES IDX 6 13 5 14 4 15 3 16 2 17 1 18
REMARK H PARENT
REMARK Flexibility Score: inf
ROOT
ATOM      1  C   UNL     1       5.737  19.371  49.999  1.00  0.00     0.000 C 
ENDROOT
BRANCH   1   2
ATOM      2  C   UNL     1       4.737  20.205  50.817  1.00  0.00     0.000 C 
BRANCH   2   3
ATOM      3  C   UNL     1       5.259  20.549  52.224  1.00  0.00     0.000 C 
BRANCH   3   4
ATOM      4  C   UNL     1       4.202  20.324  53.316  1.00  0.00     0.000 C 
BRANCH   4   5
ATOM      5  C   UNL     1       4.745  20.576  54.731  1.00  0.00     0.000 C 
BRANCH   5   6
ATOM      6  C   UNL     1       5.790  21.700  54.725  1.00  0.00     0.006 C 
BRANCH   6   7
ATOM      7  C   UNL     1       6.485  21.856  56.085  1.00  0.00     0.053 C 
BRANCH   7   8
ATOM      8  C   UNL     1       7.845  21.230  56.088  1.00  0.00     0.041 C 
ATOM      9  O   UNL     1       8.877  21.951  56.027  1.00  0.00    -0.550 OA
ATOM     10  O   UNL     1       7.974  19.847  56.125  1.00  0.00    -0.550 OA
ENDBRANCH   7   8
ENDBRANCH   6   7
ENDBRANCH   5   6
ENDBRANCH   4   5
ENDBRANCH   3   4
ENDBRANCH   2   3
ENDBRANCH   1   2
BRANCH   1  11
ATOM     11  C   UNL     1       5.394  19.224  48.503  1.00  0.00     0.000 C 
BRANCH  11  12
ATOM     12  C   UNL     1       5.946  17.933  47.862  1.00  0.00    -0.000 C 
BRANCH  12  13
ATOM     13  C   UNL     1       5.451  17.744  46.418  1.00  0.00    -0.000 C 
BRANCH  13  14
ATOM     14  C   UNL     1       5.981  16.454  45.774  1.00  0.00    -0.000 C 
BRANCH  14  15
ATOM     15  C   UNL     1       7.519  16.380  45.778  1.00  0.00    -0.000 C 
BRANCH  15  16
ATOM     16  C   UNL     1       8.041  14.957  45.527  1.00  0.00    -0.000 C 
BRANCH  16  17
ATOM     17  C   UNL     1       9.471  14.943  44.969  1.00  0.00    -0.003 C 
ATOM     18  C   UNL     1       9.642  13.849  43.920  1.00  0.00     0.004 C 
ENDBRANCH  16  17
ENDBRANCH  15  16
ENDBRANCH  14  15
ENDBRANCH  13  14
ENDBRANCH  12  13
ENDBRANCH  11  12
ENDBRANCH   1  11
TORSDOF 14
ENDMDL
MODEL 3
REMARK VINA RESULT:    15.915      5.540     11.271
REMARK INTER + INTRA:          28.603
REMARK INTER:                  28.766
REMARK INTRA:                  -0.163
REMARK UNBOUND:                -0.339
REMARK SMILES CCCCCCCCCCCCCCCC(=O)[O-]
REMARK SMILES IDX 9 1 10 2 11 3 12 4 13 5 14 6 15 7 16 8 17 9 18 10 8 11 7 12
REMARK SMILES IDX 6 13 5 14 4 15 3 16 2 17 1 18
REMARK H PARENT
REMARK Flexibility Score: inf
ROOT
ATOM      1  C   UNL     1      11.435  13.435  43.448  1.00  0.00     0.000 C 
ENDROOT
BRANCH   1   2
ATOM      2  C   UNL     1       9.944  13.811  43.480  1.00  0.00     0.000 C 
BRANCH   2   3
ATOM      3  C   UNL     1       9.626  14.895  44.525  1.00  0.00     0.000 C 
BRANCH   3   4
ATOM      4  C   UNL     1       8.118  15.145  44.675  1.00  0.00     0.000 C 
BRANCH   4   5
ATOM      5  C   UNL     1       7.755  15.821  46.005  1.00  0.00     0.000 C 
BRANCH   5   6
ATOM      6  C   UNL     1       6.266  16.194  46.043  1.00  0.00     0.006 C 
BRANCH   6   7
ATOM      7  C   UNL     1       6.045  17.672  46.393  1.00  0.00     0.053 C 
BRANCH   7   8
ATOM      8  C   UNL     1       6.167  17.918  47.866  1.00  0.00     0.041 C 
ATOM      9  O   UNL     1       5.427  18.767  48.431  1.00  0.00    -0.550 OA
ATOM     10  O   UNL     1       7.120  17.232  48.608  1.00  0.00    -0.550 OA
ENDBRANCH   7   8
ENDBRANCH   6   7
ENDBRANCH   5   6
ENDBRANCH   4   5
ENDBRANCH   3   4
ENDBRANCH   2   3
ENDBRANCH   1   2
BRANCH   1  11
ATOM     11  C   UNL     1      11.806  12.324  42.445  1.00  0.00     0.000 C 
BRANCH  11  12
ATOM     12  C   UNL     1      12.770  11.264  43.020  1.00  0.00    -0.000 C 
BRANCH  12  13
ATOM     13  C   UNL     1      13.895  11.895  43.857  1.00  0.00    -0.000 C 
BRANCH  13  14
ATOM     14  C   UNL     1      14.748  10.848  44.589  1.00  0.00    -0.000 C 
BRANCH  14  15
ATOM     15  C   UNL     1      15.666  11.473  45.656  1.00  0.00    -0.000 C 
BRANCH  15  16
ATOM     16  C   UNL     1      14.936  11.728  46.984  1.00  0.00    -0.000 C 
BRANCH  16  17
ATOM     17  C   UNL     1      15.744  12.617  47.939  1.00  0.00    -0.003 C 
ATOM     18  C   UNL     1      14.828  13.535  48.743  1.00  0.00     0.004 C 
ENDBRANCH  16  17
ENDBRANCH  15  16
ENDBRANCH  14  15
ENDBRANCH  13  14
ENDBRANCH  12  13
ENDBRANCH  11  12
ENDBRANCH   1  11
TORSDOF 14
ENDMDL
MODEL 4
REMARK VINA RESULT:    16.157      5.616     10.252
REMARK INTER + INTRA:          29.042
REMARK INTER:                  29.698
REMARK INTRA:                  -0.655
REMARK UNBOUND:                -0.339
REMARK SMILES CCCCCCCCCCCCCCCC(=O)[O-]
REMARK SMILES IDX 9 1 10 2 11 3 12 4 13 5 14 6 15 7 16 8 17 9 18 10 8 11 7 12
REMARK SMILES IDX 6 13 5 14 4 15 3 16 2 17 1 18
REMARK H PARENT
REMARK Flexibility Score: inf
ROOT
ATOM      1  C   UNL     1      11.786  13.292  43.196  1.00  0.00     0.000 C 
ENDROOT
BRANCH   1   2
ATOM      2  C   UNL     1      12.359  11.988  42.615  1.00  0.00     0.000 C 
BRANCH   2   3
ATOM      3  C   UNL     1      12.993  11.086  43.690  1.00  0.00     0.000 C 
BRANCH   3   4
ATOM      4  C   UNL     1      14.518  11.255  43.777  1.00  0.00     0.000 C 
BRANCH   4   5
ATOM      5  C   UNL     1      15.096  10.764  45.112  1.00  0.00     0.000 C 
BRANCH   5   6
ATOM      6  C   UNL     1      15.478  11.947  46.012  1.00  0.00     0.006 C 
BRANCH   6   7
ATOM      7  C   UNL     1      15.133  11.691  47.486  1.00  0.00     0.053 C 
BRANCH   7   8
ATOM      8  C   UNL     1      15.193  12.950  48.297  1.00  0.00     0.041 C 
ATOM      9  O   UNL     1      14.135  13.573  48.579  1.00  0.00    -0.550 OA
ATOM     10  O   UNL     1      16.420  13.451  48.712  1.00  0.00    -0.550 OA
ENDBRANCH   7   8
ENDBRANCH   6   7
ENDBRANCH   5   6
ENDBRANCH   4   5
ENDBRANCH   3   4
ENDBRANCH   2   3
ENDBRANCH   1   2
BRANCH   1  11
ATOM     11  C   UNL     1      10.247  13.354  43.264  1.00  0.00     0.000 C 
BRANCH  11  12
ATOM     12  C   UNL     1       9.701  14.714  43.750  1.00  0.00    -0.000 C 
BRANCH  12  13
ATOM     13  C   UNL     1       8.813  14.570  44.998  1.00  0.00    -0.000 C 
BRANCH  13  14
ATOM     14  C   UNL     1       9.366  15.335  46.210  1.00  0.00    -0.000 C 
BRANCH  14  15
ATOM     15  C   UNL     1       8.310  16.241  46.870  1.00  0.00    -0.000 C 
BRANCH  15  16
ATOM     16  C   UNL     1       6.953  16.183  46.152  1.00  0.00    -0.000 C 
BRANCH  16  17
ATOM     17  C   UNL     1       6.039  17.360  46.523  1.00  0.00    -0.003 C 
ATOM     18  C   UNL     1       6.314  17.842  47.945  1.00  0.00     0.004 C 
ENDBRANCH  16  17
ENDBRANCH  15  16
ENDBRANCH  14  15
ENDBRANCH  13  14
ENDBRANCH  12  13
ENDBRANCH  11  12
ENDBRANCH   1  11
TORSDOF 14
ENDMDL
