MODEL 1
REMARK VINA RESULT:    -4.794      0.000      0.000
REMARK INTER + INTRA:          -4.794
REMARK INTER:                  -4.794
REMARK INTRA:                   0.000
REMARK UNBOUND:                 0.000
REMARK SMILES CC(C)=C1CC[C@H](C)CC1=O
REMARK SMILES IDX 8 1 7 2 6 3 5 4 4 5 2 6 1 7 3 8 10 9 11 10 9 11
REMARK H PARENT
REMARK Flexibility Score: inf
ROOT
ATOM      1  C   UNL     1       6.600   1.461 109.320  1.00  0.00     0.008 C 
ATOM      2  C   UNL     1       5.398   2.380 109.075  1.00  0.00    -0.006 C 
ATOM      3  C   UNL     1       5.785   3.850 109.306  1.00  0.00     0.008 C 
ATOM      4  C   UNL     1       4.569   4.775 109.164  1.00  0.00     0.039 C 
ATOM      5  C   UNL     1       3.825   4.565 107.853  1.00  0.00    -0.006 C 
ATOM      6  C   UNL     1       3.182   5.596 107.229  1.00  0.00    -0.070 C 
ATOM      7  C   UNL     1       2.488   5.414 105.899  1.00  0.00     0.039 C 
ATOM      8  C   UNL     1       3.168   6.986 107.824  1.00  0.00     0.039 C 
ATOM      9  C   UNL     1       3.744   3.158 107.361  1.00  0.00     0.159 C 
ATOM     10  O   UNL     1       2.747   2.747 106.711  1.00  0.00    -0.295 OA
ATOM     11  C   UNL     1       4.862   2.196 107.647  1.00  0.00     0.084 C 
ENDROOT
TORSDOF 0
ENDMDL
MODEL 2
REMARK VINA RESULT:    -4.758      1.375      3.992
REMARK INTER + INTRA:          -4.758
REMARK INTER:                  -4.758
REMARK INTRA:                   0.000
REMARK UNBOUND:                 0.000
REMARK SMILES CC(C)=C1CC[C@H](C)CC1=O
REMARK SMILES IDX 8 1 7 2 6 3 5 4 4 5 2 6 1 7 3 8 10 9 11 10 9 11
REMARK H PARENT
REMARK Flexibility Score: inf
ROOT
ATOM      1  C   UNL     1       3.123   7.377 107.874  1.00  0.00     0.008 C 
ATOM      2  C   UNL     1       3.710   6.030 107.435  1.00  0.00    -0.006 C 
ATOM      3  C   UNL     1       3.935   5.117 108.651  1.00  0.00     0.008 C 
ATOM      4  C   UNL     1       4.616   3.804 108.242  1.00  0.00     0.039 C 
ATOM      5  C   UNL     1       3.888   3.097 107.107  1.00  0.00    -0.006 C 
ATOM      6  C   UNL     1       3.881   1.735 107.009  1.00  0.00    -0.070 C 
ATOM      7  C   UNL     1       3.115   1.020 105.920  1.00  0.00     0.039 C 
ATOM      8  C   UNL     1       4.609   0.873 108.014  1.00  0.00     0.039 C 
ATOM      9  C   UNL     1       3.293   3.979 106.060  1.00  0.00     0.159 C 
ATOM     10  O   UNL     1       3.216   3.609 104.858  1.00  0.00    -0.295 OA
ATOM     11  C   UNL     1       2.778   5.341 106.427  1.00  0.00     0.084 C 
ENDROOT
TORSDOF 0
ENDMDL
MODEL 3
REMARK VINA RESULT:    -4.753      1.640      4.655
REMARK INTER + INTRA:          -4.753
REMARK INTER:                  -4.753
REMARK INTRA:                   0.000
REMARK UNBOUND:                 0.000
REMARK SMILES CC(C)=C1CC[C@H](C)CC1=O
REMARK SMILES IDX 8 1 7 2 6 3 5 4 4 5 2 6 1 7 3 8 10 9 11 10 9 11
REMARK H PARENT
REMARK Flexibility Score: inf
ROOT
ATOM      1  C   UNL     1       1.921   5.496 106.265  1.00  0.00     0.008 C 
ATOM      2  C   UNL     1       2.621   4.486 107.181  1.00  0.00    -0.006 C 
ATOM      3  C   UNL     1       3.070   3.252 106.381  1.00  0.00     0.008 C 
ATOM      4  C   UNL     1       3.682   2.186 107.299  1.00  0.00     0.039 C 
ATOM      5  C   UNL     1       4.787   2.743 108.185  1.00  0.00    -0.006 C 
ATOM      6  C   UNL     1       5.846   1.970 108.567  1.00  0.00    -0.070 C 
ATOM      7  C   UNL     1       6.979   2.526 109.400  1.00  0.00     0.039 C 
ATOM      8  C   UNL     1       5.956   0.523 108.141  1.00  0.00     0.039 C 
ATOM      9  C   UNL     1       4.583   4.130 108.697  1.00  0.00     0.159 C 
ATOM     10  O   UNL     1       5.023   4.484 109.823  1.00  0.00    -0.295 OA
ATOM     11  C   UNL     1       3.831   5.134 107.870  1.00  0.00     0.084 C 
ENDROOT
TORSDOF 0
ENDMDL
MODEL 4
REMARK VINA RESULT:    -4.676      1.643      4.356
REMARK INTER + INTRA:          -4.676
REMARK INTER:                  -4.676
REMARK INTRA:                   0.000
REMARK UNBOUND:                 0.000
REMARK SMILES CC(C)=C1CC[C@H](C)CC1=O
REMARK SMILES IDX 8 1 7 2 6 3 5 4 4 5 2 6 1 7 3 8 10 9 11 10 9 11
REMARK H PARENT
REMARK Flexibility Score: inf
ROOT
ATOM      1  C   UNL     1       3.112   7.342 107.857  1.00  0.00     0.008 C 
ATOM      2  C   UNL     1       3.125   5.813 107.967  1.00  0.00    -0.006 C 
ATOM      3  C   UNL     1       2.535   5.174 106.700  1.00  0.00     0.008 C 
ATOM      4  C   UNL     1       2.447   3.648 106.835  1.00  0.00     0.039 C 
ATOM      5  C   UNL     1       3.772   3.020 107.244  1.00  0.00    -0.006 C 
ATOM      6  C   UNL     1       4.122   1.768 106.826  1.00  0.00    -0.070 C 
ATOM      7  C   UNL     1       5.458   1.156 107.179  1.00  0.00     0.039 C 
ATOM      8  C   UNL     1       3.200   0.946 105.954  1.00  0.00     0.039 C 
ATOM      9  C   UNL     1       4.597   3.802 108.212  1.00  0.00     0.159 C 
ATOM     10  O   UNL     1       5.333   3.228 109.058  1.00  0.00    -0.295 OA
ATOM     11  C   UNL     1       4.556   5.303 108.196  1.00  0.00     0.084 C 
ENDROOT
TORSDOF 0
ENDMDL
MODEL 5
REMARK VINA RESULT:    -4.563      1.109      4.068
REMARK INTER + INTRA:          -4.563
REMARK INTER:                  -4.563
REMARK INTRA:                   0.000
REMARK UNBOUND:                 0.000
REMARK SMILES CC(C)=C1CC[C@H](C)CC1=O
REMARK SMILES IDX 8 1 7 2 6 3 5 4 4 5 2 6 1 7 3 8 10 9 11 10 9 11
REMARK H PARENT
REMARK Flexibility Score: inf
ROOT
ATOM      1  C   UNL     1       1.644   5.885 106.269  1.00  0.00     0.008 C 
ATOM      2  C   UNL     1       2.888   5.054 106.599  1.00  0.00    -0.006 C 
ATOM      3  C   UNL     1       3.598   5.614 107.842  1.00  0.00     0.008 C 
ATOM      4  C   UNL     1       4.902   4.856 108.128  1.00  0.00     0.039 C 
ATOM      5  C   UNL     1       4.698   3.349 108.200  1.00  0.00    -0.006 C 
ATOM      6  C   UNL     1       5.464   2.568 109.017  1.00  0.00    -0.070 C 
ATOM      7  C   UNL     1       5.235   1.079 109.140  1.00  0.00     0.039 C 
ATOM      8  C   UNL     1       6.559   3.166 109.872  1.00  0.00     0.039 C 
ATOM      9  C   UNL     1       3.703   2.775 107.246  1.00  0.00     0.159 C 
ATOM     10  O   UNL     1       3.844   1.618 106.770  1.00  0.00    -0.295 OA
ATOM     11  C   UNL     1       2.508   3.584 106.829  1.00  0.00     0.084 C 
ENDROOT
TORSDOF 0
ENDMDL
MODEL 6
REMARK VINA RESULT:    -4.549      1.729      2.317
REMARK INTER + INTRA:          -4.549
REMARK INTER:                  -4.549
REMARK INTRA:                   0.000
REMARK UNBOUND:                 0.000
REMARK SMILES CC(C)=C1CC[C@H](C)CC1=O
REMARK SMILES IDX 8 1 7 2 6 3 5 4 4 5 2 6 1 7 3 8 10 9 11 10 9 11
REMARK H PARENT
REMARK Flexibility Score: inf
ROOT
ATOM      1  C   UNL     1       6.826   2.534 109.380  1.00  0.00     0.008 C 
ATOM      2  C   UNL     1       6.141   3.639 108.569  1.00  0.00    -0.006 C 
ATOM      3  C   UNL     1       6.109   3.272 107.076  1.00  0.00     0.008 C 
ATOM      4  C   UNL     1       5.518   4.412 106.236  1.00  0.00     0.039 C 
ATOM      5  C   UNL     1       4.165   4.879 106.753  1.00  0.00    -0.006 C 
ATOM      6  C   UNL     1       3.208   5.357 105.904  1.00  0.00    -0.070 C 
ATOM      7  C   UNL     1       1.840   5.770 106.398  1.00  0.00     0.039 C 
ATOM      8  C   UNL     1       3.458   5.459 104.417  1.00  0.00     0.039 C 
ATOM      9  C   UNL     1       3.998   4.891 108.236  1.00  0.00     0.159 C 
ATOM     10  O   UNL     1       3.268   5.745 108.806  1.00  0.00    -0.295 OA
ATOM     11  C   UNL     1       4.714   3.877 109.082  1.00  0.00     0.084 C 
ENDROOT
TORSDOF 0
ENDMDL
MODEL 7
REMARK VINA RESULT:    -4.541      1.592      2.539
REMARK INTER + INTRA:          -4.541
REMARK INTER:                  -4.541
REMARK INTRA:                   0.000
REMARK UNBOUND:                 0.000
REMARK SMILES CC(C)=C1CC[C@H](C)CC1=O
REMARK SMILES IDX 8 1 7 2 6 3 5 4 4 5 2 6 1 7 3 8 10 9 11 10 9 11
REMARK H PARENT
REMARK Flexibility Score: inf
ROOT
ATOM      1  C   UNL     1       4.689   0.160 108.343  1.00  0.00     0.008 C 
ATOM      2  C   UNL     1       4.531   1.538 107.691  1.00  0.00    -0.006 C 
ATOM      3  C   UNL     1       3.099   1.727 107.165  1.00  0.00     0.008 C 
ATOM      4  C   UNL     1       2.951   3.059 106.419  1.00  0.00     0.039 C 
ATOM      5  C   UNL     1       3.432   4.246 107.242  1.00  0.00    -0.006 C 
ATOM      6  C   UNL     1       2.858   5.478 107.113  1.00  0.00    -0.070 C 
ATOM      7  C   UNL     1       3.289   6.651 107.965  1.00  0.00     0.039 C 
ATOM      8  C   UNL     1       1.730   5.719 106.136  1.00  0.00     0.039 C 
ATOM      9  C   UNL     1       4.632   4.007 108.099  1.00  0.00     0.159 C 
ATOM     10  O   UNL     1       5.463   4.925 108.332  1.00  0.00    -0.295 OA
ATOM     11  C   UNL     1       4.873   2.650 108.694  1.00  0.00     0.084 C 
ENDROOT
TORSDOF 0
ENDMDL
MODEL 8
REMARK VINA RESULT:    -4.353      2.044      4.279
REMARK INTER + INTRA:          -4.353
REMARK INTER:                  -4.353
REMARK INTRA:                   0.000
REMARK UNBOUND:                 0.000
REMARK SMILES CC(C)=C1CC[C@H](C)CC1=O
REMARK SMILES IDX 8 1 7 2 6 3 5 4 4 5 2 6 1 7 3 8 10 9 11 10 9 11
REMARK H PARENT
REMARK Flexibility Score: inf
ROOT
ATOM      1  C   UNL     1       3.235   5.497 103.782  1.00  0.00     0.008 C 
ATOM      2  C   UNL     1       4.113   5.408 105.034  1.00  0.00    -0.006 C 
ATOM      3  C   UNL     1       3.254   5.498 106.305  1.00  0.00     0.008 C 
ATOM      4  C   UNL     1       4.126   5.513 107.568  1.00  0.00     0.039 C 
ATOM      5  C   UNL     1       5.112   4.355 107.610  1.00  0.00    -0.006 C 
ATOM      6  C   UNL     1       5.498   3.795 108.794  1.00  0.00    -0.070 C 
ATOM      7  C   UNL     1       6.433   2.608 108.847  1.00  0.00     0.039 C 
ATOM      8  C   UNL     1       4.976   4.314 110.114  1.00  0.00     0.039 C 
ATOM      9  C   UNL     1       5.711   3.954 106.302  1.00  0.00     0.159 C 
ATOM     10  O   UNL     1       6.883   3.498 106.230  1.00  0.00    -0.295 OA
ATOM     11  C   UNL     1       4.917   4.099 105.036  1.00  0.00     0.084 C 
ENDROOT
TORSDOF 0
ENDMDL
MODEL 9
REMARK VINA RESULT:    -4.340      2.026      3.521
REMARK INTER + INTRA:          -4.340
REMARK INTER:                  -4.340
REMARK INTRA:                   0.000
REMARK UNBOUND:                 0.000
REMARK SMILES CC(C)=C1CC[C@H](C)CC1=O
REMARK SMILES IDX 8 1 7 2 6 3 5 4 4 5 2 6 1 7 3 8 10 9 11 10 9 11
REMARK H PARENT
REMARK Flexibility Score: inf
ROOT
ATOM      1  C   UNL     1       2.961  -0.008 104.514  1.00  0.00     0.008 C 
ATOM      2  C   UNL     1       2.954   1.010 105.659  1.00  0.00    -0.006 C 
ATOM      3  C   UNL     1       4.109   0.732 106.636  1.00  0.00     0.008 C 
ATOM      4  C   UNL     1       4.057   1.678 107.843  1.00  0.00     0.039 C 
ATOM      5  C   UNL     1       3.976   3.143 107.434  1.00  0.00    -0.006 C 
ATOM      6  C   UNL     1       4.538   4.124 108.199  1.00  0.00    -0.070 C 
ATOM      7  C   UNL     1       4.513   5.576 107.776  1.00  0.00     0.039 C 
ATOM      8  C   UNL     1       5.249   3.800 109.493  1.00  0.00     0.039 C 
ATOM      9  C   UNL     1       3.154   3.442 106.224  1.00  0.00     0.159 C 
ATOM     10  O   UNL     1       2.520   4.524 106.114  1.00  0.00    -0.295 OA
ATOM     11  C   UNL     1       3.064   2.440 105.109  1.00  0.00     0.084 C 
ENDROOT
TORSDOF 0
ENDMDL
