MODEL 1
REMARK VINA RESULT:     0.509      0.000      0.000
REMARK INTER + INTRA:           0.241
REMARK INTER:                   0.598
REMARK INTRA:                  -0.357
REMARK UNBOUND:                -0.357
REMARK SMILES C=C(C)[C@@H]1CC[C@]2(CO)CC[C@@]3(C)[C@H](CC[C@H]4[C@@]5(C)CC[C@H](O)C(C)(C)[C@H]5CC[C@]43C)[C@H]12
REMARK SMILES IDX 4 1 5 2 6 3 7 4 32 5 14 6 15 7 16 8 17 9 18 10 20 11 21 12
REMARK SMILES IDX 22 13 24 14 27 15 28 16 29 17 30 18 12 19 11 20 10 21 13 22
REMARK SMILES IDX 31 23 25 24 26 25 19 26 2 27 3 28 1 29 8 30 9 31 23 33
REMARK H PARENT 9 32 23 34
REMARK Flexibility Score: inf
ROOT
ATOM      1  C   UNL     1     -11.168  13.604 -30.148  1.00  0.00     0.018 C 
ATOM      2  C   UNL     1     -10.931  12.425 -29.196  1.00  0.00     0.009 C 
ATOM      3  C   UNL     1     -11.923  12.590 -28.038  1.00  0.00     0.010 C 
ATOM      4  C   UNL     1     -12.601  13.981 -28.185  1.00  0.00    -0.003 C 
ATOM      5  C   UNL     1     -12.494  14.277 -29.703  1.00  0.00     0.008 C 
ATOM      6  C   UNL     1     -13.782  13.943 -30.530  1.00  0.00    -0.000 C 
ATOM      7  C   UNL     1     -14.056  12.431 -30.752  1.00  0.00     0.005 C 
ATOM      8  C   UNL     1     -15.370  11.939 -30.162  1.00  0.00     0.005 C 
ATOM      9  C   UNL     1     -16.597  12.694 -30.728  1.00  0.00     0.002 C 
ATOM     10  C   UNL     1     -17.994  12.037 -30.237  1.00  0.00    -0.026 C 
ATOM     11  C   UNL     1     -17.874  11.405 -28.805  1.00  0.00     0.010 C 
ATOM     12  C   UNL     1     -19.191  10.876 -28.211  1.00  0.00     0.033 C 
ATOM     13  C   UNL     1     -20.309  11.925 -28.210  1.00  0.00     0.120 C 
ATOM     14  C   UNL     1     -20.553  12.557 -29.613  1.00  0.00    -0.006 C 
ATOM     15  C   UNL     1     -19.170  13.091 -30.222  1.00  0.00     0.003 C 
ATOM     16  C   UNL     1     -18.683  14.349 -29.471  1.00  0.00     0.005 C 
ATOM     17  C   UNL     1     -17.618  15.110 -30.229  1.00  0.00     0.008 C 
ATOM     18  C   UNL     1     -16.386  14.295 -30.771  1.00  0.00    -0.024 C 
ATOM     19  C   UNL     1     -15.026  14.766 -30.019  1.00  0.00    -0.024 C 
ATOM     20  C   UNL     1     -15.188  14.633 -28.456  1.00  0.00     0.008 C 
ATOM     21  C   UNL     1     -14.066  13.957 -27.629  1.00  0.00     0.010 C 
ATOM     22  C   UNL     1     -14.724  16.284 -30.315  1.00  0.00     0.012 C 
ATOM     23  C   UNL     1     -16.282  14.685 -32.286  1.00  0.00     0.012 C 
ATOM     24  C   UNL     1     -21.250  11.542 -30.570  1.00  0.00     0.014 C 
ATOM     25  C   UNL     1     -21.582  13.716 -29.442  1.00  0.00     0.014 C 
ATOM     26  C   UNL     1     -18.302  10.876 -31.247  1.00  0.00     0.012 C 
ENDROOT
BRANCH   1  27
ATOM     27  C   UNL     1     -11.011  13.350 -31.653  1.00  0.00    -0.077 C 
ATOM     28  C   UNL     1     -11.121  14.456 -32.678  1.00  0.00     0.039 C 
ATOM     29  C   UNL     1     -10.942  12.075 -32.084  1.00  0.00     0.008 C 
ENDBRANCH   1  27
BRANCH   4  30
ATOM     30  C   UNL     1     -11.781  15.060 -27.402  1.00  0.00     0.163 C 
BRANCH  30  31
ATOM     31  O   UNL     1     -12.602  16.089 -26.917  1.00  0.00    -0.396 OA
ATOM     32  H   UNL     1     -13.018  15.772 -26.075  1.00  0.00     0.210 HD
ENDBRANCH  30  31
ENDBRANCH   4  30
BRANCH  13  33
ATOM     33  O   UNL     1     -21.495  11.338 -27.728  1.00  0.00    -0.393 OA
ATOM     34  H   UNL     1     -22.247  11.915 -28.032  1.00  0.00     0.210 HD
ENDBRANCH  13  33
TORSDOF 4
ENDMDL
MODEL 2
REMARK VINA RESULT:     1.122      1.482      2.258
REMARK INTER + INTRA:           0.961
REMARK INTER:                   1.390
REMARK INTRA:                  -0.429
REMARK UNBOUND:                -0.357
REMARK SMILES C=C(C)[C@@H]1CC[C@]2(CO)CC[C@@]3(C)[C@H](CC[C@H]4[C@@]5(C)CC[C@H](O)C(C)(C)[C@H]5CC[C@]43C)[C@H]12
REMARK SMILES IDX 4 1 5 2 6 3 7 4 32 5 14 6 15 7 16 8 17 9 18 10 20 11 21 12
REMARK SMILES IDX 22 13 24 14 27 15 28 16 29 17 30 18 12 19 11 20 10 21 13 22
REMARK SMILES IDX 31 23 25 24 26 25 19 26 2 27 3 28 1 29 8 30 9 31 23 33
REMARK H PARENT 9 32 23 34
REMARK Flexibility Score: inf
ROOT
ATOM      1  C   UNL     1     -10.875  13.644 -31.378  1.00  0.00     0.018 C 
ATOM      2  C   UNL     1     -10.875  12.283 -32.086  1.00  0.00     0.009 C 
ATOM      3  C   UNL     1     -11.706  11.334 -31.213  1.00  0.00     0.010 C 
ATOM      4  C   UNL     1     -12.021  12.065 -29.879  1.00  0.00    -0.003 C 
ATOM      5  C   UNL     1     -11.952  13.566 -30.263  1.00  0.00     0.008 C 
ATOM      6  C   UNL     1     -13.339  14.233 -30.557  1.00  0.00    -0.000 C 
ATOM      7  C   UNL     1     -14.001  13.825 -31.902  1.00  0.00     0.005 C 
ATOM      8  C   UNL     1     -15.351  13.137 -31.751  1.00  0.00     0.005 C 
ATOM      9  C   UNL     1     -16.385  14.011 -31.001  1.00  0.00     0.002 C 
ATOM     10  C   UNL     1     -17.864  13.349 -31.015  1.00  0.00    -0.026 C 
ATOM     11  C   UNL     1     -17.804  11.779 -31.019  1.00  0.00     0.010 C 
ATOM     12  C   UNL     1     -19.165  11.073 -30.900  1.00  0.00     0.033 C 
ATOM     13  C   UNL     1     -19.979  11.546 -29.691  1.00  0.00     0.120 C 
ATOM     14  C   UNL     1     -20.156  13.093 -29.642  1.00  0.00    -0.006 C 
ATOM     15  C   UNL     1     -18.732  13.813 -29.781  1.00  0.00     0.003 C 
ATOM     16  C   UNL     1     -17.890  13.627 -28.500  1.00  0.00     0.005 C 
ATOM     17  C   UNL     1     -16.725  14.588 -28.417  1.00  0.00     0.008 C 
ATOM     18  C   UNL     1     -15.781  14.698 -29.671  1.00  0.00    -0.024 C 
ATOM     19  C   UNL     1     -14.295  14.154 -29.306  1.00  0.00    -0.024 C 
ATOM     20  C   UNL     1     -14.372  12.682 -28.747  1.00  0.00     0.008 C 
ATOM     21  C   UNL     1     -13.400  11.607 -29.294  1.00  0.00     0.010 C 
ATOM     22  C   UNL     1     -13.642  15.035 -28.174  1.00  0.00     0.012 C 
ATOM     23  C   UNL     1     -15.691  16.235 -29.971  1.00  0.00     0.012 C 
ATOM     24  C   UNL     1     -21.154  13.576 -30.739  1.00  0.00     0.014 C 
ATOM     25  C   UNL     1     -20.845  13.453 -28.290  1.00  0.00     0.014 C 
ATOM     26  C   UNL     1     -18.527  13.804 -32.363  1.00  0.00     0.012 C 
ENDROOT
BRANCH   1  27
ATOM     27  C   UNL     1     -10.897  14.904 -32.252  1.00  0.00    -0.077 C 
ATOM     28  C   UNL     1     -11.001  16.295 -31.667  1.00  0.00     0.039 C 
ATOM     29  C   UNL     1     -10.996  14.756 -33.588  1.00  0.00     0.008 C 
ENDBRANCH   1  27
BRANCH   4  30
ATOM     30  C   UNL     1     -10.901  11.763 -28.828  1.00  0.00     0.163 C 
BRANCH  30  31
ATOM     31  O   UNL     1     -11.216  12.284 -27.564  1.00  0.00    -0.396 OA
ATOM     32  H   UNL     1     -11.550  11.537 -27.005  1.00  0.00     0.210 HD
ENDBRANCH  30  31
ENDBRANCH   4  30
BRANCH  13  33
ATOM     33  O   UNL     1     -21.237  10.912 -29.701  1.00  0.00    -0.393 OA
ATOM     34  H   UNL     1     -21.085   9.965 -29.436  1.00  0.00     0.210 HD
ENDBRANCH  13  33
TORSDOF 4
ENDMDL
MODEL 3
REMARK VINA RESULT:     2.362      2.561      4.707
REMARK INTER + INTRA:           2.419
REMARK INTER:                   2.360
REMARK INTRA:                   0.060
REMARK UNBOUND:                -0.357
REMARK SMILES C=C(C)[C@@H]1CC[C@]2(CO)CC[C@@]3(C)[C@H](CC[C@H]4[C@@]5(C)CC[C@H](O)C(C)(C)[C@H]5CC[C@]43C)[C@H]12
REMARK SMILES IDX 4 1 5 2 6 3 7 4 32 5 14 6 15 7 16 8 17 9 18 10 20 11 21 12
REMARK SMILES IDX 22 13 24 14 27 15 28 16 29 17 30 18 12 19 11 20 10 21 13 22
REMARK SMILES IDX 31 23 25 24 26 25 19 26 2 27 3 28 1 29 8 30 9 31 23 33
REMARK H PARENT 9 32 23 34
REMARK Flexibility Score: inf
ROOT
ATOM      1  C   UNL     1     -11.483  16.006 -33.380  1.00  0.00     0.018 C 
ATOM      2  C   UNL     1     -12.503  15.660 -34.472  1.00  0.00     0.009 C 
ATOM      3  C   UNL     1     -12.994  14.237 -34.178  1.00  0.00     0.010 C 
ATOM      4  C   UNL     1     -12.111  13.651 -33.042  1.00  0.00    -0.003 C 
ATOM      5  C   UNL     1     -11.610  14.910 -32.288  1.00  0.00     0.008 C 
ATOM      6  C   UNL     1     -12.426  15.271 -30.999  1.00  0.00    -0.000 C 
ATOM      7  C   UNL     1     -13.836  15.872 -31.252  1.00  0.00     0.005 C 
ATOM      8  C   UNL     1     -14.979  15.044 -30.681  1.00  0.00     0.005 C 
ATOM      9  C   UNL     1     -14.859  14.837 -29.152  1.00  0.00     0.002 C 
ATOM     10  C   UNL     1     -16.173  14.121 -28.531  1.00  0.00    -0.026 C 
ATOM     11  C   UNL     1     -16.841  13.132 -29.553  1.00  0.00     0.010 C 
ATOM     12  C   UNL     1     -18.018  12.314 -28.996  1.00  0.00     0.033 C 
ATOM     13  C   UNL     1     -17.664  11.555 -27.713  1.00  0.00     0.120 C 
ATOM     14  C   UNL     1     -17.061  12.472 -26.608  1.00  0.00    -0.006 C 
ATOM     15  C   UNL     1     -15.845  13.326 -27.207  1.00  0.00     0.003 C 
ATOM     16  C   UNL     1     -14.616  12.430 -27.473  1.00  0.00     0.005 C 
ATOM     17  C   UNL     1     -13.341  13.221 -27.664  1.00  0.00     0.008 C 
ATOM     18  C   UNL     1     -13.371  14.414 -28.690  1.00  0.00    -0.024 C 
ATOM     19  C   UNL     1     -12.392  14.098 -29.947  1.00  0.00    -0.024 C 
ATOM     20  C   UNL     1     -12.784  12.727 -30.618  1.00  0.00     0.008 C 
ATOM     21  C   UNL     1     -12.921  12.643 -32.158  1.00  0.00     0.010 C 
ATOM     22  C   UNL     1     -10.897  13.957 -29.467  1.00  0.00     0.012 C 
ATOM     23  C   UNL     1     -12.791  15.637 -27.899  1.00  0.00     0.012 C 
ATOM     24  C   UNL     1     -18.157  13.390 -25.984  1.00  0.00     0.014 C 
ATOM     25  C   UNL     1     -16.589  11.560 -25.434  1.00  0.00     0.014 C 
ATOM     26  C   UNL     1     -17.198  15.276 -28.247  1.00  0.00     0.012 C 
ENDROOT
BRANCH   1  27
ATOM     27  C   UNL     1     -11.434  17.455 -32.880  1.00  0.00    -0.077 C 
ATOM     28  C   UNL     1     -11.797  18.629 -33.761  1.00  0.00     0.039 C 
ATOM     29  C   UNL     1     -10.889  17.698 -31.671  1.00  0.00     0.008 C 
ENDBRANCH   1  27
BRANCH   4  30
ATOM     30  C   UNL     1     -10.877  12.908 -33.655  1.00  0.00     0.163 C 
BRANCH  30  31
ATOM     31  O   UNL     1     -11.220  12.199 -34.816  1.00  0.00    -0.396 OA
ATOM     32  H   UNL     1     -11.666  11.358 -34.535  1.00  0.00     0.210 HD
ENDBRANCH  30  31
ENDBRANCH   4  30
BRANCH  13  33
ATOM     33  O   UNL     1     -18.813  10.900 -27.228  1.00  0.00    -0.393 OA
ATOM     34  H   UNL     1     -19.247  10.462 -28.009  1.00  0.00     0.210 HD
ENDBRANCH  13  33
TORSDOF 4
ENDMDL
MODEL 4
REMARK VINA RESULT:     2.764      1.893      3.137
REMARK INTER + INTRA:           2.892
REMARK INTER:                   3.482
REMARK INTRA:                  -0.591
REMARK UNBOUND:                -0.357
REMARK SMILES C=C(C)[C@@H]1CC[C@]2(CO)CC[C@@]3(C)[C@H](CC[C@H]4[C@@]5(C)CC[C@H](O)C(C)(C)[C@H]5CC[C@]43C)[C@H]12
REMARK SMILES IDX 4 1 5 2 6 3 7 4 32 5 14 6 15 7 16 8 17 9 18 10 20 11 21 12
REMARK SMILES IDX 22 13 24 14 27 15 28 16 29 17 30 18 12 19 11 20 10 21 13 22
REMARK SMILES IDX 31 23 25 24 26 25 19 26 2 27 3 28 1 29 8 30 9 31 23 33
REMARK H PARENT 9 32 23 34
REMARK Flexibility Score: inf
ROOT
ATOM      1  C   UNL     1     -11.409  13.277 -27.919  1.00  0.00     0.018 C 
ATOM      2  C   UNL     1     -11.639  14.327 -26.824  1.00  0.00     0.009 C 
ATOM      3  C   UNL     1     -12.499  15.432 -27.451  1.00  0.00     0.010 C 
ATOM      4  C   UNL     1     -12.601  15.151 -28.976  1.00  0.00    -0.003 C 
ATOM      5  C   UNL     1     -12.383  13.619 -29.077  1.00  0.00     0.008 C 
ATOM      6  C   UNL     1     -13.699  12.775 -29.183  1.00  0.00    -0.000 C 
ATOM      7  C   UNL     1     -14.523  12.662 -27.871  1.00  0.00     0.005 C 
ATOM      8  C   UNL     1     -15.928  13.241 -27.964  1.00  0.00     0.005 C 
ATOM      9  C   UNL     1     -16.776  12.572 -29.073  1.00  0.00     0.002 C 
ATOM     10  C   UNL     1     -18.320  13.062 -29.036  1.00  0.00    -0.026 C 
ATOM     11  C   UNL     1     -18.454  14.544 -28.531  1.00  0.00     0.010 C 
ATOM     12  C   UNL     1     -19.875  15.128 -28.590  1.00  0.00     0.033 C 
ATOM     13  C   UNL     1     -20.513  15.006 -29.978  1.00  0.00     0.120 C 
ATOM     14  C   UNL     1     -20.495  13.550 -30.532  1.00  0.00    -0.006 C 
ATOM     15  C   UNL     1     -19.011  12.952 -30.451  1.00  0.00     0.003 C 
ATOM     16  C   UNL     1     -18.087  13.618 -31.493  1.00  0.00     0.005 C 
ATOM     17  C   UNL     1     -16.810  12.842 -31.729  1.00  0.00     0.008 C 
ATOM     18  C   UNL     1     -15.975  12.412 -30.466  1.00  0.00    -0.024 C 
ATOM     19  C   UNL     1     -14.541  13.173 -30.454  1.00  0.00    -0.024 C 
ATOM     20  C   UNL     1     -14.747  14.735 -30.527  1.00  0.00     0.008 C 
ATOM     21  C   UNL     1     -13.968  15.653 -29.553  1.00  0.00     0.010 C 
ATOM     22  C   UNL     1     -13.686  12.770 -31.715  1.00  0.00     0.012 C 
ATOM     23  C   UNL     1     -15.725  10.876 -30.656  1.00  0.00     0.012 C 
ATOM     24  C   UNL     1     -21.520  12.651 -29.775  1.00  0.00     0.014 C 
ATOM     25  C   UNL     1     -21.010  13.592 -32.003  1.00  0.00     0.014 C 
ATOM     26  C   UNL     1     -19.040  12.137 -27.992  1.00  0.00     0.012 C 
ENDROOT
BRANCH   1  27
ATOM     27  C   UNL     1     -11.354  11.803 -27.495  1.00  0.00    -0.077 C 
ATOM     28  C   UNL     1     -11.615  11.358 -26.075  1.00  0.00     0.039 C 
ATOM     29  C   UNL     1     -10.892  10.899 -28.382  1.00  0.00     0.008 C 
ENDBRANCH   1  27
BRANCH   4  30
ATOM     30  C   UNL     1     -11.437  15.876 -29.730  1.00  0.00     0.163 C 
BRANCH  30  31
ATOM     31  O   UNL     1     -11.034  15.168 -30.873  1.00  0.00    -0.396 OA
ATOM     32  H   UNL     1     -10.488  14.396 -30.572  1.00  0.00     0.210 HD
ENDBRANCH  30  31
ENDBRANCH   4  30
BRANCH  13  33
ATOM     33  O   UNL     1     -21.836  15.490 -29.926  1.00  0.00    -0.393 OA
ATOM     34  H   UNL     1     -22.212  15.205 -29.049  1.00  0.00     0.210 HD
ENDBRANCH  13  33
TORSDOF 4
ENDMDL
