MODEL 1
REMARK VINA RESULT:    -3.590      0.000      0.000
REMARK INTER + INTRA:          -5.024
REMARK INTER:                  -4.639
REMARK INTRA:                  -0.385
REMARK UNBOUND:                -0.385
REMARK SMILES CCO[C@H]1O[C@H](CO)[C@H](O)[C@H](O)[C@@H]1O
REMARK SMILES IDX 4 1 13 2 11 3 9 4 6 5 5 6 3 7 2 8 1 9 14 10 12 12 7 14 8 15
REMARK SMILES IDX 10 17
REMARK H PARENT 14 11 12 13 8 16 10 18
REMARK Flexibility Score: inf
ROOT
ATOM      1  C   UNL     1      -4.336  -8.133  -6.810  1.00  0.00     0.281 C 
ATOM      2  C   UNL     1      -5.628  -8.618  -6.110  1.00  0.00     0.202 C 
ATOM      3  C   UNL     1      -5.596 -10.140  -5.867  1.00  0.00     0.179 C 
ATOM      4  C   UNL     1      -5.155 -10.905  -7.133  1.00  0.00     0.177 C 
ATOM      5  C   UNL     1      -3.867 -10.261  -7.692  1.00  0.00     0.178 C 
ATOM      6  O   UNL     1      -4.069  -8.887  -7.986  1.00  0.00    -0.341 OA
ENDROOT
BRANCH   1   7
ATOM      7  O   UNL     1      -3.248  -8.187  -5.901  1.00  0.00    -0.350 OA
BRANCH   7   8
ATOM      8  C   UNL     1      -2.896  -6.894  -5.445  1.00  0.00     0.160 C 
ATOM      9  C   UNL     1      -3.213  -5.856  -6.516  1.00  0.00     0.035 C 
ENDBRANCH   7   8
ENDBRANCH   1   7
BRANCH   2  10
ATOM     10  O   UNL     1      -6.780  -8.238  -6.827  1.00  0.00    -0.385 OA
ATOM     11  H   UNL     1      -7.080  -9.010  -7.371  1.00  0.00     0.211 HD
ENDBRANCH   2  10
BRANCH   3  12
ATOM     12  O   UNL     1      -6.855 -10.581  -5.429  1.00  0.00    -0.387 OA
ATOM     13  H   UNL     1      -6.713 -11.029  -4.555  1.00  0.00     0.211 HD
ENDBRANCH   3  12
BRANCH   5  14
ATOM     14  C   UNL     1      -3.366 -10.979  -8.952  1.00  0.00     0.191 C 
BRANCH  14  15
ATOM     15  O   UNL     1      -3.908 -10.393 -10.105  1.00  0.00    -0.394 OA
ATOM     16  H   UNL     1      -3.214  -9.773 -10.450  1.00  0.00     0.210 HD
ENDBRANCH  14  15
ENDBRANCH   5  14
BRANCH   4  17
ATOM     17  O   UNL     1      -6.173 -10.885  -8.103  1.00  0.00    -0.387 OA
ATOM     18  H   UNL     1      -6.100 -10.018  -8.582  1.00  0.00     0.211 HD
ENDBRANCH   4  17
TORSDOF 7
ENDMDL
MODEL 2
REMARK VINA RESULT:    -3.510      1.756      4.341
REMARK INTER + INTRA:          -4.921
REMARK INTER:                  -4.499
REMARK INTRA:                  -0.422
REMARK UNBOUND:                -0.385
REMARK SMILES CCO[C@H]1O[C@H](CO)[C@H](O)[C@H](O)[C@@H]1O
REMARK SMILES IDX 4 1 13 2 11 3 9 4 6 5 5 6 3 7 2 8 1 9 14 10 12 12 7 14 8 15
REMARK SMILES IDX 10 17
REMARK H PARENT 14 11 12 13 8 16 10 18
REMARK Flexibility Score: inf
ROOT
ATOM      1  C   UNL     1      -4.938  -8.795  -7.568  1.00  0.00     0.281 C 
ATOM      2  C   UNL     1      -3.917  -7.838  -6.908  1.00  0.00     0.202 C 
ATOM      3  C   UNL     1      -4.198  -7.674  -5.401  1.00  0.00     0.179 C 
ATOM      4  C   UNL     1      -5.692  -7.399  -5.131  1.00  0.00     0.177 C 
ATOM      5  C   UNL     1      -6.544  -8.442  -5.889  1.00  0.00     0.178 C 
ATOM      6  O   UNL     1      -6.276  -8.405  -7.282  1.00  0.00    -0.341 OA
ENDROOT
BRANCH   1   7
ATOM      7  O   UNL     1      -4.686 -10.128  -7.151  1.00  0.00    -0.350 OA
BRANCH   7   8
ATOM      8  C   UNL     1      -3.583 -10.683  -7.845  1.00  0.00     0.160 C 
ATOM      9  C   UNL     1      -3.847 -10.669  -9.347  1.00  0.00     0.035 C 
ENDBRANCH   7   8
ENDBRANCH   1   7
BRANCH   2  10
ATOM     10  O   UNL     1      -3.879  -6.591  -7.561  1.00  0.00    -0.385 OA
ATOM     11  H   UNL     1      -3.362  -5.958  -7.000  1.00  0.00     0.211 HD
ENDBRANCH   2  10
BRANCH   3  12
ATOM     12  O   UNL     1      -3.397  -6.646  -4.875  1.00  0.00    -0.387 OA
ATOM     13  H   UNL     1      -2.461  -6.974  -4.897  1.00  0.00     0.211 HD
ENDBRANCH   3  12
BRANCH   5  14
ATOM     14  C   UNL     1      -8.047  -8.232  -5.658  1.00  0.00     0.191 C 
BRANCH  14  15
ATOM     15  O   UNL     1      -8.522  -7.161  -6.428  1.00  0.00    -0.394 OA
ATOM     16  H   UNL     1      -9.302  -7.510  -6.933  1.00  0.00     0.210 HD
ENDBRANCH  14  15
ENDBRANCH   5  14
BRANCH   4  17
ATOM     17  O   UNL     1      -6.038  -6.097  -5.536  1.00  0.00    -0.387 OA
ATOM     18  H   UNL     1      -5.850  -6.037  -6.509  1.00  0.00     0.211 HD
ENDBRANCH   4  17
TORSDOF 7
ENDMDL
MODEL 3
REMARK VINA RESULT:    -3.385      1.854      3.872
REMARK INTER + INTRA:          -4.760
REMARK INTER:                  -4.337
REMARK INTRA:                  -0.423
REMARK UNBOUND:                -0.385
REMARK SMILES CCO[C@H]1O[C@H](CO)[C@H](O)[C@H](O)[C@@H]1O
REMARK SMILES IDX 4 1 13 2 11 3 9 4 6 5 5 6 3 7 2 8 1 9 14 10 12 12 7 14 8 15
REMARK SMILES IDX 10 17
REMARK H PARENT 14 11 12 13 8 16 10 18
REMARK Flexibility Score: inf
ROOT
ATOM      1  C   UNL     1      -5.094 -10.088  -7.773  1.00  0.00     0.281 C 
ATOM      2  C   UNL     1      -4.600  -8.653  -7.473  1.00  0.00     0.202 C 
ATOM      3  C   UNL     1      -5.076  -8.175  -6.087  1.00  0.00     0.179 C 
ATOM      4  C   UNL     1      -6.578  -8.456  -5.877  1.00  0.00     0.177 C 
ATOM      5  C   UNL     1      -6.875  -9.927  -6.247  1.00  0.00     0.178 C 
ATOM      6  O   UNL     1      -6.501 -10.201  -7.589  1.00  0.00    -0.341 OA
ENDROOT
BRANCH   1   7
ATOM      7  O   UNL     1      -4.389 -11.018  -6.966  1.00  0.00    -0.350 OA
BRANCH   7   8
ATOM      8  C   UNL     1      -3.011 -11.036  -7.291  1.00  0.00     0.160 C 
ATOM      9  C   UNL     1      -2.172 -11.051  -6.018  1.00  0.00     0.035 C 
ENDBRANCH   7   8
ENDBRANCH   1   7
BRANCH   2  10
ATOM     10  O   UNL     1      -4.983  -7.750  -8.485  1.00  0.00    -0.385 OA
ATOM     11  H   UNL     1      -4.278  -7.744  -9.183  1.00  0.00     0.211 HD
ENDBRANCH   2  10
BRANCH   3  12
ATOM     12  O   UNL     1      -4.797  -6.807  -5.931  1.00  0.00    -0.387 OA
ATOM     13  H   UNL     1      -4.141  -6.567  -6.636  1.00  0.00     0.211 HD
ENDBRANCH   3  12
BRANCH   5  14
ATOM     14  C   UNL     1      -8.357 -10.279  -6.055  1.00  0.00     0.191 C 
BRANCH  14  15
ATOM     15  O   UNL     1      -9.123  -9.802  -7.127  1.00  0.00    -0.394 OA
ATOM     16  H   UNL     1      -9.602 -10.590  -7.495  1.00  0.00     0.210 HD
ENDBRANCH  14  15
ENDBRANCH   5  14
BRANCH   4  17
ATOM     17  O   UNL     1      -7.359  -7.587  -6.660  1.00  0.00    -0.387 OA
ATOM     18  H   UNL     1      -8.125  -8.117  -7.005  1.00  0.00     0.211 HD
ENDBRANCH   4  17
TORSDOF 7
ENDMDL
MODEL 4
REMARK VINA RESULT:    -3.181      3.005      5.294
REMARK INTER + INTRA:          -4.496
REMARK INTER:                  -4.136
REMARK INTRA:                  -0.360
REMARK UNBOUND:                -0.385
REMARK SMILES CCO[C@H]1O[C@H](CO)[C@H](O)[C@H](O)[C@@H]1O
REMARK SMILES IDX 4 1 13 2 11 3 9 4 6 5 5 6 3 7 2 8 1 9 14 10 12 12 7 14 8 15
REMARK SMILES IDX 10 17
REMARK H PARENT 14 11 12 13 8 16 10 18
REMARK Flexibility Score: inf
ROOT
ATOM      1  C   UNL     1      -8.126 -10.236  -6.272  1.00  0.00     0.281 C 
ATOM      2  C   UNL     1      -9.622  -9.948  -6.543  1.00  0.00     0.202 C 
ATOM      3  C   UNL     1      -9.835  -8.498  -7.021  1.00  0.00     0.179 C 
ATOM      4  C   UNL     1      -9.078  -7.491  -6.131  1.00  0.00     0.177 C 
ATOM      5  C   UNL     1      -7.616  -7.962  -5.963  1.00  0.00     0.178 C 
ATOM      6  O   UNL     1      -7.561  -9.263  -5.401  1.00  0.00    -0.341 OA
ENDROOT
BRANCH   1   7
ATOM      7  O   UNL     1      -7.420 -10.304  -7.501  1.00  0.00    -0.350 OA
BRANCH   7   8
ATOM      8  C   UNL     1      -6.192 -10.992  -7.348  1.00  0.00     0.160 C 
ATOM      9  C   UNL     1      -5.128 -10.373  -8.247  1.00  0.00     0.035 C 
ENDBRANCH   7   8
ENDBRANCH   1   7
BRANCH   2  10
ATOM     10  O   UNL     1     -10.418 -10.238  -5.417  1.00  0.00    -0.385 OA
ATOM     11  H   UNL     1     -10.077  -9.713  -4.648  1.00  0.00     0.211 HD
ENDBRANCH   2  10
BRANCH   3  12
ATOM     12  O   UNL     1     -11.208  -8.203  -7.055  1.00  0.00    -0.387 OA
ATOM     13  H   UNL     1     -11.531  -8.236  -6.116  1.00  0.00     0.211 HD
ENDBRANCH   3  12
BRANCH   5  14
ATOM     14  C   UNL     1      -6.800  -6.999  -5.090  1.00  0.00     0.191 C 
BRANCH  14  15
ATOM     15  O   UNL     1      -7.253  -5.681  -5.248  1.00  0.00    -0.394 OA
ATOM     16  H   UNL     1      -7.292  -5.520  -6.227  1.00  0.00     0.210 HD
ENDBRANCH  14  15
ENDBRANCH   5  14
BRANCH   4  17
ATOM     17  O   UNL     1      -9.702  -7.374  -4.875  1.00  0.00    -0.387 OA
ATOM     18  H   UNL     1     -10.381  -6.655  -4.955  1.00  0.00     0.211 HD
ENDBRANCH   4  17
TORSDOF 7
ENDMDL
MODEL 5
REMARK VINA RESULT:    -3.164      9.504     11.171
REMARK INTER + INTRA:          -4.473
REMARK INTER:                  -4.052
REMARK INTRA:                  -0.421
REMARK UNBOUND:                -0.385
REMARK SMILES CCO[C@H]1O[C@H](CO)[C@H](O)[C@H](O)[C@@H]1O
REMARK SMILES IDX 4 1 13 2 11 3 9 4 6 5 5 6 3 7 2 8 1 9 14 10 12 12 7 14 8 15
REMARK SMILES IDX 10 17
REMARK H PARENT 14 11 12 13 8 16 10 18
REMARK Flexibility Score: inf
ROOT
ATOM      1  C   UNL     1     -14.160  -8.438  -6.345  1.00  0.00     0.281 C 
ATOM      2  C   UNL     1     -15.128  -7.366  -6.900  1.00  0.00     0.202 C 
ATOM      3  C   UNL     1     -16.447  -7.337  -6.102  1.00  0.00     0.179 C 
ATOM      4  C   UNL     1     -17.016  -8.756  -5.899  1.00  0.00     0.177 C 
ATOM      5  C   UNL     1     -15.898  -9.678  -5.362  1.00  0.00     0.178 C 
ATOM      6  O   UNL     1     -14.792  -9.709  -6.251  1.00  0.00    -0.341 OA
ENDROOT
BRANCH   1   7
ATOM      7  O   UNL     1     -13.648  -8.019  -5.089  1.00  0.00    -0.350 OA
BRANCH   7   8
ATOM      8  C   UNL     1     -12.406  -7.358  -5.237  1.00  0.00     0.160 C 
ATOM      9  C   UNL     1     -11.491  -8.158  -6.158  1.00  0.00     0.035 C 
ENDBRANCH   7   8
ENDBRANCH   1   7
BRANCH   2  10
ATOM     10  O   UNL     1     -15.366  -7.546  -8.277  1.00  0.00    -0.385 OA
ATOM     11  H   UNL     1     -15.829  -6.741  -8.623  1.00  0.00     0.211 HD
ENDBRANCH   2  10
BRANCH   3  12
ATOM     12  O   UNL     1     -17.381  -6.513  -6.753  1.00  0.00    -0.387 OA
ATOM     13  H   UNL     1     -16.908  -6.098  -7.521  1.00  0.00     0.211 HD
ENDBRANCH   3  12
BRANCH   5  14
ATOM     14  C   UNL     1     -16.399 -11.111  -5.129  1.00  0.00     0.191 C 
BRANCH  14  15
ATOM     15  O   UNL     1     -17.785 -11.124  -4.918  1.00  0.00    -0.394 OA
ATOM     16  H   UNL     1     -17.963 -11.890  -4.313  1.00  0.00     0.210 HD
ENDBRANCH  14  15
ENDBRANCH   5  14
BRANCH   4  17
ATOM     17  O   UNL     1     -17.531  -9.262  -7.106  1.00  0.00    -0.387 OA
ATOM     18  H   UNL     1     -17.371  -8.572  -7.801  1.00  0.00     0.211 HD
ENDBRANCH   4  17
TORSDOF 7
ENDMDL
MODEL 6
REMARK VINA RESULT:    -3.138      9.461     11.015
REMARK INTER + INTRA:          -4.440
REMARK INTER:                  -4.093
REMARK INTRA:                  -0.347
REMARK UNBOUND:                -0.385
REMARK SMILES CCO[C@H]1O[C@H](CO)[C@H](O)[C@H](O)[C@@H]1O
REMARK SMILES IDX 4 1 13 2 11 3 9 4 6 5 5 6 3 7 2 8 1 9 14 10 12 12 7 14 8 15
REMARK SMILES IDX 10 17
REMARK H PARENT 14 11 12 13 8 16 10 18
REMARK Flexibility Score: inf
ROOT
ATOM      1  C   UNL     1     -16.040  -7.627  -6.558  1.00  0.00     0.281 C 
ATOM      2  C   UNL     1     -16.535  -9.059  -6.248  1.00  0.00     0.202 C 
ATOM      3  C   UNL     1     -15.605  -9.768  -5.243  1.00  0.00     0.179 C 
ATOM      4  C   UNL     1     -14.121  -9.609  -5.636  1.00  0.00     0.177 C 
ATOM      5  C   UNL     1     -13.830  -8.119  -5.924  1.00  0.00     0.178 C 
ATOM      6  O   UNL     1     -14.673  -7.624  -6.954  1.00  0.00    -0.341 OA
ENDROOT
BRANCH   1   7
ATOM      7  O   UNL     1     -16.255  -6.790  -5.432  1.00  0.00    -0.350 OA
BRANCH   7   8
ATOM      8  C   UNL     1     -17.602  -6.848  -5.002  1.00  0.00     0.160 C 
ATOM      9  C   UNL     1     -18.174  -5.440  -4.875  1.00  0.00     0.035 C 
ENDBRANCH   7   8
ENDBRANCH   1   7
BRANCH   2  10
ATOM     10  O   UNL     1     -16.691  -9.819  -7.425  1.00  0.00    -0.385 OA
ATOM     11  H   UNL     1     -17.609 -10.194  -7.436  1.00  0.00     0.211 HD
ENDBRANCH   2  10
BRANCH   3  12
ATOM     12  O   UNL     1     -15.953 -11.125  -5.144  1.00  0.00    -0.387 OA
ATOM     13  H   UNL     1     -16.488 -11.342  -5.952  1.00  0.00     0.211 HD
ENDBRANCH   3  12
BRANCH   5  14
ATOM     14  C   UNL     1     -12.364  -7.886  -6.317  1.00  0.00     0.191 C 
BRANCH  14  15
ATOM     15  O   UNL     1     -12.140  -8.268  -7.647  1.00  0.00    -0.394 OA
ATOM     16  H   UNL     1     -12.224  -7.440  -8.188  1.00  0.00     0.210 HD
ENDBRANCH  14  15
ENDBRANCH   5  14
BRANCH   4  17
ATOM     17  O   UNL     1     -13.821 -10.393  -6.764  1.00  0.00    -0.387 OA
ATOM     18  H   UNL     1     -14.148 -11.311  -6.575  1.00  0.00     0.211 HD
ENDBRANCH   4  17
TORSDOF 7
ENDMDL
MODEL 7
REMARK VINA RESULT:    -3.070      6.797      8.698
REMARK INTER + INTRA:          -4.352
REMARK INTER:                  -3.972
REMARK INTRA:                  -0.379
REMARK UNBOUND:                -0.385
REMARK SMILES CCO[C@H]1O[C@H](CO)[C@H](O)[C@H](O)[C@@H]1O
REMARK SMILES IDX 4 1 13 2 11 3 9 4 6 5 5 6 3 7 2 8 1 9 14 10 12 12 7 14 8 15
REMARK SMILES IDX 10 17
REMARK H PARENT 14 11 12 13 8 16 10 18
REMARK Flexibility Score: inf
ROOT
ATOM      1  C   UNL     1     -11.610 -10.042  -6.395  1.00  0.00     0.281 C 
ATOM      2  C   UNL     1     -11.636  -8.514  -6.638  1.00  0.00     0.202 C 
ATOM      3  C   UNL     1     -12.713  -7.829  -5.773  1.00  0.00     0.179 C 
ATOM      4  C   UNL     1     -14.061  -8.573  -5.854  1.00  0.00     0.177 C 
ATOM      5  C   UNL     1     -13.825 -10.080  -5.606  1.00  0.00     0.178 C 
ATOM      6  O   UNL     1     -12.905 -10.613  -6.547  1.00  0.00    -0.341 OA
ENDROOT
BRANCH   1   7
ATOM      7  O   UNL     1     -11.070 -10.317  -5.112  1.00  0.00    -0.350 OA
BRANCH   7   8
ATOM      8  C   UNL     1      -9.893 -11.098  -5.209  1.00  0.00     0.160 C 
ATOM      9  C   UNL     1      -8.661 -10.209  -5.090  1.00  0.00     0.035 C 
ENDBRANCH   7   8
ENDBRANCH   1   7
BRANCH   2  10
ATOM     10  O   UNL     1     -11.803  -8.209  -8.003  1.00  0.00    -0.385 OA
ATOM     11  H   UNL     1     -12.116  -7.271  -8.079  1.00  0.00     0.211 HD
ENDBRANCH   2  10
BRANCH   3  12
ATOM     12  O   UNL     1     -12.857  -6.487  -6.165  1.00  0.00    -0.387 OA
ATOM     13  H   UNL     1     -11.947  -6.091  -6.169  1.00  0.00     0.211 HD
ENDBRANCH   3  12
BRANCH   5  14
ATOM     14  C   UNL     1     -15.131 -10.883  -5.666  1.00  0.00     0.191 C 
BRANCH  14  15
ATOM     15  O   UNL     1     -15.508 -11.120  -6.995  1.00  0.00    -0.394 OA
ATOM     16  H   UNL     1     -15.613 -12.103  -7.080  1.00  0.00     0.210 HD
ENDBRANCH  14  15
ENDBRANCH   5  14
BRANCH   4  17
ATOM     17  O   UNL     1     -14.664  -8.372  -7.110  1.00  0.00    -0.387 OA
ATOM     18  H   UNL     1     -13.984  -8.597  -7.797  1.00  0.00     0.211 HD
ENDBRANCH   4  17
TORSDOF 7
ENDMDL
MODEL 8
REMARK VINA RESULT:    -3.045      1.910      4.170
REMARK INTER + INTRA:          -4.320
REMARK INTER:                  -4.137
REMARK INTRA:                  -0.183
REMARK UNBOUND:                -0.385
REMARK SMILES CCO[C@H]1O[C@H](CO)[C@H](O)[C@H](O)[C@@H]1O
REMARK SMILES IDX 4 1 13 2 11 3 9 4 6 5 5 6 3 7 2 8 1 9 14 10 12 12 7 14 8 15
REMARK SMILES IDX 10 17
REMARK H PARENT 14 11 12 13 8 16 10 18
REMARK Flexibility Score: inf
ROOT
ATOM      1  C   UNL     1      -4.988  -9.326  -7.653  1.00  0.00     0.281 C 
ATOM      2  C   UNL     1      -4.308 -10.502  -6.912  1.00  0.00     0.202 C 
ATOM      3  C   UNL     1      -3.973 -10.126  -5.455  1.00  0.00     0.179 C 
ATOM      4  C   UNL     1      -3.280  -8.750  -5.371  1.00  0.00     0.177 C 
ATOM      5  C   UNL     1      -4.095  -7.721  -6.186  1.00  0.00     0.178 C 
ATOM      6  O   UNL     1      -4.225  -8.131  -7.539  1.00  0.00    -0.341 OA
ENDROOT
BRANCH   1   7
ATOM      7  O   UNL     1      -6.308  -9.149  -7.163  1.00  0.00    -0.350 OA
BRANCH   7   8
ATOM      8  C   UNL     1      -7.066 -10.337  -7.291  1.00  0.00     0.160 C 
ATOM      9  C   UNL     1      -8.506 -10.091  -6.857  1.00  0.00     0.035 C 
ENDBRANCH   7   8
ENDBRANCH   1   7
BRANCH   2  10
ATOM     10  O   UNL     1      -3.165 -10.956  -7.599  1.00  0.00    -0.385 OA
ATOM     11  H   UNL     1      -2.378 -10.845  -7.007  1.00  0.00     0.211 HD
ENDBRANCH   2  10
BRANCH   3  12
ATOM     12  O   UNL     1      -3.174 -11.125  -4.875  1.00  0.00    -0.387 OA
ATOM     13  H   UNL     1      -2.505 -11.389  -5.560  1.00  0.00     0.211 HD
ENDBRANCH   3  12
BRANCH   5  14
ATOM     14  C   UNL     1      -3.464  -6.323  -6.140  1.00  0.00     0.191 C 
BRANCH  14  15
ATOM     15  O   UNL     1      -3.415  -5.758  -7.422  1.00  0.00    -0.394 OA
ATOM     16  H   UNL     1      -3.101  -4.825  -7.300  1.00  0.00     0.210 HD
ENDBRANCH  14  15
ENDBRANCH   5  14
BRANCH   4  17
ATOM     17  O   UNL     1      -1.963  -8.828  -5.858  1.00  0.00    -0.387 OA
ATOM     18  H   UNL     1      -1.908  -9.648  -6.415  1.00  0.00     0.211 HD
ENDBRANCH   4  17
TORSDOF 7
ENDMDL
MODEL 9
REMARK VINA RESULT:    -2.903      2.048      4.807
REMARK INTER + INTRA:          -4.137
REMARK INTER:                  -3.933
REMARK INTRA:                  -0.204
REMARK UNBOUND:                -0.385
REMARK SMILES CCO[C@H]1O[C@H](CO)[C@H](O)[C@H](O)[C@@H]1O
REMARK SMILES IDX 4 1 13 2 11 3 9 4 6 5 5 6 3 7 2 8 1 9 14 10 12 12 7 14 8 15
REMARK SMILES IDX 10 17
REMARK H PARENT 14 11 12 13 8 16 10 18
REMARK Flexibility Score: inf
ROOT
ATOM      1  C   UNL     1      -6.831  -9.133  -6.735  1.00  0.00     0.281 C 
ATOM      2  C   UNL     1      -5.455  -9.668  -7.200  1.00  0.00     0.202 C 
ATOM      3  C   UNL     1      -4.350  -9.334  -6.178  1.00  0.00     0.179 C 
ATOM      4  C   UNL     1      -4.415  -7.856  -5.738  1.00  0.00     0.177 C 
ATOM      5  C   UNL     1      -5.866  -7.511  -5.333  1.00  0.00     0.178 C 
ATOM      6  O   UNL     1      -6.765  -7.750  -6.405  1.00  0.00    -0.341 OA
ENDROOT
BRANCH   1   7
ATOM      7  O   UNL     1      -7.302  -9.905  -5.642  1.00  0.00    -0.350 OA
BRANCH   7   8
ATOM      8  C   UNL     1      -8.346 -10.774  -6.041  1.00  0.00     0.160 C 
ATOM      9  C   UNL     1      -9.462  -9.981  -6.711  1.00  0.00     0.035 C 
ENDBRANCH   7   8
ENDBRANCH   1   7
BRANCH   2  10
ATOM     10  O   UNL     1      -5.123  -9.196  -8.485  1.00  0.00    -0.385 OA
ATOM     11  H   UNL     1      -4.190  -9.463  -8.687  1.00  0.00     0.211 HD
ENDBRANCH   2  10
BRANCH   3  12
ATOM     12  O   UNL     1      -3.091  -9.640  -6.719  1.00  0.00    -0.387 OA
ATOM     13  H   UNL     1      -2.960  -9.037  -7.497  1.00  0.00     0.211 HD
ENDBRANCH   3  12
BRANCH   5  14
ATOM     14  C   UNL     1      -6.002  -6.052  -4.875  1.00  0.00     0.191 C 
BRANCH  14  15
ATOM     15  O   UNL     1      -7.252  -5.532  -5.242  1.00  0.00    -0.394 OA
ATOM     16  H   UNL     1      -7.657  -6.200  -5.855  1.00  0.00     0.210 HD
ENDBRANCH  14  15
ENDBRANCH   5  14
BRANCH   4  17
ATOM     17  O   UNL     1      -3.982  -7.011  -6.774  1.00  0.00    -0.387 OA
ATOM     18  H   UNL     1      -4.253  -7.437  -7.629  1.00  0.00     0.211 HD
ENDBRANCH   4  17
TORSDOF 7
ENDMDL
