MODEL 1
REMARK VINA RESULT:    -2.173      0.000      0.000
REMARK INTER + INTRA:          -5.734
REMARK INTER:                  -3.952
REMARK INTRA:                  -1.782
REMARK UNBOUND:                -1.782
REMARK SMILES CCCCCCCCCCCCCC[C@H](C)C(=O)[O-]
REMARK SMILES IDX 9 1 10 2 11 3 12 4 13 5 14 6 15 7 16 8 17 9 18 10 19 11 8 12
REMARK SMILES IDX 7 13 6 14 5 15 4 16 3 17 2 18 1 19
REMARK H PARENT
REMARK Flexibility Score: inf
ROOT
ATOM      1  C   UNL     1      14.140  38.735   8.400  1.00  0.00     0.000 C 
ENDROOT
BRANCH   1   2
ATOM      2  C   UNL     1      14.442  38.363   9.866  1.00  0.00     0.000 C 
BRANCH   2   3
ATOM      3  C   UNL     1      15.698  39.024  10.471  1.00  0.00     0.000 C 
BRANCH   3   4
ATOM      4  C   UNL     1      16.850  38.060  10.815  1.00  0.00     0.000 C 
BRANCH   4   5
ATOM      5  C   UNL     1      17.052  37.882  12.328  1.00  0.00     0.001 C 
BRANCH   5   6
ATOM      6  C   UNL     1      16.449  39.027  13.171  1.00  0.00     0.009 C 
BRANCH   6   7
ATOM      7  C   UNL     1      15.272  38.670  14.118  1.00  0.00     0.032 C 
ATOM      8  C   UNL     1      14.719  37.257  13.884  1.00  0.00     0.014 C 
BRANCH   7   9
ATOM      9  C   UNL     1      14.184  39.712  14.122  1.00  0.00     0.044 C 
ATOM     10  O   UNL     1      14.486  40.933  14.078  1.00  0.00    -0.550 OA
ATOM     11  O   UNL     1      12.844  39.342  14.124  1.00  0.00    -0.550 OA
ENDBRANCH   7   9
ENDBRANCH   6   7
ENDBRANCH   5   6
ENDBRANCH   4   5
ENDBRANCH   3   4
ENDBRANCH   2   3
ENDBRANCH   1   2
BRANCH   1  12
ATOM     12  C   UNL     1      15.351  38.685   7.452  1.00  0.00     0.000 C 
BRANCH  12  13
ATOM     13  C   UNL     1      15.631  40.036   6.772  1.00  0.00    -0.000 C 
BRANCH  13  14
ATOM     14  C   UNL     1      16.939  40.682   7.257  1.00  0.00    -0.000 C 
BRANCH  14  15
ATOM     15  C   UNL     1      16.835  42.210   7.385  1.00  0.00    -0.000 C 
BRANCH  15  16
ATOM     16  C   UNL     1      15.879  42.602   8.518  1.00  0.00    -0.000 C 
BRANCH  16  17
ATOM     17  C   UNL     1      16.612  43.045   9.795  1.00  0.00    -0.000 C 
BRANCH  17  18
ATOM     18  C   UNL     1      16.463  42.056  10.971  1.00  0.00    -0.003 C 
ATOM     19  C   UNL     1      17.125  42.569  12.249  1.00  0.00     0.004 C 
ENDBRANCH  17  18
ENDBRANCH  16  17
ENDBRANCH  15  16
ENDBRANCH  14  15
ENDBRANCH  13  14
ENDBRANCH  12  13
ENDBRANCH   1  12
TORSDOF 14
ENDMDL
MODEL 2
REMARK VINA RESULT:    -1.937      1.988      5.825
REMARK INTER + INTRA:          -5.304
REMARK INTER:                  -4.748
REMARK INTRA:                  -0.555
REMARK UNBOUND:                -1.782
REMARK SMILES CCCCCCCCCCCCCC[C@H](C)C(=O)[O-]
REMARK SMILES IDX 9 1 10 2 11 3 12 4 13 5 14 6 15 7 16 8 17 9 18 10 19 11 8 12
REMARK SMILES IDX 7 13 6 14 5 15 4 16 3 17 2 18 1 19
REMARK H PARENT
REMARK Flexibility Score: inf
ROOT
ATOM      1  C   UNL     1      14.117  38.873   9.086  1.00  0.00     0.000 C 
ENDROOT
BRANCH   1   2
ATOM      2  C   UNL     1      14.207  38.176   7.713  1.00  0.00     0.000 C 
BRANCH   2   3
ATOM      3  C   UNL     1      15.178  38.825   6.705  1.00  0.00     0.000 C 
BRANCH   3   4
ATOM      4  C   UNL     1      15.365  40.348   6.855  1.00  0.00     0.000 C 
BRANCH   4   5
ATOM      5  C   UNL     1      16.840  40.763   6.964  1.00  0.00     0.001 C 
BRANCH   5   6
ATOM      6  C   UNL     1      17.073  41.983   7.881  1.00  0.00     0.009 C 
BRANCH   6   7
ATOM      7  C   UNL     1      16.210  42.083   9.167  1.00  0.00     0.032 C 
ATOM      8  C   UNL     1      15.764  43.518   9.482  1.00  0.00     0.014 C 
BRANCH   7   9
ATOM      9  C   UNL     1      16.847  41.413  10.356  1.00  0.00     0.044 C 
ATOM     10  O   UNL     1      17.108  42.085  11.388  1.00  0.00    -0.550 OA
ATOM     11  O   UNL     1      17.108  40.047  10.350  1.00  0.00    -0.550 OA
ENDBRANCH   7   9
ENDBRANCH   6   7
ENDBRANCH   5   6
ENDBRANCH   4   5
ENDBRANCH   3   4
ENDBRANCH   2   3
ENDBRANCH   1   2
BRANCH   1  12
ATOM     12  C   UNL     1      14.100  37.926  10.299  1.00  0.00     0.000 C 
BRANCH  12  13
ATOM     13  C   UNL     1      14.566  38.610  11.595  1.00  0.00    -0.000 C 
BRANCH  13  14
ATOM     14  C   UNL     1      14.307  37.750  12.843  1.00  0.00    -0.000 C 
BRANCH  14  15
ATOM     15  C   UNL     1      15.366  37.956  13.937  1.00  0.00    -0.000 C 
BRANCH  15  16
ATOM     16  C   UNL     1      16.736  37.440  13.479  1.00  0.00    -0.000 C 
BRANCH  16  17
ATOM     17  C   UNL     1      16.675  36.681  12.144  1.00  0.00    -0.000 C 
BRANCH  17  18
ATOM     18  C   UNL     1      16.915  35.162  12.282  1.00  0.00    -0.003 C 
ATOM     19  C   UNL     1      16.814  34.687  13.732  1.00  0.00     0.004 C 
ENDBRANCH  17  18
ENDBRANCH  16  17
ENDBRANCH  15  16
ENDBRANCH  14  15
ENDBRANCH  13  14
ENDBRANCH  12  13
ENDBRANCH   1  12
TORSDOF 14
ENDMDL
MODEL 3
REMARK VINA RESULT:    -1.857      2.731      6.273
REMARK INTER + INTRA:          -5.159
REMARK INTER:                  -4.135
REMARK INTRA:                  -1.025
REMARK UNBOUND:                -1.782
REMARK SMILES CCCCCCCCCCCCCC[C@H](C)C(=O)[O-]
REMARK SMILES IDX 9 1 10 2 11 3 12 4 13 5 14 6 15 7 16 8 17 9 18 10 19 11 8 12
REMARK SMILES IDX 7 13 6 14 5 15 4 16 3 17 2 18 1 19
REMARK H PARENT
REMARK Flexibility Score: inf
ROOT
ATOM      1  C   UNL     1      15.763  43.092  11.903  1.00  0.00     0.000 C 
ENDROOT
BRANCH   1   2
ATOM      2  C   UNL     1      16.928  43.016  10.896  1.00  0.00     0.000 C 
BRANCH   2   3
ATOM      3  C   UNL     1      16.585  43.448   9.454  1.00  0.00     0.000 C 
BRANCH   3   4
ATOM      4  C   UNL     1      17.089  42.504   8.346  1.00  0.00     0.000 C 
BRANCH   4   5
ATOM      5  C   UNL     1      15.956  41.729   7.656  1.00  0.00     0.001 C 
BRANCH   5   6
ATOM      6  C   UNL     1      15.025  40.988   8.640  1.00  0.00     0.009 C 
BRANCH   6   7
ATOM      7  C   UNL     1      15.197  39.450   8.763  1.00  0.00     0.032 C 
ATOM      8  C   UNL     1      16.623  39.035   9.156  1.00  0.00     0.014 C 
BRANCH   7   9
ATOM      9  C   UNL     1      14.701  38.705   7.552  1.00  0.00     0.044 C 
ATOM     10  O   UNL     1      15.461  38.542   6.562  1.00  0.00    -0.550 OA
ATOM     11  O   UNL     1      13.426  38.149   7.531  1.00  0.00    -0.550 OA
ENDBRANCH   7   9
ENDBRANCH   6   7
ENDBRANCH   5   6
ENDBRANCH   4   5
ENDBRANCH   3   4
ENDBRANCH   2   3
ENDBRANCH   1   2
BRANCH   1  12
ATOM     12  C   UNL     1      16.156  42.869  13.374  1.00  0.00     0.000 C 
BRANCH  12  13
ATOM     13  C   UNL     1      16.155  41.383  13.772  1.00  0.00    -0.000 C 
BRANCH  13  14
ATOM     14  C   UNL     1      16.692  40.472  12.656  1.00  0.00    -0.000 C 
BRANCH  14  15
ATOM     15  C   UNL     1      17.042  39.062  13.157  1.00  0.00    -0.000 C 
BRANCH  15  16
ATOM     16  C   UNL     1      15.886  38.465  13.970  1.00  0.00    -0.000 C 
BRANCH  16  17
ATOM     17  C   UNL     1      15.936  36.930  14.047  1.00  0.00    -0.000 C 
BRANCH  17  18
ATOM     18  C   UNL     1      16.972  36.296  13.094  1.00  0.00    -0.003 C 
ATOM     19  C   UNL     1      16.376  35.963  11.726  1.00  0.00     0.004 C 
ENDBRANCH  17  18
ENDBRANCH  16  17
ENDBRANCH  15  16
ENDBRANCH  14  15
ENDBRANCH  13  14
ENDBRANCH  12  13
ENDBRANCH   1  12
TORSDOF 14
ENDMDL
MODEL 4
REMARK VINA RESULT:    -1.694      6.906     10.169
REMARK INTER + INTRA:          -4.863
REMARK INTER:                  -4.117
REMARK INTRA:                  -0.745
REMARK UNBOUND:                -1.782
REMARK SMILES CCCCCCCCCCCCCC[C@H](C)C(=O)[O-]
REMARK SMILES IDX 9 1 10 2 11 3 12 4 13 5 14 6 15 7 16 8 17 9 18 10 19 11 8 12
REMARK SMILES IDX 7 13 6 14 5 15 4 16 3 17 2 18 1 19
REMARK H PARENT
REMARK Flexibility Score: inf
ROOT
ATOM      1  C   UNL     1      14.218  41.524   6.155  1.00  0.00     0.000 C 
ENDROOT
BRANCH   1   2
ATOM      2  C   UNL     1      14.161  42.267   4.806  1.00  0.00     0.000 C 
BRANCH   2   3
ATOM      3  C   UNL     1      12.808  42.192   4.066  1.00  0.00     0.000 C 
BRANCH   3   4
ATOM      4  C   UNL     1      12.900  41.950   2.547  1.00  0.00     0.000 C 
BRANCH   4   5
ATOM      5  C   UNL     1      13.682  43.048   1.811  1.00  0.00     0.001 C 
BRANCH   5   6
ATOM      6  C   UNL     1      13.205  43.282   0.361  1.00  0.00     0.009 C 
BRANCH   6   7
ATOM      7  C   UNL     1      12.854  44.738  -0.048  1.00  0.00     0.032 C 
ATOM      8  C   UNL     1      11.726  44.815  -1.088  1.00  0.00     0.014 C 
BRANCH   7   9
ATOM      9  C   UNL     1      14.061  45.540  -0.459  1.00  0.00     0.044 C 
ATOM     10  O   UNL     1      13.915  46.577  -1.157  1.00  0.00    -0.550 OA
ATOM     11  O   UNL     1      15.335  45.177  -0.036  1.00  0.00    -0.550 OA
ENDBRANCH   7   9
ENDBRANCH   6   7
ENDBRANCH   5   6
ENDBRANCH   4   5
ENDBRANCH   3   4
ENDBRANCH   2   3
ENDBRANCH   1   2
BRANCH   1  12
ATOM     12  C   UNL     1      15.634  41.208   6.667  1.00  0.00     0.000 C 
BRANCH  12  13
ATOM     13  C   UNL     1      15.790  39.749   7.128  1.00  0.00    -0.000 C 
BRANCH  13  14
ATOM     14  C   UNL     1      14.642  38.850   6.640  1.00  0.00    -0.000 C 
BRANCH  14  15
ATOM     15  C   UNL     1      13.816  38.262   7.795  1.00  0.00    -0.000 C 
BRANCH  15  16
ATOM     16  C   UNL     1      14.290  38.814   9.145  1.00  0.00    -0.000 C 
BRANCH  16  17
ATOM     17  C   UNL     1      14.089  37.822  10.302  1.00  0.00    -0.000 C 
BRANCH  17  18
ATOM     18  C   UNL     1      15.264  37.791  11.303  1.00  0.00    -0.003 C 
ATOM     19  C   UNL     1      16.025  39.116  11.347  1.00  0.00     0.004 C 
ENDBRANCH  17  18
ENDBRANCH  16  17
ENDBRANCH  15  16
ENDBRANCH  14  15
ENDBRANCH  13  14
ENDBRANCH  12  13
ENDBRANCH   1  12
TORSDOF 14
ENDMDL
MODEL 5
REMARK VINA RESULT:    -1.593      1.874      2.995
REMARK INTER + INTRA:          -4.678
REMARK INTER:                  -3.690
REMARK INTRA:                  -0.988
REMARK UNBOUND:                -1.782
REMARK SMILES CCCCCCCCCCCCCC[C@H](C)C(=O)[O-]
REMARK SMILES IDX 9 1 10 2 11 3 12 4 13 5 14 6 15 7 16 8 17 9 18 10 19 11 8 12
REMARK SMILES IDX 7 13 6 14 5 15 4 16 3 17 2 18 1 19
REMARK H PARENT
REMARK Flexibility Score: inf
ROOT
ATOM      1  C   UNL     1      13.804  37.753  10.074  1.00  0.00     0.000 C 
ENDROOT
BRANCH   1   2
ATOM      2  C   UNL     1      14.119  37.755  11.583  1.00  0.00     0.000 C 
BRANCH   2   3
ATOM      3  C   UNL     1      15.417  37.025  11.989  1.00  0.00     0.000 C 
BRANCH   3   4
ATOM      4  C   UNL     1      15.841  37.202  13.460  1.00  0.00     0.000 C 
BRANCH   4   5
ATOM      5  C   UNL     1      15.499  38.591  14.020  1.00  0.00     0.001 C 
BRANCH   5   6
ATOM      6  C   UNL     1      16.415  39.715  13.488  1.00  0.00     0.009 C 
BRANCH   6   7
ATOM      7  C   UNL     1      16.086  41.168  13.924  1.00  0.00     0.032 C 
ATOM      8  C   UNL     1      14.583  41.410  14.125  1.00  0.00     0.014 C 
BRANCH   7   9
ATOM      9  C   UNL     1      16.714  42.206  13.032  1.00  0.00     0.044 C 
ATOM     10  O   UNL     1      17.119  41.883  11.884  1.00  0.00    -0.550 OA
ATOM     11  O   UNL     1      16.809  43.532  13.439  1.00  0.00    -0.550 OA
ENDBRANCH   7   9
ENDBRANCH   6   7
ENDBRANCH   5   6
ENDBRANCH   4   5
ENDBRANCH   3   4
ENDBRANCH   2   3
ENDBRANCH   1   2
BRANCH   1  12
ATOM     12  C   UNL     1      14.634  38.739   9.232  1.00  0.00     0.000 C 
BRANCH  12  13
ATOM     13  C   UNL     1      16.085  38.869   9.726  1.00  0.00    -0.000 C 
BRANCH  13  14
ATOM     14  C   UNL     1      17.049  39.315   8.615  1.00  0.00    -0.000 C 
BRANCH  14  15
ATOM     15  C   UNL     1      16.319  39.865   7.379  1.00  0.00    -0.000 C 
BRANCH  15  16
ATOM     16  C   UNL     1      17.064  41.070   6.792  1.00  0.00    -0.000 C 
BRANCH  16  17
ATOM     17  C   UNL     1      16.591  42.411   7.379  1.00  0.00    -0.000 C 
BRANCH  17  18
ATOM     18  C   UNL     1      15.236  42.323   8.113  1.00  0.00    -0.003 C 
ATOM     19  C   UNL     1      15.287  42.949   9.506  1.00  0.00     0.004 C 
ENDBRANCH  17  18
ENDBRANCH  16  17
ENDBRANCH  15  16
ENDBRANCH  14  15
ENDBRANCH  13  14
ENDBRANCH  12  13
ENDBRANCH   1  12
TORSDOF 14
ENDMDL
MODEL 6
REMARK VINA RESULT:    -1.444      1.653      2.940
REMARK INTER + INTRA:          -4.408
REMARK INTER:                  -3.171
REMARK INTRA:                  -1.237
REMARK UNBOUND:                -1.782
REMARK SMILES CCCCCCCCCCCCCC[C@H](C)C(=O)[O-]
REMARK SMILES IDX 9 1 10 2 11 3 12 4 13 5 14 6 15 7 16 8 17 9 18 10 19 11 8 12
REMARK SMILES IDX 7 13 6 14 5 15 4 16 3 17 2 18 1 19
REMARK H PARENT
REMARK Flexibility Score: inf
ROOT
ATOM      1  C   UNL     1      16.647  41.379   7.514  1.00  0.00     0.000 C 
ENDROOT
BRANCH   1   2
ATOM      2  C   UNL     1      16.683  39.933   8.046  1.00  0.00     0.000 C 
BRANCH   2   3
ATOM      3  C   UNL     1      15.371  39.431   8.688  1.00  0.00     0.000 C 
BRANCH   3   4
ATOM      4  C   UNL     1      15.493  38.947  10.145  1.00  0.00     0.000 C 
BRANCH   4   5
ATOM      5  C   UNL     1      15.085  37.477  10.325  1.00  0.00     0.001 C 
BRANCH   5   6
ATOM      6  C   UNL     1      15.206  36.974  11.780  1.00  0.00     0.009 C 
BRANCH   6   7
ATOM      7  C   UNL     1      15.899  37.913  12.803  1.00  0.00     0.032 C 
ATOM      8  C   UNL     1      16.814  37.165  13.783  1.00  0.00     0.014 C 
BRANCH   7   9
ATOM      9  C   UNL     1      14.932  38.824  13.513  1.00  0.00     0.044 C 
ATOM     10  O   UNL     1      15.359  39.839  14.123  1.00  0.00    -0.550 OA
ATOM     11  O   UNL     1      13.562  38.587  13.464  1.00  0.00    -0.550 OA
ENDBRANCH   7   9
ENDBRANCH   6   7
ENDBRANCH   5   6
ENDBRANCH   4   5
ENDBRANCH   3   4
ENDBRANCH   2   3
ENDBRANCH   1   2
BRANCH   1  12
ATOM     12  C   UNL     1      15.350  42.152   7.813  1.00  0.00     0.000 C 
BRANCH  12  13
ATOM     13  C   UNL     1      15.482  43.092   9.024  1.00  0.00    -0.000 C 
BRANCH  13  14
ATOM     14  C   UNL     1      16.938  43.261   9.485  1.00  0.00    -0.000 C 
BRANCH  14  15
ATOM     15  C   UNL     1      17.119  43.001  10.989  1.00  0.00    -0.000 C 
BRANCH  15  16
ATOM     16  C   UNL     1      15.783  43.124  11.732  1.00  0.00    -0.000 C 
BRANCH  16  17
ATOM     17  C   UNL     1      15.924  42.953  13.253  1.00  0.00    -0.000 C 
BRANCH  17  18
ATOM     18  C   UNL     1      14.614  43.204  14.030  1.00  0.00    -0.003 C 
ATOM     19  C   UNL     1      13.877  44.450  13.538  1.00  0.00     0.004 C 
ENDBRANCH  17  18
ENDBRANCH  16  17
ENDBRANCH  15  16
ENDBRANCH  14  15
ENDBRANCH  13  14
ENDBRANCH  12  13
ENDBRANCH   1  12
TORSDOF 14
ENDMDL
