MODEL 1
REMARK VINA RESULT:    -4.954      0.000      0.000
REMARK INTER + INTRA:          -8.785
REMARK INTER:                  -7.561
REMARK INTRA:                  -1.224
REMARK UNBOUND:                -1.224
REMARK SMILES CC(=O)CCC=C(C)CCC=C(C)CCC=C(C)C
REMARK SMILES IDX 10 1 11 2 12 3 13 4 14 5 15 6 16 7 18 8 17 9 19 10 9 11 7 12
REMARK SMILES IDX 6 13 8 14 5 15 4 16 2 17 3 18 1 19
REMARK H PARENT
REMARK Flexibility Score: inf
ROOT
ATOM      1  C   UNL     1      13.933  51.947  33.593  1.00  0.00     0.032 C 
ENDROOT
BRANCH   1   2
ATOM      2  C   UNL     1      13.265  50.707  34.132  1.00  0.00    -0.028 C 
ATOM      3  C   UNL     1      13.139  49.546  33.450  1.00  0.00    -0.077 C 
ATOM      4  C   UNL     1      13.630  49.398  32.030  1.00  0.00     0.039 C 
BRANCH   3   5
ATOM      5  C   UNL     1      12.503  48.352  34.132  1.00  0.00     0.034 C 
BRANCH   5   6
ATOM      6  C   UNL     1      12.127  47.254  33.128  1.00  0.00     0.032 C 
BRANCH   6   7
ATOM      7  C   UNL     1      10.650  46.937  33.189  1.00  0.00    -0.028 C 
ATOM      8  C   UNL     1      10.070  48.403  31.243  1.00  0.00     0.039 C 
ATOM      9  C   UNL     1       9.723  47.413  32.329  1.00  0.00    -0.080 C 
ATOM     10  C   UNL     1       8.301  46.934  32.469  1.00  0.00     0.039 C 
ENDBRANCH   6   7
ENDBRANCH   5   6
ENDBRANCH   3   5
ENDBRANCH   1   2
BRANCH   1  11
ATOM     11  C   UNL     1      14.286  52.909  34.732  1.00  0.00     0.034 C 
BRANCH  11  12
ATOM     12  C   UNL     1      15.531  52.450  35.458  1.00  0.00    -0.077 C 
ATOM     13  C   UNL     1      16.704  52.408  34.786  1.00  0.00    -0.028 C 
ATOM     14  C   UNL     1      15.426  52.025  36.905  1.00  0.00     0.039 C 
BRANCH  13  15
ATOM     15  C   UNL     1      18.025  52.015  35.398  1.00  0.00     0.035 C 
BRANCH  15  16
ATOM     16  C   UNL     1      18.804  53.253  35.847  1.00  0.00     0.079 C 
BRANCH  16  17
ATOM     17  C   UNL     1      19.382  53.978  34.660  1.00  0.00     0.130 C 
ATOM     18  O   UNL     1      19.158  55.170  34.516  1.00  0.00    -0.300 OA
ATOM     19  C   UNL     1      20.236  53.267  33.652  1.00  0.00     0.087 C 
ENDBRANCH  16  17
ENDBRANCH  15  16
ENDBRANCH  13  15
ENDBRANCH  11  12
ENDBRANCH   1  11
TORSDOF 9
ENDMDL
MODEL 2
REMARK VINA RESULT:    -4.832      3.111      8.780
REMARK INTER + INTRA:          -8.598
REMARK INTER:                  -7.504
REMARK INTRA:                  -1.094
REMARK UNBOUND:                -1.224
REMARK SMILES CC(=O)CCC=C(C)CCC=C(C)CCC=C(C)C
REMARK SMILES IDX 10 1 11 2 12 3 13 4 14 5 15 6 16 7 18 8 17 9 19 10 9 11 7 12
REMARK SMILES IDX 6 13 8 14 5 15 4 16 2 17 3 18 1 19
REMARK H PARENT
REMARK Flexibility Score: inf
ROOT
ATOM      1  C   UNL     1      14.020  52.276  34.589  1.00  0.00     0.032 C 
ENDROOT
BRANCH   1   2
ATOM      2  C   UNL     1      15.509  52.129  34.400  1.00  0.00    -0.028 C 
ATOM      3  C   UNL     1      16.434  52.422  35.343  1.00  0.00    -0.077 C 
ATOM      4  C   UNL     1      16.049  52.984  36.690  1.00  0.00     0.039 C 
BRANCH   3   5
ATOM      5  C   UNL     1      17.898  52.167  35.048  1.00  0.00     0.034 C 
BRANCH   5   6
ATOM      6  C   UNL     1      18.802  53.234  35.679  1.00  0.00     0.032 C 
BRANCH   6   7
ATOM      7  C   UNL     1      18.949  54.435  34.773  1.00  0.00    -0.028 C 
ATOM      8  C   UNL     1      20.770  53.403  33.397  1.00  0.00     0.039 C 
ATOM      9  C   UNL     1      19.798  54.511  33.724  1.00  0.00    -0.080 C 
ATOM     10  C   UNL     1      19.764  55.746  32.861  1.00  0.00     0.039 C 
ENDBRANCH   6   7
ENDBRANCH   5   6
ENDBRANCH   3   5
ENDBRANCH   1   2
BRANCH   1  11
ATOM     11  C   UNL     1      13.269  51.835  33.328  1.00  0.00     0.034 C 
BRANCH  11  12
ATOM     12  C   UNL     1      13.276  50.328  33.198  1.00  0.00    -0.077 C 
ATOM     13  C   UNL     1      12.724  49.583  34.183  1.00  0.00    -0.028 C 
ATOM     14  C   UNL     1      13.923  49.696  31.988  1.00  0.00     0.039 C 
BRANCH  13  15
ATOM     15  C   UNL     1      12.622  48.078  34.160  1.00  0.00     0.035 C 
BRANCH  15  16
ATOM     16  C   UNL     1      11.192  47.627  34.466  1.00  0.00     0.079 C 
BRANCH  16  17
ATOM     17  C   UNL     1      10.471  47.249  33.198  1.00  0.00     0.130 C 
ATOM     18  O   UNL     1       9.260  47.090  33.221  1.00  0.00    -0.300 OA
ATOM     19  C   UNL     1      11.207  47.073  31.904  1.00  0.00     0.087 C 
ENDBRANCH  16  17
ENDBRANCH  15  16
ENDBRANCH  13  15
ENDBRANCH  11  12
ENDBRANCH   1  11
TORSDOF 9
ENDMDL
MODEL 3
REMARK VINA RESULT:    -4.717      2.724      7.717
REMARK INTER + INTRA:          -8.423
REMARK INTER:                  -6.718
REMARK INTRA:                  -1.705
REMARK UNBOUND:                -1.224
REMARK SMILES CC(=O)CCC=C(C)CCC=C(C)CCC=C(C)C
REMARK SMILES IDX 10 1 11 2 12 3 13 4 14 5 15 6 16 7 18 8 17 9 19 10 9 11 7 12
REMARK SMILES IDX 6 13 8 14 5 15 4 16 2 17 3 18 1 19
REMARK H PARENT
REMARK Flexibility Score: inf
ROOT
ATOM      1  C   UNL     1      14.580  54.496  35.043  1.00  0.00     0.032 C 
ENDROOT
BRANCH   1   2
ATOM      2  C   UNL     1      16.009  54.417  35.520  1.00  0.00    -0.028 C 
ATOM      3  C   UNL     1      16.523  53.390  36.234  1.00  0.00    -0.077 C 
ATOM      4  C   UNL     1      15.675  52.220  36.672  1.00  0.00     0.039 C 
BRANCH   3   5
ATOM      5  C   UNL     1      17.994  53.403  36.595  1.00  0.00     0.034 C 
BRANCH   5   6
ATOM      6  C   UNL     1      18.884  53.580  35.358  1.00  0.00     0.032 C 
BRANCH   6   7
ATOM      7  C   UNL     1      18.634  52.491  34.340  1.00  0.00    -0.028 C 
ATOM      8  C   UNL     1      20.436  53.277  32.787  1.00  0.00     0.039 C 
ATOM      9  C   UNL     1      19.345  52.319  33.204  1.00  0.00    -0.080 C 
ATOM     10  C   UNL     1      19.029  51.131  32.333  1.00  0.00     0.039 C 
ENDBRANCH   6   7
ENDBRANCH   5   6
ENDBRANCH   3   5
ENDBRANCH   1   2
BRANCH   1  11
ATOM     11  C   UNL     1      14.510  54.353  33.519  1.00  0.00     0.034 C 
BRANCH  11  12
ATOM     12  C   UNL     1      14.537  52.896  33.114  1.00  0.00    -0.077 C 
ATOM     13  C   UNL     1      13.602  52.059  33.617  1.00  0.00    -0.028 C 
ATOM     14  C   UNL     1      15.623  52.411  32.182  1.00  0.00     0.039 C 
BRANCH  13  15
ATOM     15  C   UNL     1      13.485  50.597  33.262  1.00  0.00     0.035 C 
BRANCH  15  16
ATOM     16  C   UNL     1      12.780  49.823  34.379  1.00  0.00     0.079 C 
BRANCH  16  17
ATOM     17  C   UNL     1      12.564  48.388  33.977  1.00  0.00     0.130 C 
ATOM     18  O   UNL     1      13.420  47.811  33.324  1.00  0.00    -0.300 OA
ATOM     19  C   UNL     1      11.321  47.646  34.369  1.00  0.00     0.087 C 
ENDBRANCH  16  17
ENDBRANCH  15  16
ENDBRANCH  13  15
ENDBRANCH  11  12
ENDBRANCH   1  11
TORSDOF 9
ENDMDL
MODEL 4
REMARK VINA RESULT:    -4.696      1.629      2.673
REMARK INTER + INTRA:          -8.391
REMARK INTER:                  -6.802
REMARK INTRA:                  -1.589
REMARK UNBOUND:                -1.224
REMARK SMILES CC(=O)CCC=C(C)CCC=C(C)CCC=C(C)C
REMARK SMILES IDX 10 1 11 2 12 3 13 4 14 5 15 6 16 7 18 8 17 9 19 10 9 11 7 12
REMARK SMILES IDX 6 13 8 14 5 15 4 16 2 17 3 18 1 19
REMARK H PARENT
REMARK Flexibility Score: inf
ROOT
ATOM      1  C   UNL     1      13.719  54.592  35.055  1.00  0.00     0.032 C 
ENDROOT
BRANCH   1   2
ATOM      2  C   UNL     1      13.251  53.303  34.427  1.00  0.00    -0.028 C 
ATOM      3  C   UNL     1      13.804  52.741  33.327  1.00  0.00    -0.077 C 
ATOM      4  C   UNL     1      14.940  53.399  32.582  1.00  0.00     0.039 C 
BRANCH   3   5
ATOM      5  C   UNL     1      13.281  51.408  32.835  1.00  0.00     0.034 C 
BRANCH   5   6
ATOM      6  C   UNL     1      13.572  50.277  33.831  1.00  0.00     0.032 C 
BRANCH   6   7
ATOM      7  C   UNL     1      12.327  49.470  34.123  1.00  0.00    -0.028 C 
ATOM      8  C   UNL     1      13.303  47.322  33.282  1.00  0.00     0.039 C 
ATOM      9  C   UNL     1      12.205  48.140  33.919  1.00  0.00    -0.080 C 
ATOM     10  C   UNL     1      10.928  47.463  34.343  1.00  0.00     0.039 C 
ENDBRANCH   6   7
ENDBRANCH   5   6
ENDBRANCH   3   5
ENDBRANCH   1   2
BRANCH   1  11
ATOM     11  C   UNL     1      14.201  54.350  36.489  1.00  0.00     0.034 C 
BRANCH  11  12
ATOM     12  C   UNL     1      15.335  53.349  36.513  1.00  0.00    -0.077 C 
ATOM     13  C   UNL     1      16.524  53.692  35.969  1.00  0.00    -0.028 C 
ATOM     14  C   UNL     1      15.099  51.984  37.119  1.00  0.00     0.039 C 
BRANCH  13  15
ATOM     15  C   UNL     1      17.748  52.810  35.966  1.00  0.00     0.035 C 
BRANCH  15  16
ATOM     16  C   UNL     1      18.002  52.241  34.568  1.00  0.00     0.079 C 
BRANCH  16  17
ATOM     17  C   UNL     1      19.285  52.786  33.998  1.00  0.00     0.130 C 
ATOM     18  O   UNL     1      19.972  53.538  34.673  1.00  0.00    -0.300 OA
ATOM     19  C   UNL     1      19.745  52.418  32.618  1.00  0.00     0.087 C 
ENDBRANCH  16  17
ENDBRANCH  15  16
ENDBRANCH  13  15
ENDBRANCH  11  12
ENDBRANCH   1  11
TORSDOF 9
ENDMDL
MODEL 5
REMARK VINA RESULT:    -4.643     14.505     16.243
REMARK INTER + INTRA:          -8.310
REMARK INTER:                  -5.537
REMARK INTRA:                  -2.773
REMARK UNBOUND:                -1.224
REMARK SMILES CC(=O)CCC=C(C)CCC=C(C)CCC=C(C)C
REMARK SMILES IDX 10 1 11 2 12 3 13 4 14 5 15 6 16 7 18 8 17 9 19 10 9 11 7 12
REMARK SMILES IDX 6 13 8 14 5 15 4 16 2 17 3 18 1 19
REMARK H PARENT
REMARK Flexibility Score: inf
ROOT
ATOM      1  C   UNL     1      12.273  60.796  20.905  1.00  0.00     0.032 C 
ENDROOT
BRANCH   1   2
ATOM      2  C   UNL     1      11.665  60.748  22.284  1.00  0.00    -0.028 C 
ATOM      3  C   UNL     1      12.247  60.167  23.358  1.00  0.00    -0.077 C 
ATOM      4  C   UNL     1      13.573  59.451  23.256  1.00  0.00     0.039 C 
BRANCH   3   5
ATOM      5  C   UNL     1      11.560  60.246  24.705  1.00  0.00     0.034 C 
BRANCH   5   6
ATOM      6  C   UNL     1      11.289  61.696  25.125  1.00  0.00     0.032 C 
BRANCH   6   7
ATOM      7  C   UNL     1      12.578  62.448  25.368  1.00  0.00    -0.028 C 
ATOM      8  C   UNL     1      12.063  64.237  23.692  1.00  0.00     0.039 C 
ATOM      9  C   UNL     1      12.921  63.606  24.763  1.00  0.00    -0.080 C 
ATOM     10  C   UNL     1      14.203  64.280  25.178  1.00  0.00     0.039 C 
ENDBRANCH   6   7
ENDBRANCH   5   6
ENDBRANCH   3   5
ENDBRANCH   1   2
BRANCH   1  11
ATOM     11  C   UNL     1      12.950  62.149  20.659  1.00  0.00     0.034 C 
BRANCH  11  12
ATOM     12  C   UNL     1      14.441  62.054  20.899  1.00  0.00    -0.077 C 
ATOM     13  C   UNL     1      14.980  62.722  21.944  1.00  0.00    -0.028 C 
ATOM     14  C   UNL     1      15.289  61.241  19.948  1.00  0.00     0.039 C 
BRANCH  13  15
ATOM     15  C   UNL     1      16.439  62.677  22.323  1.00  0.00     0.035 C 
BRANCH  15  16
ATOM     16  C   UNL     1      16.713  61.523  23.291  1.00  0.00     0.079 C 
BRANCH  16  17
ATOM     17  C   UNL     1      17.669  60.532  22.681  1.00  0.00     0.130 C 
ATOM     18  O   UNL     1      18.820  60.870  22.453  1.00  0.00    -0.300 OA
ATOM     19  C   UNL     1      17.239  59.133  22.354  1.00  0.00     0.087 C 
ENDBRANCH  16  17
ENDBRANCH  15  16
ENDBRANCH  13  15
ENDBRANCH  11  12
ENDBRANCH   1  11
TORSDOF 9
ENDMDL
MODEL 6
REMARK VINA RESULT:    -4.635      2.003      4.480
REMARK INTER + INTRA:          -8.298
REMARK INTER:                  -6.661
REMARK INTRA:                  -1.637
REMARK UNBOUND:                -1.224
REMARK SMILES CC(=O)CCC=C(C)CCC=C(C)CCC=C(C)C
REMARK SMILES IDX 10 1 11 2 12 3 13 4 14 5 15 6 16 7 18 8 17 9 19 10 9 11 7 12
REMARK SMILES IDX 6 13 8 14 5 15 4 16 2 17 3 18 1 19
REMARK H PARENT
REMARK Flexibility Score: inf
ROOT
ATOM      1  C   UNL     1      17.890  52.057  35.483  1.00  0.00     0.032 C 
ENDROOT
BRANCH   1   2
ATOM      2  C   UNL     1      16.583  52.455  34.843  1.00  0.00    -0.028 C 
ATOM      3  C   UNL     1      15.398  52.510  35.492  1.00  0.00    -0.077 C 
ATOM      4  C   UNL     1      15.265  52.120  36.945  1.00  0.00     0.039 C 
BRANCH   3   5
ATOM      5  C   UNL     1      14.169  52.989  34.748  1.00  0.00     0.034 C 
BRANCH   5   6
ATOM      6  C   UNL     1      13.817  52.069  33.572  1.00  0.00     0.032 C 
BRANCH   6   7
ATOM      7  C   UNL     1      13.176  50.787  34.050  1.00  0.00    -0.028 C 
ATOM      8  C   UNL     1      13.985  49.441  32.097  1.00  0.00     0.039 C 
ATOM      9  C   UNL     1      13.275  49.595  33.421  1.00  0.00    -0.080 C 
ATOM     10  C   UNL     1      12.651  48.386  34.071  1.00  0.00     0.039 C 
ENDBRANCH   6   7
ENDBRANCH   5   6
ENDBRANCH   3   5
ENDBRANCH   1   2
BRANCH   1  11
ATOM     11  C   UNL     1      18.694  53.298  35.886  1.00  0.00     0.034 C 
BRANCH  11  12
ATOM     12  C   UNL     1      19.341  53.936  34.676  1.00  0.00    -0.077 C 
ATOM     13  C   UNL     1      20.270  53.237  33.986  1.00  0.00    -0.028 C 
ATOM     14  C   UNL     1      18.953  55.344  34.290  1.00  0.00     0.039 C 
BRANCH  13  15
ATOM     15  C   UNL     1      20.958  53.733  32.738  1.00  0.00     0.035 C 
BRANCH  15  16
ATOM     16  C   UNL     1      20.510  52.928  31.516  1.00  0.00     0.079 C 
BRANCH  16  17
ATOM     17  C   UNL     1      19.099  53.286  31.131  1.00  0.00     0.130 C 
ATOM     18  O   UNL     1      18.866  54.387  30.656  1.00  0.00    -0.300 OA
ATOM     19  C   UNL     1      17.970  52.314  31.310  1.00  0.00     0.087 C 
ENDBRANCH  16  17
ENDBRANCH  15  16
ENDBRANCH  13  15
ENDBRANCH  11  12
ENDBRANCH   1  11
TORSDOF 9
ENDMDL
MODEL 7
REMARK VINA RESULT:    -4.571      2.793      7.383
REMARK INTER + INTRA:          -8.200
REMARK INTER:                  -5.897
REMARK INTRA:                  -2.304
REMARK UNBOUND:                -1.224
REMARK SMILES CC(=O)CCC=C(C)CCC=C(C)CCC=C(C)C
REMARK SMILES IDX 10 1 11 2 12 3 13 4 14 5 15 6 16 7 18 8 17 9 19 10 9 11 7 12
REMARK SMILES IDX 6 13 8 14 5 15 4 16 2 17 3 18 1 19
REMARK H PARENT
REMARK Flexibility Score: inf
ROOT
ATOM      1  C   UNL     1      16.894  53.398  36.599  1.00  0.00     0.032 C 
ENDROOT
BRANCH   1   2
ATOM      2  C   UNL     1      18.180  53.100  35.870  1.00  0.00    -0.028 C 
ATOM      3  C   UNL     1      18.826  53.975  35.067  1.00  0.00    -0.077 C 
ATOM      4  C   UNL     1      18.275  55.352  34.782  1.00  0.00     0.039 C 
BRANCH   3   5
ATOM      5  C   UNL     1      20.147  53.573  34.444  1.00  0.00     0.034 C 
BRANCH   5   6
ATOM      6  C   UNL     1      20.058  53.497  32.914  1.00  0.00     0.032 C 
BRANCH   6   7
ATOM      7  C   UNL     1      19.303  52.265  32.469  1.00  0.00    -0.028 C 
ATOM      8  C   UNL     1      17.325  53.557  31.635  1.00  0.00     0.039 C 
ATOM      9  C   UNL     1      18.097  52.278  31.860  1.00  0.00    -0.080 C 
ATOM     10  C   UNL     1      17.513  50.969  31.397  1.00  0.00     0.039 C 
ENDBRANCH   6   7
ENDBRANCH   5   6
ENDBRANCH   3   5
ENDBRANCH   1   2
BRANCH   1  11
ATOM     11  C   UNL     1      15.836  52.333  36.287  1.00  0.00     0.034 C 
BRANCH  11  12
ATOM     12  C   UNL     1      15.056  52.700  35.044  1.00  0.00    -0.077 C 
ATOM     13  C   UNL     1      14.947  51.792  34.048  1.00  0.00    -0.028 C 
ATOM     14  C   UNL     1      14.444  54.077  34.938  1.00  0.00     0.039 C 
BRANCH  13  15
ATOM     15  C   UNL     1      14.162  52.008  32.778  1.00  0.00     0.035 C 
BRANCH  15  16
ATOM     16  C   UNL     1      12.858  51.206  32.803  1.00  0.00     0.079 C 
BRANCH  16  17
ATOM     17  C   UNL     1      13.142  49.733  32.936  1.00  0.00     0.130 C 
ATOM     18  O   UNL     1      13.827  49.175  32.093  1.00  0.00    -0.300 OA
ATOM     19  C   UNL     1      12.608  48.936  34.088  1.00  0.00     0.087 C 
ENDBRANCH  16  17
ENDBRANCH  15  16
ENDBRANCH  13  15
ENDBRANCH  11  12
ENDBRANCH   1  11
TORSDOF 9
ENDMDL
MODEL 8
REMARK VINA RESULT:    -4.547      3.321      7.453
REMARK INTER + INTRA:          -8.163
REMARK INTER:                  -5.569
REMARK INTRA:                  -2.594
REMARK UNBOUND:                -1.224
REMARK SMILES CC(=O)CCC=C(C)CCC=C(C)CCC=C(C)C
REMARK SMILES IDX 10 1 11 2 12 3 13 4 14 5 15 6 16 7 18 8 17 9 19 10 9 11 7 12
REMARK SMILES IDX 6 13 8 14 5 15 4 16 2 17 3 18 1 19
REMARK H PARENT
REMARK Flexibility Score: inf
ROOT
ATOM      1  C   UNL     1      18.644  53.201  35.956  1.00  0.00     0.032 C 
ENDROOT
BRANCH   1   2
ATOM      2  C   UNL     1      19.201  53.979  34.790  1.00  0.00    -0.028 C 
ATOM      3  C   UNL     1      18.787  55.213  34.424  1.00  0.00    -0.077 C 
ATOM      4  C   UNL     1      17.664  55.923  35.142  1.00  0.00     0.039 C 
BRANCH   3   5
ATOM      5  C   UNL     1      19.476  55.914  33.271  1.00  0.00     0.034 C 
BRANCH   5   6
ATOM      6  C   UNL     1      19.370  55.110  31.968  1.00  0.00     0.032 C 
BRANCH   6   7
ATOM      7  C   UNL     1      17.934  54.997  31.509  1.00  0.00    -0.028 C 
ATOM      8  C   UNL     1      17.877  52.500  31.708  1.00  0.00     0.039 C 
ATOM      9  C   UNL     1      17.241  53.840  31.424  1.00  0.00    -0.080 C 
ATOM     10  C   UNL     1      15.787  53.901  31.033  1.00  0.00     0.039 C 
ENDBRANCH   6   7
ENDBRANCH   5   6
ENDBRANCH   3   5
ENDBRANCH   1   2
BRANCH   1  11
ATOM     11  C   UNL     1      17.722  52.079  35.466  1.00  0.00     0.034 C 
BRANCH  11  12
ATOM     12  C   UNL     1      16.269  52.452  35.663  1.00  0.00    -0.077 C 
ATOM     13  C   UNL     1      15.547  52.860  34.596  1.00  0.00    -0.028 C 
ATOM     14  C   UNL     1      15.674  52.385  37.051  1.00  0.00     0.039 C 
BRANCH  13  15
ATOM     15  C   UNL     1      14.082  53.216  34.642  1.00  0.00     0.035 C 
BRANCH  15  16
ATOM     16  C   UNL     1      13.322  52.537  33.500  1.00  0.00     0.079 C 
BRANCH  16  17
ATOM     17  C   UNL     1      13.499  51.043  33.558  1.00  0.00     0.130 C 
ATOM     18  O   UNL     1      13.108  50.429  34.538  1.00  0.00    -0.300 OA
ATOM     19  C   UNL     1      14.139  50.288  32.430  1.00  0.00     0.087 C 
ENDBRANCH  16  17
ENDBRANCH  15  16
ENDBRANCH  13  15
ENDBRANCH  11  12
ENDBRANCH   1  11
TORSDOF 9
ENDMDL
MODEL 9
REMARK VINA RESULT:    -4.537      2.712      8.175
REMARK INTER + INTRA:          -8.149
REMARK INTER:                  -6.224
REMARK INTRA:                  -1.925
REMARK UNBOUND:                -1.224
REMARK SMILES CC(=O)CCC=C(C)CCC=C(C)CCC=C(C)C
REMARK SMILES IDX 10 1 11 2 12 3 13 4 14 5 15 6 16 7 18 8 17 9 19 10 9 11 7 12
REMARK SMILES IDX 6 13 8 14 5 15 4 16 2 17 3 18 1 19
REMARK H PARENT
REMARK Flexibility Score: inf
ROOT
ATOM      1  C   UNL     1      16.509  52.562  36.309  1.00  0.00     0.032 C 
ENDROOT
BRANCH   1   2
ATOM      2  C   UNL     1      17.788  53.313  36.035  1.00  0.00    -0.028 C 
ATOM      3  C   UNL     1      18.562  53.135  34.940  1.00  0.00    -0.077 C 
ATOM      4  C   UNL     1      18.230  52.103  33.888  1.00  0.00     0.039 C 
BRANCH   3   5
ATOM      5  C   UNL     1      19.789  54.002  34.752  1.00  0.00     0.034 C 
BRANCH   5   6
ATOM      6  C   UNL     1      19.538  55.140  33.754  1.00  0.00     0.032 C 
BRANCH   6   7
ATOM      7  C   UNL     1      18.897  56.330  34.429  1.00  0.00    -0.028 C 
ATOM      8  C   UNL     1      16.621  55.865  33.491  1.00  0.00     0.039 C 
ATOM      9  C   UNL     1      17.585  56.646  34.351  1.00  0.00    -0.080 C 
ATOM     10  C   UNL     1      17.080  57.818  35.154  1.00  0.00     0.039 C 
ENDBRANCH   6   7
ENDBRANCH   5   6
ENDBRANCH   3   5
ENDBRANCH   1   2
BRANCH   1  11
ATOM     11  C   UNL     1      15.295  53.483  36.143  1.00  0.00     0.034 C 
BRANCH  11  12
ATOM     12  C   UNL     1      14.465  53.068  34.948  1.00  0.00    -0.077 C 
ATOM     13  C   UNL     1      14.677  51.853  34.393  1.00  0.00    -0.028 C 
ATOM     14  C   UNL     1      13.442  54.031  34.392  1.00  0.00     0.039 C 
BRANCH  13  15
ATOM     15  C   UNL     1      13.892  51.297  33.231  1.00  0.00     0.035 C 
BRANCH  15  16
ATOM     16  C   UNL     1      12.766  50.385  33.726  1.00  0.00     0.079 C 
BRANCH  16  17
ATOM     17  C   UNL     1      13.015  48.959  33.310  1.00  0.00     0.130 C 
ATOM     18  O   UNL     1      13.741  48.729  32.355  1.00  0.00    -0.300 OA
ATOM     19  C   UNL     1      12.396  47.811  34.051  1.00  0.00     0.087 C 
ENDBRANCH  16  17
ENDBRANCH  15  16
ENDBRANCH  13  15
ENDBRANCH  11  12
ENDBRANCH   1  11
TORSDOF 9
ENDMDL
