MODEL 1
REMARK VINA RESULT:    -5.338      0.000      0.000
REMARK INTER + INTRA:          -8.487
REMARK INTER:                  -8.146
REMARK INTRA:                  -0.341
REMARK UNBOUND:                -0.341
REMARK SMILES O=C([O-])CCCCCCCCC(=O)[O-]
REMARK SMILES IDX 7 1 6 2 5 3 4 4 2 5 1 6 3 7 8 8 9 9 10 10 11 11 12 12 13 13
REMARK SMILES IDX 14 14
REMARK H PARENT
REMARK Flexibility Score: inf
ROOT
ATOM      1  C   UNL     1       4.496  44.414  11.561  1.00  0.00     0.000 C 
ENDROOT
BRANCH   1   2
ATOM      2  C   UNL     1       4.139  45.760  10.921  1.00  0.00     0.000 C 
BRANCH   2   3
ATOM      3  C   UNL     1       4.815  45.914   9.550  1.00  0.00     0.006 C 
BRANCH   3   4
ATOM      4  C   UNL     1       4.776  47.361   9.043  1.00  0.00     0.053 C 
BRANCH   4   5
ATOM      5  C   UNL     1       6.130  48.000   9.076  1.00  0.00     0.041 C 
ATOM      6  O   UNL     1       7.131  47.344   9.465  1.00  0.00    -0.550 OA
ATOM      7  O   UNL     1       6.292  49.311   8.644  1.00  0.00    -0.550 OA
ENDBRANCH   4   5
ENDBRANCH   3   4
ENDBRANCH   2   3
ENDBRANCH   1   2
BRANCH   1   8
ATOM      8  C   UNL     1       4.169  43.250  10.615  1.00  0.00     0.000 C 
BRANCH   8   9
ATOM      9  C   UNL     1       2.792  42.618  10.895  1.00  0.00     0.000 C 
BRANCH   9  10
ATOM     10  C   UNL     1       2.822  41.350  11.772  1.00  0.00     0.006 C 
BRANCH  10  11
ATOM     11  C   UNL     1       4.231  40.856  12.133  1.00  0.00     0.053 C 
BRANCH  11  12
ATOM     12  C   UNL     1       4.200  39.524  12.816  1.00  0.00     0.041 C 
ATOM     13  O   UNL     1       5.069  39.233  13.679  1.00  0.00    -0.550 OA
ATOM     14  O   UNL     1       3.230  38.590  12.472  1.00  0.00    -0.550 OA
ENDBRANCH  11  12
ENDBRANCH  10  11
ENDBRANCH   9  10
ENDBRANCH   8   9
ENDBRANCH   1   8
TORSDOF 9
ENDMDL
MODEL 2
REMARK VINA RESULT:    -5.335      1.553      1.915
REMARK INTER + INTRA:          -8.482
REMARK INTER:                  -7.920
REMARK INTRA:                  -0.562
REMARK UNBOUND:                -0.341
REMARK SMILES O=C([O-])CCCCCCCCC(=O)[O-]
REMARK SMILES IDX 7 1 6 2 5 3 4 4 2 5 1 6 3 7 8 8 9 9 10 10 11 11 12 12 13 13
REMARK SMILES IDX 14 14
REMARK H PARENT
REMARK Flexibility Score: inf
ROOT
ATOM      1  C   UNL     1       3.859  43.666   9.621  1.00  0.00     0.000 C 
ENDROOT
BRANCH   1   2
ATOM      2  C   UNL     1       4.235  44.394  10.917  1.00  0.00     0.000 C 
BRANCH   2   3
ATOM      3  C   UNL     1       4.382  45.905  10.678  1.00  0.00     0.006 C 
BRANCH   3   4
ATOM      4  C   UNL     1       4.563  46.242   9.192  1.00  0.00     0.053 C 
BRANCH   4   5
ATOM      5  C   UNL     1       3.534  47.219   8.713  1.00  0.00     0.041 C 
ATOM      6  O   UNL     1       2.417  47.296   9.289  1.00  0.00    -0.550 OA
ATOM      7  O   UNL     1       3.820  48.067   7.650  1.00  0.00    -0.550 OA
ENDBRANCH   4   5
ENDBRANCH   3   4
ENDBRANCH   2   3
ENDBRANCH   1   2
BRANCH   1   8
ATOM      8  C   UNL     1       2.812  42.575   9.886  1.00  0.00     0.000 C 
BRANCH   8   9
ATOM      9  C   UNL     1       2.319  42.558  11.345  1.00  0.00     0.000 C 
BRANCH   9  10
ATOM     10  C   UNL     1       2.565  41.236  12.101  1.00  0.00     0.006 C 
BRANCH  10  11
ATOM     11  C   UNL     1       4.033  40.783  12.133  1.00  0.00     0.053 C 
BRANCH  11  12
ATOM     12  C   UNL     1       4.190  39.440  12.778  1.00  0.00     0.041 C 
ATOM     13  O   UNL     1       5.069  39.259  13.660  1.00  0.00    -0.550 OA
ATOM     14  O   UNL     1       3.387  38.379  12.378  1.00  0.00    -0.550 OA
ENDBRANCH  11  12
ENDBRANCH  10  11
ENDBRANCH   9  10
ENDBRANCH   8   9
ENDBRANCH   1   8
TORSDOF 9
ENDMDL
MODEL 3
REMARK VINA RESULT:    -5.272      0.637      7.461
REMARK INTER + INTRA:          -8.386
REMARK INTER:                  -7.916
REMARK INTRA:                  -0.470
REMARK UNBOUND:                -0.341
REMARK SMILES O=C([O-])CCCCCCCCC(=O)[O-]
REMARK SMILES IDX 7 1 6 2 5 3 4 4 2 5 1 6 3 7 8 8 9 9 10 10 11 11 12 12 13 13
REMARK SMILES IDX 14 14
REMARK H PARENT
REMARK Flexibility Score: inf
ROOT
ATOM      1  C   UNL     1       2.886  42.853   9.804  1.00  0.00     0.000 C 
ENDROOT
BRANCH   1   2
ATOM      2  C   UNL     1       2.347  42.778  11.237  1.00  0.00     0.000 C 
BRANCH   2   3
ATOM      3  C   UNL     1       2.552  41.376  11.830  1.00  0.00     0.006 C 
BRANCH   3   4
ATOM      4  C   UNL     1       4.034  41.058  12.068  1.00  0.00     0.053 C 
BRANCH   4   5
ATOM      5  C   UNL     1       4.220  39.718  12.712  1.00  0.00     0.041 C 
ATOM      6  O   UNL     1       5.119  39.551  13.578  1.00  0.00    -0.550 OA
ATOM      7  O   UNL     1       3.377  38.664  12.382  1.00  0.00    -0.550 OA
ENDBRANCH   4   5
ENDBRANCH   3   4
ENDBRANCH   2   3
ENDBRANCH   1   2
BRANCH   1   8
ATOM      8  C   UNL     1       4.042  43.858   9.703  1.00  0.00     0.000 C 
BRANCH   8   9
ATOM      9  C   UNL     1       4.144  44.782  10.930  1.00  0.00     0.000 C 
BRANCH   9  10
ATOM     10  C   UNL     1       4.462  46.257  10.612  1.00  0.00     0.006 C 
BRANCH  10  11
ATOM     11  C   UNL     1       4.996  46.503   9.193  1.00  0.00     0.053 C 
BRANCH  11  12
ATOM     12  C   UNL     1       6.020  47.596   9.162  1.00  0.00     0.041 C 
ATOM     13  O   UNL     1       5.703  48.752   8.780  1.00  0.00    -0.550 OA
ATOM     14  O   UNL     1       7.335  47.326   9.522  1.00  0.00    -0.550 OA
ENDBRANCH  11  12
ENDBRANCH  10  11
ENDBRANCH   9  10
ENDBRANCH   8   9
ENDBRANCH   1   8
TORSDOF 9
ENDMDL
MODEL 4
REMARK VINA RESULT:    -5.271      0.768      7.788
REMARK INTER + INTRA:          -8.384
REMARK INTER:                  -8.126
REMARK INTRA:                  -0.259
REMARK UNBOUND:                -0.341
REMARK SMILES O=C([O-])CCCCCCCCC(=O)[O-]
REMARK SMILES IDX 7 1 6 2 5 3 4 4 2 5 1 6 3 7 8 8 9 9 10 10 11 11 12 12 13 13
REMARK SMILES IDX 14 14
REMARK H PARENT
REMARK Flexibility Score: inf
ROOT
ATOM      1  C   UNL     1       3.259  43.968  11.766  1.00  0.00     0.000 C 
ENDROOT
BRANCH   1   2
ATOM      2  C   UNL     1       2.366  42.725  11.699  1.00  0.00     0.000 C 
BRANCH   2   3
ATOM      3  C   UNL     1       3.209  41.446  11.579  1.00  0.00     0.006 C 
BRANCH   3   4
ATOM      4  C   UNL     1       2.716  40.336  12.516  1.00  0.00     0.053 C 
BRANCH   4   5
ATOM      5  C   UNL     1       3.739  39.255  12.685  1.00  0.00     0.041 C 
ATOM      6  O   UNL     1       3.553  38.120  12.172  1.00  0.00    -0.550 OA
ATOM      7  O   UNL     1       4.914  39.511  13.381  1.00  0.00    -0.550 OA
ENDBRANCH   4   5
ENDBRANCH   3   4
ENDBRANCH   2   3
ENDBRANCH   1   2
BRANCH   1   8
ATOM      8  C   UNL     1       4.259  43.992  10.601  1.00  0.00     0.000 C 
BRANCH   8   9
ATOM      9  C   UNL     1       4.056  45.195   9.661  1.00  0.00     0.000 C 
BRANCH   9  10
ATOM     10  C   UNL     1       4.757  46.495  10.104  1.00  0.00     0.006 C 
BRANCH  10  11
ATOM     11  C   UNL     1       5.109  47.454   8.956  1.00  0.00     0.053 C 
BRANCH  11  12
ATOM     12  C   UNL     1       6.427  48.130   9.176  1.00  0.00     0.041 C 
ATOM     13  O   UNL     1       6.532  49.377   9.035  1.00  0.00    -0.550 OA
ATOM     14  O   UNL     1       7.549  47.377   9.504  1.00  0.00    -0.550 OA
ENDBRANCH  11  12
ENDBRANCH  10  11
ENDBRANCH   9  10
ENDBRANCH   8   9
ENDBRANCH   1   8
TORSDOF 9
ENDMDL
MODEL 5
REMARK VINA RESULT:    -5.261      1.387      7.469
REMARK INTER + INTRA:          -8.370
REMARK INTER:                  -7.766
REMARK INTRA:                  -0.604
REMARK UNBOUND:                -0.341
REMARK SMILES O=C([O-])CCCCCCCCC(=O)[O-]
REMARK SMILES IDX 7 1 6 2 5 3 4 4 2 5 1 6 3 7 8 8 9 9 10 10 11 11 12 12 13 13
REMARK SMILES IDX 14 14
REMARK H PARENT
REMARK Flexibility Score: inf
ROOT
ATOM      1  C   UNL     1       2.663  42.666   9.947  1.00  0.00     0.000 C 
ENDROOT
BRANCH   1   2
ATOM      2  C   UNL     1       2.418  42.679  11.460  1.00  0.00     0.000 C 
BRANCH   2   3
ATOM      3  C   UNL     1       2.579  41.273  12.056  1.00  0.00     0.006 C 
BRANCH   3   4
ATOM      4  C   UNL     1       4.051  40.850  12.157  1.00  0.00     0.053 C 
BRANCH   4   5
ATOM      5  C   UNL     1       4.201  39.497  12.782  1.00  0.00     0.041 C 
ATOM      6  O   UNL     1       5.088  39.296  13.652  1.00  0.00    -0.550 OA
ATOM      7  O   UNL     1       3.338  38.467  12.428  1.00  0.00    -0.550 OA
ENDBRANCH   4   5
ENDBRANCH   3   4
ENDBRANCH   2   3
ENDBRANCH   1   2
BRANCH   1   8
ATOM      8  C   UNL     1       3.773  43.654   9.561  1.00  0.00     0.000 C 
BRANCH   8   9
ATOM      9  C   UNL     1       4.319  44.444  10.765  1.00  0.00     0.000 C 
BRANCH   9  10
ATOM     10  C   UNL     1       4.186  45.977  10.655  1.00  0.00     0.006 C 
BRANCH  10  11
ATOM     11  C   UNL     1       3.141  46.455   9.636  1.00  0.00     0.053 C 
BRANCH  11  12
ATOM     12  C   UNL     1       3.736  47.370   8.611  1.00  0.00     0.041 C 
ATOM     13  O   UNL     1       4.950  47.695   8.680  1.00  0.00    -0.550 OA
ATOM     14  O   UNL     1       2.939  47.892   7.599  1.00  0.00    -0.550 OA
ENDBRANCH  11  12
ENDBRANCH  10  11
ENDBRANCH   9  10
ENDBRANCH   8   9
ENDBRANCH   1   8
TORSDOF 9
ENDMDL
MODEL 6
REMARK VINA RESULT:    -5.110      2.397      6.697
REMARK INTER + INTRA:          -8.139
REMARK INTER:                  -7.298
REMARK INTRA:                  -0.841
REMARK UNBOUND:                -0.341
REMARK SMILES O=C([O-])CCCCCCCCC(=O)[O-]
REMARK SMILES IDX 7 1 6 2 5 3 4 4 2 5 1 6 3 7 8 8 9 9 10 10 11 11 12 12 13 13
REMARK SMILES IDX 14 14
REMARK H PARENT
REMARK Flexibility Score: inf
ROOT
ATOM      1  C   UNL     1       0.809  45.350   8.776  1.00  0.00     0.000 C 
ENDROOT
BRANCH   1   2
ATOM      2  C   UNL     1       1.516  44.567   9.887  1.00  0.00     0.000 C 
BRANCH   2   3
ATOM      3  C   UNL     1       2.248  43.342   9.319  1.00  0.00     0.006 C 
BRANCH   3   4
ATOM      4  C   UNL     1       3.765  43.419   9.535  1.00  0.00     0.053 C 
BRANCH   4   5
ATOM      5  C   UNL     1       4.135  43.191  10.968  1.00  0.00     0.041 C 
ATOM      6  O   UNL     1       4.577  44.140  11.668  1.00  0.00    -0.550 OA
ATOM      7  O   UNL     1       3.962  41.937  11.541  1.00  0.00    -0.550 OA
ENDBRANCH   4   5
ENDBRANCH   3   4
ENDBRANCH   2   3
ENDBRANCH   1   2
BRANCH   1   8
ATOM      8  C   UNL     1       1.388  46.766   8.644  1.00  0.00     0.000 C 
BRANCH   8   9
ATOM      9  C   UNL     1       2.628  46.991   9.530  1.00  0.00     0.000 C 
BRANCH   9  10
ATOM     10  C   UNL     1       3.956  47.155   8.763  1.00  0.00     0.006 C 
BRANCH  10  11
ATOM     11  C   UNL     1       5.215  46.888   9.603  1.00  0.00     0.053 C 
BRANCH  11  12
ATOM     12  C   UNL     1       6.330  47.824   9.253  1.00  0.00     0.041 C 
ATOM     13  O   UNL     1       6.079  48.951   8.752  1.00  0.00    -0.550 OA
ATOM     14  O   UNL     1       7.650  47.437   9.451  1.00  0.00    -0.550 OA
ENDBRANCH  11  12
ENDBRANCH  10  11
ENDBRANCH   9  10
ENDBRANCH   8   9
ENDBRANCH   1   8
TORSDOF 9
ENDMDL
MODEL 7
REMARK VINA RESULT:    -5.105      2.152      2.496
REMARK INTER + INTRA:          -8.132
REMARK INTER:                  -7.692
REMARK INTRA:                  -0.440
REMARK UNBOUND:                -0.341
REMARK SMILES O=C([O-])CCCCCCCCC(=O)[O-]
REMARK SMILES IDX 7 1 6 2 5 3 4 4 2 5 1 6 3 7 8 8 9 9 10 10 11 11 12 12 13 13
REMARK SMILES IDX 14 14
REMARK H PARENT
REMARK Flexibility Score: inf
ROOT
ATOM      1  C   UNL     1       4.347  44.093  11.733  1.00  0.00     0.000 C 
ENDROOT
BRANCH   1   2
ATOM      2  C   UNL     1       4.605  45.418  11.008  1.00  0.00     0.000 C 
BRANCH   2   3
ATOM      3  C   UNL     1       3.951  45.423   9.618  1.00  0.00     0.006 C 
BRANCH   3   4
ATOM      4  C   UNL     1       3.834  46.838   9.037  1.00  0.00     0.053 C 
BRANCH   4   5
ATOM      5  C   UNL     1       2.405  47.263   8.889  1.00  0.00     0.041 C 
ATOM      6  O   UNL     1       1.565  46.984   9.783  1.00  0.00    -0.550 OA
ATOM      7  O   UNL     1       2.009  47.998   7.777  1.00  0.00    -0.550 OA
ENDBRANCH   4   5
ENDBRANCH   3   4
ENDBRANCH   2   3
ENDBRANCH   1   2
BRANCH   1   8
ATOM      8  C   UNL     1       2.846  43.886  11.985  1.00  0.00     0.000 C 
BRANCH   8   9
ATOM      9  C   UNL     1       2.328  42.537  11.454  1.00  0.00     0.000 C 
BRANCH   9  10
ATOM     10  C   UNL     1       3.308  41.355  11.609  1.00  0.00     0.006 C 
BRANCH  10  11
ATOM     11  C   UNL     1       2.785  40.204  12.481  1.00  0.00     0.053 C 
BRANCH  11  12
ATOM     12  C   UNL     1       3.817  39.136  12.676  1.00  0.00     0.041 C 
ATOM     13  O   UNL     1       3.672  38.007  12.139  1.00  0.00    -0.550 OA
ATOM     14  O   UNL     1       4.924  39.379  13.481  1.00  0.00    -0.550 OA
ENDBRANCH  11  12
ENDBRANCH  10  11
ENDBRANCH   9  10
ENDBRANCH   8   9
ENDBRANCH   1   8
TORSDOF 9
ENDMDL
MODEL 8
REMARK VINA RESULT:    -5.042      2.315      3.242
REMARK INTER + INTRA:          -8.035
REMARK INTER:                  -7.270
REMARK INTRA:                  -0.765
REMARK UNBOUND:                -0.341
REMARK SMILES O=C([O-])CCCCCCCCC(=O)[O-]
REMARK SMILES IDX 7 1 6 2 5 3 4 4 2 5 1 6 3 7 8 8 9 9 10 10 11 11 12 12 13 13
REMARK SMILES IDX 14 14
REMARK H PARENT
REMARK Flexibility Score: inf
ROOT
ATOM      1  C   UNL     1       2.231  46.705   9.731  1.00  0.00     0.000 C 
ENDROOT
BRANCH   1   2
ATOM      2  C   UNL     1       2.328  47.404   8.370  1.00  0.00     0.000 C 
BRANCH   2   3
ATOM      3  C   UNL     1       3.787  47.739   8.025  1.00  0.00     0.006 C 
BRANCH   3   4
ATOM      4  C   UNL     1       4.775  47.126   9.026  1.00  0.00     0.053 C 
BRANCH   4   5
ATOM      5  C   UNL     1       6.040  47.923   9.118  1.00  0.00     0.041 C 
ATOM      6  O   UNL     1       7.108  47.375   9.500  1.00  0.00    -0.550 OA
ATOM      7  O   UNL     1       6.048  49.263   8.750  1.00  0.00    -0.550 OA
ENDBRANCH   4   5
ENDBRANCH   3   4
ENDBRANCH   2   3
ENDBRANCH   1   2
BRANCH   1   8
ATOM      8  C   UNL     1       1.043  45.734   9.768  1.00  0.00     0.000 C 
BRANCH   8   9
ATOM      9  C   UNL     1       1.428  44.334  10.282  1.00  0.00     0.000 C 
BRANCH   9  10
ATOM     10  C   UNL     1       2.230  43.471   9.286  1.00  0.00     0.006 C 
BRANCH  10  11
ATOM     11  C   UNL     1       3.751  43.498   9.500  1.00  0.00     0.053 C 
BRANCH  11  12
ATOM     12  C   UNL     1       4.113  43.480  10.953  1.00  0.00     0.041 C 
ATOM     13  O   UNL     1       4.558  44.517  11.509  1.00  0.00    -0.550 OA
ATOM     14  O   UNL     1       3.989  42.305  11.685  1.00  0.00    -0.550 OA
ENDBRANCH  11  12
ENDBRANCH  10  11
ENDBRANCH   9  10
ENDBRANCH   8   9
ENDBRANCH   1   8
TORSDOF 9
ENDMDL
MODEL 9
REMARK VINA RESULT:    -4.895      2.087      2.671
REMARK INTER + INTRA:          -7.812
REMARK INTER:                  -7.196
REMARK INTRA:                  -0.616
REMARK UNBOUND:                -0.341
REMARK SMILES O=C([O-])CCCCCCCCC(=O)[O-]
REMARK SMILES IDX 7 1 6 2 5 3 4 4 2 5 1 6 3 7 8 8 9 9 10 10 11 11 12 12 13 13
REMARK SMILES IDX 14 14
REMARK H PARENT
REMARK Flexibility Score: inf
ROOT
ATOM      1  C   UNL     1       2.237  43.127   9.587  1.00  0.00     0.000 C 
ENDROOT
BRANCH   1   2
ATOM      2  C   UNL     1       1.417  44.258   8.956  1.00  0.00     0.000 C 
BRANCH   2   3
ATOM      3  C   UNL     1       1.143  45.375   9.974  1.00  0.00     0.006 C 
BRANCH   3   4
ATOM      4  C   UNL     1       1.647  46.740   9.488  1.00  0.00     0.053 C 
BRANCH   4   5
ATOM      5  C   UNL     1       3.141  46.782   9.396  1.00  0.00     0.041 C 
ATOM      6  O   UNL     1       3.700  47.319   8.403  1.00  0.00    -0.550 OA
ATOM      7  O   UNL     1       3.917  46.259  10.423  1.00  0.00    -0.550 OA
ENDBRANCH   4   5
ENDBRANCH   3   4
ENDBRANCH   2   3
ENDBRANCH   1   2
BRANCH   1   8
ATOM      8  C   UNL     1       2.174  43.190  11.119  1.00  0.00     0.000 C 
BRANCH   8   9
ATOM      9  C   UNL     1       3.553  43.019  11.784  1.00  0.00     0.000 C 
BRANCH   9  10
ATOM     10  C   UNL     1       4.101  41.578  11.789  1.00  0.00     0.006 C 
BRANCH  10  11
ATOM     11  C   UNL     1       3.073  40.506  12.184  1.00  0.00     0.053 C 
BRANCH  11  12
ATOM     12  C   UNL     1       3.732  39.239  12.636  1.00  0.00     0.041 C 
ATOM     13  O   UNL     1       4.769  39.282  13.347  1.00  0.00    -0.550 OA
ATOM     14  O   UNL     1       3.217  38.010  12.242  1.00  0.00    -0.550 OA
ENDBRANCH  11  12
ENDBRANCH  10  11
ENDBRANCH   9  10
ENDBRANCH   8   9
ENDBRANCH   1   8
TORSDOF 9
ENDMDL
