MODEL 1
REMARK VINA RESULT:    -5.060      0.000      0.000
REMARK INTER + INTRA:          -6.953
REMARK INTER:                  -6.540
REMARK INTRA:                  -0.413
REMARK UNBOUND:                -0.413
REMARK SMILES CCO[C@H]1O[C@@H](CO)[C@H](O)[C@@H](O)[C@@H]1O
REMARK SMILES IDX 4 1 13 2 11 3 9 4 6 5 5 6 3 7 2 8 1 9 14 10 12 12 7 14 8 15
REMARK SMILES IDX 10 17
REMARK H PARENT 14 11 12 13 8 16 10 18
REMARK Flexibility Score: inf
ROOT
ATOM      1  C   UNL     1      37.298   7.575  43.544  1.00  0.00     0.281 C 
ATOM      2  C   UNL     1      36.746   6.165  43.257  1.00  0.00     0.202 C 
ATOM      3  C   UNL     1      37.654   5.085  43.873  1.00  0.00     0.179 C 
ATOM      4  C   UNL     1      39.114   5.306  43.451  1.00  0.00     0.177 C 
ATOM      5  C   UNL     1      39.559   6.782  43.632  1.00  0.00     0.178 C 
ATOM      6  O   UNL     1      38.638   7.727  43.094  1.00  0.00    -0.341 OA
ENDROOT
BRANCH   1   7
ATOM      7  O   UNL     1      37.201   7.887  44.925  1.00  0.00    -0.350 OA
BRANCH   7   8
ATOM      8  C   UNL     1      35.962   8.493  45.230  1.00  0.00     0.160 C 
ATOM      9  C   UNL     1      35.732   9.654  44.275  1.00  0.00     0.035 C 
ENDBRANCH   7   8
ENDBRANCH   1   7
BRANCH   2  10
ATOM     10  O   UNL     1      36.649   5.984  41.867  1.00  0.00    -0.385 OA
ATOM     11  H   UNL     1      36.006   5.242  41.717  1.00  0.00     0.211 HD
ENDBRANCH   2  10
BRANCH   3  12
ATOM     12  O   UNL     1      37.555   5.096  45.274  1.00  0.00    -0.387 OA
ATOM     13  H   UNL     1      37.054   5.917  45.522  1.00  0.00     0.211 HD
ENDBRANCH   3  12
BRANCH   5  14
ATOM     14  C   UNL     1      40.007   7.119  45.071  1.00  0.00     0.191 C 
BRANCH  14  15
ATOM     15  O   UNL     1      40.125   5.948  45.835  1.00  0.00    -0.394 OA
ATOM     16  H   UNL     1      39.845   6.180  46.759  1.00  0.00     0.210 HD
ENDBRANCH  14  15
ENDBRANCH   5  14
BRANCH   4  17
ATOM     17  O   UNL     1      39.259   4.932  42.103  1.00  0.00    -0.387 OA
ATOM     18  H   UNL     1      40.164   5.226  41.815  1.00  0.00     0.211 HD
ENDBRANCH   4  17
TORSDOF 7
ENDMDL
MODEL 2
REMARK VINA RESULT:    -5.007     13.877     15.549
REMARK INTER + INTRA:          -6.884
REMARK INTER:                  -6.698
REMARK INTRA:                  -0.186
REMARK UNBOUND:                -0.413
REMARK SMILES CCO[C@H]1O[C@@H](CO)[C@H](O)[C@@H](O)[C@@H]1O
REMARK SMILES IDX 4 1 13 2 11 3 9 4 6 5 5 6 3 7 2 8 1 9 14 10 12 12 7 14 8 15
REMARK SMILES IDX 10 17
REMARK H PARENT 14 11 12 13 8 16 10 18
REMARK Flexibility Score: inf
ROOT
ATOM      1  C   UNL     1      23.686   5.221  36.491  1.00  0.00     0.281 C 
ATOM      2  C   UNL     1      24.616   4.077  36.039  1.00  0.00     0.202 C 
ATOM      3  C   UNL     1      25.245   3.370  37.253  1.00  0.00     0.179 C 
ATOM      4  C   UNL     1      25.891   4.394  38.197  1.00  0.00     0.177 C 
ATOM      5  C   UNL     1      24.950   5.592  38.494  1.00  0.00     0.178 C 
ATOM      6  O   UNL     1      24.354   6.155  37.328  1.00  0.00    -0.341 OA
ENDROOT
BRANCH   1   7
ATOM      7  O   UNL     1      22.533   4.710  37.142  1.00  0.00    -0.350 OA
BRANCH   7   8
ATOM      8  C   UNL     1      21.458   4.556  36.237  1.00  0.00     0.160 C 
ATOM      9  C   UNL     1      20.425   5.638  36.507  1.00  0.00     0.035 C 
ENDBRANCH   7   8
ENDBRANCH   1   7
BRANCH   2  10
ATOM     10  O   UNL     1      25.620   4.603  35.208  1.00  0.00    -0.385 OA
ATOM     11  H   UNL     1      26.171   3.836  34.902  1.00  0.00     0.211 HD
ENDBRANCH   2  10
BRANCH   3  12
ATOM     12  O   UNL     1      24.277   2.626  37.947  1.00  0.00    -0.387 OA
ATOM     13  H   UNL     1      23.967   1.909  37.333  1.00  0.00     0.211 HD
ENDBRANCH   3  12
BRANCH   5  14
ATOM     14  C   UNL     1      23.933   5.312  39.623  1.00  0.00     0.191 C 
BRANCH  14  15
ATOM     15  O   UNL     1      23.977   6.331  40.586  1.00  0.00    -0.394 OA
ATOM     16  H   UNL     1      24.931   6.456  40.828  1.00  0.00     0.210 HD
ENDBRANCH  14  15
ENDBRANCH   5  14
BRANCH   4  17
ATOM     17  O   UNL     1      27.080   4.864  37.611  1.00  0.00    -0.387 OA
ATOM     18  H   UNL     1      26.819   5.466  36.865  1.00  0.00     0.211 HD
ENDBRANCH   4  17
TORSDOF 7
ENDMDL
MODEL 3
REMARK VINA RESULT:    -4.993     14.244     16.113
REMARK INTER + INTRA:          -6.866
REMARK INTER:                  -6.399
REMARK INTRA:                  -0.467
REMARK UNBOUND:                -0.413
REMARK SMILES CCO[C@H]1O[C@@H](CO)[C@H](O)[C@@H](O)[C@@H]1O
REMARK SMILES IDX 4 1 13 2 11 3 9 4 6 5 5 6 3 7 2 8 1 9 14 10 12 12 7 14 8 15
REMARK SMILES IDX 10 17
REMARK H PARENT 14 11 12 13 8 16 10 18
REMARK Flexibility Score: inf
ROOT
ATOM      1  C   UNL     1      23.415   3.863  39.261  1.00  0.00     0.281 C 
ATOM      2  C   UNL     1      22.140   4.455  38.629  1.00  0.00     0.202 C 
ATOM      3  C   UNL     1      22.401   4.895  37.177  1.00  0.00     0.179 C 
ATOM      4  C   UNL     1      23.638   5.800  37.105  1.00  0.00     0.177 C 
ATOM      5  C   UNL     1      24.843   5.209  37.885  1.00  0.00     0.178 C 
ATOM      6  O   UNL     1      24.512   4.764  39.197  1.00  0.00    -0.341 OA
ENDROOT
BRANCH   1   7
ATOM      7  O   UNL     1      23.755   2.626  38.653  1.00  0.00    -0.350 OA
BRANCH   7   8
ATOM      8  C   UNL     1      23.003   1.561  39.199  1.00  0.00     0.160 C 
ATOM      9  C   UNL     1      22.479   0.693  38.066  1.00  0.00     0.035 C 
ENDBRANCH   7   8
ENDBRANCH   1   7
BRANCH   2  10
ATOM     10  O   UNL     1      21.711   5.549  39.400  1.00  0.00    -0.385 OA
ATOM     11  H   UNL     1      22.380   5.671  40.123  1.00  0.00     0.211 HD
ENDBRANCH   2  10
BRANCH   3  12
ATOM     12  O   UNL     1      22.578   3.777  36.346  1.00  0.00    -0.387 OA
ATOM     13  H   UNL     1      22.367   4.068  35.420  1.00  0.00     0.211 HD
ENDBRANCH   3  12
BRANCH   5  14
ATOM     14  C   UNL     1      25.652   4.172  37.076  1.00  0.00     0.191 C 
BRANCH  14  15
ATOM     15  O   UNL     1      26.609   3.551  37.892  1.00  0.00    -0.394 OA
ATOM     16  H   UNL     1      27.402   4.148  37.909  1.00  0.00     0.210 HD
ENDBRANCH  14  15
ENDBRANCH   5  14
BRANCH   4  17
ATOM     17  O   UNL     1      23.310   7.062  37.632  1.00  0.00    -0.387 OA
ATOM     18  H   UNL     1      24.166   7.521  37.842  1.00  0.00     0.211 HD
ENDBRANCH   4  17
TORSDOF 7
ENDMDL
MODEL 4
REMARK VINA RESULT:    -4.909     14.217     16.090
REMARK INTER + INTRA:          -6.758
REMARK INTER:                  -6.256
REMARK INTRA:                  -0.502
REMARK UNBOUND:                -0.413
REMARK SMILES CCO[C@H]1O[C@@H](CO)[C@H](O)[C@@H](O)[C@@H]1O
REMARK SMILES IDX 4 1 13 2 11 3 9 4 6 5 5 6 3 7 2 8 1 9 14 10 12 12 7 14 8 15
REMARK SMILES IDX 10 17
REMARK H PARENT 14 11 12 13 8 16 10 18
REMARK Flexibility Score: inf
ROOT
ATOM      1  C   UNL     1      22.788   3.474  38.464  1.00  0.00     0.281 C 
ATOM      2  C   UNL     1      22.070   4.838  38.498  1.00  0.00     0.202 C 
ATOM      3  C   UNL     1      23.062   5.986  38.236  1.00  0.00     0.179 C 
ATOM      4  C   UNL     1      24.276   5.871  39.169  1.00  0.00     0.177 C 
ATOM      5  C   UNL     1      24.860   4.433  39.195  1.00  0.00     0.178 C 
ATOM      6  O   UNL     1      23.876   3.419  39.377  1.00  0.00    -0.341 OA
ENDROOT
BRANCH   1   7
ATOM      7  O   UNL     1      23.229   3.165  37.150  1.00  0.00    -0.350 OA
BRANCH   7   8
ATOM      8  C   UNL     1      22.184   2.617  36.373  1.00  0.00     0.160 C 
ATOM      9  C   UNL     1      22.171   3.294  35.012  1.00  0.00     0.035 C 
ENDBRANCH   7   8
ENDBRANCH   1   7
BRANCH   2  10
ATOM     10  O   UNL     1      21.456   5.001  39.751  1.00  0.00    -0.385 OA
ATOM     11  H   UNL     1      20.477   5.037  39.589  1.00  0.00     0.211 HD
ENDBRANCH   2  10
BRANCH   3  12
ATOM     12  O   UNL     1      23.486   5.977  36.897  1.00  0.00    -0.387 OA
ATOM     13  H   UNL     1      23.207   5.105  36.511  1.00  0.00     0.211 HD
ENDBRANCH   3  12
BRANCH   5  14
ATOM     14  C   UNL     1      25.829   4.140  38.028  1.00  0.00     0.191 C 
BRANCH  14  15
ATOM     15  O   UNL     1      26.354   5.335  37.514  1.00  0.00    -0.394 OA
ATOM     16  H   UNL     1      26.885   5.092  36.711  1.00  0.00     0.210 HD
ENDBRANCH  14  15
ENDBRANCH   5  14
BRANCH   4  17
ATOM     17  O   UNL     1      23.888   6.245  40.468  1.00  0.00    -0.387 OA
ATOM     18  H   UNL     1      24.701   6.202  41.038  1.00  0.00     0.211 HD
ENDBRANCH   4  17
TORSDOF 7
ENDMDL
MODEL 5
REMARK VINA RESULT:    -4.733      2.245      4.024
REMARK INTER + INTRA:          -6.530
REMARK INTER:                  -6.113
REMARK INTRA:                  -0.417
REMARK UNBOUND:                -0.413
REMARK SMILES CCO[C@H]1O[C@@H](CO)[C@H](O)[C@@H](O)[C@@H]1O
REMARK SMILES IDX 4 1 13 2 11 3 9 4 6 5 5 6 3 7 2 8 1 9 14 10 12 12 7 14 8 15
REMARK SMILES IDX 10 17
REMARK H PARENT 14 11 12 13 8 16 10 18
REMARK Flexibility Score: inf
ROOT
ATOM      1  C   UNL     1      37.679   4.864  43.577  1.00  0.00     0.281 C 
ATOM      2  C   UNL     1      36.349   5.625  43.411  1.00  0.00     0.202 C 
ATOM      3  C   UNL     1      35.258   5.028  44.318  1.00  0.00     0.179 C 
ATOM      4  C   UNL     1      35.163   3.509  44.115  1.00  0.00     0.177 C 
ATOM      5  C   UNL     1      36.556   2.826  44.152  1.00  0.00     0.178 C 
ATOM      6  O   UNL     1      37.531   3.471  43.338  1.00  0.00    -0.341 OA
ENDROOT
BRANCH   1   7
ATOM      7  O   UNL     1      38.235   5.089  44.864  1.00  0.00    -0.350 OA
BRANCH   7   8
ATOM      8  C   UNL     1      39.621   5.350  44.787  1.00  0.00     0.160 C 
ATOM      9  C   UNL     1      39.848   6.851  44.870  1.00  0.00     0.035 C 
ENDBRANCH   7   8
ENDBRANCH   1   7
BRANCH   2  10
ATOM     10  O   UNL     1      35.950   5.564  42.065  1.00  0.00    -0.385 OA
ATOM     11  H   UNL     1      36.121   6.460  41.673  1.00  0.00     0.211 HD
ENDBRANCH   2  10
BRANCH   3  12
ATOM     12  O   UNL     1      35.526   5.314  45.667  1.00  0.00    -0.387 OA
ATOM     13  H   UNL     1      34.806   4.886  46.202  1.00  0.00     0.211 HD
ENDBRANCH   3  12
BRANCH   5  14
ATOM     14  C   UNL     1      37.058   2.524  45.581  1.00  0.00     0.191 C 
BRANCH  14  15
ATOM     15  O   UNL     1      35.976   2.291  46.442  1.00  0.00    -0.394 OA
ATOM     16  H   UNL     1      35.822   1.311  46.452  1.00  0.00     0.210 HD
ENDBRANCH  14  15
ENDBRANCH   5  14
BRANCH   4  17
ATOM     17  O   UNL     1      34.545   3.253  42.878  1.00  0.00    -0.387 OA
ATOM     18  H   UNL     1      34.970   2.437  42.504  1.00  0.00     0.211 HD
ENDBRANCH   4  17
TORSDOF 7
ENDMDL
MODEL 6
REMARK VINA RESULT:    -4.720      1.745      3.570
REMARK INTER + INTRA:          -6.514
REMARK INTER:                  -6.021
REMARK INTRA:                  -0.493
REMARK UNBOUND:                -0.413
REMARK SMILES CCO[C@H]1O[C@@H](CO)[C@H](O)[C@@H](O)[C@@H]1O
REMARK SMILES IDX 4 1 13 2 11 3 9 4 6 5 5 6 3 7 2 8 1 9 14 10 12 12 7 14 8 15
REMARK SMILES IDX 10 17
REMARK H PARENT 14 11 12 13 8 16 10 18
REMARK Flexibility Score: inf
ROOT
ATOM      1  C   UNL     1      39.535   7.210  42.929  1.00  0.00     0.281 C 
ATOM      2  C   UNL     1      39.271   5.737  42.562  1.00  0.00     0.202 C 
ATOM      3  C   UNL     1      37.801   5.362  42.823  1.00  0.00     0.179 C 
ATOM      4  C   UNL     1      37.391   5.756  44.249  1.00  0.00     0.177 C 
ATOM      5  C   UNL     1      37.817   7.206  44.601  1.00  0.00     0.178 C 
ATOM      6  O   UNL     1      39.172   7.501  44.273  1.00  0.00    -0.341 OA
ENDROOT
BRANCH   1   7
ATOM      7  O   UNL     1      38.863   8.084  42.035  1.00  0.00    -0.350 OA
BRANCH   7   8
ATOM      8  C   UNL     1      39.584   8.240  40.830  1.00  0.00     0.160 C 
ATOM      9  C   UNL     1      38.631   8.069  39.658  1.00  0.00     0.035 C 
ENDBRANCH   7   8
ENDBRANCH   1   7
BRANCH   2  10
ATOM     10  O   UNL     1      40.125   4.915  43.318  1.00  0.00    -0.385 OA
ATOM     11  H   UNL     1      40.900   5.475  43.586  1.00  0.00     0.211 HD
ENDBRANCH   2  10
BRANCH   3  12
ATOM     12  O   UNL     1      36.958   5.991  41.892  1.00  0.00    -0.387 OA
ATOM     13  H   UNL     1      36.823   5.350  41.146  1.00  0.00     0.211 HD
ENDBRANCH   3  12
BRANCH   5  14
ATOM     14  C   UNL     1      36.823   8.278  44.104  1.00  0.00     0.191 C 
BRANCH  14  15
ATOM     15  O   UNL     1      35.561   7.710  43.874  1.00  0.00    -0.394 OA
ATOM     16  H   UNL     1      35.017   8.398  43.411  1.00  0.00     0.210 HD
ENDBRANCH  14  15
ENDBRANCH   5  14
BRANCH   4  17
ATOM     17  O   UNL     1      37.982   4.858  45.156  1.00  0.00    -0.387 OA
ATOM     18  H   UNL     1      37.534   3.980  45.031  1.00  0.00     0.211 HD
ENDBRANCH   4  17
TORSDOF 7
ENDMDL
MODEL 7
REMARK VINA RESULT:    -4.719      1.508      3.366
REMARK INTER + INTRA:          -6.512
REMARK INTER:                  -6.047
REMARK INTRA:                  -0.465
REMARK UNBOUND:                -0.413
REMARK SMILES CCO[C@H]1O[C@@H](CO)[C@H](O)[C@@H](O)[C@@H]1O
REMARK SMILES IDX 4 1 13 2 11 3 9 4 6 5 5 6 3 7 2 8 1 9 14 10 12 12 7 14 8 15
REMARK SMILES IDX 10 17
REMARK H PARENT 14 11 12 13 8 16 10 18
REMARK Flexibility Score: inf
ROOT
ATOM      1  C   UNL     1      37.099   5.612  44.574  1.00  0.00     0.281 C 
ATOM      2  C   UNL     1      37.124   7.092  44.146  1.00  0.00     0.202 C 
ATOM      3  C   UNL     1      38.046   7.296  42.930  1.00  0.00     0.179 C 
ATOM      4  C   UNL     1      39.426   6.675  43.192  1.00  0.00     0.177 C 
ATOM      5  C   UNL     1      39.321   5.234  43.758  1.00  0.00     0.178 C 
ATOM      6  O   UNL     1      38.402   5.109  44.839  1.00  0.00    -0.341 OA
ENDROOT
BRANCH   1   7
ATOM      7  O   UNL     1      36.450   4.812  43.597  1.00  0.00    -0.350 OA
BRANCH   7   8
ATOM      8  C   UNL     1      35.059   4.742  43.832  1.00  0.00     0.160 C 
ATOM      9  C   UNL     1      34.323   5.266  42.608  1.00  0.00     0.035 C 
ENDBRANCH   7   8
ENDBRANCH   1   7
BRANCH   2  10
ATOM     10  O   UNL     1      37.564   7.875  45.226  1.00  0.00    -0.385 OA
ATOM     11  H   UNL     1      36.882   8.584  45.365  1.00  0.00     0.211 HD
ENDBRANCH   2  10
BRANCH   3  12
ATOM     12  O   UNL     1      37.478   6.728  41.778  1.00  0.00    -0.387 OA
ATOM     13  H   UNL     1      36.547   6.470  42.012  1.00  0.00     0.211 HD
ENDBRANCH   3  12
BRANCH   5  14
ATOM     14  C   UNL     1      39.131   4.156  42.669  1.00  0.00     0.191 C 
BRANCH  14  15
ATOM     15  O   UNL     1      39.462   4.669  41.407  1.00  0.00    -0.394 OA
ATOM     16  H   UNL     1      40.297   5.194  41.520  1.00  0.00     0.210 HD
ENDBRANCH  14  15
ENDBRANCH   5  14
BRANCH   4  17
ATOM     17  O   UNL     1      40.125   7.489  44.101  1.00  0.00    -0.387 OA
ATOM     18  H   UNL     1      40.070   8.421  43.759  1.00  0.00     0.211 HD
ENDBRANCH   4  17
TORSDOF 7
ENDMDL
MODEL 8
REMARK VINA RESULT:    -4.673      1.456      2.361
REMARK INTER + INTRA:          -6.452
REMARK INTER:                  -6.015
REMARK INTRA:                  -0.437
REMARK UNBOUND:                -0.413
REMARK SMILES CCO[C@H]1O[C@@H](CO)[C@H](O)[C@@H](O)[C@@H]1O
REMARK SMILES IDX 4 1 13 2 11 3 9 4 6 5 5 6 3 7 2 8 1 9 14 10 12 12 7 14 8 15
REMARK SMILES IDX 10 17
REMARK H PARENT 14 11 12 13 8 16 10 18
REMARK Flexibility Score: inf
ROOT
ATOM      1  C   UNL     1      36.294   5.409  43.928  1.00  0.00     0.281 C 
ATOM      2  C   UNL     1      37.032   4.117  44.330  1.00  0.00     0.202 C 
ATOM      3  C   UNL     1      38.556   4.304  44.232  1.00  0.00     0.179 C 
ATOM      4  C   UNL     1      38.941   4.866  42.856  1.00  0.00     0.177 C 
ATOM      5  C   UNL     1      38.060   6.078  42.452  1.00  0.00     0.178 C 
ATOM      6  O   UNL     1      36.664   5.855  42.630  1.00  0.00    -0.341 OA
ENDROOT
BRANCH   1   7
ATOM      7  O   UNL     1      36.509   6.436  44.884  1.00  0.00    -0.350 OA
BRANCH   7   8
ATOM      8  C   UNL     1      35.297   6.841  45.485  1.00  0.00     0.160 C 
ATOM      9  C   UNL     1      35.421   8.293  45.919  1.00  0.00     0.035 C 
ENDBRANCH   7   8
ENDBRANCH   1   7
BRANCH   2  10
ATOM     10  O   UNL     1      36.614   3.070  43.492  1.00  0.00    -0.385 OA
ATOM     11  H   UNL     1      37.367   2.424  43.442  1.00  0.00     0.211 HD
ENDBRANCH   2  10
BRANCH   3  12
ATOM     12  O   UNL     1      39.015   5.162  45.244  1.00  0.00    -0.387 OA
ATOM     13  H   UNL     1      38.470   5.990  45.191  1.00  0.00     0.211 HD
ENDBRANCH   3  12
BRANCH   5  14
ATOM     14  C   UNL     1      38.544   7.418  43.047  1.00  0.00     0.191 C 
BRANCH  14  15
ATOM     15  O   UNL     1      37.569   8.412  42.875  1.00  0.00    -0.394 OA
ATOM     16  H   UNL     1      37.764   8.858  42.010  1.00  0.00     0.210 HD
ENDBRANCH  14  15
ENDBRANCH   5  14
BRANCH   4  17
ATOM     17  O   UNL     1      38.810   3.847  41.896  1.00  0.00    -0.387 OA
ATOM     18  H   UNL     1      38.813   2.983  42.386  1.00  0.00     0.211 HD
ENDBRANCH   4  17
TORSDOF 7
ENDMDL
MODEL 9
REMARK VINA RESULT:    -4.615      2.297      4.201
REMARK INTER + INTRA:          -6.378
REMARK INTER:                  -5.904
REMARK INTRA:                  -0.473
REMARK UNBOUND:                -0.413
REMARK SMILES CCO[C@H]1O[C@@H](CO)[C@H](O)[C@@H](O)[C@@H]1O
REMARK SMILES IDX 4 1 13 2 11 3 9 4 6 5 5 6 3 7 2 8 1 9 14 10 12 12 7 14 8 15
REMARK SMILES IDX 10 17
REMARK H PARENT 14 11 12 13 8 16 10 18
REMARK Flexibility Score: inf
ROOT
ATOM      1  C   UNL     1      35.775   4.129  44.868  1.00  0.00     0.281 C 
ATOM      2  C   UNL     1      35.479   5.619  44.604  1.00  0.00     0.202 C 
ATOM      3  C   UNL     1      36.440   6.189  43.545  1.00  0.00     0.179 C 
ATOM      4  C   UNL     1      37.896   5.875  43.915  1.00  0.00     0.177 C 
ATOM      5  C   UNL     1      38.092   4.387  44.309  1.00  0.00     0.178 C 
ATOM      6  O   UNL     1      37.129   3.911  45.245  1.00  0.00    -0.341 OA
ENDROOT
BRANCH   1   7
ATOM      7  O   UNL     1      35.442   3.338  43.738  1.00  0.00    -0.350 OA
BRANCH   7   8
ATOM      8  C   UNL     1      34.154   2.773  43.867  1.00  0.00     0.160 C 
ATOM      9  C   UNL     1      33.272   3.288  42.740  1.00  0.00     0.035 C 
ENDBRANCH   7   8
ENDBRANCH   1   7
BRANCH   2  10
ATOM     10  O   UNL     1      35.604   6.332  45.809  1.00  0.00    -0.385 OA
ATOM     11  H   UNL     1      36.059   7.187  45.591  1.00  0.00     0.211 HD
ENDBRANCH   2  10
BRANCH   3  12
ATOM     12  O   UNL     1      36.145   5.663  42.277  1.00  0.00    -0.387 OA
ATOM     13  H   UNL     1      36.793   4.928  42.111  1.00  0.00     0.211 HD
ENDBRANCH   3  12
BRANCH   5  14
ATOM     14  C   UNL     1      38.281   3.448  43.098  1.00  0.00     0.191 C 
BRANCH  14  15
ATOM     15  O   UNL     1      38.707   4.174  41.976  1.00  0.00    -0.394 OA
ATOM     16  H   UNL     1      38.992   5.066  42.303  1.00  0.00     0.210 HD
ENDBRANCH  14  15
ENDBRANCH   5  14
BRANCH   4  17
ATOM     17  O   UNL     1      38.281   6.701  44.987  1.00  0.00    -0.387 OA
ATOM     18  H   UNL     1      37.820   7.572  44.863  1.00  0.00     0.211 HD
ENDBRANCH   4  17
TORSDOF 7
ENDMDL
