MODEL 1
REMARK VINA RESULT:    -4.071      0.000      0.000
REMARK INTER + INTRA:          -7.972
REMARK INTER:                  -6.451
REMARK INTRA:                  -1.521
REMARK UNBOUND:                -1.521
REMARK SMILES C=CCCCCCCCCCCC
REMARK SMILES IDX 7 1 8 2 9 3 10 4 11 5 12 6 13 7 6 8 5 9 4 10 3 11 2 12 1 13
REMARK H PARENT
REMARK Flexibility Score: inf
ROOT
ATOM      1  C   UNL     1     -46.959 -49.238  31.200  1.00  0.00     0.000 C 
ENDROOT
BRANCH   1   2
ATOM      2  C   UNL     1     -45.881 -49.460  30.128  1.00  0.00     0.000 C 
BRANCH   2   3
ATOM      3  C   UNL     1     -44.660 -48.564  30.385  1.00  0.00    -0.000 C 
BRANCH   3   4
ATOM      4  C   UNL     1     -43.383 -49.093  29.714  1.00  0.00    -0.000 C 
BRANCH   4   5
ATOM      5  C   UNL     1     -43.208 -50.610  29.886  1.00  0.00    -0.000 C 
BRANCH   5   6
ATOM      6  C   UNL     1     -42.306 -50.925  31.085  1.00  0.00    -0.003 C 
ATOM      7  C   UNL     1     -41.231 -49.857  31.262  1.00  0.00     0.004 C 
ENDBRANCH   5   6
ENDBRANCH   4   5
ENDBRANCH   3   4
ENDBRANCH   2   3
ENDBRANCH   1   2
BRANCH   1   8
ATOM      8  C   UNL     1     -46.449 -48.411  32.391  1.00  0.00     0.000 C 
BRANCH   8   9
ATOM      9  C   UNL     1     -46.839 -49.020  33.746  1.00  0.00     0.000 C 
BRANCH   9  10
ATOM     10  C   UNL     1     -46.856 -50.553  33.674  1.00  0.00     0.004 C 
BRANCH  10  11
ATOM     11  C   UNL     1     -45.526 -51.169  34.125  1.00  0.00     0.027 C 
BRANCH  11  12
ATOM     12  C   UNL     1     -45.053 -52.228  33.163  1.00  0.00    -0.035 C 
ATOM     13  C   UNL     1     -45.790 -52.608  32.115  1.00  0.00     0.004 C 
ENDBRANCH  11  12
ENDBRANCH  10  11
ENDBRANCH   9  10
ENDBRANCH   8   9
ENDBRANCH   1   8
TORSDOF 10
ENDMDL
MODEL 2
REMARK VINA RESULT:    -4.035     12.946     15.215
REMARK INTER + INTRA:          -7.915
REMARK INTER:                  -6.353
REMARK INTRA:                  -1.561
REMARK UNBOUND:                -1.521
REMARK SMILES C=CCCCCCCCCCCC
REMARK SMILES IDX 7 1 8 2 9 3 10 4 11 5 12 6 13 7 6 8 5 9 4 10 3 11 2 12 1 13
REMARK H PARENT
REMARK Flexibility Score: inf
ROOT
ATOM      1  C   UNL     1     -48.293 -47.159  17.850  1.00  0.00     0.000 C 
ENDROOT
BRANCH   1   2
ATOM      2  C   UNL     1     -47.585 -48.043  18.889  1.00  0.00     0.000 C 
BRANCH   2   3
ATOM      3  C   UNL     1     -48.596 -48.636  19.882  1.00  0.00    -0.000 C 
BRANCH   3   4
ATOM      4  C   UNL     1     -49.917 -49.046  19.211  1.00  0.00    -0.000 C 
BRANCH   4   5
ATOM      5  C   UNL     1     -51.109 -49.011  20.179  1.00  0.00    -0.000 C 
BRANCH   5   6
ATOM      6  C   UNL     1     -52.260 -49.882  19.664  1.00  0.00    -0.003 C 
ATOM      7  C   UNL     1     -51.967 -50.413  18.264  1.00  0.00     0.004 C 
ENDBRANCH   5   6
ENDBRANCH   4   5
ENDBRANCH   3   4
ENDBRANCH   2   3
ENDBRANCH   1   2
BRANCH   1   8
ATOM      8  C   UNL     1     -47.657 -47.259  16.454  1.00  0.00     0.000 C 
BRANCH   8   9
ATOM      9  C   UNL     1     -47.221 -48.689  16.102  1.00  0.00     0.000 C 
BRANCH   9  10
ATOM     10  C   UNL     1     -48.291 -49.397  15.260  1.00  0.00     0.004 C 
BRANCH  10  11
ATOM     11  C   UNL     1     -48.951 -50.557  16.017  1.00  0.00     0.027 C 
BRANCH  11  12
ATOM     12  C   UNL     1     -47.923 -51.472  16.630  1.00  0.00    -0.035 C 
ATOM     13  C   UNL     1     -48.029 -51.908  17.888  1.00  0.00     0.004 C 
ENDBRANCH  11  12
ENDBRANCH  10  11
ENDBRANCH   9  10
ENDBRANCH   8   9
ENDBRANCH   1   8
TORSDOF 10
ENDMDL
MODEL 3
REMARK VINA RESULT:    -3.920     13.106     15.331
REMARK INTER + INTRA:          -7.733
REMARK INTER:                  -6.750
REMARK INTRA:                  -0.983
REMARK UNBOUND:                -1.521
REMARK SMILES C=CCCCCCCCCCCC
REMARK SMILES IDX 7 1 8 2 9 3 10 4 11 5 12 6 13 7 6 8 5 9 4 10 3 11 2 12 1 13
REMARK H PARENT
REMARK Flexibility Score: inf
ROOT
ATOM      1  C   UNL     1     -48.850 -49.282  19.242  1.00  0.00     0.000 C 
ENDROOT
BRANCH   1   2
ATOM      2  C   UNL     1     -49.813 -50.479  19.214  1.00  0.00     0.000 C 
BRANCH   2   3
ATOM      3  C   UNL     1     -51.253 -50.017  18.947  1.00  0.00    -0.000 C 
BRANCH   3   4
ATOM      4  C   UNL     1     -52.146 -50.106  20.195  1.00  0.00    -0.000 C 
BRANCH   4   5
ATOM      5  C   UNL     1     -52.391 -48.737  20.847  1.00  0.00    -0.000 C 
BRANCH   5   6
ATOM      6  C   UNL     1     -53.579 -48.796  21.814  1.00  0.00    -0.003 C 
ATOM      7  C   UNL     1     -54.523 -47.616  21.601  1.00  0.00     0.004 C 
ENDBRANCH   5   6
ENDBRANCH   4   5
ENDBRANCH   3   4
ENDBRANCH   2   3
ENDBRANCH   1   2
BRANCH   1   8
ATOM      8  C   UNL     1     -47.629 -49.480  18.329  1.00  0.00     0.000 C 
BRANCH   8   9
ATOM      9  C   UNL     1     -47.621 -48.517  17.133  1.00  0.00     0.000 C 
BRANCH   9  10
ATOM     10  C   UNL     1     -47.600 -49.288  15.806  1.00  0.00     0.004 C 
BRANCH  10  11
ATOM     11  C   UNL     1     -47.775 -50.798  16.011  1.00  0.00     0.027 C 
BRANCH  11  12
ATOM     12  C   UNL     1     -48.938 -51.332  15.218  1.00  0.00    -0.035 C 
ATOM     13  C   UNL     1     -50.203 -51.050  15.543  1.00  0.00     0.004 C 
ENDBRANCH  11  12
ENDBRANCH  10  11
ENDBRANCH   9  10
ENDBRANCH   8   9
ENDBRANCH   1   8
TORSDOF 10
ENDMDL
MODEL 4
REMARK VINA RESULT:    -3.916      2.587      6.737
REMARK INTER + INTRA:          -7.727
REMARK INTER:                  -7.192
REMARK INTRA:                  -0.536
REMARK UNBOUND:                -1.521
REMARK SMILES C=CCCCCCCCCCCC
REMARK SMILES IDX 7 1 8 2 9 3 10 4 11 5 12 6 13 7 6 8 5 9 4 10 3 11 2 12 1 13
REMARK H PARENT
REMARK Flexibility Score: inf
ROOT
ATOM      1  C   UNL     1     -42.135 -50.767  30.096  1.00  0.00     0.000 C 
ENDROOT
BRANCH   1   2
ATOM      2  C   UNL     1     -42.393 -50.859  31.608  1.00  0.00     0.000 C 
BRANCH   2   3
ATOM      3  C   UNL     1     -43.875 -51.144  31.894  1.00  0.00    -0.000 C 
BRANCH   3   4
ATOM      4  C   UNL     1     -44.112 -51.685  33.314  1.00  0.00    -0.000 C 
BRANCH   4   5
ATOM      5  C   UNL     1     -45.596 -51.667  33.713  1.00  0.00    -0.000 C 
BRANCH   5   6
ATOM      6  C   UNL     1     -46.403 -50.756  32.782  1.00  0.00    -0.003 C 
ATOM      7  C   UNL     1     -46.922 -49.528  33.525  1.00  0.00     0.004 C 
ENDBRANCH   5   6
ENDBRANCH   4   5
ENDBRANCH   3   4
ENDBRANCH   2   3
ENDBRANCH   1   2
BRANCH   1   8
ATOM      8  C   UNL     1     -41.393 -49.481  29.698  1.00  0.00     0.000 C 
BRANCH   8   9
ATOM      9  C   UNL     1     -41.304 -49.295  28.176  1.00  0.00     0.000 C 
BRANCH   9  10
ATOM     10  C   UNL     1     -40.412 -48.097  27.821  1.00  0.00     0.004 C 
BRANCH  10  11
ATOM     11  C   UNL     1     -39.726 -47.498  29.055  1.00  0.00     0.027 C 
BRANCH  11  12
ATOM     12  C   UNL     1     -38.243 -47.345  28.843  1.00  0.00    -0.035 C 
ATOM     13  C   UNL     1     -37.437 -48.401  28.706  1.00  0.00     0.004 C 
ENDBRANCH  11  12
ENDBRANCH  10  11
ENDBRANCH   9  10
ENDBRANCH   8   9
ENDBRANCH   1   8
TORSDOF 10
ENDMDL
MODEL 5
REMARK VINA RESULT:    -3.891     12.689     15.107
REMARK INTER + INTRA:          -7.687
REMARK INTER:                  -7.082
REMARK INTRA:                  -0.605
REMARK UNBOUND:                -1.521
REMARK SMILES C=CCCCCCCCCCCC
REMARK SMILES IDX 7 1 8 2 9 3 10 4 11 5 12 6 13 7 6 8 5 9 4 10 3 11 2 12 1 13
REMARK H PARENT
REMARK Flexibility Score: inf
ROOT
ATOM      1  C   UNL     1     -50.415 -49.276  19.260  1.00  0.00     0.000 C 
ENDROOT
BRANCH   1   2
ATOM      2  C   UNL     1     -51.671 -49.312  20.145  1.00  0.00     0.000 C 
BRANCH   2   3
ATOM      3  C   UNL     1     -51.596 -48.241  21.243  1.00  0.00    -0.000 C 
BRANCH   3   4
ATOM      4  C   UNL     1     -52.772 -48.320  22.231  1.00  0.00    -0.000 C 
BRANCH   4   5
ATOM      5  C   UNL     1     -53.958 -49.124  21.676  1.00  0.00    -0.000 C 
BRANCH   5   6
ATOM      6  C   UNL     1     -55.150 -48.208  21.381  1.00  0.00    -0.003 C 
ATOM      7  C   UNL     1     -54.865 -46.773  21.815  1.00  0.00     0.004 C 
ENDBRANCH   5   6
ENDBRANCH   4   5
ENDBRANCH   3   4
ENDBRANCH   2   3
ENDBRANCH   1   2
BRANCH   1   8
ATOM      8  C   UNL     1     -50.163 -50.607  18.533  1.00  0.00     0.000 C 
BRANCH   8   9
ATOM      9  C   UNL     1     -48.685 -50.814  18.169  1.00  0.00     0.000 C 
BRANCH   9  10
ATOM     10  C   UNL     1     -48.543 -51.379  16.749  1.00  0.00     0.004 C 
BRANCH  10  11
ATOM     11  C   UNL     1     -47.779 -50.426  15.821  1.00  0.00     0.027 C 
BRANCH  11  12
ATOM     12  C   UNL     1     -47.333 -49.185  16.549  1.00  0.00    -0.035 C 
ATOM     13  C   UNL     1     -47.267 -47.997  15.941  1.00  0.00     0.004 C 
ENDBRANCH  11  12
ENDBRANCH  10  11
ENDBRANCH   9  10
ENDBRANCH   8   9
ENDBRANCH   1   8
TORSDOF 10
ENDMDL
MODEL 6
REMARK VINA RESULT:    -3.870     12.644     14.947
REMARK INTER + INTRA:          -7.654
REMARK INTER:                  -6.138
REMARK INTRA:                  -1.516
REMARK UNBOUND:                -1.521
REMARK SMILES C=CCCCCCCCCCCC
REMARK SMILES IDX 7 1 8 2 9 3 10 4 11 5 12 6 13 7 6 8 5 9 4 10 3 11 2 12 1 13
REMARK H PARENT
REMARK Flexibility Score: inf
ROOT
ATOM      1  C   UNL     1     -48.470 -47.393  18.253  1.00  0.00     0.000 C 
ENDROOT
BRANCH   1   2
ATOM      2  C   UNL     1     -48.319 -47.842  19.715  1.00  0.00     0.000 C 
BRANCH   2   3
ATOM      3  C   UNL     1     -49.676 -48.258  20.302  1.00  0.00    -0.000 C 
BRANCH   3   4
ATOM      4  C   UNL     1     -49.715 -49.736  20.721  1.00  0.00    -0.000 C 
BRANCH   4   5
ATOM      5  C   UNL     1     -51.095 -50.377  20.507  1.00  0.00    -0.000 C 
BRANCH   5   6
ATOM      6  C   UNL     1     -52.061 -49.388  19.846  1.00  0.00    -0.003 C 
ATOM      7  C   UNL     1     -52.529 -49.899  18.486  1.00  0.00     0.004 C 
ENDBRANCH   5   6
ENDBRANCH   4   5
ENDBRANCH   3   4
ENDBRANCH   2   3
ENDBRANCH   1   2
BRANCH   1   8
ATOM      8  C   UNL     1     -47.680 -48.278  17.275  1.00  0.00     0.000 C 
BRANCH   8   9
ATOM      9  C   UNL     1     -47.233 -49.606  17.907  1.00  0.00     0.000 C 
BRANCH   9  10
ATOM     10  C   UNL     1     -47.744 -50.801  17.090  1.00  0.00     0.004 C 
BRANCH  10  11
ATOM     11  C   UNL     1     -49.264 -50.971  17.201  1.00  0.00     0.027 C 
BRANCH  11  12
ATOM     12  C   UNL     1     -49.911 -51.055  15.844  1.00  0.00    -0.035 C 
ATOM     13  C   UNL     1     -49.330 -50.548  14.753  1.00  0.00     0.004 C 
ENDBRANCH  11  12
ENDBRANCH  10  11
ENDBRANCH   9  10
ENDBRANCH   8   9
ENDBRANCH   1   8
TORSDOF 10
ENDMDL
MODEL 7
REMARK VINA RESULT:    -3.862      2.575      4.141
REMARK INTER + INTRA:          -7.641
REMARK INTER:                  -7.103
REMARK INTRA:                  -0.539
REMARK UNBOUND:                -1.521
REMARK SMILES C=CCCCCCCCCCCC
REMARK SMILES IDX 7 1 8 2 9 3 10 4 11 5 12 6 13 7 6 8 5 9 4 10 3 11 2 12 1 13
REMARK H PARENT
REMARK Flexibility Score: inf
ROOT
ATOM      1  C   UNL     1     -42.188 -50.899  30.086  1.00  0.00     0.000 C 
ENDROOT
BRANCH   1   2
ATOM      2  C   UNL     1     -41.236 -49.693  30.049  1.00  0.00     0.000 C 
BRANCH   2   3
ATOM      3  C   UNL     1     -41.603 -48.743  28.899  1.00  0.00    -0.000 C 
BRANCH   3   4
ATOM      4  C   UNL     1     -40.427 -48.487  27.942  1.00  0.00    -0.000 C 
BRANCH   4   5
ATOM      5  C   UNL     1     -39.857 -47.066  28.071  1.00  0.00    -0.000 C 
BRANCH   5   6
ATOM      6  C   UNL     1     -38.602 -47.057  28.950  1.00  0.00    -0.003 C 
ATOM      7  C   UNL     1     -37.786 -48.332  28.762  1.00  0.00     0.004 C 
ENDBRANCH   5   6
ENDBRANCH   4   5
ENDBRANCH   3   4
ENDBRANCH   2   3
ENDBRANCH   1   2
BRANCH   1   8
ATOM      8  C   UNL     1     -43.285 -50.756  31.153  1.00  0.00     0.000 C 
BRANCH   8   9
ATOM      9  C   UNL     1     -44.664 -51.206  30.648  1.00  0.00     0.000 C 
BRANCH   9  10
ATOM     10  C   UNL     1     -45.438 -51.945  31.749  1.00  0.00     0.004 C 
BRANCH  10  11
ATOM     11  C   UNL     1     -46.670 -51.160  32.218  1.00  0.00     0.027 C 
BRANCH  11  12
ATOM     12  C   UNL     1     -46.360 -50.315  33.425  1.00  0.00    -0.035 C 
ATOM     13  C   UNL     1     -47.036 -49.194  33.694  1.00  0.00     0.004 C 
ENDBRANCH  11  12
ENDBRANCH  10  11
ENDBRANCH   9  10
ENDBRANCH   8   9
ENDBRANCH   1   8
TORSDOF 10
ENDMDL
MODEL 8
REMARK VINA RESULT:    -3.824      1.562      2.955
REMARK INTER + INTRA:          -7.581
REMARK INTER:                  -6.211
REMARK INTRA:                  -1.371
REMARK UNBOUND:                -1.521
REMARK SMILES C=CCCCCCCCCCCC
REMARK SMILES IDX 7 1 8 2 9 3 10 4 11 5 12 6 13 7 6 8 5 9 4 10 3 11 2 12 1 13
REMARK H PARENT
REMARK Flexibility Score: inf
ROOT
ATOM      1  C   UNL     1     -44.594 -50.679  29.678  1.00  0.00     0.000 C 
ENDROOT
BRANCH   1   2
ATOM      2  C   UNL     1     -43.444 -50.979  30.653  1.00  0.00     0.000 C 
BRANCH   2   3
ATOM      3  C   UNL     1     -42.089 -50.924  29.934  1.00  0.00    -0.000 C 
BRANCH   3   4
ATOM      4  C   UNL     1     -41.311 -49.632  30.231  1.00  0.00    -0.000 C 
BRANCH   4   5
ATOM      5  C   UNL     1     -40.755 -48.970  28.961  1.00  0.00    -0.000 C 
BRANCH   5   6
ATOM      6  C   UNL     1     -41.827 -48.119  28.272  1.00  0.00    -0.003 C 
ATOM      7  C   UNL     1     -42.172 -48.675  26.893  1.00  0.00     0.004 C 
ENDBRANCH   5   6
ENDBRANCH   4   5
ENDBRANCH   3   4
ENDBRANCH   2   3
ENDBRANCH   1   2
BRANCH   1   8
ATOM      8  C   UNL     1     -45.095 -49.229  29.779  1.00  0.00     0.000 C 
BRANCH   8   9
ATOM      9  C   UNL     1     -45.561 -48.861  31.195  1.00  0.00     0.000 C 
BRANCH   9  10
ATOM     10  C   UNL     1     -46.835 -49.629  31.572  1.00  0.00     0.004 C 
BRANCH  10  11
ATOM     11  C   UNL     1     -46.728 -50.288  32.952  1.00  0.00     0.027 C 
BRANCH  11  12
ATOM     12  C   UNL     1     -46.357 -51.744  32.843  1.00  0.00    -0.035 C 
ATOM     13  C   UNL     1     -45.368 -52.276  33.567  1.00  0.00     0.004 C 
ENDBRANCH  11  12
ENDBRANCH  10  11
ENDBRANCH   9  10
ENDBRANCH   8   9
ENDBRANCH   1   8
TORSDOF 10
ENDMDL
MODEL 9
REMARK VINA RESULT:    -3.823     12.835     14.191
REMARK INTER + INTRA:          -7.579
REMARK INTER:                  -6.871
REMARK INTRA:                  -0.708
REMARK UNBOUND:                -1.521
REMARK SMILES C=CCCCCCCCCCCC
REMARK SMILES IDX 7 1 8 2 9 3 10 4 11 5 12 6 13 7 6 8 5 9 4 10 3 11 2 12 1 13
REMARK H PARENT
REMARK Flexibility Score: inf
ROOT
ATOM      1  C   UNL     1     -51.271 -49.768  19.210  1.00  0.00     0.000 C 
ENDROOT
BRANCH   1   2
ATOM      2  C   UNL     1     -50.273 -48.641  19.520  1.00  0.00     0.000 C 
BRANCH   2   3
ATOM      3  C   UNL     1     -48.851 -49.199  19.681  1.00  0.00    -0.000 C 
BRANCH   3   4
ATOM      4  C   UNL     1     -48.535 -50.319  18.676  1.00  0.00    -0.000 C 
BRANCH   4   5
ATOM      5  C   UNL     1     -47.381 -49.956  17.728  1.00  0.00    -0.000 C 
BRANCH   5   6
ATOM      6  C   UNL     1     -47.755 -50.252  16.272  1.00  0.00    -0.003 C 
ATOM      7  C   UNL     1     -48.649 -51.485  16.170  1.00  0.00     0.004 C 
ENDBRANCH   5   6
ENDBRANCH   4   5
ENDBRANCH   3   4
ENDBRANCH   2   3
ENDBRANCH   1   2
BRANCH   1   8
ATOM      8  C   UNL     1     -52.273 -50.003  20.352  1.00  0.00     0.000 C 
BRANCH   8   9
ATOM      9  C   UNL     1     -52.374 -48.806  21.308  1.00  0.00     0.000 C 
BRANCH   9  10
ATOM     10  C   UNL     1     -53.756 -48.749  21.974  1.00  0.00     0.004 C 
BRANCH  10  11
ATOM     11  C   UNL     1     -54.440 -47.391  21.772  1.00  0.00     0.027 C 
BRANCH  11  12
ATOM     12  C   UNL     1     -55.679 -47.517  20.925  1.00  0.00    -0.035 C 
ATOM     13  C   UNL     1     -56.511 -48.557  21.042  1.00  0.00     0.004 C 
ENDBRANCH  11  12
ENDBRANCH  10  11
ENDBRANCH   9  10
ENDBRANCH   8   9
ENDBRANCH   1   8
TORSDOF 10
ENDMDL
