MODEL 1
REMARK VINA RESULT:    -5.639      0.000      0.000
REMARK INTER + INTRA:          -6.263
REMARK INTER:                  -6.134
REMARK INTRA:                  -0.129
REMARK UNBOUND:                -0.129
REMARK SMILES C=C1C[C@]2(O)O[C@]3(C[C@H]2C(C)C)[C@H](C)CC[C@H]13
REMARK SMILES IDX 14 1 13 2 15 3 16 4 17 5 7 6 8 7 9 8 4 9 6 10 3 11 2 12 1 13
REMARK SMILES IDX 10 14 11 15 12 16 5 17
REMARK H PARENT 5 18
REMARK Flexibility Score: inf
ROOT
ATOM      1  C   UNL     1      -2.191  -6.574  -7.256  1.00  0.00     0.011 C 
ATOM      2  C   UNL     1      -1.356  -7.004  -8.472  1.00  0.00     0.019 C 
ATOM      3  C   UNL     1      -0.673  -8.361  -8.256  1.00  0.00     0.007 C 
ATOM      4  C   UNL     1       0.729  -8.266  -8.862  1.00  0.00     0.011 C 
ATOM      5  C   UNL     1       0.824  -6.905  -9.554  1.00  0.00     0.047 C 
ATOM      6  C   UNL     1      -0.228  -6.026  -8.838  1.00  0.00     0.081 C 
ATOM      7  C   UNL     1      -0.690  -4.843  -9.683  1.00  0.00     0.046 C 
ATOM      8  C   UNL     1       0.415  -3.816  -9.450  1.00  0.00     0.054 C 
ATOM      9  C   UNL     1       1.163  -4.419  -8.212  1.00  0.00     0.173 C 
ATOM     10  O   UNL     1       0.353  -5.452  -7.694  1.00  0.00    -0.342 OA
ATOM     11  C   UNL     1       2.498  -5.064  -8.655  1.00  0.00     0.096 C 
ATOM     12  C   UNL     1       2.231  -6.315  -9.475  1.00  0.00    -0.066 C 
ATOM     13  C   UNL     1       3.243  -6.906 -10.125  1.00  0.00     0.008 C 
ENDROOT
BRANCH   8  14
ATOM     14  C   UNL     1      -0.104  -2.350  -9.291  1.00  0.00    -0.009 C 
ATOM     15  C   UNL     1       0.968  -1.338  -9.743  1.00  0.00     0.008 C 
ATOM     16  C   UNL     1      -1.377  -2.093 -10.122  1.00  0.00     0.008 C 
ENDBRANCH   8  14
BRANCH   9  17
ATOM     17  O   UNL     1       1.393  -3.460  -7.212  1.00  0.00    -0.365 OA
ATOM     18  H   UNL     1       1.829  -2.677  -7.644  1.00  0.00     0.214 HD
ENDBRANCH   9  17
TORSDOF 2
ENDMDL
MODEL 2
REMARK VINA RESULT:    -5.375      1.339      4.650
REMARK INTER + INTRA:          -5.975
REMARK INTER:                  -5.797
REMARK INTRA:                  -0.178
REMARK UNBOUND:                -0.129
REMARK SMILES C=C1C[C@]2(O)O[C@]3(C[C@H]2C(C)C)[C@H](C)CC[C@H]13
REMARK SMILES IDX 14 1 13 2 15 3 16 4 17 5 7 6 8 7 9 8 4 9 6 10 3 11 2 12 1 13
REMARK SMILES IDX 10 14 11 15 12 16 5 17
REMARK H PARENT 5 18
REMARK Flexibility Score: inf
ROOT
ATOM      1  C   UNL     1       2.942  -6.756  -8.023  1.00  0.00     0.011 C 
ATOM      2  C   UNL     1       2.402  -5.826  -9.121  1.00  0.00     0.019 C 
ATOM      3  C   UNL     1       3.002  -4.417  -9.033  1.00  0.00     0.007 C 
ATOM      4  C   UNL     1       1.879  -3.424  -9.340  1.00  0.00     0.011 C 
ATOM      5  C   UNL     1       0.654  -4.248  -9.741  1.00  0.00     0.047 C 
ATOM      6  C   UNL     1       0.878  -5.630  -9.084  1.00  0.00     0.081 C 
ATOM      7  C   UNL     1       0.098  -6.748  -9.770  1.00  0.00     0.046 C 
ATOM      8  C   UNL     1      -1.291  -6.612  -9.152  1.00  0.00     0.054 C 
ATOM      9  C   UNL     1      -1.012  -5.674  -7.928  1.00  0.00     0.173 C 
ATOM     10  O   UNL     1       0.389  -5.599  -7.768  1.00  0.00    -0.342 OA
ATOM     11  C   UNL     1      -1.515  -4.241  -8.225  1.00  0.00     0.096 C 
ATOM     12  C   UNL     1      -0.653  -3.593  -9.295  1.00  0.00    -0.066 C 
ATOM     13  C   UNL     1      -1.042  -2.434  -9.842  1.00  0.00     0.008 C 
ENDROOT
BRANCH   8  14
ATOM     14  C   UNL     1      -1.978  -7.978  -8.825  1.00  0.00    -0.009 C 
ATOM     15  C   UNL     1      -2.632  -8.578 -10.086  1.00  0.00     0.008 C 
ATOM     16  C   UNL     1      -0.975  -9.013  -8.276  1.00  0.00     0.008 C 
ENDBRANCH   8  14
BRANCH   9  17
ATOM     17  O   UNL     1      -1.592  -6.158  -6.744  1.00  0.00    -0.365 OA
ATOM     18  H   UNL     1      -1.817  -7.115  -6.892  1.00  0.00     0.214 HD
ENDBRANCH   9  17
TORSDOF 2
ENDMDL
MODEL 3
REMARK VINA RESULT:    -5.301      1.416      4.310
REMARK INTER + INTRA:          -5.895
REMARK INTER:                  -5.892
REMARK INTRA:                  -0.003
REMARK UNBOUND:                -0.129
REMARK SMILES C=C1C[C@]2(O)O[C@]3(C[C@H]2C(C)C)[C@H](C)CC[C@H]13
REMARK SMILES IDX 14 1 13 2 15 3 16 4 17 5 7 6 8 7 9 8 4 9 6 10 3 11 2 12 1 13
REMARK SMILES IDX 10 14 11 15 12 16 5 17
REMARK H PARENT 5 18
REMARK Flexibility Score: inf
ROOT
ATOM      1  C   UNL     1      -1.199  -2.387  -9.748  1.00  0.00     0.011 C 
ATOM      2  C   UNL     1       0.143  -2.810  -9.130  1.00  0.00     0.019 C 
ATOM      3  C   UNL     1       1.338  -2.400 -10.002  1.00  0.00     0.007 C 
ATOM      4  C   UNL     1       2.347  -3.549  -9.959  1.00  0.00     0.011 C 
ATOM      5  C   UNL     1       1.812  -4.575  -8.959  1.00  0.00     0.047 C 
ATOM      6  C   UNL     1       0.287  -4.326  -8.918  1.00  0.00     0.081 C 
ATOM      7  C   UNL     1      -0.364  -4.831  -7.633  1.00  0.00     0.046 C 
ATOM      8  C   UNL     1      -0.555  -6.318  -7.919  1.00  0.00     0.054 C 
ATOM      9  C   UNL     1      -0.324  -6.383  -9.468  1.00  0.00     0.173 C 
ATOM     10  O   UNL     1      -0.327  -5.056  -9.949  1.00  0.00    -0.342 OA
ATOM     11  C   UNL     1       1.070  -6.979  -9.778  1.00  0.00     0.096 C 
ATOM     12  C   UNL     1       2.161  -6.008  -9.360  1.00  0.00    -0.066 C 
ATOM     13  C   UNL     1       3.437  -6.414  -9.353  1.00  0.00     0.008 C 
ENDROOT
BRANCH   8  14
ATOM     14  C   UNL     1      -1.912  -6.896  -7.403  1.00  0.00    -0.009 C 
ATOM     15  C   UNL     1      -1.855  -8.434  -7.317  1.00  0.00     0.008 C 
ATOM     16  C   UNL     1      -2.275  -6.358  -6.004  1.00  0.00     0.008 C 
ENDBRANCH   8  14
BRANCH   9  17
ATOM     17  O   UNL     1      -1.326  -7.119 -10.123  1.00  0.00    -0.365 OA
ATOM     18  H   UNL     1      -1.316  -6.849 -11.080  1.00  0.00     0.214 HD
ENDBRANCH   9  17
TORSDOF 2
ENDMDL
MODEL 4
REMARK VINA RESULT:    -4.980      1.505      5.374
REMARK INTER + INTRA:          -5.546
REMARK INTER:                  -5.322
REMARK INTRA:                  -0.223
REMARK UNBOUND:                -0.129
REMARK SMILES C=C1C[C@]2(O)O[C@]3(C[C@H]2C(C)C)[C@H](C)CC[C@H]13
REMARK SMILES IDX 14 1 13 2 15 3 16 4 17 5 7 6 8 7 9 8 4 9 6 10 3 11 2 12 1 13
REMARK SMILES IDX 10 14 11 15 12 16 5 17
REMARK H PARENT 5 18
REMARK Flexibility Score: inf
ROOT
ATOM      1  C   UNL     1       4.169  -1.911  -8.771  1.00  0.00     0.011 C 
ATOM      2  C   UNL     1       3.009  -1.800  -9.772  1.00  0.00     0.019 C 
ATOM      3  C   UNL     1       2.360  -0.409  -9.755  1.00  0.00     0.007 C 
ATOM      4  C   UNL     1       0.849  -0.610  -9.891  1.00  0.00     0.011 C 
ATOM      5  C   UNL     1       0.619  -2.104 -10.125  1.00  0.00     0.047 C 
ATOM      6  C   UNL     1       1.864  -2.794  -9.520  1.00  0.00     0.081 C 
ATOM      7  C   UNL     1       2.116  -4.182 -10.102  1.00  0.00     0.046 C 
ATOM      8  C   UNL     1       1.164  -5.059  -9.294  1.00  0.00     0.054 C 
ATOM      9  C   UNL     1       0.771  -4.109  -8.111  1.00  0.00     0.173 C 
ATOM     10  O   UNL     1       1.652  -3.006  -8.148  1.00  0.00    -0.342 OA
ATOM     11  C   UNL     1      -0.660  -3.557  -8.320  1.00  0.00     0.096 C 
ATOM     12  C   UNL     1      -0.685  -2.592  -9.493  1.00  0.00    -0.066 C 
ATOM     13  C   UNL     1      -1.861  -2.163  -9.969  1.00  0.00     0.008 C 
ENDROOT
BRANCH   8  14
ATOM     14  C   UNL     1       1.765  -6.444  -8.888  1.00  0.00    -0.009 C 
ATOM     15  C   UNL     1       0.772  -7.583  -9.196  1.00  0.00     0.008 C 
ATOM     16  C   UNL     1       3.078  -6.747  -9.639  1.00  0.00     0.008 C 
ENDBRANCH   8  14
BRANCH   9  17
ATOM     17  O   UNL     1       0.871  -4.744  -6.863  1.00  0.00    -0.365 OA
ATOM     18  H   UNL     1       1.589  -4.285  -6.351  1.00  0.00     0.214 HD
ENDBRANCH   9  17
TORSDOF 2
ENDMDL
MODEL 5
REMARK VINA RESULT:    -3.653      1.789      3.039
REMARK INTER + INTRA:          -4.102
REMARK INTER:                  -4.390
REMARK INTRA:                   0.288
REMARK UNBOUND:                -0.129
REMARK SMILES C=C1C[C@]2(O)O[C@]3(C[C@H]2C(C)C)[C@H](C)CC[C@H]13
REMARK SMILES IDX 14 1 13 2 15 3 16 4 17 5 7 6 8 7 9 8 4 9 6 10 3 11 2 12 1 13
REMARK SMILES IDX 10 14 11 15 12 16 5 17
REMARK H PARENT 5 18
REMARK Flexibility Score: inf
ROOT
ATOM      1  C   UNL     1       0.752  -3.963  -5.130  1.00  0.00     0.011 C 
ATOM      2  C   UNL     1      -0.384  -4.234  -6.129  1.00  0.00     0.019 C 
ATOM      3  C   UNL     1      -1.186  -5.491  -5.766  1.00  0.00     0.007 C 
ATOM      4  C   UNL     1      -1.506  -6.219  -7.074  1.00  0.00     0.011 C 
ATOM      5  C   UNL     1      -1.013  -5.324  -8.213  1.00  0.00     0.047 C 
ATOM      6  C   UNL     1       0.089  -4.447  -7.576  1.00  0.00     0.081 C 
ATOM      7  C   UNL     1       0.332  -3.149  -8.340  1.00  0.00     0.046 C 
ATOM      8  C   UNL     1       1.257  -3.596  -9.469  1.00  0.00     0.054 C 
ATOM      9  C   UNL     1       1.710  -5.014  -8.976  1.00  0.00     0.173 C 
ATOM     10  O   UNL     1       1.312  -5.135  -7.627  1.00  0.00    -0.342 OA
ATOM     11  C   UNL     1       0.973  -6.118  -9.771  1.00  0.00     0.096 C 
ATOM     12  C   UNL     1      -0.501  -6.136  -9.403  1.00  0.00    -0.066 C 
ATOM     13  C   UNL     1      -1.352  -6.876 -10.125  1.00  0.00     0.008 C 
ENDROOT
BRANCH   8  14
ATOM     14  C   UNL     1       2.405  -2.584  -9.790  1.00  0.00    -0.009 C 
ATOM     15  C   UNL     1       1.830  -1.193 -10.123  1.00  0.00     0.008 C 
ATOM     16  C   UNL     1       3.380  -2.421  -8.606  1.00  0.00     0.008 C 
ENDBRANCH   8  14
BRANCH   9  17
ATOM     17  O   UNL     1       3.100  -5.190  -9.071  1.00  0.00    -0.365 OA
ATOM     18  H   UNL     1       3.485  -4.343  -9.422  1.00  0.00     0.214 HD
ENDBRANCH   9  17
TORSDOF 2
ENDMDL
MODEL 6
REMARK VINA RESULT:    -3.469     17.505     19.350
REMARK INTER + INTRA:          -3.903
REMARK INTER:                  -4.443
REMARK INTRA:                   0.541
REMARK UNBOUND:                -0.129
REMARK SMILES C=C1C[C@]2(O)O[C@]3(C[C@H]2C(C)C)[C@H](C)CC[C@H]13
REMARK SMILES IDX 14 1 13 2 15 3 16 4 17 5 7 6 8 7 9 8 4 9 6 10 3 11 2 12 1 13
REMARK SMILES IDX 10 14 11 15 12 16 5 17
REMARK H PARENT 5 18
REMARK Flexibility Score: inf
ROOT
ATOM      1  C   UNL     1      -9.273  -5.998   9.990  1.00  0.00     0.011 C 
ATOM      2  C   UNL     1      -8.918  -6.201   8.509  1.00  0.00     0.019 C 
ATOM      3  C   UNL     1     -10.116  -6.699   7.688  1.00  0.00     0.007 C 
ATOM      4  C   UNL     1      -9.588  -7.738   6.697  1.00  0.00     0.011 C 
ATOM      5  C   UNL     1      -8.065  -7.755   6.839  1.00  0.00     0.047 C 
ATOM      6  C   UNL     1      -7.797  -7.224   8.266  1.00  0.00     0.081 C 
ATOM      7  C   UNL     1      -6.394  -6.648   8.432  1.00  0.00     0.046 C 
ATOM      8  C   UNL     1      -5.549  -7.896   8.673  1.00  0.00     0.054 C 
ATOM      9  C   UNL     1      -6.643  -8.976   8.979  1.00  0.00     0.173 C 
ATOM     10  O   UNL     1      -7.863  -8.293   9.175  1.00  0.00    -0.342 OA
ATOM     11  C   UNL     1      -6.832  -9.908   7.758  1.00  0.00     0.096 C 
ATOM     12  C   UNL     1      -7.480  -9.149   6.613  1.00  0.00    -0.066 C 
ATOM     13  C   UNL     1      -7.544  -9.713   5.400  1.00  0.00     0.008 C 
ENDROOT
BRANCH   8  14
ATOM     14  C   UNL     1      -4.442  -7.715   9.763  1.00  0.00    -0.009 C 
ATOM     15  C   UNL     1      -3.747  -9.057  10.066  1.00  0.00     0.008 C 
ATOM     16  C   UNL     1      -3.357  -6.710   9.323  1.00  0.00     0.008 C 
ENDBRANCH   8  14
BRANCH   9  17
ATOM     17  O   UNL     1      -6.341  -9.730  10.125  1.00  0.00    -0.365 OA
ATOM     18  H   UNL     1      -7.193 -10.115  10.462  1.00  0.00     0.214 HD
ENDBRANCH   9  17
TORSDOF 2
ENDMDL
MODEL 7
REMARK VINA RESULT:    -2.798      1.899      3.704
REMARK INTER + INTRA:          -3.173
REMARK INTER:                  -3.819
REMARK INTRA:                   0.646
REMARK UNBOUND:                -0.129
REMARK SMILES C=C1C[C@]2(O)O[C@]3(C[C@H]2C(C)C)[C@H](C)CC[C@H]13
REMARK SMILES IDX 14 1 13 2 15 3 16 4 17 5 7 6 8 7 9 8 4 9 6 10 3 11 2 12 1 13
REMARK SMILES IDX 10 14 11 15 12 16 5 17
REMARK H PARENT 5 18
REMARK Flexibility Score: inf
ROOT
ATOM      1  C   UNL     1       0.233  -9.401 -10.124  1.00  0.00     0.011 C 
ATOM      2  C   UNL     1      -0.219  -9.056  -8.696  1.00  0.00     0.019 C 
ATOM      3  C   UNL     1      -1.695  -9.402  -8.456  1.00  0.00     0.007 C 
ATOM      4  C   UNL     1      -2.293  -8.276  -7.609  1.00  0.00     0.011 C 
ATOM      5  C   UNL     1      -1.143  -7.340  -7.236  1.00  0.00     0.047 C 
ATOM      6  C   UNL     1      -0.078  -7.569  -8.333  1.00  0.00     0.081 C 
ATOM      7  C   UNL     1       1.328  -7.177  -7.889  1.00  0.00     0.046 C 
ATOM      8  C   UNL     1       1.338  -5.666  -8.112  1.00  0.00     0.054 C 
ATOM      9  C   UNL     1       0.063  -5.461  -9.000  1.00  0.00     0.173 C 
ATOM     10  O   UNL     1      -0.359  -6.738  -9.430  1.00  0.00    -0.342 OA
ATOM     11  C   UNL     1      -1.087  -4.860  -8.157  1.00  0.00     0.096 C 
ATOM     12  C   UNL     1      -1.591  -5.881  -7.151  1.00  0.00    -0.066 C 
ATOM     13  C   UNL     1      -2.441  -5.497  -6.190  1.00  0.00     0.008 C 
ENDROOT
BRANCH   8  14
ATOM     14  C   UNL     1       2.678  -5.119  -8.700  1.00  0.00    -0.009 C 
ATOM     15  C   UNL     1       3.019  -5.818 -10.031  1.00  0.00     0.008 C 
ATOM     16  C   UNL     1       2.615  -3.601  -8.968  1.00  0.00     0.008 C 
ENDBRANCH   8  14
BRANCH   9  17
ATOM     17  O   UNL     1       0.320  -4.653 -10.120  1.00  0.00    -0.365 OA
ATOM     18  H   UNL     1      -0.550  -4.477 -10.567  1.00  0.00     0.214 HD
ENDBRANCH   9  17
TORSDOF 2
ENDMDL
