MODEL 1
REMARK VINA RESULT:    -5.238      0.000      0.000
REMARK INTER + INTRA:          -9.586
REMARK INTER:                  -8.912
REMARK INTRA:                  -0.673
REMARK UNBOUND:                -0.673
REMARK SMILES CCCCCCCCCCCCCC(=O)[O-]
REMARK SMILES IDX 8 1 9 2 10 3 11 4 12 5 13 6 14 7 15 8 16 9 7 10 6 11 5 12
REMARK SMILES IDX 4 13 3 14 2 15 1 16
REMARK H PARENT
REMARK Flexibility Score: inf
ROOT
ATOM      1  C   UNL     1      82.019  59.150  10.828  1.00  0.00     0.000 C 
ENDROOT
BRANCH   1   2
ATOM      2  C   UNL     1      82.835  60.046  11.775  1.00  0.00     0.000 C 
BRANCH   2   3
ATOM      3  C   UNL     1      84.192  60.456  11.182  1.00  0.00     0.000 C 
BRANCH   3   4
ATOM      4  C   UNL     1      85.338  59.679  11.848  1.00  0.00     0.000 C 
BRANCH   4   5
ATOM      5  C   UNL     1      85.256  59.695  13.386  1.00  0.00     0.006 C 
BRANCH   5   6
ATOM      6  C   UNL     1      85.597  61.052  14.024  1.00  0.00     0.053 C 
BRANCH   6   7
ATOM      7  C   UNL     1      84.953  61.220  15.365  1.00  0.00     0.041 C 
ATOM      8  O   UNL     1      85.658  61.443  16.384  1.00  0.00    -0.550 OA
ATOM      9  O   UNL     1      83.570  61.165  15.484  1.00  0.00    -0.550 OA
ENDBRANCH   6   7
ENDBRANCH   5   6
ENDBRANCH   4   5
ENDBRANCH   3   4
ENDBRANCH   2   3
ENDBRANCH   1   2
BRANCH   1  10
ATOM     10  C   UNL     1      80.714  59.818  10.362  1.00  0.00     0.000 C 
BRANCH  10  11
ATOM     11  C   UNL     1      79.564  58.811  10.201  1.00  0.00    -0.000 C 
BRANCH  11  12
ATOM     12  C   UNL     1      79.977  57.374  10.565  1.00  0.00    -0.000 C 
BRANCH  12  13
ATOM     13  C   UNL     1      78.854  56.351  10.316  1.00  0.00    -0.000 C 
BRANCH  13  14
ATOM     14  C   UNL     1      77.678  56.871   9.464  1.00  0.00    -0.000 C 
BRANCH  14  15
ATOM     15  C   UNL     1      77.732  56.482   7.976  1.00  0.00    -0.003 C 
ATOM     16  C   UNL     1      77.979  54.991   7.758  1.00  0.00     0.004 C 
ENDBRANCH  14  15
ENDBRANCH  13  14
ENDBRANCH  12  13
ENDBRANCH  11  12
ENDBRANCH  10  11
ENDBRANCH   1  10
TORSDOF 12
ENDMDL
MODEL 2
REMARK VINA RESULT:    -5.016      4.555      8.909
REMARK INTER + INTRA:          -9.209
REMARK INTER:                  -8.740
REMARK INTRA:                  -0.468
REMARK UNBOUND:                -0.673
REMARK SMILES CCCCCCCCCCCCCC(=O)[O-]
REMARK SMILES IDX 8 1 9 2 10 3 11 4 12 5 13 6 14 7 15 8 16 9 7 10 6 11 5 12
REMARK SMILES IDX 4 13 3 14 2 15 1 16
REMARK H PARENT
REMARK Flexibility Score: inf
ROOT
ATOM      1  C   UNL     1      81.306  60.132  10.468  1.00  0.00     0.000 C 
ENDROOT
BRANCH   1   2
ATOM      2  C   UNL     1      81.118  58.615  10.635  1.00  0.00     0.000 C 
BRANCH   2   3
ATOM      3  C   UNL     1      79.650  58.180  10.501  1.00  0.00     0.000 C 
BRANCH   3   4
ATOM      4  C   UNL     1      79.525  56.650  10.574  1.00  0.00     0.000 C 
BRANCH   4   5
ATOM      5  C   UNL     1      78.224  56.127   9.939  1.00  0.00     0.006 C 
BRANCH   5   6
ATOM      6  C   UNL     1      77.678  57.004   8.800  1.00  0.00     0.053 C 
BRANCH   6   7
ATOM      7  C   UNL     1      77.700  56.292   7.483  1.00  0.00     0.041 C 
ATOM      8  O   UNL     1      77.689  55.033   7.442  1.00  0.00    -0.550 OA
ATOM      9  O   UNL     1      77.698  57.019   6.299  1.00  0.00    -0.550 OA
ENDBRANCH   6   7
ENDBRANCH   5   6
ENDBRANCH   4   5
ENDBRANCH   3   4
ENDBRANCH   2   3
ENDBRANCH   1   2
BRANCH   1  10
ATOM     10  C   UNL     1      82.761  60.576  10.699  1.00  0.00     0.000 C 
BRANCH  10  11
ATOM     11  C   UNL     1      83.349  60.006  12.000  1.00  0.00    -0.000 C 
BRANCH  11  12
ATOM     12  C   UNL     1      84.667  60.688  12.405  1.00  0.00    -0.000 C 
BRANCH  12  13
ATOM     13  C   UNL     1      85.307  60.051  13.652  1.00  0.00    -0.000 C 
BRANCH  13  14
ATOM     14  C   UNL     1      85.121  60.849  14.959  1.00  0.00    -0.000 C 
BRANCH  14  15
ATOM     15  C   UNL     1      85.519  62.333  14.876  1.00  0.00    -0.003 C 
ATOM     16  C   UNL     1      84.804  63.200  15.910  1.00  0.00     0.004 C 
ENDBRANCH  14  15
ENDBRANCH  13  14
ENDBRANCH  12  13
ENDBRANCH  11  12
ENDBRANCH  10  11
ENDBRANCH   1  10
TORSDOF 12
ENDMDL
MODEL 3
REMARK VINA RESULT:    -4.983      2.403      4.039
REMARK INTER + INTRA:          -9.153
REMARK INTER:                  -8.065
REMARK INTRA:                  -1.087
REMARK UNBOUND:                -0.673
REMARK SMILES CCCCCCCCCCCCCC(=O)[O-]
REMARK SMILES IDX 8 1 9 2 10 3 11 4 12 5 13 6 14 7 15 8 16 9 7 10 6 11 5 12
REMARK SMILES IDX 4 13 3 14 2 15 1 16
REMARK H PARENT
REMARK Flexibility Score: inf
ROOT
ATOM      1  C   UNL     1      79.530  57.449  10.369  1.00  0.00     0.000 C 
ENDROOT
BRANCH   1   2
ATOM      2  C   UNL     1      79.370  58.964  10.159  1.00  0.00     0.000 C 
BRANCH   2   3
ATOM      3  C   UNL     1      80.676  59.738  10.400  1.00  0.00     0.000 C 
BRANCH   3   4
ATOM      4  C   UNL     1      81.818  58.780  10.771  1.00  0.00     0.000 C 
BRANCH   4   5
ATOM      5  C   UNL     1      83.194  59.275  10.289  1.00  0.00     0.006 C 
BRANCH   5   6
ATOM      6  C   UNL     1      83.329  60.805  10.224  1.00  0.00     0.053 C 
BRANCH   6   7
ATOM      7  C   UNL     1      84.616  61.282  10.823  1.00  0.00     0.041 C 
ATOM      8  O   UNL     1      85.202  60.591  11.698  1.00  0.00    -0.550 OA
ATOM      9  O   UNL     1      85.187  62.472  10.391  1.00  0.00    -0.550 OA
ENDBRANCH   6   7
ENDBRANCH   5   6
ENDBRANCH   4   5
ENDBRANCH   3   4
ENDBRANCH   2   3
ENDBRANCH   1   2
BRANCH   1  10
ATOM     10  C   UNL     1      78.262  56.664   9.991  1.00  0.00     0.000 C 
BRANCH  10  11
ATOM     11  C   UNL     1      77.832  56.908   8.535  1.00  0.00    -0.000 C 
BRANCH  11  12
ATOM     12  C   UNL     1      77.809  55.616   7.699  1.00  0.00    -0.000 C 
BRANCH  12  13
ATOM     13  C   UNL     1      78.487  54.433   8.413  1.00  0.00    -0.000 C 
BRANCH  13  14
ATOM     14  C   UNL     1      79.943  54.161   7.986  1.00  0.00    -0.000 C 
BRANCH  14  15
ATOM     15  C   UNL     1      80.909  53.839   9.140  1.00  0.00    -0.003 C 
ATOM     16  C   UNL     1      81.984  54.906   9.333  1.00  0.00     0.004 C 
ENDBRANCH  14  15
ENDBRANCH  13  14
ENDBRANCH  12  13
ENDBRANCH  11  12
ENDBRANCH  10  11
ENDBRANCH   1  10
TORSDOF 12
ENDMDL
MODEL 4
REMARK VINA RESULT:    -4.919      2.645      3.233
REMARK INTER + INTRA:          -9.043
REMARK INTER:                  -8.075
REMARK INTRA:                  -0.968
REMARK UNBOUND:                -0.673
REMARK SMILES CCCCCCCCCCCCCC(=O)[O-]
REMARK SMILES IDX 8 1 9 2 10 3 11 4 12 5 13 6 14 7 15 8 16 9 7 10 6 11 5 12
REMARK SMILES IDX 4 13 3 14 2 15 1 16
REMARK H PARENT
REMARK Flexibility Score: inf
ROOT
ATOM      1  C   UNL     1      82.091  59.199  10.756  1.00  0.00     0.000 C 
ENDROOT
BRANCH   1   2
ATOM      2  C   UNL     1      82.873  59.975  11.828  1.00  0.00     0.000 C 
BRANCH   2   3
ATOM      3  C   UNL     1      84.395  59.871  11.645  1.00  0.00     0.000 C 
BRANCH   3   4
ATOM      4  C   UNL     1      84.749  59.539  10.187  1.00  0.00     0.000 C 
BRANCH   4   5
ATOM      5  C   UNL     1      85.657  60.598   9.536  1.00  0.00     0.006 C 
BRANCH   5   6
ATOM      6  C   UNL     1      84.906  61.653   8.707  1.00  0.00     0.053 C 
BRANCH   6   7
ATOM      7  C   UNL     1      84.426  62.793   9.551  1.00  0.00     0.041 C 
ATOM      8  O   UNL     1      85.242  63.652   9.980  1.00  0.00    -0.550 OA
ATOM      9  O   UNL     1      83.073  62.928   9.835  1.00  0.00    -0.550 OA
ENDBRANCH   6   7
ENDBRANCH   5   6
ENDBRANCH   4   5
ENDBRANCH   3   4
ENDBRANCH   2   3
ENDBRANCH   1   2
BRANCH   1  10
ATOM     10  C   UNL     1      80.808  59.927  10.318  1.00  0.00     0.000 C 
BRANCH  10  11
ATOM     11  C   UNL     1      79.603  58.979  10.207  1.00  0.00    -0.000 C 
BRANCH  11  12
ATOM     12  C   UNL     1      79.935  57.542  10.646  1.00  0.00    -0.000 C 
BRANCH  12  13
ATOM     13  C   UNL     1      78.832  56.536  10.272  1.00  0.00    -0.000 C 
BRANCH  13  14
ATOM     14  C   UNL     1      77.832  57.032   9.208  1.00  0.00    -0.000 C 
BRANCH  14  15
ATOM     15  C   UNL     1      77.677  56.113   7.983  1.00  0.00    -0.003 C 
ATOM     16  C   UNL     1      78.410  54.783   8.140  1.00  0.00     0.004 C 
ENDBRANCH  14  15
ENDBRANCH  13  14
ENDBRANCH  12  13
ENDBRANCH  11  12
ENDBRANCH  10  11
ENDBRANCH   1  10
TORSDOF 12
ENDMDL
MODEL 5
REMARK VINA RESULT:    -4.883      3.058      4.060
REMARK INTER + INTRA:          -8.982
REMARK INTER:                  -8.190
REMARK INTRA:                  -0.792
REMARK UNBOUND:                -0.673
REMARK SMILES CCCCCCCCCCCCCC(=O)[O-]
REMARK SMILES IDX 8 1 9 2 10 3 11 4 12 5 13 6 14 7 15 8 16 9 7 10 6 11 5 12
REMARK SMILES IDX 4 13 3 14 2 15 1 16
REMARK H PARENT
REMARK Flexibility Score: inf
ROOT
ATOM      1  C   UNL     1      79.529  58.966  10.397  1.00  0.00     0.000 C 
ENDROOT
BRANCH   1   2
ATOM      2  C   UNL     1      80.836  59.776  10.351  1.00  0.00     0.000 C 
BRANCH   2   3
ATOM      3  C   UNL     1      82.074  58.925  10.673  1.00  0.00     0.000 C 
BRANCH   3   4
ATOM      4  C   UNL     1      83.352  59.603  10.156  1.00  0.00     0.000 C 
BRANCH   4   5
ATOM      5  C   UNL     1      83.564  61.009  10.747  1.00  0.00     0.006 C 
BRANCH   5   6
ATOM      6  C   UNL     1      83.308  62.157   9.757  1.00  0.00     0.053 C 
BRANCH   6   7
ATOM      7  C   UNL     1      84.575  62.651   9.129  1.00  0.00     0.041 C 
ATOM      8  O   UNL     1      85.324  63.446   9.756  1.00  0.00    -0.550 OA
ATOM      9  O   UNL     1      84.946  62.206   7.867  1.00  0.00    -0.550 OA
ENDBRANCH   6   7
ENDBRANCH   5   6
ENDBRANCH   4   5
ENDBRANCH   3   4
ENDBRANCH   2   3
ENDBRANCH   1   2
BRANCH   1  10
ATOM     10  C   UNL     1      79.777  57.448  10.430  1.00  0.00     0.000 C 
BRANCH  10  11
ATOM     11  C   UNL     1      78.472  56.642  10.528  1.00  0.00    -0.000 C 
BRANCH  11  12
ATOM     12  C   UNL     1      77.584  56.793   9.281  1.00  0.00    -0.000 C 
BRANCH  12  13
ATOM     13  C   UNL     1      78.166  56.079   8.047  1.00  0.00    -0.000 C 
BRANCH  13  14
ATOM     14  C   UNL     1      78.052  54.541   8.072  1.00  0.00    -0.000 C 
BRANCH  14  15
ATOM     15  C   UNL     1      79.359  53.788   7.762  1.00  0.00    -0.003 C 
ATOM     16  C   UNL     1      80.577  54.404   8.446  1.00  0.00     0.004 C 
ENDBRANCH  14  15
ENDBRANCH  13  14
ENDBRANCH  12  13
ENDBRANCH  11  12
ENDBRANCH  10  11
ENDBRANCH   1  10
TORSDOF 12
ENDMDL
MODEL 6
REMARK VINA RESULT:    -4.870      4.394      8.534
REMARK INTER + INTRA:          -8.959
REMARK INTER:                  -8.310
REMARK INTRA:                  -0.649
REMARK UNBOUND:                -0.673
REMARK SMILES CCCCCCCCCCCCCC(=O)[O-]
REMARK SMILES IDX 8 1 9 2 10 3 11 4 12 5 13 6 14 7 15 8 16 9 7 10 6 11 5 12
REMARK SMILES IDX 4 13 3 14 2 15 1 16
REMARK H PARENT
REMARK Flexibility Score: inf
ROOT
ATOM      1  C   UNL     1      79.241  58.940  10.208  1.00  0.00     0.000 C 
ENDROOT
BRANCH   1   2
ATOM      2  C   UNL     1      79.490  57.423  10.169  1.00  0.00     0.000 C 
BRANCH   2   3
ATOM      3  C   UNL     1      78.196  56.614   9.986  1.00  0.00     0.000 C 
BRANCH   3   4
ATOM      4  C   UNL     1      77.643  56.783   8.563  1.00  0.00     0.000 C 
BRANCH   4   5
ATOM      5  C   UNL     1      78.206  55.744   7.575  1.00  0.00     0.006 C 
BRANCH   5   6
ATOM      6  C   UNL     1      78.081  54.287   8.049  1.00  0.00     0.053 C 
BRANCH   6   7
ATOM      7  C   UNL     1      79.418  53.633   8.214  1.00  0.00     0.041 C 
ATOM      8  O   UNL     1      79.500  52.383   8.349  1.00  0.00    -0.550 OA
ATOM      9  O   UNL     1      80.577  54.399   8.182  1.00  0.00    -0.550 OA
ENDBRANCH   6   7
ENDBRANCH   5   6
ENDBRANCH   4   5
ENDBRANCH   3   4
ENDBRANCH   2   3
ENDBRANCH   1   2
BRANCH   1  10
ATOM     10  C   UNL     1      80.546  59.753  10.158  1.00  0.00     0.000 C 
BRANCH  10  11
ATOM     11  C   UNL     1      81.725  59.012  10.810  1.00  0.00    -0.000 C 
BRANCH  11  12
ATOM     12  C   UNL     1      82.796  59.969  11.363  1.00  0.00    -0.000 C 
BRANCH  12  13
ATOM     13  C   UNL     1      83.122  61.120  10.394  1.00  0.00    -0.000 C 
BRANCH  13  14
ATOM     14  C   UNL     1      84.589  61.596  10.418  1.00  0.00    -0.000 C 
BRANCH  14  15
ATOM     15  C   UNL     1      84.823  63.009   9.854  1.00  0.00    -0.003 C 
ATOM     16  C   UNL     1      84.424  63.137   8.385  1.00  0.00     0.004 C 
ENDBRANCH  14  15
ENDBRANCH  13  14
ENDBRANCH  12  13
ENDBRANCH  11  12
ENDBRANCH  10  11
ENDBRANCH   1  10
TORSDOF 12
ENDMDL
MODEL 7
REMARK VINA RESULT:    -4.860      5.687      7.762
REMARK INTER + INTRA:          -8.943
REMARK INTER:                  -7.574
REMARK INTRA:                  -1.370
REMARK UNBOUND:                -0.673
REMARK SMILES CCCCCCCCCCCCCC(=O)[O-]
REMARK SMILES IDX 8 1 9 2 10 3 11 4 12 5 13 6 14 7 15 8 16 9 7 10 6 11 5 12
REMARK SMILES IDX 4 13 3 14 2 15 1 16
REMARK H PARENT
REMARK Flexibility Score: inf
ROOT
ATOM      1  C   UNL     1      80.145  54.170   7.528  1.00  0.00     0.000 C 
ENDROOT
BRANCH   1   2
ATOM      2  C   UNL     1      81.125  53.208   8.219  1.00  0.00     0.000 C 
BRANCH   2   3
ATOM      3  C   UNL     1      80.440  52.308   9.259  1.00  0.00     0.000 C 
BRANCH   3   4
ATOM      4  C   UNL     1      80.991  50.876   9.190  1.00  0.00     0.000 C 
BRANCH   4   5
ATOM      5  C   UNL     1      81.814  50.491  10.433  1.00  0.00     0.006 C 
BRANCH   5   6
ATOM      6  C   UNL     1      82.018  51.638  11.437  1.00  0.00     0.053 C 
BRANCH   6   7
ATOM      7  C   UNL     1      82.601  51.156  12.729  1.00  0.00     0.041 C 
ATOM      8  O   UNL     1      83.848  51.176  12.909  1.00  0.00    -0.550 OA
ATOM      9  O   UNL     1      81.766  50.718  13.749  1.00  0.00    -0.550 OA
ENDBRANCH   6   7
ENDBRANCH   5   6
ENDBRANCH   4   5
ENDBRANCH   3   4
ENDBRANCH   2   3
ENDBRANCH   1   2
BRANCH   1  10
ATOM     10  C   UNL     1      78.721  54.078   8.104  1.00  0.00     0.000 C 
BRANCH  10  11
ATOM     11  C   UNL     1      77.784  55.153   7.530  1.00  0.00    -0.000 C 
BRANCH  11  12
ATOM     12  C   UNL     1      78.053  56.550   8.117  1.00  0.00    -0.000 C 
BRANCH  12  13
ATOM     13  C   UNL     1      77.795  56.618   9.633  1.00  0.00    -0.000 C 
BRANCH  13  14
ATOM     14  C   UNL     1      78.920  57.276  10.456  1.00  0.00    -0.000 C 
BRANCH  14  15
ATOM     15  C   UNL     1      80.236  56.478  10.512  1.00  0.00    -0.003 C 
ATOM     16  C   UNL     1      80.158  55.265  11.435  1.00  0.00     0.004 C 
ENDBRANCH  14  15
ENDBRANCH  13  14
ENDBRANCH  12  13
ENDBRANCH  11  12
ENDBRANCH  10  11
ENDBRANCH   1  10
TORSDOF 12
ENDMDL
MODEL 8
REMARK VINA RESULT:    -4.858      2.945      3.797
REMARK INTER + INTRA:          -8.939
REMARK INTER:                  -8.124
REMARK INTRA:                  -0.816
REMARK UNBOUND:                -0.673
REMARK SMILES CCCCCCCCCCCCCC(=O)[O-]
REMARK SMILES IDX 8 1 9 2 10 3 11 4 12 5 13 6 14 7 15 8 16 9 7 10 6 11 5 12
REMARK SMILES IDX 4 13 3 14 2 15 1 16
REMARK H PARENT
REMARK Flexibility Score: inf
ROOT
ATOM      1  C   UNL     1      80.084  58.132  10.499  1.00  0.00     0.000 C 
ENDROOT
BRANCH   1   2
ATOM      2  C   UNL     1      80.124  59.653  10.272  1.00  0.00     0.000 C 
BRANCH   2   3
ATOM      3  C   UNL     1      81.550  60.223  10.319  1.00  0.00     0.000 C 
BRANCH   3   4
ATOM      4  C   UNL     1      82.560  59.136  10.716  1.00  0.00     0.000 C 
BRANCH   4   5
ATOM      5  C   UNL     1      84.009  59.505  10.349  1.00  0.00     0.006 C 
BRANCH   5   6
ATOM      6  C   UNL     1      84.428  60.923  10.768  1.00  0.00     0.053 C 
BRANCH   6   7
ATOM      7  C   UNL     1      85.050  61.683   9.638  1.00  0.00     0.041 C 
ATOM      8  O   UNL     1      85.424  62.874   9.804  1.00  0.00    -0.550 OA
ATOM      9  O   UNL     1      85.250  61.064   8.410  1.00  0.00    -0.550 OA
ENDBRANCH   6   7
ENDBRANCH   5   6
ENDBRANCH   4   5
ENDBRANCH   3   4
ENDBRANCH   2   3
ENDBRANCH   1   2
BRANCH   1  10
ATOM     10  C   UNL     1      78.676  57.543  10.302  1.00  0.00     0.000 C 
BRANCH  10  11
ATOM     11  C   UNL     1      78.620  56.040  10.618  1.00  0.00    -0.000 C 
BRANCH  11  12
ATOM     12  C   UNL     1      79.828  55.269  10.059  1.00  0.00    -0.000 C 
BRANCH  12  13
ATOM     13  C   UNL     1      79.448  54.328   8.902  1.00  0.00    -0.000 C 
BRANCH  13  14
ATOM     14  C   UNL     1      79.205  55.025   7.548  1.00  0.00    -0.000 C 
BRANCH  14  15
ATOM     15  C   UNL     1      77.784  55.582   7.351  1.00  0.00    -0.003 C 
ATOM     16  C   UNL     1      77.767  56.940   6.651  1.00  0.00     0.004 C 
ENDBRANCH  14  15
ENDBRANCH  13  14
ENDBRANCH  12  13
ENDBRANCH  11  12
ENDBRANCH  10  11
ENDBRANCH   1  10
TORSDOF 12
ENDMDL
MODEL 9
REMARK VINA RESULT:    -4.794      3.922      4.499
REMARK INTER + INTRA:          -8.830
REMARK INTER:                  -8.339
REMARK INTRA:                  -0.491
REMARK UNBOUND:                -0.673
REMARK SMILES CCCCCCCCCCCCCC(=O)[O-]
REMARK SMILES IDX 8 1 9 2 10 3 11 4 12 5 13 6 14 7 15 8 16 9 7 10 6 11 5 12
REMARK SMILES IDX 4 13 3 14 2 15 1 16
REMARK H PARENT
REMARK Flexibility Score: inf
ROOT
ATOM      1  C   UNL     1      82.258  58.904  10.577  1.00  0.00     0.000 C 
ENDROOT
BRANCH   1   2
ATOM      2  C   UNL     1      83.642  59.464  10.943  1.00  0.00     0.000 C 
BRANCH   2   3
ATOM      3  C   UNL     1      84.666  59.307   9.808  1.00  0.00     0.000 C 
BRANCH   3   4
ATOM      4  C   UNL     1      86.094  59.222  10.367  1.00  0.00     0.000 C 
BRANCH   4   5
ATOM      5  C   UNL     1      86.545  57.776  10.639  1.00  0.00     0.006 C 
BRANCH   5   6
ATOM      6  C   UNL     1      88.032  57.511  10.351  1.00  0.00     0.053 C 
BRANCH   6   7
ATOM      7  C   UNL     1      88.222  56.463   9.298  1.00  0.00     0.041 C 
ATOM      8  O   UNL     1      87.688  55.329   9.429  1.00  0.00    -0.550 OA
ATOM      9  O   UNL     1      88.958  56.749   8.156  1.00  0.00    -0.550 OA
ENDBRANCH   6   7
ENDBRANCH   5   6
ENDBRANCH   4   5
ENDBRANCH   3   4
ENDBRANCH   2   3
ENDBRANCH   1   2
BRANCH   1  10
ATOM     10  C   UNL     1      81.186  60.003  10.470  1.00  0.00     0.000 C 
BRANCH  10  11
ATOM     11  C   UNL     1      79.790  59.435  10.170  1.00  0.00    -0.000 C 
BRANCH  11  12
ATOM     12  C   UNL     1      79.692  57.924  10.444  1.00  0.00    -0.000 C 
BRANCH  12  13
ATOM     13  C   UNL     1      78.367  57.315   9.950  1.00  0.00    -0.000 C 
BRANCH  13  14
ATOM     14  C   UNL     1      78.434  55.817   9.587  1.00  0.00    -0.000 C 
BRANCH  14  15
ATOM     15  C   UNL     1      78.017  55.480   8.144  1.00  0.00    -0.003 C 
ATOM     16  C   UNL     1      77.731  56.721   7.301  1.00  0.00     0.004 C 
ENDBRANCH  14  15
ENDBRANCH  13  14
ENDBRANCH  12  13
ENDBRANCH  11  12
ENDBRANCH  10  11
ENDBRANCH   1  10
TORSDOF 12
ENDMDL
