MODEL 1
REMARK VINA RESULT:    -4.820      0.000      0.000
REMARK INTER + INTRA:          -5.620
REMARK INTER:                  -5.524
REMARK INTRA:                  -0.096
REMARK UNBOUND:                -0.096
REMARK SMILES COc1cc(C(=O)[O-])ccc1O
REMARK SMILES IDX 5 1 9 2 4 3 10 4 3 5 11 6 6 7 7 8 8 9 2 10 1 11 12 12
REMARK H PARENT 12 13
REMARK Flexibility Score: inf
ROOT
ATOM      1  C   UNL     1      12.560 -21.948  18.594  1.00  0.00     0.001 A 
ATOM      2  C   UNL     1      11.531 -21.103  19.046  1.00  0.00     0.014 A 
ATOM      3  C   UNL     1      13.832 -21.404  18.348  1.00  0.00     0.060 A 
ATOM      4  C   UNL     1      11.772 -19.743  19.247  1.00  0.00     0.051 A 
ATOM      5  C   UNL     1      14.080 -20.030  18.550  1.00  0.00     0.161 A 
ATOM      6  C   UNL     1      13.036 -19.203  19.003  1.00  0.00     0.157 A 
ENDROOT
BRANCH   1   7
ATOM      7  C   UNL     1      12.308 -23.391  18.380  1.00  0.00     0.072 C 
ATOM      8  O   UNL     1      13.233 -24.232  18.533  1.00  0.00    -0.545 OA
ATOM      9  O   UNL     1      11.046 -23.838  18.007  1.00  0.00    -0.545 OA
ENDBRANCH   1   7
BRANCH   5  10
ATOM     10  O   UNL     1      15.341 -19.458  18.312  1.00  0.00    -0.493 OA
ATOM     11  C   UNL     1      16.517 -19.755  19.059  1.00  0.00     0.278 C 
ENDBRANCH   5  10
BRANCH   6  12
ATOM     12  O   UNL     1      13.238 -17.839  19.216  1.00  0.00    -0.504 OA
ATOM     13  H   UNL     1      12.474 -17.173  19.208  1.00  0.00     0.293 HD
ENDBRANCH   6  12
TORSDOF 3
ENDMDL
MODEL 2
REMARK VINA RESULT:    -4.695      1.666      3.128
REMARK INTER + INTRA:          -5.477
REMARK INTER:                  -5.399
REMARK INTRA:                  -0.079
REMARK UNBOUND:                -0.096
REMARK SMILES COc1cc(C(=O)[O-])ccc1O
REMARK SMILES IDX 5 1 9 2 4 3 10 4 3 5 11 6 6 7 7 8 8 9 2 10 1 11 12 12
REMARK H PARENT 12 13
REMARK Flexibility Score: inf
ROOT
ATOM      1  C   UNL     1      14.024 -21.557  19.188  1.00  0.00     0.001 A 
ATOM      2  C   UNL     1      15.047 -20.616  18.974  1.00  0.00     0.014 A 
ATOM      3  C   UNL     1      12.690 -21.179  18.961  1.00  0.00     0.060 A 
ATOM      4  C   UNL     1      14.738 -19.325  18.542  1.00  0.00     0.051 A 
ATOM      5  C   UNL     1      12.373 -19.876  18.525  1.00  0.00     0.161 A 
ATOM      6  C   UNL     1      13.411 -18.950  18.316  1.00  0.00     0.157 A 
ENDROOT
BRANCH   1   7
ATOM      7  C   UNL     1      14.348 -22.927  19.646  1.00  0.00     0.072 C 
ATOM      8  O   UNL     1      15.320 -23.130  20.421  1.00  0.00    -0.545 OA
ATOM      9  O   UNL     1      13.582 -24.009  19.228  1.00  0.00    -0.545 OA
ENDBRANCH   1   7
BRANCH   5  10
ATOM     10  O   UNL     1      11.049 -19.471  18.291  1.00  0.00    -0.493 OA
ATOM     11  C   UNL     1       9.898 -20.136  18.803  1.00  0.00     0.278 C 
ENDBRANCH   5  10
BRANCH   6  12
ATOM     12  O   UNL     1      13.143 -17.652  17.884  1.00  0.00    -0.504 OA
ATOM     13  H   UNL     1      12.198 -17.296  17.795  1.00  0.00     0.293 HD
ENDBRANCH   6  12
TORSDOF 3
ENDMDL
MODEL 3
REMARK VINA RESULT:    -4.589      1.455      4.376
REMARK INTER + INTRA:          -5.355
REMARK INTER:                  -5.259
REMARK INTRA:                  -0.096
REMARK UNBOUND:                -0.096
REMARK SMILES COc1cc(C(=O)[O-])ccc1O
REMARK SMILES IDX 5 1 9 2 4 3 10 4 3 5 11 6 6 7 7 8 8 9 2 10 1 11 12 12
REMARK H PARENT 12 13
REMARK Flexibility Score: inf
ROOT
ATOM      1  C   UNL     1      12.615 -19.884  19.408  1.00  0.00     0.001 A 
ATOM      2  C   UNL     1      11.210 -19.931  19.392  1.00  0.00     0.014 A 
ATOM      3  C   UNL     1      13.341 -21.067  19.193  1.00  0.00     0.060 A 
ATOM      4  C   UNL     1      10.548 -21.139  19.166  1.00  0.00     0.051 A 
ATOM      5  C   UNL     1      12.676 -22.290  18.965  1.00  0.00     0.161 A 
ATOM      6  C   UNL     1      11.270 -22.316  18.952  1.00  0.00     0.157 A 
ENDROOT
BRANCH   1   7
ATOM      7  C   UNL     1      13.321 -18.604  19.647  1.00  0.00     0.072 C 
ATOM      8  O   UNL     1      13.958 -18.041  18.718  1.00  0.00    -0.545 OA
ATOM      9  O   UNL     1      13.289 -18.006  20.901  1.00  0.00    -0.545 OA
ENDBRANCH   1   7
BRANCH   5  10
ATOM     10  O   UNL     1      13.376 -23.488  18.748  1.00  0.00    -0.493 OA
ATOM     11  C   UNL     1      13.998 -24.259  19.773  1.00  0.00     0.278 C 
ENDBRANCH   5  10
BRANCH   6  12
ATOM     12  O   UNL     1      10.572 -23.502  18.730  1.00  0.00    -0.504 OA
ATOM     13  H   UNL     1       9.748 -23.542  18.141  1.00  0.00     0.293 HD
ENDBRANCH   6  12
TORSDOF 3
ENDMDL
MODEL 4
REMARK VINA RESULT:    -4.535     12.750     14.733
REMARK INTER + INTRA:          -5.294
REMARK INTER:                  -5.233
REMARK INTRA:                  -0.061
REMARK UNBOUND:                -0.096
REMARK SMILES COc1cc(C(=O)[O-])ccc1O
REMARK SMILES IDX 5 1 9 2 4 3 10 4 3 5 11 6 6 7 7 8 8 9 2 10 1 11 12 12
REMARK H PARENT 12 13
REMARK Flexibility Score: inf
ROOT
ATOM      1  C   UNL     1      21.106 -15.744  30.288  1.00  0.00     0.001 A 
ATOM      2  C   UNL     1      20.129 -16.647  29.836  1.00  0.00     0.014 A 
ATOM      3  C   UNL     1      21.102 -14.429  29.792  1.00  0.00     0.060 A 
ATOM      4  C   UNL     1      19.169 -16.243  28.907  1.00  0.00     0.051 A 
ATOM      5  C   UNL     1      20.134 -14.015  28.852  1.00  0.00     0.161 A 
ATOM      6  C   UNL     1      19.165 -14.935  28.414  1.00  0.00     0.157 A 
ENDROOT
BRANCH   1   7
ATOM      7  C   UNL     1      22.126 -16.169  31.273  1.00  0.00     0.072 C 
ATOM      8  O   UNL     1      22.665 -17.304  31.187  1.00  0.00    -0.545 OA
ATOM      9  O   UNL     1      22.503 -15.321  32.308  1.00  0.00    -0.545 OA
ENDBRANCH   1   7
BRANCH   5  10
ATOM     10  O   UNL     1      20.107 -12.708  28.339  1.00  0.00    -0.493 OA
ATOM     11  C   UNL     1      20.699 -12.311  27.106  1.00  0.00     0.278 C 
ENDBRANCH   5  10
BRANCH   6  12
ATOM     12  O   UNL     1      18.190 -14.569  27.487  1.00  0.00    -0.504 OA
ATOM     13  H   UNL     1      18.420 -14.103  26.617  1.00  0.00     0.293 HD
ENDBRANCH   6  12
TORSDOF 3
ENDMDL
MODEL 5
REMARK VINA RESULT:    -4.416      1.584      2.212
REMARK INTER + INTRA:          -5.157
REMARK INTER:                  -5.056
REMARK INTRA:                  -0.101
REMARK UNBOUND:                -0.096
REMARK SMILES COc1cc(C(=O)[O-])ccc1O
REMARK SMILES IDX 5 1 9 2 4 3 10 4 3 5 11 6 6 7 7 8 8 9 2 10 1 11 12 12
REMARK H PARENT 12 13
REMARK Flexibility Score: inf
ROOT
ATOM      1  C   UNL     1      12.560 -20.602  18.991  1.00  0.00     0.001 A 
ATOM      2  C   UNL     1      12.469 -19.201  19.065  1.00  0.00     0.014 A 
ATOM      3  C   UNL     1      13.824 -21.197  18.833  1.00  0.00     0.060 A 
ATOM      4  C   UNL     1      13.619 -18.414  18.982  1.00  0.00     0.051 A 
ATOM      5  C   UNL     1      14.988 -20.405  18.748  1.00  0.00     0.161 A 
ATOM      6  C   UNL     1      14.875 -19.005  18.825  1.00  0.00     0.157 A 
ENDROOT
BRANCH   1   7
ATOM      7  C   UNL     1      11.343 -21.440  19.079  1.00  0.00     0.072 C 
ATOM      8  O   UNL     1      10.249 -20.943  19.454  1.00  0.00    -0.545 OA
ATOM      9  O   UNL     1      11.391 -22.789  18.746  1.00  0.00    -0.545 OA
ENDBRANCH   1   7
BRANCH   5  10
ATOM     10  O   UNL     1      16.263 -20.972  18.589  1.00  0.00    -0.493 OA
ATOM     11  C   UNL     1      17.078 -21.442  19.659  1.00  0.00     0.278 C 
ENDBRANCH   5  10
BRANCH   6  12
ATOM     12  O   UNL     1      15.999 -18.185  18.746  1.00  0.00    -0.504 OA
ATOM     13  H   UNL     1      15.975 -17.276  18.298  1.00  0.00     0.293 HD
ENDBRANCH   6  12
TORSDOF 3
ENDMDL
MODEL 6
REMARK VINA RESULT:    -4.290      1.913      2.249
REMARK INTER + INTRA:          -5.013
REMARK INTER:                  -4.923
REMARK INTRA:                  -0.089
REMARK UNBOUND:                -0.096
REMARK SMILES COc1cc(C(=O)[O-])ccc1O
REMARK SMILES IDX 5 1 9 2 4 3 10 4 3 5 11 6 6 7 7 8 8 9 2 10 1 11 12 12
REMARK H PARENT 12 13
REMARK Flexibility Score: inf
ROOT
ATOM      1  C   UNL     1      13.741 -22.904  19.936  1.00  0.00     0.001 A 
ATOM      2  C   UNL     1      12.425 -22.637  19.521  1.00  0.00     0.014 A 
ATOM      3  C   UNL     1      14.763 -22.006  19.586  1.00  0.00     0.060 A 
ATOM      4  C   UNL     1      12.140 -21.495  18.771  1.00  0.00     0.051 A 
ATOM      5  C   UNL     1      14.480 -20.851  18.827  1.00  0.00     0.161 A 
ATOM      6  C   UNL     1      13.156 -20.602  18.423  1.00  0.00     0.157 A 
ENDROOT
BRANCH   1   7
ATOM      7  C   UNL     1      14.047 -24.115  20.732  1.00  0.00     0.072 C 
ATOM      8  O   UNL     1      14.717 -25.057  20.234  1.00  0.00    -0.545 OA
ATOM      9  O   UNL     1      13.599 -24.227  22.043  1.00  0.00    -0.545 OA
ENDBRANCH   1   7
BRANCH   5  10
ATOM     10  O   UNL     1      15.481 -19.937  18.462  1.00  0.00    -0.493 OA
ATOM     11  C   UNL     1      16.278 -19.198  19.384  1.00  0.00     0.278 C 
ENDBRANCH   5  10
BRANCH   6  12
ATOM     12  O   UNL     1      12.831 -19.473  17.673  1.00  0.00    -0.504 OA
ATOM     13  H   UNL     1      13.314 -19.238  16.813  1.00  0.00     0.293 HD
ENDBRANCH   6  12
TORSDOF 3
ENDMDL
MODEL 7
REMARK VINA RESULT:    -4.286      2.512      4.226
REMARK INTER + INTRA:          -5.008
REMARK INTER:                  -4.912
REMARK INTRA:                  -0.097
REMARK UNBOUND:                -0.096
REMARK SMILES COc1cc(C(=O)[O-])ccc1O
REMARK SMILES IDX 5 1 9 2 4 3 10 4 3 5 11 6 6 7 7 8 8 9 2 10 1 11 12 12
REMARK H PARENT 12 13
REMARK Flexibility Score: inf
ROOT
ATOM      1  C   UNL     1      12.995 -21.458  18.929  1.00  0.00     0.001 A 
ATOM      2  C   UNL     1      12.662 -22.659  18.278  1.00  0.00     0.014 A 
ATOM      3  C   UNL     1      13.916 -21.488  19.990  1.00  0.00     0.060 A 
ATOM      4  C   UNL     1      13.239 -23.863  18.683  1.00  0.00     0.051 A 
ATOM      5  C   UNL     1      14.502 -22.703  20.402  1.00  0.00     0.161 A 
ATOM      6  C   UNL     1      14.155 -23.893  19.737  1.00  0.00     0.157 A 
ENDROOT
BRANCH   1   7
ATOM      7  C   UNL     1      12.385 -20.178  18.502  1.00  0.00     0.072 C 
ATOM      8  O   UNL     1      13.080 -19.296  17.932  1.00  0.00    -0.545 OA
ATOM      9  O   UNL     1      11.035 -19.932  18.726  1.00  0.00    -0.545 OA
ENDBRANCH   1   7
BRANCH   5  10
ATOM     10  O   UNL     1      15.424 -22.764  21.459  1.00  0.00    -0.493 OA
ATOM     11  C   UNL     1      15.076 -22.709  22.840  1.00  0.00     0.278 C 
ENDBRANCH   5  10
BRANCH   6  12
ATOM     12  O   UNL     1      14.710 -25.116  20.112  1.00  0.00    -0.504 OA
ATOM     13  H   UNL     1      14.172 -25.830  20.590  1.00  0.00     0.293 HD
ENDBRANCH   6  12
TORSDOF 3
ENDMDL
MODEL 8
REMARK VINA RESULT:    -4.283      2.161      5.176
REMARK INTER + INTRA:          -5.006
REMARK INTER:                  -4.907
REMARK INTRA:                  -0.099
REMARK UNBOUND:                -0.096
REMARK SMILES COc1cc(C(=O)[O-])ccc1O
REMARK SMILES IDX 5 1 9 2 4 3 10 4 3 5 11 6 6 7 7 8 8 9 2 10 1 11 12 12
REMARK H PARENT 12 13
REMARK Flexibility Score: inf
ROOT
ATOM      1  C   UNL     1      14.511 -18.570  20.087  1.00  0.00     0.001 A 
ATOM      2  C   UNL     1      15.404 -19.574  19.675  1.00  0.00     0.014 A 
ATOM      3  C   UNL     1      13.165 -18.648  19.690  1.00  0.00     0.060 A 
ATOM      4  C   UNL     1      14.959 -20.632  18.882  1.00  0.00     0.051 A 
ATOM      5  C   UNL     1      12.710 -19.716  18.889  1.00  0.00     0.161 A 
ATOM      6  C   UNL     1      13.621 -20.710  18.488  1.00  0.00     0.157 A 
ENDROOT
BRANCH   1   7
ATOM      7  C   UNL     1      14.980 -17.446  20.929  1.00  0.00     0.072 C 
ATOM      8  O   UNL     1      16.157 -17.013  20.821  1.00  0.00    -0.545 OA
ATOM      9  O   UNL     1      14.125 -16.851  21.850  1.00  0.00    -0.545 OA
ENDBRANCH   1   7
BRANCH   5  10
ATOM     10  O   UNL     1      11.372 -19.820  18.476  1.00  0.00    -0.493 OA
ATOM     11  C   UNL     1      10.332 -20.414  19.248  1.00  0.00     0.278 C 
ENDBRANCH   5  10
BRANCH   6  12
ATOM     12  O   UNL     1      13.214 -21.783  17.695  1.00  0.00    -0.504 OA
ATOM     13  H   UNL     1      13.871 -22.336  17.155  1.00  0.00     0.293 HD
ENDBRANCH   6  12
TORSDOF 3
ENDMDL
MODEL 9
REMARK VINA RESULT:    -4.279      3.114      4.226
REMARK INTER + INTRA:          -5.000
REMARK INTER:                  -4.921
REMARK INTRA:                  -0.079
REMARK UNBOUND:                -0.096
REMARK SMILES COc1cc(C(=O)[O-])ccc1O
REMARK SMILES IDX 5 1 9 2 4 3 10 4 3 5 11 6 6 7 7 8 8 9 2 10 1 11 12 12
REMARK H PARENT 12 13
REMARK Flexibility Score: inf
ROOT
ATOM      1  C   UNL     1      14.347 -22.872  21.291  1.00  0.00     0.001 A 
ATOM      2  C   UNL     1      13.973 -24.044  20.611  1.00  0.00     0.014 A 
ATOM      3  C   UNL     1      14.349 -21.650  20.598  1.00  0.00     0.060 A 
ATOM      4  C   UNL     1      13.609 -23.992  19.264  1.00  0.00     0.051 A 
ATOM      5  C   UNL     1      13.982 -21.593  19.237  1.00  0.00     0.161 A 
ATOM      6  C   UNL     1      13.611 -22.776  18.575  1.00  0.00     0.157 A 
ENDROOT
BRANCH   1   7
ATOM      7  C   UNL     1      14.733 -22.924  22.720  1.00  0.00     0.072 C 
ATOM      8  O   UNL     1      15.446 -22.016  23.224  1.00  0.00    -0.545 OA
ATOM      9  O   UNL     1      14.313 -23.976  23.525  1.00  0.00    -0.545 OA
ENDBRANCH   1   7
BRANCH   5  10
ATOM     10  O   UNL     1      13.976 -20.386  18.518  1.00  0.00    -0.493 OA
ATOM     11  C   UNL     1      12.839 -19.540  18.369  1.00  0.00     0.278 C 
ENDBRANCH   5  10
BRANCH   6  12
ATOM     12  O   UNL     1      13.241 -22.765  17.230  1.00  0.00    -0.504 OA
ATOM     13  H   UNL     1      13.584 -23.453  16.570  1.00  0.00     0.293 HD
ENDBRANCH   6  12
TORSDOF 3
ENDMDL
