MODEL 1
REMARK VINA RESULT:    -5.519      0.000      0.000
REMARK INTER + INTRA:          -9.265
REMARK INTER:                  -8.907
REMARK INTRA:                  -0.358
REMARK UNBOUND:                -0.358
REMARK SMILES CCCCCCCCCCCCO
REMARK SMILES IDX 7 1 6 2 5 3 4 4 3 5 2 6 1 7 8 8 9 9 10 10 11 11 12 12 13 13
REMARK H PARENT 13 14
REMARK Flexibility Score: inf
ROOT
ATOM      1  C   UNL     1      -2.710  -8.138   1.168  1.00  0.00     0.000 C 
ENDROOT
BRANCH   1   2
ATOM      2  C   UNL     1      -1.240  -8.588   1.112  1.00  0.00    -0.000 C 
BRANCH   2   3
ATOM      3  C   UNL     1      -0.635  -8.459  -0.293  1.00  0.00    -0.000 C 
BRANCH   3   4
ATOM      4  C   UNL     1       0.895  -8.589  -0.245  1.00  0.00    -0.000 C 
BRANCH   4   5
ATOM      5  C   UNL     1       1.603  -7.228  -0.153  1.00  0.00    -0.000 C 
BRANCH   5   6
ATOM      6  C   UNL     1       1.773  -6.556  -1.523  1.00  0.00    -0.003 C 
ATOM      7  C   UNL     1       1.655  -5.039  -1.409  1.00  0.00     0.004 C 
ENDBRANCH   5   6
ENDBRANCH   4   5
ENDBRANCH   3   4
ENDBRANCH   2   3
ENDBRANCH   1   2
BRANCH   1   8
ATOM      8  C   UNL     1      -3.114  -7.610   2.555  1.00  0.00     0.000 C 
BRANCH   8   9
ATOM      9  C   UNL     1      -4.054  -6.396   2.476  1.00  0.00     0.000 C 
BRANCH   9  10
ATOM     10  C   UNL     1      -3.514  -5.181   3.251  1.00  0.00     0.002 C 
BRANCH  10  11
ATOM     11  C   UNL     1      -4.614  -4.442   4.034  1.00  0.00     0.028 C 
BRANCH  11  12
ATOM     12  C   UNL     1      -5.540  -5.377   4.826  1.00  0.00     0.156 C 
BRANCH  12  13
ATOM     13  O   UNL     1      -4.974  -5.722   6.061  1.00  0.00    -0.396 OA
ATOM     14  H   UNL     1      -5.476  -6.512   6.393  1.00  0.00     0.210 HD
ENDBRANCH  12  13
ENDBRANCH  11  12
ENDBRANCH  10  11
ENDBRANCH   9  10
ENDBRANCH   8   9
ENDBRANCH   1   8
TORSDOF 11
ENDMDL
MODEL 2
REMARK VINA RESULT:    -5.350      3.577      7.185
REMARK INTER + INTRA:          -8.992
REMARK INTER:                  -8.589
REMARK INTRA:                  -0.403
REMARK UNBOUND:                -0.358
REMARK SMILES CCCCCCCCCCCCO
REMARK SMILES IDX 7 1 6 2 5 3 4 4 3 5 2 6 1 7 8 8 9 9 10 10 11 11 12 12 13 13
REMARK H PARENT 13 14
REMARK Flexibility Score: inf
ROOT
ATOM      1  C   UNL     1      -0.706  -8.478  -0.046  1.00  0.00     0.000 C 
ENDROOT
BRANCH   1   2
ATOM      2  C   UNL     1      -1.318  -8.508   1.365  1.00  0.00    -0.000 C 
BRANCH   2   3
ATOM      3  C   UNL     1      -2.838  -8.287   1.355  1.00  0.00    -0.000 C 
BRANCH   3   4
ATOM      4  C   UNL     1      -3.264  -7.359   2.501  1.00  0.00    -0.000 C 
BRANCH   4   5
ATOM      5  C   UNL     1      -4.482  -6.493   2.142  1.00  0.00    -0.000 C 
BRANCH   5   6
ATOM      6  C   UNL     1      -4.401  -5.081   2.737  1.00  0.00    -0.003 C 
ATOM      7  C   UNL     1      -3.497  -5.053   3.965  1.00  0.00     0.004 C 
ENDBRANCH   5   6
ENDBRANCH   4   5
ENDBRANCH   3   4
ENDBRANCH   2   3
ENDBRANCH   1   2
BRANCH   1   8
ATOM      8  C   UNL     1       0.805  -8.766  -0.041  1.00  0.00     0.000 C 
BRANCH   8   9
ATOM      9  C   UNL     1       1.650  -7.503  -0.270  1.00  0.00     0.000 C 
BRANCH   9  10
ATOM     10  C   UNL     1       1.037  -6.566  -1.326  1.00  0.00     0.002 C 
BRANCH  10  11
ATOM     11  C   UNL     1       1.988  -5.424  -1.728  1.00  0.00     0.028 C 
BRANCH  11  12
ATOM     12  C   UNL     1       3.136  -5.873  -2.645  1.00  0.00     0.156 C 
BRANCH  12  13
ATOM     13  O   UNL     1       2.651  -6.307  -3.887  1.00  0.00    -0.396 OA
ATOM     14  H   UNL     1       2.178  -5.534  -4.293  1.00  0.00     0.210 HD
ENDBRANCH  12  13
ENDBRANCH  11  12
ENDBRANCH  10  11
ENDBRANCH   9  10
ENDBRANCH   8   9
ENDBRANCH   1   8
TORSDOF 11
ENDMDL
MODEL 3
REMARK VINA RESULT:    -5.208      2.670      6.916
REMARK INTER + INTRA:          -8.763
REMARK INTER:                  -8.286
REMARK INTRA:                  -0.476
REMARK UNBOUND:                -0.358
REMARK SMILES CCCCCCCCCCCCO
REMARK SMILES IDX 7 1 6 2 5 3 4 4 3 5 2 6 1 7 8 8 9 9 10 10 11 11 12 12 13 13
REMARK H PARENT 13 14
REMARK Flexibility Score: inf
ROOT
ATOM      1  C   UNL     1      -1.184  -8.597   1.280  1.00  0.00     0.000 C 
ENDROOT
BRANCH   1   2
ATOM      2  C   UNL     1      -2.642  -8.120   1.173  1.00  0.00    -0.000 C 
BRANCH   2   3
ATOM      3  C   UNL     1      -3.216  -7.667   2.524  1.00  0.00    -0.000 C 
BRANCH   3   4
ATOM      4  C   UNL     1      -4.012  -6.363   2.372  1.00  0.00    -0.000 C 
BRANCH   4   5
ATOM      5  C   UNL     1      -3.543  -5.266   3.340  1.00  0.00    -0.000 C 
BRANCH   5   6
ATOM      6  C   UNL     1      -4.707  -4.452   3.923  1.00  0.00    -0.003 C 
ATOM      7  C   UNL     1      -5.495  -5.272   4.940  1.00  0.00     0.004 C 
ENDBRANCH   5   6
ENDBRANCH   4   5
ENDBRANCH   3   4
ENDBRANCH   2   3
ENDBRANCH   1   2
BRANCH   1   8
ATOM      8  C   UNL     1      -0.566  -8.920  -0.091  1.00  0.00     0.000 C 
BRANCH   8   9
ATOM      9  C   UNL     1       0.339  -7.793  -0.614  1.00  0.00     0.000 C 
BRANCH   9  10
ATOM     10  C   UNL     1       1.676  -7.711   0.144  1.00  0.00     0.002 C 
BRANCH  10  11
ATOM     11  C   UNL     1       2.469  -9.029   0.089  1.00  0.00     0.028 C 
BRANCH  11  12
ATOM     12  C   UNL     1       3.128  -9.407   1.423  1.00  0.00     0.156 C 
BRANCH  12  13
ATOM     13  O   UNL     1       2.225  -9.277   2.488  1.00  0.00    -0.396 OA
ATOM     14  H   UNL     1       2.717  -9.535   3.311  1.00  0.00     0.210 HD
ENDBRANCH  12  13
ENDBRANCH  11  12
ENDBRANCH  10  11
ENDBRANCH   9  10
ENDBRANCH   8   9
ENDBRANCH   1   8
TORSDOF 11
ENDMDL
MODEL 4
REMARK VINA RESULT:    -5.064      1.225      2.130
REMARK INTER + INTRA:          -8.530
REMARK INTER:                  -8.145
REMARK INTRA:                  -0.385
REMARK UNBOUND:                -0.358
REMARK SMILES CCCCCCCCCCCCO
REMARK SMILES IDX 7 1 6 2 5 3 4 4 3 5 2 6 1 7 8 8 9 9 10 10 11 11 12 12 13 13
REMARK H PARENT 13 14
REMARK Flexibility Score: inf
ROOT
ATOM      1  C   UNL     1      -0.935  -8.864   0.026  1.00  0.00     0.000 C 
ENDROOT
BRANCH   1   2
ATOM      2  C   UNL     1       0.185  -7.878  -0.347  1.00  0.00    -0.000 C 
BRANCH   2   3
ATOM      3  C   UNL     1       1.586  -8.439  -0.060  1.00  0.00    -0.000 C 
BRANCH   3   4
ATOM      4  C   UNL     1       2.662  -7.625  -0.794  1.00  0.00    -0.000 C 
BRANCH   4   5
ATOM      5  C   UNL     1       2.453  -6.108  -0.659  1.00  0.00    -0.000 C 
BRANCH   5   6
ATOM      6  C   UNL     1       2.419  -5.392  -2.017  1.00  0.00    -0.003 C 
ATOM      7  C   UNL     1       3.228  -6.155  -3.061  1.00  0.00     0.004 C 
ENDBRANCH   5   6
ENDBRANCH   4   5
ENDBRANCH   3   4
ENDBRANCH   2   3
ENDBRANCH   1   2
BRANCH   1   8
ATOM      8  C   UNL     1      -1.549  -8.567   1.404  1.00  0.00     0.000 C 
BRANCH   8   9
ATOM      9  C   UNL     1      -3.029  -8.164   1.319  1.00  0.00     0.000 C 
BRANCH   9  10
ATOM     10  C   UNL     1      -3.450  -7.219   2.460  1.00  0.00     0.002 C 
BRANCH  10  11
ATOM     11  C   UNL     1      -4.942  -7.348   2.814  1.00  0.00     0.028 C 
BRANCH  11  12
ATOM     12  C   UNL     1      -5.459  -6.222   3.723  1.00  0.00     0.156 C 
BRANCH  12  13
ATOM     13  O   UNL     1      -4.469  -5.806   4.624  1.00  0.00    -0.396 OA
ATOM     14  H   UNL     1      -4.705  -6.196   5.506  1.00  0.00     0.210 HD
ENDBRANCH  12  13
ENDBRANCH  11  12
ENDBRANCH  10  11
ENDBRANCH   9  10
ENDBRANCH   8   9
ENDBRANCH   1   8
TORSDOF 11
ENDMDL
MODEL 5
REMARK VINA RESULT:    -4.981      2.687      3.709
REMARK INTER + INTRA:          -8.397
REMARK INTER:                  -7.809
REMARK INTRA:                  -0.588
REMARK UNBOUND:                -0.358
REMARK SMILES CCCCCCCCCCCCO
REMARK SMILES IDX 7 1 6 2 5 3 4 4 3 5 2 6 1 7 8 8 9 9 10 10 11 11 12 12 13 13
REMARK H PARENT 13 14
REMARK Flexibility Score: inf
ROOT
ATOM      1  C   UNL     1       0.622  -9.475  -0.395  1.00  0.00     0.000 C 
ENDROOT
BRANCH   1   2
ATOM      2  C   UNL     1       2.152  -9.539  -0.251  1.00  0.00    -0.000 C 
BRANCH   2   3
ATOM      3  C   UNL     1       2.775  -8.168   0.052  1.00  0.00    -0.000 C 
BRANCH   3   4
ATOM      4  C   UNL     1       3.141  -7.435  -1.247  1.00  0.00    -0.000 C 
BRANCH   4   5
ATOM      5  C   UNL     1       3.599  -5.989  -1.002  1.00  0.00    -0.000 C 
BRANCH   5   6
ATOM      6  C   UNL     1       2.569  -4.953  -1.475  1.00  0.00    -0.003 C 
ATOM      7  C   UNL     1       1.335  -5.632  -2.060  1.00  0.00     0.004 C 
ENDBRANCH   5   6
ENDBRANCH   4   5
ENDBRANCH   3   4
ENDBRANCH   2   3
ENDBRANCH   1   2
BRANCH   1   8
ATOM      8  C   UNL     1      -0.013  -8.409   0.514  1.00  0.00     0.000 C 
BRANCH   8   9
ATOM      9  C   UNL     1      -1.545  -8.514   0.571  1.00  0.00     0.000 C 
BRANCH   9  10
ATOM     10  C   UNL     1      -2.085  -8.496   2.012  1.00  0.00     0.002 C 
BRANCH  10  11
ATOM     11  C   UNL     1      -3.553  -8.038   2.088  1.00  0.00     0.028 C 
BRANCH  11  12
ATOM     12  C   UNL     1      -4.551  -9.193   2.252  1.00  0.00     0.156 C 
BRANCH  12  13
ATOM     13  O   UNL     1      -3.886 -10.413   2.441  1.00  0.00    -0.396 OA
ATOM     14  H   UNL     1      -4.111 -10.983   1.660  1.00  0.00     0.210 HD
ENDBRANCH  12  13
ENDBRANCH  11  12
ENDBRANCH  10  11
ENDBRANCH   9  10
ENDBRANCH   8   9
ENDBRANCH   1   8
TORSDOF 11
ENDMDL
MODEL 6
REMARK VINA RESULT:    -4.978      2.567      3.016
REMARK INTER + INTRA:          -8.391
REMARK INTER:                  -8.072
REMARK INTRA:                  -0.319
REMARK UNBOUND:                -0.358
REMARK SMILES CCCCCCCCCCCCO
REMARK SMILES IDX 7 1 6 2 5 3 4 4 3 5 2 6 1 7 8 8 9 9 10 10 11 11 12 12 13 13
REMARK H PARENT 13 14
REMARK Flexibility Score: inf
ROOT
ATOM      1  C   UNL     1      -1.667  -8.534   0.253  1.00  0.00     0.000 C 
ENDROOT
BRANCH   1   2
ATOM      2  C   UNL     1      -0.334  -9.192  -0.137  1.00  0.00    -0.000 C 
BRANCH   2   3
ATOM      3  C   UNL     1       0.879  -8.306   0.183  1.00  0.00    -0.000 C 
BRANCH   3   4
ATOM      4  C   UNL     1       1.012  -7.169  -0.841  1.00  0.00    -0.000 C 
BRANCH   4   5
ATOM      5  C   UNL     1       2.214  -6.255  -0.559  1.00  0.00    -0.000 C 
BRANCH   5   6
ATOM      6  C   UNL     1       2.450  -5.224  -1.672  1.00  0.00    -0.003 C 
ATOM      7  C   UNL     1       3.194  -5.847  -2.849  1.00  0.00     0.004 C 
ENDBRANCH   5   6
ENDBRANCH   4   5
ENDBRANCH   3   4
ENDBRANCH   2   3
ENDBRANCH   1   2
BRANCH   1   8
ATOM      8  C   UNL     1      -1.891  -8.508   1.774  1.00  0.00     0.000 C 
BRANCH   8   9
ATOM      9  C   UNL     1      -3.178  -7.769   2.172  1.00  0.00     0.000 C 
BRANCH   9  10
ATOM     10  C   UNL     1      -4.417  -8.682   2.140  1.00  0.00     0.002 C 
BRANCH  10  11
ATOM     11  C   UNL     1      -5.737  -7.889   2.171  1.00  0.00     0.028 C 
BRANCH  11  12
ATOM     12  C   UNL     1      -6.744  -8.328   1.098  1.00  0.00     0.156 C 
BRANCH  12  13
ATOM     13  O   UNL     1      -7.723  -9.174   1.639  1.00  0.00    -0.396 OA
ATOM     14  H   UNL     1      -8.566  -8.650   1.667  1.00  0.00     0.210 HD
ENDBRANCH  12  13
ENDBRANCH  11  12
ENDBRANCH  10  11
ENDBRANCH   9  10
ENDBRANCH   8   9
ENDBRANCH   1   8
TORSDOF 11
ENDMDL
MODEL 7
REMARK VINA RESULT:    -4.849      3.158      7.021
REMARK INTER + INTRA:          -8.184
REMARK INTER:                  -7.661
REMARK INTRA:                  -0.523
REMARK UNBOUND:                -0.358
REMARK SMILES CCCCCCCCCCCCO
REMARK SMILES IDX 7 1 6 2 5 3 4 4 3 5 2 6 1 7 8 8 9 9 10 10 11 11 12 12 13 13
REMARK H PARENT 13 14
REMARK Flexibility Score: inf
ROOT
ATOM      1  C   UNL     1      -3.787  -7.458   1.913  1.00  0.00     0.000 C 
ENDROOT
BRANCH   1   2
ATOM      2  C   UNL     1      -5.095  -7.790   2.650  1.00  0.00    -0.000 C 
BRANCH   2   3
ATOM      3  C   UNL     1      -6.250  -6.857   2.253  1.00  0.00    -0.000 C 
BRANCH   3   4
ATOM      4  C   UNL     1      -6.037  -5.448   2.826  1.00  0.00    -0.000 C 
BRANCH   4   5
ATOM      5  C   UNL     1      -5.857  -5.449   4.352  1.00  0.00    -0.000 C 
BRANCH   5   6
ATOM      6  C   UNL     1      -4.424  -5.103   4.780  1.00  0.00    -0.003 C 
ATOM      7  C   UNL     1      -3.709  -4.293   3.703  1.00  0.00     0.004 C 
ENDBRANCH   5   6
ENDBRANCH   4   5
ENDBRANCH   3   4
ENDBRANCH   2   3
ENDBRANCH   1   2
BRANCH   1   8
ATOM      8  C   UNL     1      -2.998  -8.717   1.513  1.00  0.00     0.000 C 
BRANCH   8   9
ATOM      9  C   UNL     1      -1.483  -8.469   1.442  1.00  0.00     0.000 C 
BRANCH   9  10
ATOM     10  C   UNL     1      -0.894  -8.807   0.061  1.00  0.00     0.002 C 
BRANCH  10  11
ATOM     11  C   UNL     1       0.492  -8.175  -0.161  1.00  0.00     0.028 C 
BRANCH  11  12
ATOM     12  C   UNL     1       1.598  -9.202  -0.447  1.00  0.00     0.156 C 
BRANCH  12  13
ATOM     13  O   UNL     1       1.078 -10.502  -0.507  1.00  0.00    -0.396 OA
ATOM     14  H   UNL     1       1.467 -11.000   0.259  1.00  0.00     0.210 HD
ENDBRANCH  12  13
ENDBRANCH  11  12
ENDBRANCH  10  11
ENDBRANCH   9  10
ENDBRANCH   8   9
ENDBRANCH   1   8
TORSDOF 11
ENDMDL
MODEL 8
REMARK VINA RESULT:    -4.830      5.454      7.800
REMARK INTER + INTRA:          -8.152
REMARK INTER:                  -7.790
REMARK INTRA:                  -0.362
REMARK UNBOUND:                -0.358
REMARK SMILES CCCCCCCCCCCCO
REMARK SMILES IDX 7 1 6 2 5 3 4 4 3 5 2 6 1 7 8 8 9 9 10 10 11 11 12 12 13 13
REMARK H PARENT 13 14
REMARK Flexibility Score: inf
ROOT
ATOM      1  C   UNL     1      -5.756  -8.633   0.511  1.00  0.00     0.000 C 
ENDROOT
BRANCH   1   2
ATOM      2  C   UNL     1      -5.395  -8.381   1.984  1.00  0.00    -0.000 C 
BRANCH   2   3
ATOM      3  C   UNL     1      -4.046  -7.664   2.147  1.00  0.00    -0.000 C 
BRANCH   3   4
ATOM      4  C   UNL     1      -4.241  -6.143   2.230  1.00  0.00    -0.000 C 
BRANCH   4   5
ATOM      5  C   UNL     1      -3.613  -5.533   3.493  1.00  0.00    -0.000 C 
BRANCH   5   6
ATOM      6  C   UNL     1      -4.621  -4.731   4.328  1.00  0.00    -0.003 C 
ATOM      7  C   UNL     1      -5.690  -5.642   4.923  1.00  0.00     0.004 C 
ENDBRANCH   5   6
ENDBRANCH   4   5
ENDBRANCH   3   4
ENDBRANCH   2   3
ENDBRANCH   1   2
BRANCH   1   8
ATOM      8  C   UNL     1      -7.214  -9.092   0.330  1.00  0.00     0.000 C 
BRANCH   8   9
ATOM      9  C   UNL     1      -7.328 -10.409  -0.454  1.00  0.00     0.000 C 
BRANCH   9  10
ATOM     10  C   UNL     1      -8.774 -10.717  -0.882  1.00  0.00     0.002 C 
BRANCH  10  11
ATOM     11  C   UNL     1      -8.846 -11.739  -2.031  1.00  0.00     0.028 C 
BRANCH  11  12
ATOM     12  C   UNL     1      -9.873 -11.377  -3.113  1.00  0.00     0.156 C 
BRANCH  12  13
ATOM     13  O   UNL     1     -10.549 -10.192  -2.793  1.00  0.00    -0.396 OA
ATOM     14  H   UNL     1     -10.464  -9.594  -3.581  1.00  0.00     0.210 HD
ENDBRANCH  12  13
ENDBRANCH  11  12
ENDBRANCH  10  11
ENDBRANCH   9  10
ENDBRANCH   8   9
ENDBRANCH   1   8
TORSDOF 11
ENDMDL
MODEL 9
REMARK VINA RESULT:    -4.777      3.588      5.408
REMARK INTER + INTRA:          -8.068
REMARK INTER:                  -7.396
REMARK INTRA:                  -0.672
REMARK UNBOUND:                -0.358
REMARK SMILES CCCCCCCCCCCCO
REMARK SMILES IDX 7 1 6 2 5 3 4 4 3 5 2 6 1 7 8 8 9 9 10 10 11 11 12 12 13 13
REMARK H PARENT 13 14
REMARK Flexibility Score: inf
ROOT
ATOM      1  C   UNL     1      -3.553  -5.082   3.292  1.00  0.00     0.000 C 
ENDROOT
BRANCH   1   2
ATOM      2  C   UNL     1      -4.095  -6.174   2.355  1.00  0.00    -0.000 C 
BRANCH   2   3
ATOM      3  C   UNL     1      -3.100  -7.327   2.153  1.00  0.00    -0.000 C 
BRANCH   3   4
ATOM      4  C   UNL     1      -3.839  -8.656   1.935  1.00  0.00    -0.000 C 
BRANCH   4   5
ATOM      5  C   UNL     1      -5.347  -8.547   2.209  1.00  0.00    -0.000 C 
BRANCH   5   6
ATOM      6  C   UNL     1      -6.200  -9.011   1.019  1.00  0.00    -0.003 C 
ATOM      7  C   UNL     1      -7.441  -8.139   0.861  1.00  0.00     0.004 C 
ENDBRANCH   5   6
ENDBRANCH   4   5
ENDBRANCH   3   4
ENDBRANCH   2   3
ENDBRANCH   1   2
BRANCH   1   8
ATOM      8  C   UNL     1      -4.661  -4.412   4.123  1.00  0.00     0.000 C 
BRANCH   8   9
ATOM      9  C   UNL     1      -5.461  -5.419   4.966  1.00  0.00     0.000 C 
BRANCH   9  10
ATOM     10  C   UNL     1      -6.980  -5.284   4.762  1.00  0.00     0.002 C 
BRANCH  10  11
ATOM     11  C   UNL     1      -7.692  -4.697   5.994  1.00  0.00     0.028 C 
BRANCH  11  12
ATOM     12  C   UNL     1      -8.231  -5.763   6.960  1.00  0.00     0.156 C 
BRANCH  12  13
ATOM     13  O   UNL     1      -8.367  -5.248   8.257  1.00  0.00    -0.396 OA
ATOM     14  H   UNL     1      -7.488  -4.857   8.501  1.00  0.00     0.210 HD
ENDBRANCH  12  13
ENDBRANCH  11  12
ENDBRANCH  10  11
ENDBRANCH   9  10
ENDBRANCH   8   9
ENDBRANCH   1   8
TORSDOF 11
ENDMDL
