MODEL 1
REMARK VINA RESULT:    -5.547      0.000      0.000
REMARK INTER + INTRA:          -5.547
REMARK INTER:                  -5.547
REMARK INTRA:                   0.000
REMARK UNBOUND:                 0.000
REMARK SMILES CC1=CC(=O)[C@H]2C[C@@H]1C2(C)C
REMARK SMILES IDX 1 1 2 2 3 3 4 4 5 5 6 6 7 7 8 8 9 9 10 10 11 11
REMARK H PARENT
REMARK Flexibility Score: inf
ROOT
ATOM      1  C   UNL     1      12.254 -28.977  24.001  1.00  0.00     0.040 C 
ATOM      2  C   UNL     1      13.093 -29.834  23.108  1.00  0.00    -0.066 C 
ATOM      3  C   UNL     1      12.557 -30.571  22.094  1.00  0.00     0.047 C 
ATOM      4  C   UNL     1      13.522 -31.383  21.283  1.00  0.00     0.159 C 
ATOM      5  O   UNL     1      13.146 -32.136  20.348  1.00  0.00    -0.295 OA
ATOM      6  C   UNL     1      14.993 -31.230  21.672  1.00  0.00     0.067 C 
ATOM      7  C   UNL     1      15.185 -29.706  21.833  1.00  0.00     0.021 C 
ATOM      8  C   UNL     1      14.627 -29.876  23.264  1.00  0.00     0.022 C 
ATOM      9  C   UNL     1      15.112 -31.353  23.218  1.00  0.00    -0.019 C 
ATOM     10  C   UNL     1      16.582 -31.506  23.685  1.00  0.00     0.012 C 
ATOM     11  C   UNL     1      14.256 -32.431  23.941  1.00  0.00     0.012 C 
ENDROOT
TORSDOF 0
ENDMDL
MODEL 2
REMARK VINA RESULT:    -5.284      1.595      3.389
REMARK INTER + INTRA:          -5.284
REMARK INTER:                  -5.284
REMARK INTRA:                   0.000
REMARK UNBOUND:                 0.000
REMARK SMILES CC1=CC(=O)[C@H]2C[C@@H]1C2(C)C
REMARK SMILES IDX 1 1 2 2 3 3 4 4 5 5 6 6 7 7 8 8 9 9 10 10 11 11
REMARK H PARENT
REMARK Flexibility Score: inf
ROOT
ATOM      1  C   UNL     1      16.507 -29.487  21.994  1.00  0.00     0.040 C 
ATOM      2  C   UNL     1      15.429 -30.382  22.518  1.00  0.00    -0.066 C 
ATOM      3  C   UNL     1      15.694 -31.615  23.035  1.00  0.00     0.047 C 
ATOM      4  C   UNL     1      14.512 -32.399  23.520  1.00  0.00     0.159 C 
ATOM      5  O   UNL     1      14.622 -33.565  23.979  1.00  0.00    -0.295 OA
ATOM      6  C   UNL     1      13.166 -31.681  23.420  1.00  0.00     0.067 C 
ATOM      7  C   UNL     1      13.452 -30.264  23.965  1.00  0.00     0.021 C 
ATOM      8  C   UNL     1      13.959 -29.916  22.547  1.00  0.00     0.022 C 
ATOM      9  C   UNL     1      13.045 -31.052  22.002  1.00  0.00    -0.019 C 
ATOM     10  C   UNL     1      11.608 -30.557  21.698  1.00  0.00     0.012 C 
ATOM     11  C   UNL     1      13.545 -31.876  20.783  1.00  0.00     0.012 C 
ENDROOT
TORSDOF 0
ENDMDL
MODEL 3
REMARK VINA RESULT:    -5.212      1.544      3.001
REMARK INTER + INTRA:          -5.212
REMARK INTER:                  -5.212
REMARK INTRA:                   0.000
REMARK UNBOUND:                 0.000
REMARK SMILES CC1=CC(=O)[C@H]2C[C@@H]1C2(C)C
REMARK SMILES IDX 1 1 2 2 3 3 4 4 5 5 6 6 7 7 8 8 9 9 10 10 11 11
REMARK H PARENT
REMARK Flexibility Score: inf
ROOT
ATOM      1  C   UNL     1      13.533 -32.497  19.988  1.00  0.00     0.040 C 
ATOM      2  C   UNL     1      13.543 -31.749  21.283  1.00  0.00    -0.066 C 
ATOM      3  C   UNL     1      12.564 -30.861  21.619  1.00  0.00     0.047 C 
ATOM      4  C   UNL     1      12.709 -30.186  22.949  1.00  0.00     0.159 C 
ATOM      5  O   UNL     1      11.895 -29.316  23.353  1.00  0.00    -0.295 OA
ATOM      6  C   UNL     1      13.914 -30.630  23.780  1.00  0.00     0.067 C 
ATOM      7  C   UNL     1      13.899 -32.170  23.673  1.00  0.00     0.021 C 
ATOM      8  C   UNL     1      14.647 -31.997  22.332  1.00  0.00     0.022 C 
ATOM      9  C   UNL     1      15.172 -30.633  22.865  1.00  0.00    -0.019 C 
ATOM     10  C   UNL     1      16.487 -30.782  23.671  1.00  0.00     0.012 C 
ATOM     11  C   UNL     1      15.351 -29.468  21.850  1.00  0.00     0.012 C 
ENDROOT
TORSDOF 0
ENDMDL
MODEL 4
REMARK VINA RESULT:    -5.007      8.696     10.056
REMARK INTER + INTRA:          -5.007
REMARK INTER:                  -5.007
REMARK INTRA:                   0.000
REMARK UNBOUND:                 0.000
REMARK SMILES CC1=CC(=O)[C@H]2C[C@@H]1C2(C)C
REMARK SMILES IDX 1 1 2 2 3 3 4 4 5 5 6 6 7 7 8 8 9 9 10 10 11 11
REMARK H PARENT
REMARK Flexibility Score: inf
ROOT
ATOM      1  C   UNL     1      22.514 -24.102  23.020  1.00  0.00     0.040 C 
ATOM      2  C   UNL     1      22.677 -25.026  21.855  1.00  0.00    -0.066 C 
ATOM      3  C   UNL     1      23.145 -24.600  20.647  1.00  0.00     0.047 C 
ATOM      4  C   UNL     1      23.253 -25.640  19.574  1.00  0.00     0.159 C 
ATOM      5  O   UNL     1      23.631 -25.363  18.406  1.00  0.00    -0.295 OA
ATOM      6  C   UNL     1      22.874 -27.059  19.997  1.00  0.00     0.067 C 
ATOM      7  C   UNL     1      23.584 -27.250  21.356  1.00  0.00     0.021 C 
ATOM      8  C   UNL     1      22.372 -26.532  21.991  1.00  0.00     0.022 C 
ATOM      9  C   UNL     1      21.526 -27.001  20.772  1.00  0.00    -0.019 C 
ATOM     10  C   UNL     1      20.910 -28.407  20.987  1.00  0.00     0.012 C 
ATOM     11  C   UNL     1      20.411 -26.056  20.244  1.00  0.00     0.012 C 
ENDROOT
TORSDOF 0
ENDMDL
MODEL 5
REMARK VINA RESULT:    -4.971      1.023      3.110
REMARK INTER + INTRA:          -4.971
REMARK INTER:                  -4.971
REMARK INTRA:                   0.000
REMARK UNBOUND:                 0.000
REMARK SMILES CC1=CC(=O)[C@H]2C[C@@H]1C2(C)C
REMARK SMILES IDX 1 1 2 2 3 3 4 4 5 5 6 6 7 7 8 8 9 9 10 10 11 11
REMARK H PARENT
REMARK Flexibility Score: inf
ROOT
ATOM      1  C   UNL     1      16.689 -32.692  23.792  1.00  0.00     0.040 C 
ATOM      2  C   UNL     1      15.478 -32.174  23.084  1.00  0.00    -0.066 C 
ATOM      3  C   UNL     1      15.094 -32.642  21.862  1.00  0.00     0.047 C 
ATOM      4  C   UNL     1      13.860 -32.028  21.275  1.00  0.00     0.159 C 
ATOM      5  O   UNL     1      13.428 -32.344  20.136  1.00  0.00    -0.295 OA
ATOM      6  C   UNL     1      13.162 -30.992  22.157  1.00  0.00     0.067 C 
ATOM      7  C   UNL     1      13.130 -31.646  23.555  1.00  0.00     0.021 C 
ATOM      8  C   UNL     1      14.569 -31.116  23.741  1.00  0.00     0.022 C 
ATOM      9  C   UNL     1      14.234 -30.005  22.703  1.00  0.00    -0.019 C 
ATOM     10  C   UNL     1      13.600 -28.754  23.363  1.00  0.00     0.012 C 
ATOM     11  C   UNL     1      15.361 -29.532  21.743  1.00  0.00     0.012 C 
ENDROOT
TORSDOF 0
ENDMDL
MODEL 6
REMARK VINA RESULT:    -4.914      8.512     10.009
REMARK INTER + INTRA:          -4.914
REMARK INTER:                  -4.914
REMARK INTRA:                   0.000
REMARK UNBOUND:                 0.000
REMARK SMILES CC1=CC(=O)[C@H]2C[C@@H]1C2(C)C
REMARK SMILES IDX 1 1 2 2 3 3 4 4 5 5 6 6 7 7 8 8 9 9 10 10 11 11
REMARK H PARENT
REMARK Flexibility Score: inf
ROOT
ATOM      1  C   UNL     1      23.972 -24.258  19.493  1.00  0.00     0.040 C 
ATOM      2  C   UNL     1      22.923 -24.842  20.385  1.00  0.00    -0.066 C 
ATOM      3  C   UNL     1      22.612 -24.298  21.596  1.00  0.00     0.047 C 
ATOM      4  C   UNL     1      21.540 -24.994  22.380  1.00  0.00     0.159 C 
ATOM      5  O   UNL     1      21.194 -24.614  23.528  1.00  0.00    -0.295 OA
ATOM      6  C   UNL     1      20.898 -26.195  21.685  1.00  0.00     0.067 C 
ATOM      7  C   UNL     1      20.629 -25.701  20.247  1.00  0.00     0.021 C 
ATOM      8  C   UNL     1      22.099 -26.068  19.940  1.00  0.00     0.022 C 
ATOM      9  C   UNL     1      22.028 -27.095  21.107  1.00  0.00    -0.019 C 
ATOM     10  C   UNL     1      21.501 -28.477  20.644  1.00  0.00     0.012 C 
ATOM     11  C   UNL     1      23.304 -27.322  21.965  1.00  0.00     0.012 C 
ENDROOT
TORSDOF 0
ENDMDL
MODEL 7
REMARK VINA RESULT:    -4.910      8.601     10.014
REMARK INTER + INTRA:          -4.910
REMARK INTER:                  -4.910
REMARK INTRA:                   0.000
REMARK UNBOUND:                 0.000
REMARK SMILES CC1=CC(=O)[C@H]2C[C@@H]1C2(C)C
REMARK SMILES IDX 1 1 2 2 3 3 4 4 5 5 6 6 7 7 8 8 9 9 10 10 11 11
REMARK H PARENT
REMARK Flexibility Score: inf
ROOT
ATOM      1  C   UNL     1      23.529 -27.987  22.845  1.00  0.00     0.040 C 
ATOM      2  C   UNL     1      22.917 -27.123  21.788  1.00  0.00    -0.066 C 
ATOM      3  C   UNL     1      23.608 -26.730  20.680  1.00  0.00     0.047 C 
ATOM      4  C   UNL     1      22.864 -25.865  19.708  1.00  0.00     0.159 C 
ATOM      5  O   UNL     1      23.404 -25.404  18.670  1.00  0.00    -0.295 OA
ATOM      6  C   UNL     1      21.405 -25.583  20.067  1.00  0.00     0.067 C 
ATOM      7  C   UNL     1      20.846 -26.961  20.485  1.00  0.00     0.021 C 
ATOM      8  C   UNL     1      21.443 -26.681  21.883  1.00  0.00     0.022 C 
ATOM      9  C   UNL     1      21.335 -25.162  21.563  1.00  0.00    -0.019 C 
ATOM     10  C   UNL     1      19.953 -24.575  21.947  1.00  0.00     0.012 C 
ATOM     11  C   UNL     1      22.437 -24.215  22.116  1.00  0.00     0.012 C 
ENDROOT
TORSDOF 0
ENDMDL
MODEL 8
REMARK VINA RESULT:    -4.874      2.053      3.541
REMARK INTER + INTRA:          -4.874
REMARK INTER:                  -4.874
REMARK INTRA:                   0.000
REMARK UNBOUND:                 0.000
REMARK SMILES CC1=CC(=O)[C@H]2C[C@@H]1C2(C)C
REMARK SMILES IDX 1 1 2 2 3 3 4 4 5 5 6 6 7 7 8 8 9 9 10 10 11 11
REMARK H PARENT
REMARK Flexibility Score: inf
ROOT
ATOM      1  C   UNL     1      14.632 -33.463  20.569  1.00  0.00     0.040 C 
ATOM      2  C   UNL     1      15.011 -32.397  21.547  1.00  0.00    -0.066 C 
ATOM      3  C   UNL     1      16.153 -32.461  22.288  1.00  0.00     0.047 C 
ATOM      4  C   UNL     1      16.399 -31.320  23.228  1.00  0.00     0.159 C 
ATOM      5  O   UNL     1      17.395 -31.284  23.995  1.00  0.00    -0.295 OA
ATOM      6  C   UNL     1      15.355 -30.203  23.187  1.00  0.00     0.067 C 
ATOM      7  C   UNL     1      15.131 -29.950  21.680  1.00  0.00     0.021 C 
ATOM      8  C   UNL     1      14.140 -31.135  21.718  1.00  0.00     0.022 C 
ATOM      9  C   UNL     1      13.940 -30.846  23.234  1.00  0.00    -0.019 C 
ATOM     10  C   UNL     1      12.826 -29.800  23.493  1.00  0.00     0.012 C 
ATOM     11  C   UNL     1      13.707 -32.052  24.188  1.00  0.00     0.012 C 
ENDROOT
TORSDOF 0
ENDMDL
MODEL 9
REMARK VINA RESULT:    -4.850      4.190      5.544
REMARK INTER + INTRA:          -4.850
REMARK INTER:                  -4.850
REMARK INTRA:                   0.000
REMARK UNBOUND:                 0.000
REMARK SMILES CC1=CC(=O)[C@H]2C[C@@H]1C2(C)C
REMARK SMILES IDX 1 1 2 2 3 3 4 4 5 5 6 6 7 7 8 8 9 9 10 10 11 11
REMARK H PARENT
REMARK Flexibility Score: inf
ROOT
ATOM      1  C   UNL     1      19.349 -32.280  20.921  1.00  0.00     0.040 C 
ATOM      2  C   UNL     1      18.116 -33.113  20.774  1.00  0.00    -0.066 C 
ATOM      3  C   UNL     1      16.898 -32.698  21.226  1.00  0.00     0.047 C 
ATOM      4  C   UNL     1      15.754 -33.641  21.009  1.00  0.00     0.159 C 
ATOM      5  O   UNL     1      14.591 -33.390  21.418  1.00  0.00    -0.295 OA
ATOM      6  C   UNL     1      16.099 -34.925  20.255  1.00  0.00     0.067 C 
ATOM      7  C   UNL     1      16.963 -34.446  19.068  1.00  0.00     0.021 C 
ATOM      8  C   UNL     1      18.161 -34.471  20.043  1.00  0.00     0.022 C 
ATOM      9  C   UNL     1      17.388 -35.534  20.877  1.00  0.00    -0.019 C 
ATOM     10  C   UNL     1      17.655 -36.979  20.383  1.00  0.00     0.012 C 
ATOM     11  C   UNL     1      17.544 -35.510  22.424  1.00  0.00     0.012 C 
ENDROOT
TORSDOF 0
ENDMDL
