MODEL 1
REMARK VINA RESULT:    -4.209      0.000      0.000
REMARK INTER + INTRA:          -6.051
REMARK INTER:                  -5.686
REMARK INTRA:                  -0.365
REMARK UNBOUND:                -0.365
REMARK SMILES C[C@H](O)[C@@H](O)[C@@H](O)[C@@H](O)C=O
REMARK SMILES IDX 4 1 2 2 1 3 3 4 6 6 8 7 10 8 11 9 9 10 7 12 5 14
REMARK H PARENT 3 5 9 11 7 13 5 15
REMARK Flexibility Score: inf
ROOT
ATOM      1  C   UNL     1      87.917 -75.393   3.799  1.00  0.00     0.174 C 
ENDROOT
BRANCH   1   2
ATOM      2  C   UNL     1      87.060 -74.313   3.084  1.00  0.00     0.142 C 
ATOM      3  C   UNL     1      87.721 -72.928   3.139  1.00  0.00     0.041 C 
BRANCH   2   4
ATOM      4  O   UNL     1      85.750 -74.267   3.597  1.00  0.00    -0.391 OA
ATOM      5  H   UNL     1      85.806 -74.042   4.561  1.00  0.00     0.211 HD
ENDBRANCH   2   4
ENDBRANCH   1   2
BRANCH   1   6
ATOM      6  C   UNL     1      88.410 -76.499   2.820  1.00  0.00     0.181 C 
BRANCH   6   7
ATOM      7  C   UNL     1      87.773 -76.365   1.414  1.00  0.00     0.209 C 
BRANCH   7   8
ATOM      8  C   UNL     1      87.283 -77.699   0.917  1.00  0.00     0.258 C 
ATOM      9  O   UNL     1      86.299 -78.224   1.413  1.00  0.00    -0.300 OA
ENDBRANCH   7   8
BRANCH   7  10
ATOM     10  O   UNL     1      88.712 -75.851   0.505  1.00  0.00    -0.383 OA
ATOM     11  H   UNL     1      89.222 -76.625   0.151  1.00  0.00     0.211 HD
ENDBRANCH   7  10
ENDBRANCH   6   7
BRANCH   6  12
ATOM     12  O   UNL     1      88.144 -77.776   3.353  1.00  0.00    -0.387 OA
ATOM     13  H   UNL     1      88.737 -78.423   2.887  1.00  0.00     0.211 HD
ENDBRANCH   6  12
ENDBRANCH   1   6
BRANCH   1  14
ATOM     14  O   UNL     1      87.218 -75.943   4.889  1.00  0.00    -0.388 OA
ATOM     15  H   UNL     1      86.327 -75.508   4.933  1.00  0.00     0.211 HD
ENDBRANCH   1  14
TORSDOF 8
ENDMDL
MODEL 2
REMARK VINA RESULT:    -4.028      1.361      2.251
REMARK INTER + INTRA:          -5.806
REMARK INTER:                  -5.088
REMARK INTRA:                  -0.718
REMARK UNBOUND:                -0.365
REMARK SMILES C[C@H](O)[C@@H](O)[C@@H](O)[C@@H](O)C=O
REMARK SMILES IDX 4 1 2 2 1 3 3 4 6 6 8 7 10 8 11 9 9 10 7 12 5 14
REMARK H PARENT 3 5 9 11 7 13 5 15
REMARK Flexibility Score: inf
ROOT
ATOM      1  C   UNL     1      88.223 -74.699   3.304  1.00  0.00     0.174 C 
ENDROOT
BRANCH   1   2
ATOM      2  C   UNL     1      86.948 -73.875   2.980  1.00  0.00     0.142 C 
ATOM      3  C   UNL     1      87.182 -72.367   3.152  1.00  0.00     0.041 C 
BRANCH   2   4
ATOM      4  O   UNL     1      85.846 -74.305   3.741  1.00  0.00    -0.391 OA
ATOM      5  H   UNL     1      85.223 -74.785   3.136  1.00  0.00     0.211 HD
ENDBRANCH   2   4
ENDBRANCH   1   2
BRANCH   1   6
ATOM      6  C   UNL     1      88.064 -76.204   2.936  1.00  0.00     0.181 C 
BRANCH   6   7
ATOM      7  C   UNL     1      88.130 -77.123   4.181  1.00  0.00     0.209 C 
BRANCH   7   8
ATOM      8  C   UNL     1      87.941 -78.565   3.795  1.00  0.00     0.258 C 
ATOM      9  O   UNL     1      87.526 -78.863   2.686  1.00  0.00    -0.300 OA
ENDBRANCH   7   8
BRANCH   7  10
ATOM     10  O   UNL     1      87.136 -76.759   5.105  1.00  0.00    -0.383 OA
ATOM     11  H   UNL     1      86.483 -76.194   4.616  1.00  0.00     0.211 HD
ENDBRANCH   7  10
ENDBRANCH   6   7
BRANCH   6  12
ATOM     12  O   UNL     1      89.044 -76.585   1.999  1.00  0.00    -0.387 OA
ATOM     13  H   UNL     1      88.617 -77.210   1.357  1.00  0.00     0.211 HD
ENDBRANCH   6  12
ENDBRANCH   1   6
BRANCH   1  14
ATOM     14  O   UNL     1      88.595 -74.535   4.651  1.00  0.00    -0.388 OA
ATOM     15  H   UNL     1      89.586 -74.513   4.695  1.00  0.00     0.211 HD
ENDBRANCH   1  14
TORSDOF 8
ENDMDL
MODEL 3
REMARK VINA RESULT:    -4.025      1.403      2.121
REMARK INTER + INTRA:          -5.802
REMARK INTER:                  -5.060
REMARK INTRA:                  -0.741
REMARK UNBOUND:                -0.365
REMARK SMILES C[C@H](O)[C@@H](O)[C@@H](O)[C@@H](O)C=O
REMARK SMILES IDX 4 1 2 2 1 3 3 4 6 6 8 7 10 8 11 9 9 10 7 12 5 14
REMARK H PARENT 3 5 9 11 7 13 5 15
REMARK Flexibility Score: inf
ROOT
ATOM      1  C   UNL     1      88.162 -75.763   3.355  1.00  0.00     0.174 C 
ENDROOT
BRANCH   1   2
ATOM      2  C   UNL     1      87.847 -74.318   3.828  1.00  0.00     0.142 C 
ATOM      3  C   UNL     1      86.432 -73.880   3.426  1.00  0.00     0.041 C 
BRANCH   2   4
ATOM      4  O   UNL     1      88.810 -73.401   3.369  1.00  0.00    -0.391 OA
ATOM      5  H   UNL     1      89.442 -73.221   4.112  1.00  0.00     0.211 HD
ENDBRANCH   2   4
ENDBRANCH   1   2
BRANCH   1   6
ATOM      6  C   UNL     1      87.768 -75.997   1.866  1.00  0.00     0.181 C 
BRANCH   6   7
ATOM      7  C   UNL     1      87.519 -77.494   1.554  1.00  0.00     0.209 C 
BRANCH   7   8
ATOM      8  C   UNL     1      87.774 -77.789   0.100  1.00  0.00     0.258 C 
ATOM      9  O   UNL     1      87.213 -77.146  -0.773  1.00  0.00    -0.300 OA
ENDBRANCH   7   8
BRANCH   7  10
ATOM     10  O   UNL     1      86.196 -77.841   1.869  1.00  0.00    -0.383 OA
ATOM     11  H   UNL     1      85.619 -77.444   1.166  1.00  0.00     0.211 HD
ENDBRANCH   7  10
ENDBRANCH   6   7
BRANCH   6  12
ATOM     12  O   UNL     1      88.760 -75.481   1.011  1.00  0.00    -0.387 OA
ATOM     13  H   UNL     1      88.867 -76.120   0.258  1.00  0.00     0.211 HD
ENDBRANCH   6  12
ENDBRANCH   1   6
BRANCH   1  14
ATOM     14  O   UNL     1      87.558 -76.710   4.203  1.00  0.00    -0.388 OA
ATOM     15  H   UNL     1      86.894 -76.235   4.768  1.00  0.00     0.211 HD
ENDBRANCH   1  14
TORSDOF 8
ENDMDL
MODEL 4
REMARK VINA RESULT:    -3.818     16.946     18.033
REMARK INTER + INTRA:          -5.522
REMARK INTER:                  -4.906
REMARK INTRA:                  -0.616
REMARK UNBOUND:                -0.365
REMARK SMILES C[C@H](O)[C@@H](O)[C@@H](O)[C@@H](O)C=O
REMARK SMILES IDX 4 1 2 2 1 3 3 4 6 6 8 7 10 8 11 9 9 10 7 12 5 14
REMARK H PARENT 3 5 9 11 7 13 5 15
REMARK Flexibility Score: inf
ROOT
ATOM      1  C   UNL     1      74.016 -68.090  10.498  1.00  0.00     0.174 C 
ENDROOT
BRANCH   1   2
ATOM      2  C   UNL     1      72.582 -68.141  11.091  1.00  0.00     0.142 C 
ATOM      3  C   UNL     1      72.593 -68.055  12.624  1.00  0.00     0.041 C 
BRANCH   2   4
ATOM      4  O   UNL     1      71.881 -69.280  10.654  1.00  0.00    -0.391 OA
ATOM      5  H   UNL     1      70.940 -69.015  10.486  1.00  0.00     0.211 HD
ENDBRANCH   2   4
ENDBRANCH   1   2
BRANCH   1   6
ATOM      6  C   UNL     1      75.089 -67.746  11.572  1.00  0.00     0.181 C 
BRANCH   6   7
ATOM      7  C   UNL     1      75.733 -66.357  11.335  1.00  0.00     0.209 C 
BRANCH   7   8
ATOM      8  C   UNL     1      76.779 -66.065  12.378  1.00  0.00     0.258 C 
ATOM      9  O   UNL     1      77.884 -66.581  12.313  1.00  0.00    -0.300 OA
ENDBRANCH   7   8
BRANCH   7  10
ATOM     10  O   UNL     1      74.750 -65.355  11.376  1.00  0.00    -0.383 OA
ATOM     11  H   UNL     1      75.059 -64.677  12.031  1.00  0.00     0.211 HD
ENDBRANCH   7  10
ENDBRANCH   6   7
BRANCH   6  12
ATOM     12  O   UNL     1      76.084 -68.743  11.606  1.00  0.00    -0.387 OA
ATOM     13  H   UNL     1      75.906 -69.316  12.397  1.00  0.00     0.211 HD
ENDBRANCH   6  12
ENDBRANCH   1   6
BRANCH   1  14
ATOM     14  O   UNL     1      74.074 -67.200   9.409  1.00  0.00    -0.388 OA
ATOM     15  H   UNL     1      74.095 -66.276   9.769  1.00  0.00     0.211 HD
ENDBRANCH   1  14
TORSDOF 8
ENDMDL
MODEL 5
REMARK VINA RESULT:    -3.810      1.448      2.260
REMARK INTER + INTRA:          -5.511
REMARK INTER:                  -5.329
REMARK INTRA:                  -0.182
REMARK UNBOUND:                -0.365
REMARK SMILES C[C@H](O)[C@@H](O)[C@@H](O)[C@@H](O)C=O
REMARK SMILES IDX 4 1 2 2 1 3 3 4 6 6 8 7 10 8 11 9 9 10 7 12 5 14
REMARK H PARENT 3 5 9 11 7 13 5 15
REMARK Flexibility Score: inf
ROOT
ATOM      1  C   UNL     1      88.090 -75.466   2.578  1.00  0.00     0.174 C 
ENDROOT
BRANCH   1   2
ATOM      2  C   UNL     1      87.805 -74.281   3.540  1.00  0.00     0.142 C 
ATOM      3  C   UNL     1      86.378 -73.741   3.377  1.00  0.00     0.041 C 
BRANCH   2   4
ATOM      4  O   UNL     1      88.754 -73.253   3.390  1.00  0.00    -0.391 OA
ATOM      5  H   UNL     1      88.339 -72.526   2.857  1.00  0.00     0.211 HD
ENDBRANCH   2   4
ENDBRANCH   1   2
BRANCH   1   6
ATOM      6  C   UNL     1      88.391 -76.789   3.342  1.00  0.00     0.181 C 
BRANCH   6   7
ATOM      7  C   UNL     1      88.230 -78.037   2.440  1.00  0.00     0.209 C 
BRANCH   7   8
ATOM      8  C   UNL     1      86.992 -77.928   1.589  1.00  0.00     0.258 C 
ATOM      9  O   UNL     1      86.104 -78.761   1.675  1.00  0.00    -0.300 OA
ENDBRANCH   7   8
BRANCH   7  10
ATOM     10  O   UNL     1      88.147 -79.197   3.227  1.00  0.00    -0.383 OA
ATOM     11  H   UNL     1      87.230 -79.559   3.110  1.00  0.00     0.211 HD
ENDBRANCH   7  10
ENDBRANCH   6   7
BRANCH   6  12
ATOM     12  O   UNL     1      87.562 -76.898   4.475  1.00  0.00    -0.387 OA
ATOM     13  H   UNL     1      88.059 -76.521   5.248  1.00  0.00     0.211 HD
ENDBRANCH   6  12
ENDBRANCH   1   6
BRANCH   1  14
ATOM     14  O   UNL     1      89.125 -75.143   1.680  1.00  0.00    -0.388 OA
ATOM     15  H   UNL     1      88.728 -74.637   0.925  1.00  0.00     0.211 HD
ENDBRANCH   1  14
TORSDOF 8
ENDMDL
MODEL 6
REMARK VINA RESULT:    -3.725     15.130     16.573
REMARK INTER + INTRA:          -5.396
REMARK INTER:                  -4.678
REMARK INTRA:                  -0.718
REMARK UNBOUND:                -0.365
REMARK SMILES C[C@H](O)[C@@H](O)[C@@H](O)[C@@H](O)C=O
REMARK SMILES IDX 4 1 2 2 1 3 3 4 6 6 8 7 10 8 11 9 9 10 7 12 5 14
REMARK H PARENT 3 5 9 11 7 13 5 15
REMARK Flexibility Score: inf
ROOT
ATOM      1  C   UNL     1      72.025 -70.596   1.484  1.00  0.00     0.174 C 
ENDROOT
BRANCH   1   2
ATOM      2  C   UNL     1      73.048 -70.237   0.373  1.00  0.00     0.142 C 
ATOM      3  C   UNL     1      73.500 -71.476  -0.412  1.00  0.00     0.041 C 
BRANCH   2   4
ATOM      4  O   UNL     1      74.153 -69.538   0.893  1.00  0.00    -0.391 OA
ATOM      5  H   UNL     1      74.802 -70.204   1.241  1.00  0.00     0.211 HD
ENDBRANCH   2   4
ENDBRANCH   1   2
BRANCH   1   6
ATOM      6  C   UNL     1      72.369 -69.922   2.846  1.00  0.00     0.181 C 
BRANCH   6   7
ATOM      7  C   UNL     1      71.677 -70.627   4.040  1.00  0.00     0.209 C 
BRANCH   7   8
ATOM      8  C   UNL     1      71.364 -69.642   5.135  1.00  0.00     0.258 C 
ATOM      9  O   UNL     1      72.256 -69.000   5.668  1.00  0.00    -0.300 OA
ENDBRANCH   7   8
BRANCH   7  10
ATOM     10  O   UNL     1      72.507 -71.637   4.552  1.00  0.00    -0.383 OA
ATOM     11  H   UNL     1      73.440 -71.312   4.471  1.00  0.00     0.211 HD
ENDBRANCH   7  10
ENDBRANCH   6   7
BRANCH   6  12
ATOM     12  O   UNL     1      72.019 -68.558   2.818  1.00  0.00    -0.387 OA
ATOM     13  H   UNL     1      72.841 -68.044   2.604  1.00  0.00     0.211 HD
ENDBRANCH   6  12
ENDBRANCH   1   6
BRANCH   1  14
ATOM     14  O   UNL     1      71.902 -71.992   1.617  1.00  0.00    -0.388 OA
ATOM     15  H   UNL     1      71.013 -72.185   2.015  1.00  0.00     0.211 HD
ENDBRANCH   1  14
TORSDOF 8
ENDMDL
MODEL 7
REMARK VINA RESULT:    -3.717     17.012     17.972
REMARK INTER + INTRA:          -5.385
REMARK INTER:                  -4.886
REMARK INTRA:                  -0.499
REMARK UNBOUND:                -0.365
REMARK SMILES C[C@H](O)[C@@H](O)[C@@H](O)[C@@H](O)C=O
REMARK SMILES IDX 4 1 2 2 1 3 3 4 6 6 8 7 10 8 11 9 9 10 7 12 5 14
REMARK H PARENT 3 5 9 11 7 13 5 15
REMARK Flexibility Score: inf
ROOT
ATOM      1  C   UNL     1      75.394 -66.227  11.917  1.00  0.00     0.174 C 
ENDROOT
BRANCH   1   2
ATOM      2  C   UNL     1      76.861 -66.483  12.359  1.00  0.00     0.142 C 
ATOM      3  C   UNL     1      76.961 -66.788  13.860  1.00  0.00     0.041 C 
BRANCH   2   4
ATOM      4  O   UNL     1      77.703 -65.413  12.004  1.00  0.00    -0.391 OA
ATOM      5  H   UNL     1      78.051 -65.586  11.091  1.00  0.00     0.211 HD
ENDBRANCH   2   4
ENDBRANCH   1   2
BRANCH   1   6
ATOM      6  C   UNL     1      74.804 -67.419  11.107  1.00  0.00     0.181 C 
BRANCH   6   7
ATOM      7  C   UNL     1      73.307 -67.660  11.425  1.00  0.00     0.209 C 
BRANCH   7   8
ATOM      8  C   UNL     1      72.630 -68.392  10.297  1.00  0.00     0.258 C 
ATOM      9  O   UNL     1      73.254 -68.706   9.296  1.00  0.00    -0.300 OA
ENDBRANCH   7   8
BRANCH   7  10
ATOM     10  O   UNL     1      72.654 -66.435  11.636  1.00  0.00    -0.383 OA
ATOM     11  H   UNL     1      72.649 -66.276  12.615  1.00  0.00     0.211 HD
ENDBRANCH   7  10
ENDBRANCH   6   7
BRANCH   6  12
ATOM     12  O   UNL     1      75.547 -68.591  11.352  1.00  0.00    -0.387 OA
ATOM     13  H   UNL     1      75.004 -69.360  11.035  1.00  0.00     0.211 HD
ENDBRANCH   6  12
ENDBRANCH   1   6
BRANCH   1  14
ATOM     14  O   UNL     1      75.292 -65.018  11.202  1.00  0.00    -0.388 OA
ATOM     15  H   UNL     1      74.432 -64.589  11.448  1.00  0.00     0.211 HD
ENDBRANCH   1  14
TORSDOF 8
ENDMDL
MODEL 8
REMARK VINA RESULT:    -3.712     16.978     17.947
REMARK INTER + INTRA:          -5.379
REMARK INTER:                  -4.683
REMARK INTRA:                  -0.697
REMARK UNBOUND:                -0.365
REMARK SMILES C[C@H](O)[C@@H](O)[C@@H](O)[C@@H](O)C=O
REMARK SMILES IDX 4 1 2 2 1 3 3 4 6 6 8 7 10 8 11 9 9 10 7 12 5 14
REMARK H PARENT 3 5 9 11 7 13 5 15
REMARK Flexibility Score: inf
ROOT
ATOM      1  C   UNL     1      76.419 -67.316  12.313  1.00  0.00     0.174 C 
ENDROOT
BRANCH   1   2
ATOM      2  C   UNL     1      77.369 -66.269  12.954  1.00  0.00     0.142 C 
ATOM      3  C   UNL     1      76.693 -65.511  14.106  1.00  0.00     0.041 C 
BRANCH   2   4
ATOM      4  O   UNL     1      77.880 -65.377  11.994  1.00  0.00    -0.391 OA
ATOM      5  H   UNL     1      77.254 -64.610  11.923  1.00  0.00     0.211 HD
ENDBRANCH   2   4
ENDBRANCH   1   2
BRANCH   1   6
ATOM      6  C   UNL     1      75.098 -66.676  11.792  1.00  0.00     0.181 C 
BRANCH   6   7
ATOM      7  C   UNL     1      74.168 -67.717  11.120  1.00  0.00     0.209 C 
BRANCH   7   8
ATOM      8  C   UNL     1      72.960 -67.989  11.977  1.00  0.00     0.258 C 
ATOM      9  O   UNL     1      73.077 -68.162  13.180  1.00  0.00    -0.300 OA
ENDBRANCH   7   8
BRANCH   7  10
ATOM     10  O   UNL     1      74.860 -68.919  10.906  1.00  0.00    -0.383 OA
ATOM     11  H   UNL     1      74.527 -69.567  11.581  1.00  0.00     0.211 HD
ENDBRANCH   7  10
ENDBRANCH   6   7
BRANCH   6  12
ATOM     12  O   UNL     1      75.384 -65.629  10.894  1.00  0.00    -0.387 OA
ATOM     13  H   UNL     1      75.780 -64.885  11.419  1.00  0.00     0.211 HD
ENDBRANCH   6  12
ENDBRANCH   1   6
BRANCH   1  14
ATOM     14  O   UNL     1      76.162 -68.371  13.209  1.00  0.00    -0.388 OA
ATOM     15  H   UNL     1      75.587 -68.021  13.938  1.00  0.00     0.211 HD
ENDBRANCH   1  14
TORSDOF 8
ENDMDL
MODEL 9
REMARK VINA RESULT:    -3.673     15.134     16.387
REMARK INTER + INTRA:          -5.327
REMARK INTER:                  -4.556
REMARK INTRA:                  -0.770
REMARK UNBOUND:                -0.365
REMARK SMILES C[C@H](O)[C@@H](O)[C@@H](O)[C@@H](O)C=O
REMARK SMILES IDX 4 1 2 2 1 3 3 4 6 6 8 7 10 8 11 9 9 10 7 12 5 14
REMARK H PARENT 3 5 9 11 7 13 5 15
REMARK Flexibility Score: inf
ROOT
ATOM      1  C   UNL     1      71.362 -69.552   2.180  1.00  0.00     0.174 C 
ENDROOT
BRANCH   1   2
ATOM      2  C   UNL     1      71.573 -69.904   3.677  1.00  0.00     0.142 C 
ATOM      3  C   UNL     1      71.762 -68.649   4.540  1.00  0.00     0.041 C 
BRANCH   2   4
ATOM      4  O   UNL     1      72.641 -70.803   3.852  1.00  0.00    -0.391 OA
ATOM      5  H   UNL     1      72.980 -71.056   2.955  1.00  0.00     0.211 HD
ENDBRANCH   2   4
ENDBRANCH   1   2
BRANCH   1   6
ATOM      6  C   UNL     1      71.708 -70.743   1.238  1.00  0.00     0.181 C 
BRANCH   6   7
ATOM      7  C   UNL     1      72.972 -70.467   0.385  1.00  0.00     0.209 C 
BRANCH   7   8
ATOM      8  C   UNL     1      73.214 -71.586  -0.593  1.00  0.00     0.258 C 
ATOM      9  O   UNL     1      72.797 -72.711  -0.367  1.00  0.00    -0.300 OA
ENDBRANCH   7   8
BRANCH   7  10
ATOM     10  O   UNL     1      74.096 -70.329   1.215  1.00  0.00    -0.383 OA
ATOM     11  H   UNL     1      74.892 -70.528   0.657  1.00  0.00     0.211 HD
ENDBRANCH   7  10
ENDBRANCH   6   7
BRANCH   6  12
ATOM     12  O   UNL     1      70.614 -71.039   0.402  1.00  0.00    -0.387 OA
ATOM     13  H   UNL     1      70.844 -71.856  -0.114  1.00  0.00     0.211 HD
ENDBRANCH   6  12
ENDBRANCH   1   6
BRANCH   1  14
ATOM     14  O   UNL     1      72.082 -68.394   1.833  1.00  0.00    -0.388 OA
ATOM     15  H   UNL     1      71.823 -67.672   2.463  1.00  0.00     0.211 HD
ENDBRANCH   1  14
TORSDOF 8
ENDMDL
