MODEL 1
REMARK VINA RESULT:    -4.014      0.000      0.000
REMARK INTER + INTRA:          -6.437
REMARK INTER:                  -6.125
REMARK INTRA:                  -0.311
REMARK UNBOUND:                -0.311
REMARK SMILES CC1=CCC[C@H](C)C(=O)C[C@H](C(C)C)C(=O)C1
REMARK SMILES IDX 8 1 9 2 6 3 7 4 5 5 4 6 3 7 2 8 1 9 10 11 11 12 15 13 16 14
REMARK SMILES IDX 17 15 12 17 13 18 14 19
REMARK H PARENT
REMARK Flexibility Score: 70.00
ROOT
ATOM      1  C   UNL     1      -6.472   3.187  16.070  1.00  0.00     0.136 C 
ATOM      2  O   UNL     1      -7.053   2.367  16.766  1.00  0.00    -0.299 OA
ENDROOT
BRANCH   1   3
ATOM      3  C   UNL     1      -7.212   4.409  15.568  1.00  0.00     0.053 C 
ATOM      4  C   UNL     1      -8.582   3.989  15.027  1.00  0.00     0.016 C 
BRANCH   3   5
ATOM      5  C   UNL     1      -7.380   5.487  16.666  1.00  0.00     0.015 C 
BRANCH   5   6
ATOM      6  C   UNL     1      -6.054   6.084  17.160  1.00  0.00     0.028 C 
BRANCH   6   7
ATOM      7  C   UNL     1      -5.464   7.032  16.143  1.00  0.00    -0.028 C 
ATOM      8  C   UNL     1      -4.363   6.785  15.399  1.00  0.00    -0.070 CG0
ATOM      9  C   UNL     1      -3.907   7.846  14.431  1.00  0.00     0.039 C 
ATOM     10  G   UNL     1      -3.568   5.497  15.508  1.00  0.00     0.000 G0
ENDBRANCH   6   7
ENDBRANCH   5   6
ENDBRANCH   3   5
ENDBRANCH   1   3
BRANCH   1  11
ATOM     11  C   UNL     1      -5.039   2.931  15.671  1.00  0.00     0.087 C 
BRANCH  11  12
ATOM     12  C   UNL     1      -4.688   3.415  14.238  1.00  0.00     0.066 C 
BRANCH  12  13
ATOM     13  C   UNL     1      -3.681   4.560  14.298  1.00  0.00     0.140 C 
ATOM     14  O   UNL     1      -3.000   4.796  13.310  1.00  0.00    -0.299 OA
BRANCH  13  15
ATOM     15  C   UNL     1      -3.549   5.488  15.490  1.00  0.00     0.106 CG0
ATOM     16  G   UNL     1      -4.358   6.767  15.380  1.00  0.00     0.000 G0
ENDBRANCH  13  15
ENDBRANCH  12  13
BRANCH  12  17
ATOM     17  C   UNL     1      -4.131   2.248  13.361  1.00  0.00    -0.006 C 
ATOM     18  C   UNL     1      -2.958   1.517  14.041  1.00  0.00     0.008 C 
ATOM     19  C   UNL     1      -5.226   1.220  13.025  1.00  0.00     0.008 C 
ENDBRANCH  12  17
ENDBRANCH  11  12
ENDBRANCH   1  11
TORSDOF 1
ENDMDL
MODEL 2
REMARK VINA RESULT:    -3.743      1.237      1.610
REMARK INTER + INTRA:          -6.024
REMARK INTER:                  -5.654
REMARK INTRA:                  -0.371
REMARK UNBOUND:                -0.311
REMARK SMILES CC1=CCC[C@H](C)C(=O)C[C@H](C(C)C)C(=O)C1
REMARK SMILES IDX 8 1 9 2 6 3 7 4 5 5 4 6 3 7 2 8 1 9 10 11 11 12 15 13 16 14
REMARK SMILES IDX 17 15 12 17 13 18 14 19
REMARK H PARENT
REMARK Flexibility Score: 70.00
ROOT
ATOM      1  C   UNL     1      -6.459   3.317  15.668  1.00  0.00     0.136 C 
ATOM      2  O   UNL     1      -7.029   3.036  16.713  1.00  0.00    -0.299 OA
ENDROOT
BRANCH   1   3
ATOM      3  C   UNL     1      -7.103   4.282  14.694  1.00  0.00     0.053 C 
ATOM      4  C   UNL     1      -8.611   4.021  14.640  1.00  0.00     0.016 C 
BRANCH   3   5
ATOM      5  C   UNL     1      -6.830   5.760  15.064  1.00  0.00     0.015 C 
BRANCH   5   6
ATOM      6  C   UNL     1      -5.819   6.456  14.141  1.00  0.00     0.028 C 
BRANCH   6   7
ATOM      7  C   UNL     1      -4.601   6.915  14.906  1.00  0.00    -0.028 C 
ATOM      8  C   UNL     1      -3.352   6.426  14.741  1.00  0.00    -0.070 CG0
ATOM      9  C   UNL     1      -2.247   6.996  15.594  1.00  0.00     0.039 C 
ATOM     10  G   UNL     1      -3.022   5.328  13.747  1.00  0.00     0.000 G0
ENDBRANCH   6   7
ENDBRANCH   5   6
ENDBRANCH   3   5
ENDBRANCH   1   3
BRANCH   1  11
ATOM     11  C   UNL     1      -5.148   2.646  15.341  1.00  0.00     0.087 C 
BRANCH  11  12
ATOM     12  C   UNL     1      -4.512   3.124  14.008  1.00  0.00     0.066 C 
BRANCH  12  13
ATOM     13  C   UNL     1      -3.233   3.911  14.283  1.00  0.00     0.140 C 
ATOM     14  O   UNL     1      -2.323   3.360  14.886  1.00  0.00    -0.299 OA
BRANCH  13  15
ATOM     15  C   UNL     1      -2.993   5.313  13.759  1.00  0.00     0.106 CG0
ATOM     16  G   UNL     1      -3.336   6.416  14.744  1.00  0.00     0.000 G0
ENDBRANCH  13  15
ENDBRANCH  12  13
BRANCH  12  17
ATOM     17  C   UNL     1      -4.214   1.922  13.053  1.00  0.00    -0.006 C 
ATOM     18  C   UNL     1      -5.362   0.895  13.035  1.00  0.00     0.008 C 
ATOM     19  C   UNL     1      -3.952   2.396  11.612  1.00  0.00     0.008 C 
ENDBRANCH  12  17
ENDBRANCH  11  12
ENDBRANCH   1  11
TORSDOF 1
ENDMDL
MODEL 3
REMARK VINA RESULT:    -3.653      6.587      9.191
REMARK INTER + INTRA:          -5.886
REMARK INTER:                  -5.359
REMARK INTRA:                  -0.527
REMARK UNBOUND:                -0.311
REMARK SMILES CC1=CCC[C@H](C)C(=O)C[C@H](C(C)C)C(=O)C1
REMARK SMILES IDX 8 1 9 2 6 3 7 4 5 5 4 6 3 7 2 8 1 9 10 11 11 12 15 13 16 14
REMARK SMILES IDX 17 15 12 17 13 18 14 19
REMARK H PARENT
REMARK Flexibility Score: 70.00
ROOT
ATOM      1  C   UNL     1      -1.859  -0.867  11.759  1.00  0.00     0.136 C 
ATOM      2  O   UNL     1      -1.074  -0.393  12.568  1.00  0.00    -0.299 OA
ENDROOT
BRANCH   1   3
ATOM      3  C   UNL     1      -2.937   0.007  11.153  1.00  0.00     0.053 C 
ATOM      4  C   UNL     1      -3.849   0.537  12.263  1.00  0.00     0.016 C 
BRANCH   3   5
ATOM      5  C   UNL     1      -2.349   1.185  10.338  1.00  0.00     0.015 C 
BRANCH   5   6
ATOM      6  C   UNL     1      -2.094   0.853   8.860  1.00  0.00     0.028 C 
BRANCH   6   7
ATOM      7  C   UNL     1      -0.684   0.361   8.643  1.00  0.00    -0.028 C 
ATOM      8  C   UNL     1      -0.351  -0.876   8.211  1.00  0.00    -0.070 CG0
ATOM      9  C   UNL     1       1.111  -1.205   8.052  1.00  0.00     0.039 C 
ATOM     10  G   UNL     1      -1.384  -1.942   7.893  1.00  0.00     0.000 G0
ENDBRANCH   6   7
ENDBRANCH   5   6
ENDBRANCH   3   5
ENDBRANCH   1   3
BRANCH   1  11
ATOM     11  C   UNL     1      -1.776  -2.337  11.428  1.00  0.00     0.087 C 
BRANCH  11  12
ATOM     12  C   UNL     1      -2.561  -2.739  10.150  1.00  0.00     0.066 C 
BRANCH  12  13
ATOM     13  C   UNL     1      -1.599  -2.977   8.990  1.00  0.00     0.140 C 
ATOM     14  O   UNL     1      -1.042  -4.062   8.901  1.00  0.00    -0.299 OA
BRANCH  13  15
ATOM     15  C   UNL     1      -1.371  -1.969   7.881  1.00  0.00     0.106 CG0
ATOM     16  G   UNL     1      -0.361  -0.887   8.216  1.00  0.00     0.000 G0
ENDBRANCH  13  15
ENDBRANCH  12  13
BRANCH  12  17
ATOM     17  C   UNL     1      -3.440  -4.009  10.395  1.00  0.00    -0.006 C 
ATOM     18  C   UNL     1      -3.902  -4.123  11.860  1.00  0.00     0.008 C 
ATOM     19  C   UNL     1      -4.679  -4.023   9.483  1.00  0.00     0.008 C 
ENDBRANCH  12  17
ENDBRANCH  11  12
ENDBRANCH   1  11
TORSDOF 1
ENDMDL
MODEL 4
REMARK VINA RESULT:    -3.586      2.916      5.966
REMARK INTER + INTRA:          -5.785
REMARK INTER:                  -5.645
REMARK INTRA:                  -0.140
REMARK UNBOUND:                -0.311
REMARK SMILES CC1=CCC[C@H](C)C(=O)C[C@H](C(C)C)C(=O)C1
REMARK SMILES IDX 8 1 9 2 6 3 7 4 5 5 4 6 3 7 2 8 1 9 10 11 11 12 15 13 16 14
REMARK SMILES IDX 17 15 12 17 13 18 14 19
REMARK H PARENT
REMARK Flexibility Score: 70.00
ROOT
ATOM      1  C   UNL     1      -2.567   2.751  15.604  1.00  0.00     0.136 C 
ATOM      2  O   UNL     1      -2.562   3.917  15.973  1.00  0.00    -0.299 OA
ENDROOT
BRANCH   1   3
ATOM      3  C   UNL     1      -1.260   2.002  15.456  1.00  0.00     0.053 C 
ATOM      4  C   UNL     1      -0.860   1.402  16.807  1.00  0.00     0.016 C 
BRANCH   3   5
ATOM      5  C   UNL     1      -1.337   0.890  14.381  1.00  0.00     0.015 C 
BRANCH   5   6
ATOM      6  C   UNL     1      -1.298   1.416  12.939  1.00  0.00     0.028 C 
BRANCH   6   7
ATOM      7  C   UNL     1      -1.939   0.441  11.981  1.00  0.00    -0.028 C 
ATOM      8  C   UNL     1      -3.148   0.606  11.400  1.00  0.00    -0.070 CG0
ATOM      9  C   UNL     1      -3.642  -0.471  10.468  1.00  0.00     0.039 C 
ATOM     10  G   UNL     1      -4.025   1.818  11.654  1.00  0.00     0.000 G0
ENDBRANCH   6   7
ENDBRANCH   5   6
ENDBRANCH   3   5
ENDBRANCH   1   3
BRANCH   1  11
ATOM     11  C   UNL     1      -3.879   2.099  15.242  1.00  0.00     0.087 C 
BRANCH  11  12
ATOM     12  C   UNL     1      -4.621   2.789  14.066  1.00  0.00     0.066 C 
BRANCH  12  13
ATOM     13  C   UNL     1      -4.841   1.799  12.925  1.00  0.00     0.140 C 
ATOM     14  O   UNL     1      -5.755   0.991  13.016  1.00  0.00    -0.299 OA
BRANCH  13  15
ATOM     15  C   UNL     1      -4.045   1.829  11.635  1.00  0.00     0.106 CG0
ATOM     16  G   UNL     1      -3.162   0.614  11.416  1.00  0.00     0.000 G0
ENDBRANCH  13  15
ENDBRANCH  12  13
BRANCH  12  17
ATOM     17  C   UNL     1      -5.985   3.396  14.527  1.00  0.00    -0.006 C 
ATOM     18  C   UNL     1      -6.399   2.902  15.927  1.00  0.00     0.008 C 
ATOM     19  C   UNL     1      -5.944   4.935  14.539  1.00  0.00     0.008 C 
ENDBRANCH  12  17
ENDBRANCH  11  12
ENDBRANCH   1  11
TORSDOF 1
ENDMDL
MODEL 5
REMARK VINA RESULT:    -3.576      6.207      8.281
REMARK INTER + INTRA:          -5.769
REMARK INTER:                  -5.459
REMARK INTRA:                  -0.309
REMARK UNBOUND:                -0.311
REMARK SMILES CC1=CCC[C@H](C)C(=O)C[C@H](C(C)C)C(=O)C1
REMARK SMILES IDX 8 1 9 2 6 3 7 4 5 5 4 6 3 7 2 8 1 9 10 11 11 12 15 13 16 14
REMARK SMILES IDX 17 15 12 17 13 18 14 19
REMARK H PARENT
REMARK Flexibility Score: 70.00
ROOT
ATOM      1  C   UNL     1      -3.989  -0.377   9.970  1.00  0.00     0.136 C 
ATOM      2  O   UNL     1      -4.357  -0.792   8.880  1.00  0.00    -0.299 OA
ENDROOT
BRANCH   1   3
ATOM      3  C   UNL     1      -4.000   1.110  10.253  1.00  0.00     0.053 C 
ATOM      4  C   UNL     1      -4.202   1.342  11.754  1.00  0.00     0.016 C 
BRANCH   3   5
ATOM      5  C   UNL     1      -2.705   1.810   9.776  1.00  0.00     0.015 C 
BRANCH   5   6
ATOM      6  C   UNL     1      -1.525   1.667  10.749  1.00  0.00     0.028 C 
BRANCH   6   7
ATOM      7  C   UNL     1      -0.356   0.968  10.097  1.00  0.00    -0.028 C 
ATOM      8  C   UNL     1       0.100  -0.258  10.435  1.00  0.00    -0.070 CG0
ATOM      9  C   UNL     1       1.285  -0.808   9.683  1.00  0.00     0.039 C 
ATOM     10  G   UNL     1      -0.520  -1.092  11.541  1.00  0.00     0.000 G0
ENDBRANCH   6   7
ENDBRANCH   5   6
ENDBRANCH   3   5
ENDBRANCH   1   3
BRANCH   1  11
ATOM     11  C   UNL     1      -3.472  -1.357  10.994  1.00  0.00     0.087 C 
BRANCH  11  12
ATOM     12  C   UNL     1      -2.532  -2.444  10.406  1.00  0.00     0.066 C 
BRANCH  12  13
ATOM     13  C   UNL     1      -1.169  -2.395  11.093  1.00  0.00     0.140 C 
ATOM     14  O   UNL     1      -0.535  -3.432  11.215  1.00  0.00    -0.299 OA
BRANCH  13  15
ATOM     15  C   UNL     1      -0.515  -1.104  11.547  1.00  0.00     0.106 CG0
ATOM     16  G   UNL     1       0.080  -0.275  10.423  1.00  0.00     0.000 G0
ENDBRANCH  13  15
ENDBRANCH  12  13
BRANCH  12  17
ATOM     17  C   UNL     1      -3.154  -3.872  10.539  1.00  0.00    -0.006 C 
ATOM     18  C   UNL     1      -4.109  -3.980  11.743  1.00  0.00     0.008 C 
ATOM     19  C   UNL     1      -3.916  -4.277   9.265  1.00  0.00     0.008 C 
ENDBRANCH  12  17
ENDBRANCH  11  12
ENDBRANCH   1  11
TORSDOF 1
ENDMDL
MODEL 6
REMARK VINA RESULT:    -3.505      5.678      8.550
REMARK INTER + INTRA:          -5.661
REMARK INTER:                  -5.693
REMARK INTRA:                   0.032
REMARK UNBOUND:                -0.311
REMARK SMILES CC1=CCC[C@H](C)C(=O)C[C@H](C(C)C)C(=O)C1
REMARK SMILES IDX 8 1 9 2 6 3 7 4 5 5 4 6 3 7 2 8 1 9 10 11 11 12 15 13 16 14
REMARK SMILES IDX 17 15 12 17 13 18 14 19
REMARK H PARENT
REMARK Flexibility Score: 70.00
ROOT
ATOM      1  C   UNL     1      -3.425  -2.165   9.700  1.00  0.00     0.136 C 
ATOM      2  O   UNL     1      -3.188  -2.438   8.532  1.00  0.00    -0.299 OA
ENDROOT
BRANCH   1   3
ATOM      3  C   UNL     1      -3.349  -3.245  10.758  1.00  0.00     0.053 C 
ATOM      4  C   UNL     1      -4.273  -4.404  10.371  1.00  0.00     0.016 C 
BRANCH   3   5
ATOM      5  C   UNL     1      -1.905  -3.762  10.968  1.00  0.00     0.015 C 
BRANCH   5   6
ATOM      6  C   UNL     1      -1.270  -3.315  12.293  1.00  0.00     0.028 C 
BRANCH   6   7
ATOM      7  C   UNL     1       0.083  -2.686  12.070  1.00  0.00    -0.028 C 
ATOM      8  C   UNL     1       0.335  -1.358  12.089  1.00  0.00    -0.070 CG0
ATOM      9  C   UNL     1       1.748  -0.898  11.841  1.00  0.00     0.039 C 
ATOM     10  G   UNL     1      -0.744  -0.320  12.337  1.00  0.00     0.000 G0
ENDBRANCH   6   7
ENDBRANCH   5   6
ENDBRANCH   3   5
ENDBRANCH   1   3
BRANCH   1  11
ATOM     11  C   UNL     1      -3.851  -0.761  10.056  1.00  0.00     0.087 C 
BRANCH  11  12
ATOM     12  C   UNL     1      -3.225  -0.228  11.373  1.00  0.00     0.066 C 
BRANCH  12  13
ATOM     13  C   UNL     1      -1.714  -0.080  11.219  1.00  0.00     0.140 C 
ATOM     14  O   UNL     1      -1.268   0.318  10.152  1.00  0.00    -0.299 OA
BRANCH  13  15
ATOM     15  C   UNL     1      -0.738  -0.306  12.357  1.00  0.00     0.106 CG0
ATOM     16  G   UNL     1       0.321  -1.356  12.074  1.00  0.00     0.000 G0
ENDBRANCH  13  15
ENDBRANCH  12  13
BRANCH  12  17
ATOM     17  C   UNL     1      -3.863   1.134  11.799  1.00  0.00    -0.006 C 
ATOM     18  C   UNL     1      -4.405   1.925  10.593  1.00  0.00     0.008 C 
ATOM     19  C   UNL     1      -5.004   0.932  12.811  1.00  0.00     0.008 C 
ENDBRANCH  12  17
ENDBRANCH  11  12
ENDBRANCH   1  11
TORSDOF 1
ENDMDL
MODEL 7
REMARK VINA RESULT:    -3.422      2.069      4.358
REMARK INTER + INTRA:          -5.534
REMARK INTER:                  -5.143
REMARK INTRA:                  -0.391
REMARK UNBOUND:                -0.311
REMARK SMILES CC1=CCC[C@H](C)C(=O)C[C@H](C(C)C)C(=O)C1
REMARK SMILES IDX 8 1 9 2 6 3 7 4 5 5 4 6 3 7 2 8 1 9 10 11 11 12 15 13 16 14
REMARK SMILES IDX 17 15 12 17 13 18 14 19
REMARK H PARENT
REMARK Flexibility Score: 70.00
ROOT
ATOM      1  C   UNL     1      -6.943   4.664  14.514  1.00  0.00     0.136 C 
ATOM      2  O   UNL     1      -8.124   4.366  14.405  1.00  0.00    -0.299 OA
ENDROOT
BRANCH   1   3
ATOM      3  C   UNL     1      -5.999   3.746  15.262  1.00  0.00     0.053 C 
ATOM      4  C   UNL     1      -6.646   3.315  16.581  1.00  0.00     0.016 C 
BRANCH   3   5
ATOM      5  C   UNL     1      -5.606   2.502  14.429  1.00  0.00     0.015 C 
BRANCH   5   6
ATOM      6  C   UNL     1      -4.144   2.505  13.958  1.00  0.00     0.028 C 
BRANCH   6   7
ATOM      7  C   UNL     1      -4.025   3.012  12.541  1.00  0.00    -0.028 C 
ATOM      8  C   UNL     1      -3.548   4.227  12.189  1.00  0.00    -0.070 CG0
ATOM      9  C   UNL     1      -3.502   4.576  10.724  1.00  0.00     0.039 C 
ATOM     10  G   UNL     1      -3.073   5.250  13.205  1.00  0.00     0.000 G0
ENDBRANCH   6   7
ENDBRANCH   5   6
ENDBRANCH   3   5
ENDBRANCH   1   3
BRANCH   1  11
ATOM     11  C   UNL     1      -6.460   5.979  13.951  1.00  0.00     0.087 C 
BRANCH  11  12
ATOM     12  C   UNL     1      -5.087   6.438  14.512  1.00  0.00     0.066 C 
BRANCH  12  13
ATOM     13  C   UNL     1      -4.033   6.426  13.407  1.00  0.00     0.140 C 
ATOM     14  O   UNL     1      -3.905   7.421  12.707  1.00  0.00    -0.299 OA
BRANCH  13  15
ATOM     15  C   UNL     1      -3.066   5.278  13.195  1.00  0.00     0.106 CG0
ATOM     16  G   UNL     1      -3.547   4.228  12.211  1.00  0.00     0.000 G0
ENDBRANCH  13  15
ENDBRANCH  12  13
BRANCH  12  17
ATOM     17  C   UNL     1      -5.179   7.857  15.159  1.00  0.00    -0.006 C 
ATOM     18  C   UNL     1      -6.302   8.709  14.535  1.00  0.00     0.008 C 
ATOM     19  C   UNL     1      -5.408   7.773  16.678  1.00  0.00     0.008 C 
ENDBRANCH  12  17
ENDBRANCH  11  12
ENDBRANCH   1  11
TORSDOF 1
ENDMDL
MODEL 8
REMARK VINA RESULT:    -3.420      1.729      4.223
REMARK INTER + INTRA:          -5.531
REMARK INTER:                  -5.321
REMARK INTRA:                  -0.210
REMARK UNBOUND:                -0.311
REMARK SMILES CC1=CCC[C@H](C)C(=O)C[C@H](C(C)C)C(=O)C1
REMARK SMILES IDX 8 1 9 2 6 3 7 4 5 5 4 6 3 7 2 8 1 9 10 11 11 12 15 13 16 14
REMARK SMILES IDX 17 15 12 17 13 18 14 19
REMARK H PARENT
REMARK Flexibility Score: 70.00
ROOT
ATOM      1  C   UNL     1      -6.715   5.477  16.375  1.00  0.00     0.136 C 
ATOM      2  O   UNL     1      -6.500   5.929  17.491  1.00  0.00    -0.299 OA
ENDROOT
BRANCH   1   3
ATOM      3  C   UNL     1      -7.290   4.085  16.224  1.00  0.00     0.053 C 
ATOM      4  C   UNL     1      -8.134   4.018  14.947  1.00  0.00     0.016 C 
BRANCH   3   5
ATOM      5  C   UNL     1      -6.193   2.994  16.194  1.00  0.00     0.015 C 
BRANCH   5   6
ATOM      6  C   UNL     1      -5.845   2.498  14.783  1.00  0.00     0.028 C 
BRANCH   6   7
ATOM      7  C   UNL     1      -4.363   2.594  14.516  1.00  0.00    -0.028 C 
ATOM      8  C   UNL     1      -3.751   3.629  13.900  1.00  0.00    -0.070 CG0
ATOM      9  C   UNL     1      -2.257   3.561  13.709  1.00  0.00     0.039 C 
ATOM     10  G   UNL     1      -4.503   4.843  13.386  1.00  0.00     0.000 G0
ENDBRANCH   6   7
ENDBRANCH   5   6
ENDBRANCH   3   5
ENDBRANCH   1   3
BRANCH   1  11
ATOM     11  C   UNL     1      -6.342   6.297  15.164  1.00  0.00     0.087 C 
BRANCH  11  12
ATOM     12  C   UNL     1      -4.868   6.785  15.164  1.00  0.00     0.066 C 
BRANCH  12  13
ATOM     13  C   UNL     1      -4.103   6.162  13.999  1.00  0.00     0.140 C 
ATOM     14  O   UNL     1      -3.083   6.708  13.607  1.00  0.00    -0.299 OA
BRANCH  13  15
ATOM     15  C   UNL     1      -4.492   4.841  13.364  1.00  0.00     0.106 CG0
ATOM     16  G   UNL     1      -3.735   3.641  13.902  1.00  0.00     0.000 G0
ENDBRANCH  13  15
ENDBRANCH  12  13
BRANCH  12  17
ATOM     17  C   UNL     1      -4.781   8.344  15.098  1.00  0.00    -0.006 C 
ATOM     18  C   UNL     1      -6.124   8.985  14.700  1.00  0.00     0.008 C 
ATOM     19  C   UNL     1      -4.325   8.943  16.441  1.00  0.00     0.008 C 
ENDBRANCH  12  17
ENDBRANCH  11  12
ENDBRANCH   1  11
TORSDOF 1
ENDMDL
MODEL 9
REMARK VINA RESULT:    -3.192      5.677      8.496
REMARK INTER + INTRA:          -5.183
REMARK INTER:                  -5.021
REMARK INTRA:                  -0.163
REMARK UNBOUND:                -0.311
REMARK SMILES CC1=CCC[C@H](C)C(=O)C[C@H](C(C)C)C(=O)C1
REMARK SMILES IDX 8 1 9 2 6 3 7 4 5 5 4 6 3 7 2 8 1 9 10 11 11 12 15 13 16 14
REMARK SMILES IDX 17 15 12 17 13 18 14 19
REMARK H PARENT
REMARK Flexibility Score: 70.00
ROOT
ATOM      1  C   UNL     1      -3.912  -0.892   9.249  1.00  0.00     0.136 C 
ATOM      2  O   UNL     1      -4.813  -1.238   8.498  1.00  0.00    -0.299 OA
ENDROOT
BRANCH   1   3
ATOM      3  C   UNL     1      -2.724  -1.804   9.472  1.00  0.00     0.053 C 
ATOM      4  C   UNL     1      -3.167  -3.032  10.272  1.00  0.00     0.016 C 
BRANCH   3   5
ATOM      5  C   UNL     1      -2.061  -2.242   8.144  1.00  0.00     0.015 C 
BRANCH   5   6
ATOM      6  C   UNL     1      -0.878  -1.362   7.718  1.00  0.00     0.028 C 
BRANCH   6   7
ATOM      7  C   UNL     1      -0.002  -1.009   8.896  1.00  0.00    -0.028 C 
ATOM      8  C   UNL     1       0.018   0.192   9.516  1.00  0.00    -0.070 CG0
ATOM      9  C   UNL     1       0.960   0.376  10.678  1.00  0.00     0.039 C 
ATOM     10  G   UNL     1      -0.853   1.357   9.083  1.00  0.00     0.000 G0
ENDBRANCH   6   7
ENDBRANCH   5   6
ENDBRANCH   3   5
ENDBRANCH   1   3
BRANCH   1  11
ATOM     11  C   UNL     1      -4.034   0.418   9.990  1.00  0.00     0.087 C 
BRANCH  11  12
ATOM     12  C   UNL     1      -2.787   0.776  10.843  1.00  0.00     0.066 C 
BRANCH  12  13
ATOM     13  C   UNL     1      -1.907   1.778  10.100  1.00  0.00     0.140 C 
ATOM     14  O   UNL     1      -1.993   2.963  10.388  1.00  0.00    -0.299 OA
BRANCH  13  15
ATOM     15  C   UNL     1      -0.856   1.367   9.087  1.00  0.00     0.106 CG0
ATOM     16  G   UNL     1       0.001   0.190   9.517  1.00  0.00     0.000 G0
ENDBRANCH  13  15
ENDBRANCH  12  13
BRANCH  12  17
ATOM     17  C   UNL     1      -3.195   1.345  12.240  1.00  0.00    -0.006 C 
ATOM     18  C   UNL     1      -4.542   0.780  12.728  1.00  0.00     0.008 C 
ATOM     19  C   UNL     1      -2.122   1.054  13.304  1.00  0.00     0.008 C 
ENDBRANCH  12  17
ENDBRANCH  11  12
ENDBRANCH   1  11
TORSDOF 1
ENDMDL
