MODEL 1
REMARK VINA RESULT:    -3.704      0.000      0.000
REMARK INTER + INTRA:          -8.726
REMARK INTER:                  -6.518
REMARK INTRA:                  -2.208
REMARK UNBOUND:                -2.208
REMARK SMILES CCCCCCCCCCCCCCC(=O)[O-]
REMARK SMILES IDX 9 1 10 2 11 3 12 4 13 5 14 6 15 7 16 8 17 9 8 10 7 11 6 12
REMARK SMILES IDX 5 13 4 14 3 15 2 16 1 17
REMARK H PARENT
REMARK Flexibility Score: inf
ROOT
ATOM      1  C   UNL     1     190.213 187.635 167.714  1.00  0.00     0.000 C 
ENDROOT
BRANCH   1   2
ATOM      2  C   UNL     1     189.932 188.598 168.881  1.00  0.00     0.000 C 
BRANCH   2   3
ATOM      3  C   UNL     1     188.433 188.890 169.055  1.00  0.00     0.000 C 
BRANCH   3   4
ATOM      4  C   UNL     1     187.905 188.463 170.435  1.00  0.00     0.000 C 
BRANCH   4   5
ATOM      5  C   UNL     1     188.769 187.372 171.087  1.00  0.00     0.006 C 
BRANCH   5   6
ATOM      6  C   UNL     1     187.930 186.274 171.754  1.00  0.00     0.053 C 
BRANCH   6   7
ATOM      7  C   UNL     1     188.678 185.666 172.897  1.00  0.00     0.041 C 
ATOM      8  O   UNL     1     188.058 185.059 173.810  1.00  0.00    -0.550 OA
ATOM      9  O   UNL     1     190.056 185.812 172.982  1.00  0.00    -0.550 OA
ENDBRANCH   6   7
ENDBRANCH   5   6
ENDBRANCH   4   5
ENDBRANCH   3   4
ENDBRANCH   2   3
ENDBRANCH   1   2
BRANCH   1  10
ATOM     10  C   UNL     1     188.966 187.361 166.857  1.00  0.00     0.000 C 
BRANCH  10  11
ATOM     11  C   UNL     1     188.939 185.929 166.296  1.00  0.00    -0.000 C 
BRANCH  11  12
ATOM     12  C   UNL     1     187.715 185.121 166.767  1.00  0.00    -0.000 C 
BRANCH  12  13
ATOM     13  C   UNL     1     187.454 185.139 168.285  1.00  0.00    -0.000 C 
BRANCH  13  14
ATOM     14  C   UNL     1     185.991 185.458 168.639  1.00  0.00    -0.000 C 
BRANCH  14  15
ATOM     15  C   UNL     1     185.534 186.831 168.114  1.00  0.00    -0.000 C 
BRANCH  15  16
ATOM     16  C   UNL     1     184.482 187.546 168.983  1.00  0.00    -0.003 C 
ATOM     17  C   UNL     1     184.503 187.095 170.443  1.00  0.00     0.004 C 
ENDBRANCH  15  16
ENDBRANCH  14  15
ENDBRANCH  13  14
ENDBRANCH  12  13
ENDBRANCH  11  12
ENDBRANCH  10  11
ENDBRANCH   1  10
TORSDOF 13
ENDMDL
MODEL 2
REMARK VINA RESULT:    -3.644      2.802      5.017
REMARK INTER + INTRA:          -8.621
REMARK INTER:                  -6.314
REMARK INTRA:                  -2.307
REMARK UNBOUND:                -2.208
REMARK SMILES CCCCCCCCCCCCCCC(=O)[O-]
REMARK SMILES IDX 9 1 10 2 11 3 12 4 13 5 14 6 15 7 16 8 17 9 8 10 7 11 6 12
REMARK SMILES IDX 5 13 4 14 3 15 2 16 1 17
REMARK H PARENT
REMARK Flexibility Score: inf
ROOT
ATOM      1  C   UNL     1     189.270 186.501 167.462  1.00  0.00     0.000 C 
ENDROOT
BRANCH   1   2
ATOM      2  C   UNL     1     187.882 185.998 167.027  1.00  0.00     0.000 C 
BRANCH   2   3
ATOM      3  C   UNL     1     187.296 184.967 168.005  1.00  0.00     0.000 C 
BRANCH   3   4
ATOM      4  C   UNL     1     186.081 185.510 168.777  1.00  0.00     0.000 C 
BRANCH   4   5
ATOM      5  C   UNL     1     185.604 186.870 168.247  1.00  0.00     0.006 C 
BRANCH   5   6
ATOM      6  C   UNL     1     185.209 187.837 169.371  1.00  0.00     0.053 C 
BRANCH   6   7
ATOM      7  C   UNL     1     183.748 187.723 169.668  1.00  0.00     0.041 C 
ATOM      8  O   UNL     1     182.898 188.119 168.828  1.00  0.00    -0.550 OA
ATOM      9  O   UNL     1     183.324 187.227 170.894  1.00  0.00    -0.550 OA
ENDBRANCH   6   7
ENDBRANCH   5   6
ENDBRANCH   4   5
ENDBRANCH   3   4
ENDBRANCH   2   3
ENDBRANCH   1   2
BRANCH   1  10
ATOM     10  C   UNL     1     189.360 188.035 167.498  1.00  0.00     0.000 C 
BRANCH  10  11
ATOM     11  C   UNL     1     189.042 188.611 168.888  1.00  0.00    -0.000 C 
BRANCH  11  12
ATOM     12  C   UNL     1     189.428 187.659 170.036  1.00  0.00    -0.000 C 
BRANCH  12  13
ATOM     13  C   UNL     1     188.313 187.365 171.057  1.00  0.00    -0.000 C 
BRANCH  13  14
ATOM     14  C   UNL     1     188.550 186.068 171.849  1.00  0.00    -0.000 C 
BRANCH  14  15
ATOM     15  C   UNL     1     189.889 185.391 171.503  1.00  0.00    -0.000 C 
BRANCH  15  16
ATOM     16  C   UNL     1     189.792 184.221 170.507  1.00  0.00    -0.003 C 
ATOM     17  C   UNL     1     191.096 183.965 169.752  1.00  0.00     0.004 C 
ENDBRANCH  15  16
ENDBRANCH  14  15
ENDBRANCH  13  14
ENDBRANCH  12  13
ENDBRANCH  11  12
ENDBRANCH  10  11
ENDBRANCH   1  10
TORSDOF 13
ENDMDL
MODEL 3
REMARK VINA RESULT:    -3.610      1.475      2.925
REMARK INTER + INTRA:          -8.563
REMARK INTER:                  -6.033
REMARK INTRA:                  -2.529
REMARK UNBOUND:                -2.208
REMARK SMILES CCCCCCCCCCCCCCC(=O)[O-]
REMARK SMILES IDX 9 1 10 2 11 3 12 4 13 5 14 6 15 7 16 8 17 9 8 10 7 11 6 12
REMARK SMILES IDX 5 13 4 14 3 15 2 16 1 17
REMARK H PARENT
REMARK Flexibility Score: inf
ROOT
ATOM      1  C   UNL     1     189.503 188.122 168.300  1.00  0.00     0.000 C 
ENDROOT
BRANCH   1   2
ATOM      2  C   UNL     1     190.128 187.316 169.453  1.00  0.00     0.000 C 
BRANCH   2   3
ATOM      3  C   UNL     1     189.972 185.799 169.261  1.00  0.00     0.000 C 
BRANCH   3   4
ATOM      4  C   UNL     1     189.692 185.063 170.583  1.00  0.00     0.000 C 
BRANCH   4   5
ATOM      5  C   UNL     1     189.771 185.992 171.804  1.00  0.00     0.006 C 
BRANCH   5   6
ATOM      6  C   UNL     1     188.875 185.524 172.959  1.00  0.00     0.053 C 
BRANCH   6   7
ATOM      7  C   UNL     1     189.455 184.309 173.610  1.00  0.00     0.041 C 
ATOM      8  O   UNL     1     188.726 183.309 173.849  1.00  0.00    -0.550 OA
ATOM      9  O   UNL     1     190.787 184.297 174.000  1.00  0.00    -0.550 OA
ENDBRANCH   6   7
ENDBRANCH   5   6
ENDBRANCH   4   5
ENDBRANCH   3   4
ENDBRANCH   2   3
ENDBRANCH   1   2
BRANCH   1  10
ATOM     10  C   UNL     1     188.450 189.132 168.785  1.00  0.00     0.000 C 
BRANCH  10  11
ATOM     11  C   UNL     1     187.871 188.764 170.162  1.00  0.00    -0.000 C 
BRANCH  11  12
ATOM     12  C   UNL     1     186.456 188.161 170.077  1.00  0.00    -0.000 C 
BRANCH  12  13
ATOM     13  C   UNL     1     186.363 186.649 170.355  1.00  0.00    -0.000 C 
BRANCH  13  14
ATOM     14  C   UNL     1     186.026 185.828 169.098  1.00  0.00    -0.000 C 
BRANCH  14  15
ATOM     15  C   UNL     1     185.779 186.705 167.858  1.00  0.00    -0.000 C 
BRANCH  15  16
ATOM     16  C   UNL     1     186.678 186.391 166.647  1.00  0.00    -0.003 C 
ATOM     17  C   UNL     1     187.397 185.048 166.765  1.00  0.00     0.004 C 
ENDBRANCH  15  16
ENDBRANCH  14  15
ENDBRANCH  13  14
ENDBRANCH  12  13
ENDBRANCH  11  12
ENDBRANCH  10  11
ENDBRANCH   1  10
TORSDOF 13
ENDMDL
MODEL 4
REMARK VINA RESULT:    -3.607      1.545      2.840
REMARK INTER + INTRA:          -8.556
REMARK INTER:                  -6.376
REMARK INTRA:                  -2.180
REMARK UNBOUND:                -2.208
REMARK SMILES CCCCCCCCCCCCCCC(=O)[O-]
REMARK SMILES IDX 9 1 10 2 11 3 12 4 13 5 14 6 15 7 16 8 17 9 8 10 7 11 6 12
REMARK SMILES IDX 5 13 4 14 3 15 2 16 1 17
REMARK H PARENT
REMARK Flexibility Score: inf
ROOT
ATOM      1  C   UNL     1     189.094 186.907 167.512  1.00  0.00     0.000 C 
ENDROOT
BRANCH   1   2
ATOM      2  C   UNL     1     189.986 185.664 167.682  1.00  0.00     0.000 C 
BRANCH   2   3
ATOM      3  C   UNL     1     190.524 185.517 169.114  1.00  0.00     0.000 C 
BRANCH   3   4
ATOM      4  C   UNL     1     189.674 184.560 169.968  1.00  0.00     0.000 C 
BRANCH   4   5
ATOM      5  C   UNL     1     190.231 184.384 171.389  1.00  0.00     0.006 C 
BRANCH   5   6
ATOM      6  C   UNL     1     190.391 185.718 172.130  1.00  0.00     0.053 C 
BRANCH   6   7
ATOM      7  C   UNL     1     189.767 185.639 173.487  1.00  0.00     0.041 C 
ATOM      8  O   UNL     1     190.473 185.788 174.519  1.00  0.00    -0.550 OA
ATOM      9  O   UNL     1     188.415 185.352 173.615  1.00  0.00    -0.550 OA
ENDBRANCH   6   7
ENDBRANCH   5   6
ENDBRANCH   4   5
ENDBRANCH   3   4
ENDBRANCH   2   3
ENDBRANCH   1   2
BRANCH   1  10
ATOM     10  C   UNL     1     187.728 186.576 166.890  1.00  0.00     0.000 C 
BRANCH  10  11
ATOM     11  C   UNL     1     187.196 185.202 167.332  1.00  0.00    -0.000 C 
BRANCH  11  12
ATOM     12  C   UNL     1     186.197 185.293 168.502  1.00  0.00    -0.000 C 
BRANCH  12  13
ATOM     13  C   UNL     1     185.459 186.638 168.640  1.00  0.00    -0.000 C 
BRANCH  13  14
ATOM     14  C   UNL     1     185.535 187.222 170.061  1.00  0.00    -0.000 C 
BRANCH  14  15
ATOM     15  C   UNL     1     186.829 186.834 170.799  1.00  0.00    -0.000 C 
BRANCH  15  16
ATOM     16  C   UNL     1     187.969 187.865 170.707  1.00  0.00    -0.003 C 
ATOM     17  C   UNL     1     187.508 189.223 170.178  1.00  0.00     0.004 C 
ENDBRANCH  15  16
ENDBRANCH  14  15
ENDBRANCH  13  14
ENDBRANCH  12  13
ENDBRANCH  11  12
ENDBRANCH  10  11
ENDBRANCH   1  10
TORSDOF 13
ENDMDL
MODEL 5
REMARK VINA RESULT:    -3.570      1.302      3.575
REMARK INTER + INTRA:          -8.492
REMARK INTER:                  -6.331
REMARK INTRA:                  -2.161
REMARK UNBOUND:                -2.208
REMARK SMILES CCCCCCCCCCCCCCC(=O)[O-]
REMARK SMILES IDX 9 1 10 2 11 3 12 4 13 5 14 6 15 7 16 8 17 9 8 10 7 11 6 12
REMARK SMILES IDX 5 13 4 14 3 15 2 16 1 17
REMARK H PARENT
REMARK Flexibility Score: inf
ROOT
ATOM      1  C   UNL     1     186.758 188.473 169.812  1.00  0.00     0.000 C 
ENDROOT
BRANCH   1   2
ATOM      2  C   UNL     1     187.978 188.015 170.631  1.00  0.00     0.000 C 
BRANCH   2   3
ATOM      3  C   UNL     1     187.783 186.620 171.246  1.00  0.00     0.000 C 
BRANCH   3   4
ATOM      4  C   UNL     1     189.038 185.739 171.119  1.00  0.00     0.000 C 
BRANCH   4   5
ATOM      5  C   UNL     1     190.199 186.235 171.996  1.00  0.00     0.006 C 
BRANCH   5   6
ATOM      6  C   UNL     1     190.013 185.879 173.477  1.00  0.00     0.053 C 
BRANCH   6   7
ATOM      7  C   UNL     1     190.162 184.405 173.682  1.00  0.00     0.041 C 
ATOM      8  O   UNL     1     191.306 183.878 173.691  1.00  0.00    -0.550 OA
ATOM      9  O   UNL     1     189.035 183.604 173.814  1.00  0.00    -0.550 OA
ENDBRANCH   6   7
ENDBRANCH   5   6
ENDBRANCH   4   5
ENDBRANCH   3   4
ENDBRANCH   2   3
ENDBRANCH   1   2
BRANCH   1  10
ATOM     10  C   UNL     1     185.508 187.619 170.080  1.00  0.00     0.000 C 
BRANCH  10  11
ATOM     11  C   UNL     1     184.836 187.136 168.785  1.00  0.00    -0.000 C 
BRANCH  11  12
ATOM     12  C   UNL     1     185.841 186.584 167.756  1.00  0.00    -0.000 C 
BRANCH  12  13
ATOM     13  C   UNL     1     186.450 185.211 168.096  1.00  0.00    -0.000 C 
BRANCH  13  14
ATOM     14  C   UNL     1     187.883 185.042 167.562  1.00  0.00    -0.000 C 
BRANCH  14  15
ATOM     15  C   UNL     1     188.455 186.338 166.960  1.00  0.00    -0.000 C 
BRANCH  15  16
ATOM     16  C   UNL     1     189.711 186.886 167.662  1.00  0.00    -0.003 C 
ATOM     17  C   UNL     1     189.902 188.389 167.461  1.00  0.00     0.004 C 
ENDBRANCH  15  16
ENDBRANCH  14  15
ENDBRANCH  13  14
ENDBRANCH  12  13
ENDBRANCH  11  12
ENDBRANCH  10  11
ENDBRANCH   1  10
TORSDOF 13
ENDMDL
MODEL 6
REMARK VINA RESULT:    -3.536      2.326      4.599
REMARK INTER + INTRA:          -8.431
REMARK INTER:                  -6.355
REMARK INTRA:                  -2.075
REMARK UNBOUND:                -2.208
REMARK SMILES CCCCCCCCCCCCCCC(=O)[O-]
REMARK SMILES IDX 9 1 10 2 11 3 12 4 13 5 14 6 15 7 16 8 17 9 8 10 7 11 6 12
REMARK SMILES IDX 5 13 4 14 3 15 2 16 1 17
REMARK H PARENT
REMARK Flexibility Score: inf
ROOT
ATOM      1  C   UNL     1     190.137 185.467 167.914  1.00  0.00     0.000 C 
ENDROOT
BRANCH   1   2
ATOM      2  C   UNL     1     189.331 185.185 166.634  1.00  0.00     0.000 C 
BRANCH   2   3
ATOM      3  C   UNL     1     187.816 185.136 166.892  1.00  0.00     0.000 C 
BRANCH   3   4
ATOM      4  C   UNL     1     187.472 185.149 168.391  1.00  0.00     0.000 C 
BRANCH   4   5
ATOM      5  C   UNL     1     185.984 185.426 168.654  1.00  0.00     0.006 C 
BRANCH   5   6
ATOM      6  C   UNL     1     185.562 186.838 168.227  1.00  0.00     0.053 C 
BRANCH   6   7
ATOM      7  C   UNL     1     184.528 187.379 169.161  1.00  0.00     0.041 C 
ATOM      8  O   UNL     1     184.620 187.168 170.400  1.00  0.00    -0.550 OA
ATOM      9  O   UNL     1     183.434 188.074 168.661  1.00  0.00    -0.550 OA
ENDBRANCH   6   7
ENDBRANCH   5   6
ENDBRANCH   4   5
ENDBRANCH   3   4
ENDBRANCH   2   3
ENDBRANCH   1   2
BRANCH   1  10
ATOM     10  C   UNL     1     191.044 186.702 167.785  1.00  0.00     0.000 C 
BRANCH  10  11
ATOM     11  C   UNL     1     190.245 188.002 167.595  1.00  0.00    -0.000 C 
BRANCH  11  12
ATOM     12  C   UNL     1     189.897 188.693 168.928  1.00  0.00    -0.000 C 
BRANCH  12  13
ATOM     13  C   UNL     1     188.401 188.975 169.156  1.00  0.00    -0.000 C 
BRANCH  13  14
ATOM     14  C   UNL     1     187.879 188.407 170.488  1.00  0.00    -0.000 C 
BRANCH  14  15
ATOM     15  C   UNL     1     188.780 187.297 171.059  1.00  0.00    -0.000 C 
BRANCH  15  16
ATOM     16  C   UNL     1     188.044 186.202 171.852  1.00  0.00    -0.003 C 
ATOM     17  C   UNL     1     188.926 185.524 172.900  1.00  0.00     0.004 C 
ENDBRANCH  15  16
ENDBRANCH  14  15
ENDBRANCH  13  14
ENDBRANCH  12  13
ENDBRANCH  11  12
ENDBRANCH  10  11
ENDBRANCH   1  10
TORSDOF 13
ENDMDL
MODEL 7
REMARK VINA RESULT:    -3.502      1.685      3.338
REMARK INTER + INTRA:          -8.371
REMARK INTER:                  -6.298
REMARK INTRA:                  -2.073
REMARK UNBOUND:                -2.208
REMARK SMILES CCCCCCCCCCCCCCC(=O)[O-]
REMARK SMILES IDX 9 1 10 2 11 3 12 4 13 5 14 6 15 7 16 8 17 9 8 10 7 11 6 12
REMARK SMILES IDX 5 13 4 14 3 15 2 16 1 17
REMARK H PARENT
REMARK Flexibility Score: inf
ROOT
ATOM      1  C   UNL     1     190.146 187.355 169.247  1.00  0.00     0.000 C 
ENDROOT
BRANCH   1   2
ATOM      2  C   UNL     1     189.788 186.225 170.230  1.00  0.00     0.000 C 
BRANCH   2   3
ATOM      3  C   UNL     1     189.594 186.735 171.666  1.00  0.00     0.000 C 
BRANCH   3   4
ATOM      4  C   UNL     1     188.424 186.042 172.386  1.00  0.00     0.000 C 
BRANCH   4   5
ATOM      5  C   UNL     1     188.896 185.072 173.480  1.00  0.00     0.006 C 
BRANCH   5   6
ATOM      6  C   UNL     1     190.298 185.410 174.004  1.00  0.00     0.053 C 
BRANCH   6   7
ATOM      7  C   UNL     1     191.213 184.238 173.842  1.00  0.00     0.041 C 
ATOM      8  O   UNL     1     191.224 183.318 174.703  1.00  0.00    -0.550 OA
ATOM      9  O   UNL     1     192.089 184.184 172.767  1.00  0.00    -0.550 OA
ENDBRANCH   6   7
ENDBRANCH   5   6
ENDBRANCH   4   5
ENDBRANCH   3   4
ENDBRANCH   2   3
ENDBRANCH   1   2
BRANCH   1  10
ATOM     10  C   UNL     1     189.604 188.723 169.693  1.00  0.00     0.000 C 
BRANCH  10  11
ATOM     11  C   UNL     1     188.235 189.045 169.069  1.00  0.00    -0.000 C 
BRANCH  11  12
ATOM     12  C   UNL     1     187.063 188.813 170.041  1.00  0.00    -0.000 C 
BRANCH  12  13
ATOM     13  C   UNL     1     185.875 188.018 169.468  1.00  0.00    -0.000 C 
BRANCH  13  14
ATOM     14  C   UNL     1     185.930 186.521 169.819  1.00  0.00    -0.000 C 
BRANCH  14  15
ATOM     15  C   UNL     1     186.431 185.651 168.652  1.00  0.00    -0.000 C 
BRANCH  15  16
ATOM     16  C   UNL     1     186.376 186.321 167.267  1.00  0.00    -0.003 C 
ATOM     17  C   UNL     1     187.727 186.332 166.551  1.00  0.00     0.004 C 
ENDBRANCH  15  16
ENDBRANCH  14  15
ENDBRANCH  13  14
ENDBRANCH  12  13
ENDBRANCH  11  12
ENDBRANCH  10  11
ENDBRANCH   1  10
TORSDOF 13
ENDMDL
MODEL 8
REMARK VINA RESULT:    -3.410      3.507      5.776
REMARK INTER + INTRA:          -8.210
REMARK INTER:                  -6.568
REMARK INTRA:                  -1.642
REMARK UNBOUND:                -2.208
REMARK SMILES CCCCCCCCCCCCCCC(=O)[O-]
REMARK SMILES IDX 9 1 10 2 11 3 12 4 13 5 14 6 15 7 16 8 17 9 8 10 7 11 6 12
REMARK SMILES IDX 5 13 4 14 3 15 2 16 1 17
REMARK H PARENT
REMARK Flexibility Score: inf
ROOT
ATOM      1  C   UNL     1     186.473 188.395 169.593  1.00  0.00     0.000 C 
ENDROOT
BRANCH   1   2
ATOM      2  C   UNL     1     185.737 187.430 170.540  1.00  0.00     0.000 C 
BRANCH   2   3
ATOM      3  C   UNL     1     184.265 187.229 170.148  1.00  0.00     0.000 C 
BRANCH   3   4
ATOM      4  C   UNL     1     183.973 187.671 168.704  1.00  0.00     0.000 C 
BRANCH   4   5
ATOM      5  C   UNL     1     182.585 188.312 168.551  1.00  0.00     0.006 C 
BRANCH   5   6
ATOM      6  C   UNL     1     182.149 189.081 169.805  1.00  0.00     0.053 C 
BRANCH   6   7
ATOM      7  C   UNL     1     180.835 188.569 170.302  1.00  0.00     0.041 C 
ATOM      8  O   UNL     1     179.947 189.373 170.692  1.00  0.00    -0.550 OA
ATOM      9  O   UNL     1     180.607 187.202 170.382  1.00  0.00    -0.550 OA
ENDBRANCH   6   7
ENDBRANCH   5   6
ENDBRANCH   4   5
ENDBRANCH   3   4
ENDBRANCH   2   3
ENDBRANCH   1   2
BRANCH   1  10
ATOM     10  C   UNL     1     187.711 189.034 170.241  1.00  0.00     0.000 C 
BRANCH  10  11
ATOM     11  C   UNL     1     189.009 188.283 169.899  1.00  0.00    -0.000 C 
BRANCH  11  12
ATOM     12  C   UNL     1     189.381 187.218 170.948  1.00  0.00    -0.000 C 
BRANCH  12  13
ATOM     13  C   UNL     1     189.025 185.767 170.574  1.00  0.00    -0.000 C 
BRANCH  13  14
ATOM     14  C   UNL     1     188.849 185.564 169.059  1.00  0.00    -0.000 C 
BRANCH  14  15
ATOM     15  C   UNL     1     187.562 184.799 168.702  1.00  0.00    -0.000 C 
BRANCH  15  16
ATOM     16  C   UNL     1     186.780 185.360 167.500  1.00  0.00    -0.003 C 
ATOM     17  C   UNL     1     187.445 185.056 166.157  1.00  0.00     0.004 C 
ENDBRANCH  15  16
ENDBRANCH  14  15
ENDBRANCH  13  14
ENDBRANCH  12  13
ENDBRANCH  11  12
ENDBRANCH  10  11
ENDBRANCH   1  10
TORSDOF 13
ENDMDL
MODEL 9
REMARK VINA RESULT:    -3.369      1.399      2.473
REMARK INTER + INTRA:          -8.137
REMARK INTER:                  -5.846
REMARK INTRA:                  -2.291
REMARK UNBOUND:                -2.208
REMARK SMILES CCCCCCCCCCCCCCC(=O)[O-]
REMARK SMILES IDX 9 1 10 2 11 3 12 4 13 5 14 6 15 7 16 8 17 9 8 10 7 11 6 12
REMARK SMILES IDX 5 13 4 14 3 15 2 16 1 17
REMARK H PARENT
REMARK Flexibility Score: inf
ROOT
ATOM      1  C   UNL     1     188.487 188.849 169.770  1.00  0.00     0.000 C 
ENDROOT
BRANCH   1   2
ATOM      2  C   UNL     1     188.994 187.934 170.898  1.00  0.00     0.000 C 
BRANCH   2   3
ATOM      3  C   UNL     1     187.964 186.865 171.296  1.00  0.00     0.000 C 
BRANCH   3   4
ATOM      4  C   UNL     1     188.564 185.776 172.203  1.00  0.00     0.000 C 
BRANCH   4   5
ATOM      5  C   UNL     1     189.712 185.011 171.527  1.00  0.00     0.006 C 
BRANCH   5   6
ATOM      6  C   UNL     1     191.066 185.257 172.207  1.00  0.00     0.053 C 
BRANCH   6   7
ATOM      7  C   UNL     1     190.947 185.080 173.687  1.00  0.00     0.041 C 
ATOM      8  O   UNL     1     191.083 186.068 174.457  1.00  0.00    -0.550 OA
ATOM      9  O   UNL     1     190.735 183.816 174.222  1.00  0.00    -0.550 OA
ENDBRANCH   6   7
ENDBRANCH   5   6
ENDBRANCH   4   5
ENDBRANCH   3   4
ENDBRANCH   2   3
ENDBRANCH   1   2
BRANCH   1  10
ATOM     10  C   UNL     1     188.920 188.368 168.376  1.00  0.00     0.000 C 
BRANCH  10  11
ATOM     11  C   UNL     1     190.086 187.367 168.434  1.00  0.00    -0.000 C 
BRANCH  11  12
ATOM     12  C   UNL     1     189.718 185.983 167.868  1.00  0.00    -0.000 C 
BRANCH  12  13
ATOM     13  C   UNL     1     188.248 185.810 167.444  1.00  0.00    -0.000 C 
BRANCH  13  14
ATOM     14  C   UNL     1     187.470 184.843 168.353  1.00  0.00    -0.000 C 
BRANCH  14  15
ATOM     15  C   UNL     1     186.033 185.315 168.640  1.00  0.00    -0.000 C 
BRANCH  15  16
ATOM     16  C   UNL     1     185.702 186.735 168.145  1.00  0.00    -0.003 C 
ATOM     17  C   UNL     1     184.910 187.556 169.163  1.00  0.00     0.004 C 
ENDBRANCH  15  16
ENDBRANCH  14  15
ENDBRANCH  13  14
ENDBRANCH  12  13
ENDBRANCH  11  12
ENDBRANCH  10  11
ENDBRANCH   1  10
TORSDOF 13
ENDMDL
