MODEL 1
REMARK VINA RESULT:    -2.502      0.000      0.000
REMARK INTER + INTRA:          -6.046
REMARK INTER:                  -4.696
REMARK INTRA:                  -1.350
REMARK UNBOUND:                -1.350
REMARK SMILES CCCCCCCCC=CCCCCCCCC(=O)[O-]
REMARK SMILES IDX 10 1 9 2 11 3 12 4 13 5 14 6 15 7 16 8 17 9 18 10 19 11
REMARK SMILES IDX 20 12 8 13 7 14 6 15 5 16 4 17 3 18 2 19 1 20
REMARK H PARENT
REMARK Flexibility Score: inf
ROOT
ATOM      1  C   UNL     1     -13.538 -15.863  19.476  1.00  0.00    -0.031 C 
ATOM      2  C   UNL     1     -13.257 -16.809  20.393  1.00  0.00    -0.031 C 
ENDROOT
BRANCH   1   3
ATOM      3  C   UNL     1     -14.912 -15.561  18.922  1.00  0.00     0.027 C 
BRANCH   3   4
ATOM      4  C   UNL     1     -15.110 -14.056  18.674  1.00  0.00     0.004 C 
BRANCH   4   5
ATOM      5  C   UNL     1     -14.926 -13.173  19.922  1.00  0.00     0.000 C 
BRANCH   5   6
ATOM      6  C   UNL     1     -14.124 -11.881  19.654  1.00  0.00     0.000 C 
BRANCH   6   7
ATOM      7  C   UNL     1     -13.802 -11.696  18.162  1.00  0.00     0.000 C 
BRANCH   7   8
ATOM      8  C   UNL     1     -12.389 -11.139  17.914  1.00  0.00     0.006 C 
BRANCH   8   9
ATOM      9  C   UNL     1     -11.305 -12.224  17.776  1.00  0.00     0.053 C 
BRANCH   9  10
ATOM     10  C   UNL     1     -10.952 -12.859  19.086  1.00  0.00     0.041 C 
ATOM     11  O   UNL     1     -10.351 -12.195  19.973  1.00  0.00    -0.550 OA
ATOM     12  O   UNL     1     -11.253 -14.195  19.316  1.00  0.00    -0.550 OA
ENDBRANCH   9  10
ENDBRANCH   8   9
ENDBRANCH   7   8
ENDBRANCH   6   7
ENDBRANCH   5   6
ENDBRANCH   4   5
ENDBRANCH   3   4
ENDBRANCH   1   3
BRANCH   2  13
ATOM     13  C   UNL     1     -14.262 -17.750  21.010  1.00  0.00     0.027 C 
BRANCH  13  14
ATOM     14  C   UNL     1     -13.871 -18.125  22.445  1.00  0.00     0.004 C 
BRANCH  14  15
ATOM     15  C   UNL     1     -14.867 -17.542  23.458  1.00  0.00     0.000 C 
BRANCH  15  16
ATOM     16  C   UNL     1     -15.124 -16.043  23.238  1.00  0.00     0.000 C 
BRANCH  16  17
ATOM     17  C   UNL     1     -14.075 -15.157  23.929  1.00  0.00    -0.000 C 
BRANCH  17  18
ATOM     18  C   UNL     1     -12.754 -15.156  23.146  1.00  0.00    -0.000 C 
BRANCH  18  19
ATOM     19  C   UNL     1     -12.481 -13.813  22.450  1.00  0.00    -0.003 C 
ATOM     20  C   UNL     1     -12.734 -12.612  23.361  1.00  0.00     0.004 C 
ENDBRANCH  18  19
ENDBRANCH  17  18
ENDBRANCH  16  17
ENDBRANCH  15  16
ENDBRANCH  14  15
ENDBRANCH  13  14
ENDBRANCH   2  13
TORSDOF 15
ENDMDL
MODEL 2
REMARK VINA RESULT:    -2.389      1.458      3.133
REMARK INTER + INTRA:          -5.833
REMARK INTER:                  -5.351
REMARK INTRA:                  -0.482
REMARK UNBOUND:                -1.350
REMARK SMILES CCCCCCCCC=CCCCCCCCC(=O)[O-]
REMARK SMILES IDX 10 1 9 2 11 3 12 4 13 5 14 6 15 7 16 8 17 9 18 10 19 11
REMARK SMILES IDX 20 12 8 13 7 14 6 15 5 16 4 17 3 18 2 19 1 20
REMARK H PARENT
REMARK Flexibility Score: inf
ROOT
ATOM      1  C   UNL     1     -11.407 -14.023  20.006  1.00  0.00    -0.031 C 
ATOM      2  C   UNL     1     -11.736 -13.796  21.293  1.00  0.00    -0.031 C 
ENDROOT
BRANCH   1   3
ATOM      3  C   UNL     1     -12.149 -14.942  19.062  1.00  0.00     0.027 C 
BRANCH   3   4
ATOM      4  C   UNL     1     -13.569 -15.251  19.566  1.00  0.00     0.004 C 
BRANCH   4   5
ATOM      5  C   UNL     1     -14.669 -14.353  18.968  1.00  0.00     0.000 C 
BRANCH   5   6
ATOM      6  C   UNL     1     -15.125 -13.220  19.914  1.00  0.00     0.000 C 
BRANCH   6   7
ATOM      7  C   UNL     1     -15.120 -11.848  19.219  1.00  0.00     0.000 C 
BRANCH   7   8
ATOM      8  C   UNL     1     -14.103 -11.757  18.067  1.00  0.00     0.006 C 
BRANCH   8   9
ATOM      9  C   UNL     1     -12.651 -11.544  18.531  1.00  0.00     0.053 C 
BRANCH   9  10
ATOM     10  C   UNL     1     -11.695 -11.392  17.388  1.00  0.00     0.041 C 
ATOM     11  O   UNL     1     -11.570 -10.282  16.806  1.00  0.00    -0.550 OA
ATOM     12  O   UNL     1     -10.966 -12.487  16.941  1.00  0.00    -0.550 OA
ENDBRANCH   9  10
ENDBRANCH   8   9
ENDBRANCH   7   8
ENDBRANCH   6   7
ENDBRANCH   5   6
ENDBRANCH   4   5
ENDBRANCH   3   4
ENDBRANCH   1   3
BRANCH   2  13
ATOM     13  C   UNL     1     -12.890 -14.436  22.024  1.00  0.00     0.027 C 
BRANCH  13  14
ATOM     14  C   UNL     1     -13.404 -13.539  23.156  1.00  0.00     0.004 C 
BRANCH  14  15
ATOM     15  C   UNL     1     -13.846 -14.375  24.365  1.00  0.00     0.000 C 
BRANCH  15  16
ATOM     16  C   UNL     1     -14.853 -15.473  23.987  1.00  0.00     0.000 C 
BRANCH  16  17
ATOM     17  C   UNL     1     -14.620 -16.780  24.761  1.00  0.00    -0.000 C 
BRANCH  17  18
ATOM     18  C   UNL     1     -14.855 -18.002  23.860  1.00  0.00    -0.000 C 
BRANCH  18  19
ATOM     19  C   UNL     1     -15.125 -17.613  22.397  1.00  0.00    -0.003 C 
ATOM     20  C   UNL     1     -13.938 -17.905  21.479  1.00  0.00     0.004 C 
ENDBRANCH  18  19
ENDBRANCH  17  18
ENDBRANCH  16  17
ENDBRANCH  15  16
ENDBRANCH  14  15
ENDBRANCH  13  14
ENDBRANCH   2  13
TORSDOF 15
ENDMDL
MODEL 3
REMARK VINA RESULT:    -2.150      1.828      5.929
REMARK INTER + INTRA:          -5.386
REMARK INTER:                  -4.411
REMARK INTRA:                  -0.975
REMARK UNBOUND:                -1.350
REMARK SMILES CCCCCCCCC=CCCCCCCCC(=O)[O-]
REMARK SMILES IDX 10 1 9 2 11 3 12 4 13 5 14 6 15 7 16 8 17 9 18 10 19 11
REMARK SMILES IDX 20 12 8 13 7 14 6 15 5 16 4 17 3 18 2 19 1 20
REMARK H PARENT
REMARK Flexibility Score: inf
ROOT
ATOM      1  C   UNL     1     -14.904 -16.687  20.182  1.00  0.00    -0.031 C 
ATOM      2  C   UNL     1     -15.060 -15.669  19.312  1.00  0.00    -0.031 C 
ENDROOT
BRANCH   1   3
ATOM      3  C   UNL     1     -14.684 -16.540  21.670  1.00  0.00     0.027 C 
BRANCH   3   4
ATOM      4  C   UNL     1     -14.659 -17.904  22.381  1.00  0.00     0.004 C 
BRANCH   4   5
ATOM      5  C   UNL     1     -13.988 -17.890  23.767  1.00  0.00     0.000 C 
BRANCH   5   6
ATOM      6  C   UNL     1     -14.902 -17.356  24.892  1.00  0.00     0.000 C 
BRANCH   6   7
ATOM      7  C   UNL     1     -15.121 -15.837  24.790  1.00  0.00     0.000 C 
BRANCH   7   8
ATOM      8  C   UNL     1     -13.859 -15.021  25.121  1.00  0.00     0.006 C 
BRANCH   8   9
ATOM      9  C   UNL     1     -13.934 -13.548  24.679  1.00  0.00     0.053 C 
BRANCH   9  10
ATOM     10  C   UNL     1     -13.618 -13.364  23.226  1.00  0.00     0.041 C 
ATOM     11  O   UNL     1     -12.664 -13.995  22.698  1.00  0.00    -0.550 OA
ATOM     12  O   UNL     1     -14.354 -12.467  22.462  1.00  0.00    -0.550 OA
ENDBRANCH   9  10
ENDBRANCH   8   9
ENDBRANCH   7   8
ENDBRANCH   6   7
ENDBRANCH   5   6
ENDBRANCH   4   5
ENDBRANCH   3   4
ENDBRANCH   1   3
BRANCH   2  13
ATOM     13  C   UNL     1     -15.019 -14.204  19.668  1.00  0.00     0.027 C 
BRANCH  13  14
ATOM     14  C   UNL     1     -13.839 -13.495  18.992  1.00  0.00     0.004 C 
BRANCH  14  15
ATOM     15  C   UNL     1     -12.504 -13.940  19.607  1.00  0.00     0.000 C 
BRANCH  15  16
ATOM     16  C   UNL     1     -11.331 -13.039  19.187  1.00  0.00     0.000 C 
BRANCH  16  17
ATOM     17  C   UNL     1     -10.765 -13.412  17.808  1.00  0.00    -0.000 C 
BRANCH  17  18
ATOM     18  C   UNL     1     -10.977 -12.273  16.800  1.00  0.00    -0.000 C 
BRANCH  18  19
ATOM     19  C   UNL     1     -11.811 -11.120  17.381  1.00  0.00    -0.003 C 
ATOM     20  C   UNL     1     -11.324  -9.746  16.921  1.00  0.00     0.004 C 
ENDBRANCH  18  19
ENDBRANCH  17  18
ENDBRANCH  16  17
ENDBRANCH  15  16
ENDBRANCH  14  15
ENDBRANCH  13  14
ENDBRANCH   2  13
TORSDOF 15
ENDMDL
MODEL 4
REMARK VINA RESULT:    -1.855      1.821      2.642
REMARK INTER + INTRA:          -4.832
REMARK INTER:                  -3.501
REMARK INTRA:                  -1.330
REMARK UNBOUND:                -1.350
REMARK SMILES CCCCCCCCC=CCCCCCCCC(=O)[O-]
REMARK SMILES IDX 10 1 9 2 11 3 12 4 13 5 14 6 15 7 16 8 17 9 18 10 19 11
REMARK SMILES IDX 20 12 8 13 7 14 6 15 5 16 4 17 3 18 2 19 1 20
REMARK H PARENT
REMARK Flexibility Score: inf
ROOT
ATOM      1  C   UNL     1     -15.119 -14.592  19.204  1.00  0.00    -0.031 C 
ATOM      2  C   UNL     1     -14.487 -15.737  18.880  1.00  0.00    -0.031 C 
ENDROOT
BRANCH   1   3
ATOM      3  C   UNL     1     -15.092 -13.932  20.564  1.00  0.00     0.027 C 
BRANCH   3   4
ATOM      4  C   UNL     1     -14.063 -12.789  20.623  1.00  0.00     0.004 C 
BRANCH   4   5
ATOM      5  C   UNL     1     -12.673 -13.207  21.137  1.00  0.00     0.000 C 
BRANCH   5   6
ATOM      6  C   UNL     1     -11.601 -13.287  20.028  1.00  0.00     0.000 C 
BRANCH   6   7
ATOM      7  C   UNL     1     -12.223 -13.420  18.628  1.00  0.00     0.000 C 
BRANCH   7   8
ATOM      8  C   UNL     1     -11.304 -12.900  17.507  1.00  0.00     0.006 C 
BRANCH   8   9
ATOM      9  C   UNL     1     -10.705 -11.510  17.785  1.00  0.00     0.053 C 
BRANCH   9  10
ATOM     10  C   UNL     1     -11.427 -10.413  17.064  1.00  0.00     0.041 C 
ATOM     11  O   UNL     1     -12.420 -10.678  16.335  1.00  0.00    -0.550 OA
ATOM     12  O   UNL     1     -10.984  -9.101  17.169  1.00  0.00    -0.550 OA
ENDBRANCH   9  10
ENDBRANCH   8   9
ENDBRANCH   7   8
ENDBRANCH   6   7
ENDBRANCH   5   6
ENDBRANCH   4   5
ENDBRANCH   3   4
ENDBRANCH   1   3
BRANCH   2  13
ATOM     13  C   UNL     1     -13.660 -16.574  19.824  1.00  0.00     0.027 C 
BRANCH  13  14
ATOM     14  C   UNL     1     -14.326 -17.927  20.104  1.00  0.00     0.004 C 
BRANCH  14  15
ATOM     15  C   UNL     1     -14.560 -18.125  21.609  1.00  0.00     0.000 C 
BRANCH  15  16
ATOM     16  C   UNL     1     -15.123 -16.867  22.290  1.00  0.00     0.000 C 
BRANCH  16  17
ATOM     17  C   UNL     1     -14.456 -16.581  23.645  1.00  0.00    -0.000 C 
BRANCH  17  18
ATOM     18  C   UNL     1     -13.361 -15.513  23.503  1.00  0.00    -0.000 C 
BRANCH  18  19
ATOM     19  C   UNL     1     -13.810 -14.136  24.019  1.00  0.00    -0.003 C 
ATOM     20  C   UNL     1     -14.910 -14.229  25.076  1.00  0.00     0.004 C 
ENDBRANCH  18  19
ENDBRANCH  17  18
ENDBRANCH  16  17
ENDBRANCH  15  16
ENDBRANCH  14  15
ENDBRANCH  13  14
ENDBRANCH   2  13
TORSDOF 15
ENDMDL
MODEL 5
REMARK VINA RESULT:    -1.689     18.587     22.818
REMARK INTER + INTRA:          -4.520
REMARK INTER:                  -3.360
REMARK INTRA:                  -1.159
REMARK UNBOUND:                -1.350
REMARK SMILES CCCCCCCCC=CCCCCCCCC(=O)[O-]
REMARK SMILES IDX 10 1 9 2 11 3 12 4 13 5 14 6 15 7 16 8 17 9 18 10 19 11
REMARK SMILES IDX 20 12 8 13 7 14 6 15 5 16 4 17 3 18 2 19 1 20
REMARK H PARENT
REMARK Flexibility Score: inf
ROOT
ATOM      1  C   UNL     1       3.224  -3.493  10.249  1.00  0.00    -0.031 C 
ATOM      2  C   UNL     1       3.901  -3.263   9.107  1.00  0.00    -0.031 C 
ENDROOT
BRANCH   1   3
ATOM      3  C   UNL     1       3.559  -2.900  11.599  1.00  0.00     0.027 C 
BRANCH   3   4
ATOM      4  C   UNL     1       4.911  -3.411  12.127  1.00  0.00     0.004 C 
BRANCH   4   5
ATOM      5  C   UNL     1       4.804  -4.521  13.188  1.00  0.00     0.000 C 
BRANCH   5   6
ATOM      6  C   UNL     1       3.505  -5.350  13.089  1.00  0.00     0.000 C 
BRANCH   6   7
ATOM      7  C   UNL     1       2.944  -5.718  14.473  1.00  0.00     0.000 C 
BRANCH   7   8
ATOM      8  C   UNL     1       1.824  -6.772  14.411  1.00  0.00     0.006 C 
BRANCH   8   9
ATOM      9  C   UNL     1       0.909  -6.786  15.648  1.00  0.00     0.053 C 
BRANCH   9  10
ATOM     10  C   UNL     1      -0.255  -7.717  15.497  1.00  0.00     0.041 C 
ATOM     11  O   UNL     1      -1.434  -7.275  15.544  1.00  0.00    -0.550 OA
ATOM     12  O   UNL     1      -0.040  -9.080  15.341  1.00  0.00    -0.550 OA
ENDBRANCH   9  10
ENDBRANCH   8   9
ENDBRANCH   7   8
ENDBRANCH   6   7
ENDBRANCH   5   6
ENDBRANCH   4   5
ENDBRANCH   3   4
ENDBRANCH   1   3
BRANCH   2  13
ATOM     13  C   UNL     1       5.125  -2.391   8.979  1.00  0.00     0.027 C 
BRANCH  13  14
ATOM     14  C   UNL     1       4.915  -1.278   7.945  1.00  0.00     0.004 C 
BRANCH  14  15
ATOM     15  C   UNL     1       4.125  -0.108   8.548  1.00  0.00     0.000 C 
BRANCH  15  16
ATOM     16  C   UNL     1       5.002   0.818   9.407  1.00  0.00     0.000 C 
BRANCH  16  17
ATOM     17  C   UNL     1       4.174   1.765  10.288  1.00  0.00    -0.000 C 
BRANCH  17  18
ATOM     18  C   UNL     1       4.687   1.758  11.736  1.00  0.00    -0.000 C 
BRANCH  18  19
ATOM     19  C   UNL     1       5.077   0.350  12.216  1.00  0.00    -0.003 C 
ATOM     20  C   UNL     1       4.943   0.182  13.729  1.00  0.00     0.004 C 
ENDBRANCH  18  19
ENDBRANCH  17  18
ENDBRANCH  16  17
ENDBRANCH  15  16
ENDBRANCH  14  15
ENDBRANCH  13  14
ENDBRANCH   2  13
TORSDOF 15
ENDMDL
MODEL 6
REMARK VINA RESULT:    -1.666      2.083      6.097
REMARK INTER + INTRA:          -4.477
REMARK INTER:                  -4.975
REMARK INTRA:                   0.499
REMARK UNBOUND:                -1.350
REMARK SMILES CCCCCCCCC=CCCCCCCCC(=O)[O-]
REMARK SMILES IDX 10 1 9 2 11 3 12 4 13 5 14 6 15 7 16 8 17 9 18 10 19 11
REMARK SMILES IDX 20 12 8 13 7 14 6 15 5 16 4 17 3 18 2 19 1 20
REMARK H PARENT
REMARK Flexibility Score: inf
ROOT
ATOM      1  C   UNL     1     -12.506 -13.739  22.358  1.00  0.00    -0.031 C 
ATOM      2  C   UNL     1     -11.669 -14.039  21.345  1.00  0.00    -0.031 C 
ENDROOT
BRANCH   1   3
ATOM      3  C   UNL     1     -13.908 -13.196  22.203  1.00  0.00     0.027 C 
BRANCH   3   4
ATOM      4  C   UNL     1     -14.758 -13.442  23.461  1.00  0.00     0.004 C 
BRANCH   4   5
ATOM      5  C   UNL     1     -14.132 -14.420  24.473  1.00  0.00     0.000 C 
BRANCH   5   6
ATOM      6  C   UNL     1     -15.016 -15.651  24.773  1.00  0.00     0.000 C 
BRANCH   6   7
ATOM      7  C   UNL     1     -14.242 -16.971  24.626  1.00  0.00     0.000 C 
BRANCH   7   8
ATOM      8  C   UNL     1     -14.895 -17.946  23.630  1.00  0.00     0.006 C 
BRANCH   8   9
ATOM      9  C   UNL     1     -14.107 -18.120  22.319  1.00  0.00     0.053 C 
BRANCH   9  10
ATOM     10  C   UNL     1     -14.756 -17.429  21.158  1.00  0.00     0.041 C 
ATOM     11  O   UNL     1     -15.112 -16.224  21.254  1.00  0.00    -0.550 OA
ATOM     12  O   UNL     1     -15.001 -18.125  19.982  1.00  0.00    -0.550 OA
ENDBRANCH   9  10
ENDBRANCH   8   9
ENDBRANCH   7   8
ENDBRANCH   6   7
ENDBRANCH   5   6
ENDBRANCH   4   5
ENDBRANCH   3   4
ENDBRANCH   1   3
BRANCH   2  13
ATOM     13  C   UNL     1     -11.977 -13.863  19.878  1.00  0.00     0.027 C 
BRANCH  13  14
ATOM     14  C   UNL     1     -13.143 -14.756  19.439  1.00  0.00     0.004 C 
BRANCH  14  15
ATOM     15  C   UNL     1     -14.387 -13.917  19.110  1.00  0.00     0.000 C 
BRANCH  15  16
ATOM     16  C   UNL     1     -14.124 -12.406  19.213  1.00  0.00     0.000 C 
BRANCH  16  17
ATOM     17  C   UNL     1     -13.514 -11.824  17.929  1.00  0.00    -0.000 C 
BRANCH  17  18
ATOM     18  C   UNL     1     -11.988 -11.697  18.054  1.00  0.00    -0.000 C 
BRANCH  18  19
ATOM     19  C   UNL     1     -11.344 -11.073  16.806  1.00  0.00    -0.003 C 
ATOM     20  C   UNL     1     -11.213  -9.553  16.904  1.00  0.00     0.004 C 
ENDBRANCH  18  19
ENDBRANCH  17  18
ENDBRANCH  16  17
ENDBRANCH  15  16
ENDBRANCH  14  15
ENDBRANCH  13  14
ENDBRANCH   2  13
TORSDOF 15
ENDMDL
MODEL 7
REMARK VINA RESULT:    -1.239     18.116     22.424
REMARK INTER + INTRA:          -3.676
REMARK INTER:                  -2.774
REMARK INTRA:                  -0.902
REMARK UNBOUND:                -1.350
REMARK SMILES CCCCCCCCC=CCCCCCCCC(=O)[O-]
REMARK SMILES IDX 10 1 9 2 11 3 12 4 13 5 14 6 15 7 16 8 17 9 18 10 19 11
REMARK SMILES IDX 20 12 8 13 7 14 6 15 5 16 4 17 3 18 2 19 1 20
REMARK H PARENT
REMARK Flexibility Score: inf
ROOT
ATOM      1  C   UNL     1       3.274  -3.227  11.602  1.00  0.00    -0.031 C 
ATOM      2  C   UNL     1       3.615  -1.931  11.745  1.00  0.00    -0.031 C 
ENDROOT
BRANCH   1   3
ATOM      3  C   UNL     1       4.233  -4.395  11.654  1.00  0.00     0.027 C 
BRANCH   3   4
ATOM      4  C   UNL     1       4.888  -4.534  13.039  1.00  0.00     0.004 C 
BRANCH   4   5
ATOM      5  C   UNL     1       4.084  -5.380  14.044  1.00  0.00     0.000 C 
BRANCH   5   6
ATOM      6  C   UNL     1       2.661  -5.733  13.558  1.00  0.00     0.000 C 
BRANCH   6   7
ATOM      7  C   UNL     1       2.140  -7.037  14.184  1.00  0.00     0.000 C 
BRANCH   7   8
ATOM      8  C   UNL     1       1.248  -6.802  15.416  1.00  0.00     0.006 C 
BRANCH   8   9
ATOM      9  C   UNL     1      -0.087  -7.569  15.375  1.00  0.00     0.053 C 
BRANCH   9  10
ATOM     10  C   UNL     1      -1.185  -6.858  16.107  1.00  0.00     0.041 C 
ATOM     11  O   UNL     1      -0.913  -5.940  16.926  1.00  0.00    -0.550 OA
ATOM     12  O   UNL     1      -2.507  -7.234  15.912  1.00  0.00    -0.550 OA
ENDBRANCH   9  10
ENDBRANCH   8   9
ENDBRANCH   7   8
ENDBRANCH   6   7
ENDBRANCH   5   6
ENDBRANCH   4   5
ENDBRANCH   3   4
ENDBRANCH   1   3
BRANCH   2  13
ATOM     13  C   UNL     1       5.017  -1.416  11.960  1.00  0.00     0.027 C 
BRANCH  13  14
ATOM     14  C   UNL     1       5.040  -0.252  12.957  1.00  0.00     0.004 C 
BRANCH  14  15
ATOM     15  C   UNL     1       4.232   0.943  12.429  1.00  0.00     0.000 C 
BRANCH  15  16
ATOM     16  C   UNL     1       4.755   1.459  11.079  1.00  0.00     0.000 C 
BRANCH  16  17
ATOM     17  C   UNL     1       3.691   1.401   9.972  1.00  0.00    -0.000 C 
BRANCH  17  18
ATOM     18  C   UNL     1       4.293   0.884   8.657  1.00  0.00    -0.000 C 
BRANCH  18  19
ATOM     19  C   UNL     1       5.086  -0.420   8.844  1.00  0.00    -0.003 C 
ATOM     20  C   UNL     1       4.376  -1.636   8.251  1.00  0.00     0.004 C 
ENDBRANCH  18  19
ENDBRANCH  17  18
ENDBRANCH  16  17
ENDBRANCH  15  16
ENDBRANCH  14  15
ENDBRANCH  13  14
ENDBRANCH   2  13
TORSDOF 15
ENDMDL
