MODEL 1
REMARK VINA RESULT:    -5.221      0.000      0.000
REMARK INTER + INTRA:         -12.354
REMARK INTER:                 -10.105
REMARK INTRA:                  -2.249
REMARK UNBOUND:                -2.249
REMARK SMILES CCCCCCCCCCCCCCCCCC(=O)[O-]
REMARK SMILES IDX 10 1 11 2 12 3 13 4 14 5 15 6 16 7 17 8 18 9 19 10 20 11
REMARK SMILES IDX 9 12 8 13 7 14 6 15 5 16 4 17 3 18 2 19 1 20
REMARK H PARENT
REMARK Flexibility Score: inf
ROOT
ATOM      1  C   UNL     1      14.697 -22.685  21.255  1.00  0.00     0.000 C 
ENDROOT
BRANCH   1   2
ATOM      2  C   UNL     1      14.309 -23.584  20.065  1.00  0.00     0.000 C 
BRANCH   2   3
ATOM      3  C   UNL     1      14.332 -25.095  20.358  1.00  0.00     0.000 C 
BRANCH   3   4
ATOM      4  C   UNL     1      12.930 -25.742  20.394  1.00  0.00     0.000 C 
BRANCH   4   5
ATOM      5  C   UNL     1      11.809 -24.697  20.528  1.00  0.00     0.000 C 
BRANCH   5   6
ATOM      6  C   UNL     1      11.234 -24.623  21.951  1.00  0.00     0.000 C 
BRANCH   6   7
ATOM      7  C   UNL     1       9.839 -25.257  22.064  1.00  0.00     0.006 C 
BRANCH   7   8
ATOM      8  C   UNL     1       8.922 -24.413  22.955  1.00  0.00     0.053 C 
BRANCH   8   9
ATOM      9  C   UNL     1       7.678 -24.035  22.214  1.00  0.00     0.041 C 
ATOM     10  O   UNL     1       7.510 -24.409  21.024  1.00  0.00    -0.550 OA
ATOM     11  O   UNL     1       6.722 -23.234  22.825  1.00  0.00    -0.550 OA
ENDBRANCH   8   9
ENDBRANCH   7   8
ENDBRANCH   6   7
ENDBRANCH   5   6
ENDBRANCH   4   5
ENDBRANCH   3   4
ENDBRANCH   2   3
ENDBRANCH   1   2
BRANCH   1  12
ATOM     12  C   UNL     1      15.156 -23.437  22.517  1.00  0.00     0.000 C 
BRANCH  12  13
ATOM     13  C   UNL     1      14.244 -23.182  23.730  1.00  0.00    -0.000 C 
BRANCH  13  14
ATOM     14  C   UNL     1      13.559 -21.807  23.673  1.00  0.00    -0.000 C 
BRANCH  14  15
ATOM     15  C   UNL     1      12.061 -21.872  24.022  1.00  0.00    -0.000 C 
BRANCH  15  16
ATOM     16  C   UNL     1      11.779 -22.840  25.190  1.00  0.00    -0.000 C 
BRANCH  16  17
ATOM     17  C   UNL     1      10.666 -22.355  26.137  1.00  0.00    -0.000 C 
BRANCH  17  18
ATOM     18  C   UNL     1       9.881 -23.508  26.778  1.00  0.00    -0.000 C 
BRANCH  18  19
ATOM     19  C   UNL     1      10.403 -24.864  26.290  1.00  0.00    -0.003 C 
ATOM     20  C   UNL     1       9.443 -25.990  26.665  1.00  0.00     0.004 C 
ENDBRANCH  18  19
ENDBRANCH  17  18
ENDBRANCH  16  17
ENDBRANCH  15  16
ENDBRANCH  14  15
ENDBRANCH  13  14
ENDBRANCH  12  13
ENDBRANCH   1  12
TORSDOF 16
ENDMDL
MODEL 2
REMARK VINA RESULT:    -5.001      2.925      5.631
REMARK INTER + INTRA:         -11.929
REMARK INTER:                 -10.012
REMARK INTRA:                  -1.917
REMARK UNBOUND:                -2.249
REMARK SMILES CCCCCCCCCCCCCCCCCC(=O)[O-]
REMARK SMILES IDX 10 1 11 2 12 3 13 4 14 5 15 6 16 7 17 8 18 9 19 10 20 11
REMARK SMILES IDX 9 12 8 13 7 14 6 15 5 16 4 17 3 18 2 19 1 20
REMARK H PARENT
REMARK Flexibility Score: inf
ROOT
ATOM      1  C   UNL     1       9.224 -24.098  24.169  1.00  0.00     0.000 C 
ENDROOT
BRANCH   1   2
ATOM      2  C   UNL     1       8.688 -24.501  22.782  1.00  0.00     0.000 C 
BRANCH   2   3
ATOM      3  C   UNL     1       9.743 -25.079  21.820  1.00  0.00     0.000 C 
BRANCH   3   4
ATOM      4  C   UNL     1      11.136 -24.428  21.963  1.00  0.00     0.000 C 
BRANCH   4   5
ATOM      5  C   UNL     1      11.945 -24.490  20.656  1.00  0.00     0.000 C 
BRANCH   5   6
ATOM      6  C   UNL     1      12.691 -23.181  20.357  1.00  0.00     0.000 C 
BRANCH   6   7
ATOM      7  C   UNL     1      14.166 -23.407  19.991  1.00  0.00     0.006 C 
BRANCH   7   8
ATOM      8  C   UNL     1      14.883 -24.221  21.074  1.00  0.00     0.053 C 
BRANCH   8   9
ATOM      9  C   UNL     1      15.277 -25.563  20.544  1.00  0.00     0.041 C 
ATOM     10  O   UNL     1      15.142 -25.826  19.321  1.00  0.00    -0.550 OA
ATOM     11  O   UNL     1      15.753 -26.539  21.410  1.00  0.00    -0.550 OA
ENDBRANCH   8   9
ENDBRANCH   7   8
ENDBRANCH   6   7
ENDBRANCH   5   6
ENDBRANCH   4   5
ENDBRANCH   3   4
ENDBRANCH   2   3
ENDBRANCH   1   2
BRANCH   1  12
ATOM     12  C   UNL     1       9.374 -25.257  25.172  1.00  0.00     0.000 C 
BRANCH  12  13
ATOM     13  C   UNL     1      10.063 -24.830  26.480  1.00  0.00    -0.000 C 
BRANCH  13  14
ATOM     14  C   UNL     1      10.233 -23.305  26.586  1.00  0.00    -0.000 C 
BRANCH  14  15
ATOM     15  C   UNL     1      11.692 -22.884  26.839  1.00  0.00    -0.000 C 
BRANCH  15  16
ATOM     16  C   UNL     1      12.570 -23.046  25.580  1.00  0.00    -0.000 C 
BRANCH  16  17
ATOM     17  C   UNL     1      12.195 -22.083  24.439  1.00  0.00    -0.000 C 
BRANCH  17  18
ATOM     18  C   UNL     1      13.338 -21.866  23.438  1.00  0.00    -0.000 C 
BRANCH  18  19
ATOM     19  C   UNL     1      14.573 -21.281  24.134  1.00  0.00    -0.003 C 
ATOM     20  C   UNL     1      15.765 -22.228  24.029  1.00  0.00     0.004 C 
ENDBRANCH  18  19
ENDBRANCH  17  18
ENDBRANCH  16  17
ENDBRANCH  15  16
ENDBRANCH  14  15
ENDBRANCH  13  14
ENDBRANCH  12  13
ENDBRANCH   1  12
TORSDOF 16
ENDMDL
MODEL 3
REMARK VINA RESULT:    -4.946      3.499      5.756
REMARK INTER + INTRA:         -11.822
REMARK INTER:                 -10.018
REMARK INTRA:                  -1.804
REMARK UNBOUND:                -2.249
REMARK SMILES CCCCCCCCCCCCCCCCCC(=O)[O-]
REMARK SMILES IDX 10 1 11 2 12 3 13 4 14 5 15 6 16 7 17 8 18 9 19 10 20 11
REMARK SMILES IDX 9 12 8 13 7 14 6 15 5 16 4 17 3 18 2 19 1 20
REMARK H PARENT
REMARK Flexibility Score: inf
ROOT
ATOM      1  C   UNL     1      10.258 -25.478  21.886  1.00  0.00     0.000 C 
ENDROOT
BRANCH   1   2
ATOM      2  C   UNL     1      11.225 -24.870  20.852  1.00  0.00     0.000 C 
BRANCH   2   3
ATOM      3  C   UNL     1      12.313 -23.952  21.440  1.00  0.00     0.000 C 
BRANCH   3   4
ATOM      4  C   UNL     1      12.795 -22.857  20.465  1.00  0.00     0.000 C 
BRANCH   4   5
ATOM      5  C   UNL     1      14.268 -23.041  20.062  1.00  0.00     0.000 C 
BRANCH   5   6
ATOM      6  C   UNL     1      14.704 -24.515  20.068  1.00  0.00     0.000 C 
BRANCH   6   7
ATOM      7  C   UNL     1      15.407 -24.922  21.372  1.00  0.00     0.006 C 
BRANCH   7   8
ATOM      8  C   UNL     1      15.366 -26.442  21.566  1.00  0.00     0.053 C 
BRANCH   8   9
ATOM      9  C   UNL     1      16.461 -26.881  22.487  1.00  0.00     0.041 C 
ATOM     10  O   UNL     1      17.438 -26.121  22.717  1.00  0.00    -0.550 OA
ATOM     11  O   UNL     1      16.424 -28.147  23.057  1.00  0.00    -0.550 OA
ENDBRANCH   8   9
ENDBRANCH   7   8
ENDBRANCH   6   7
ENDBRANCH   5   6
ENDBRANCH   4   5
ENDBRANCH   3   4
ENDBRANCH   2   3
ENDBRANCH   1   2
BRANCH   1  12
ATOM     12  C   UNL     1       8.892 -24.774  21.994  1.00  0.00     0.000 C 
BRANCH  12  13
ATOM     13  C   UNL     1       8.670 -24.107  23.362  1.00  0.00    -0.000 C 
BRANCH  13  14
ATOM     14  C   UNL     1       9.743 -24.501  24.391  1.00  0.00    -0.000 C 
BRANCH  14  15
ATOM     15  C   UNL     1       9.751 -23.581  25.625  1.00  0.00    -0.000 C 
BRANCH  15  16
ATOM     16  C   UNL     1      10.195 -22.145  25.276  1.00  0.00    -0.000 C 
BRANCH  16  17
ATOM     17  C   UNL     1      11.530 -22.081  24.513  1.00  0.00    -0.000 C 
BRANCH  17  18
ATOM     18  C   UNL     1      12.690 -22.731  25.281  1.00  0.00    -0.000 C 
BRANCH  18  19
ATOM     19  C   UNL     1      13.960 -22.774  24.424  1.00  0.00    -0.003 C 
ATOM     20  C   UNL     1      14.234 -21.420  23.777  1.00  0.00     0.004 C 
ENDBRANCH  18  19
ENDBRANCH  17  18
ENDBRANCH  16  17
ENDBRANCH  15  16
ENDBRANCH  14  15
ENDBRANCH  13  14
ENDBRANCH  12  13
ENDBRANCH   1  12
TORSDOF 16
ENDMDL
MODEL 4
REMARK VINA RESULT:    -4.940      2.019      4.527
REMARK INTER + INTRA:         -11.811
REMARK INTER:                  -9.650
REMARK INTRA:                  -2.160
REMARK UNBOUND:                -2.249
REMARK SMILES CCCCCCCCCCCCCCCCCC(=O)[O-]
REMARK SMILES IDX 10 1 11 2 12 3 13 4 14 5 15 6 16 7 17 8 18 9 19 10 20 11
REMARK SMILES IDX 9 12 8 13 7 14 6 15 5 16 4 17 3 18 2 19 1 20
REMARK H PARENT
REMARK Flexibility Score: inf
ROOT
ATOM      1  C   UNL     1      14.996 -22.652  21.021  1.00  0.00     0.000 C 
ENDROOT
BRANCH   1   2
ATOM      2  C   UNL     1      15.352 -23.406  22.316  1.00  0.00     0.000 C 
BRANCH   2   3
ATOM      3  C   UNL     1      14.311 -23.287  23.445  1.00  0.00     0.000 C 
BRANCH   3   4
ATOM      4  C   UNL     1      13.122 -22.364  23.099  1.00  0.00     0.000 C 
BRANCH   4   5
ATOM      5  C   UNL     1      12.641 -21.553  24.314  1.00  0.00     0.000 C 
BRANCH   5   6
ATOM      6  C   UNL     1      11.216 -21.927  24.751  1.00  0.00     0.000 C 
BRANCH   6   7
ATOM      7  C   UNL     1      11.154 -22.448  26.195  1.00  0.00     0.006 C 
BRANCH   7   8
ATOM      8  C   UNL     1      11.808 -23.829  26.310  1.00  0.00     0.053 C 
BRANCH   8   9
ATOM      9  C   UNL     1      10.788 -24.863  26.669  1.00  0.00     0.041 C 
ATOM     10  O   UNL     1       9.582 -24.701  26.347  1.00  0.00    -0.550 OA
ATOM     11  O   UNL     1      11.163 -25.985  27.397  1.00  0.00    -0.550 OA
ENDBRANCH   8   9
ENDBRANCH   7   8
ENDBRANCH   6   7
ENDBRANCH   5   6
ENDBRANCH   4   5
ENDBRANCH   3   4
ENDBRANCH   2   3
ENDBRANCH   1   2
BRANCH   1  12
ATOM     12  C   UNL     1      14.457 -23.534  19.880  1.00  0.00     0.000 C 
BRANCH  12  13
ATOM     13  C   UNL     1      14.580 -25.038  20.178  1.00  0.00    -0.000 C 
BRANCH  13  14
ATOM     14  C   UNL     1      13.212 -25.733  20.274  1.00  0.00    -0.000 C 
BRANCH  14  15
ATOM     15  C   UNL     1      12.071 -24.760  20.621  1.00  0.00    -0.000 C 
BRANCH  15  16
ATOM     16  C   UNL     1      10.938 -25.450  21.409  1.00  0.00    -0.000 C 
BRANCH  16  17
ATOM     17  C   UNL     1      10.351 -24.579  22.534  1.00  0.00    -0.000 C 
BRANCH  17  18
ATOM     18  C   UNL     1       8.910 -24.963  22.899  1.00  0.00    -0.000 C 
BRANCH  18  19
ATOM     19  C   UNL     1       8.102 -23.729  23.315  1.00  0.00    -0.003 C 
ATOM     20  C   UNL     1       6.842 -23.584  22.467  1.00  0.00     0.004 C 
ENDBRANCH  18  19
ENDBRANCH  17  18
ENDBRANCH  16  17
ENDBRANCH  15  16
ENDBRANCH  14  15
ENDBRANCH  13  14
ENDBRANCH  12  13
ENDBRANCH   1  12
TORSDOF 16
ENDMDL
MODEL 5
REMARK VINA RESULT:    -4.933      2.641      6.177
REMARK INTER + INTRA:         -11.796
REMARK INTER:                  -9.855
REMARK INTRA:                  -1.941
REMARK UNBOUND:                -2.249
REMARK SMILES CCCCCCCCCCCCCCCCCC(=O)[O-]
REMARK SMILES IDX 10 1 11 2 12 3 13 4 14 5 15 6 16 7 17 8 18 9 19 10 20 11
REMARK SMILES IDX 9 12 8 13 7 14 6 15 5 16 4 17 3 18 2 19 1 20
REMARK H PARENT
REMARK Flexibility Score: inf
ROOT
ATOM      1  C   UNL     1      10.036 -25.570  21.878  1.00  0.00     0.000 C 
ENDROOT
BRANCH   1   2
ATOM      2  C   UNL     1       8.816 -24.715  22.272  1.00  0.00     0.000 C 
BRANCH   2   3
ATOM      3  C   UNL     1       8.914 -24.038  23.652  1.00  0.00     0.000 C 
BRANCH   3   4
ATOM      4  C   UNL     1       9.592 -24.915  24.727  1.00  0.00     0.000 C 
BRANCH   4   5
ATOM      5  C   UNL     1      10.037 -24.097  25.951  1.00  0.00     0.000 C 
BRANCH   5   6
ATOM      6  C   UNL     1       9.712 -22.601  25.815  1.00  0.00     0.000 C 
BRANCH   6   7
ATOM      7  C   UNL     1      10.967 -21.715  25.840  1.00  0.00     0.006 C 
BRANCH   7   8
ATOM      8  C   UNL     1      11.660 -21.703  24.473  1.00  0.00     0.053 C 
BRANCH   8   9
ATOM      9  C   UNL     1      13.102 -22.074  24.615  1.00  0.00     0.041 C 
ATOM     10  O   UNL     1      13.445 -22.996  25.400  1.00  0.00    -0.550 OA
ATOM     11  O   UNL     1      14.071 -21.372  23.910  1.00  0.00    -0.550 OA
ENDBRANCH   8   9
ENDBRANCH   7   8
ENDBRANCH   6   7
ENDBRANCH   5   6
ENDBRANCH   4   5
ENDBRANCH   3   4
ENDBRANCH   2   3
ENDBRANCH   1   2
BRANCH   1  12
ATOM     12  C   UNL     1      11.037 -24.881  20.933  1.00  0.00     0.000 C 
BRANCH  12  13
ATOM     13  C   UNL     1      12.098 -24.057  21.684  1.00  0.00    -0.000 C 
BRANCH  13  14
ATOM     14  C   UNL     1      12.278 -22.650  21.092  1.00  0.00    -0.000 C 
BRANCH  14  15
ATOM     15  C   UNL     1      13.281 -22.619  19.924  1.00  0.00    -0.000 C 
BRANCH  15  16
ATOM     16  C   UNL     1      14.625 -23.281  20.295  1.00  0.00    -0.000 C 
BRANCH  16  17
ATOM     17  C   UNL     1      15.272 -24.053  19.131  1.00  0.00    -0.000 C 
BRANCH  17  18
ATOM     18  C   UNL     1      15.358 -25.564  19.391  1.00  0.00    -0.000 C 
BRANCH  18  19
ATOM     19  C   UNL     1      14.804 -25.915  20.776  1.00  0.00    -0.003 C 
ATOM     20  C   UNL     1      15.878 -26.548  21.655  1.00  0.00     0.004 C 
ENDBRANCH  18  19
ENDBRANCH  17  18
ENDBRANCH  16  17
ENDBRANCH  15  16
ENDBRANCH  14  15
ENDBRANCH  13  14
ENDBRANCH  12  13
ENDBRANCH   1  12
TORSDOF 16
ENDMDL
MODEL 6
REMARK VINA RESULT:    -4.889      0.923      1.905
REMARK INTER + INTRA:         -11.711
REMARK INTER:                  -9.894
REMARK INTRA:                  -1.818
REMARK UNBOUND:                -2.249
REMARK SMILES CCCCCCCCCCCCCCCCCC(=O)[O-]
REMARK SMILES IDX 10 1 11 2 12 3 13 4 14 5 15 6 16 7 17 8 18 9 19 10 20 11
REMARK SMILES IDX 9 12 8 13 7 14 6 15 5 16 4 17 3 18 2 19 1 20
REMARK H PARENT
REMARK Flexibility Score: inf
ROOT
ATOM      1  C   UNL     1      14.916 -23.087  22.787  1.00  0.00     0.000 C 
ENDROOT
BRANCH   1   2
ATOM      2  C   UNL     1      15.300 -22.957  21.300  1.00  0.00     0.000 C 
BRANCH   2   3
ATOM      3  C   UNL     1      14.352 -23.673  20.320  1.00  0.00     0.000 C 
BRANCH   3   4
ATOM      4  C   UNL     1      14.302 -25.205  20.510  1.00  0.00     0.000 C 
BRANCH   4   5
ATOM      5  C   UNL     1      12.872 -25.760  20.399  1.00  0.00     0.000 C 
BRANCH   5   6
ATOM      6  C   UNL     1      11.802 -24.720  20.762  1.00  0.00     0.000 C 
BRANCH   6   7
ATOM      7  C   UNL     1      10.639 -25.318  21.569  1.00  0.00     0.006 C 
BRANCH   7   8
ATOM      8  C   UNL     1      10.161 -24.343  22.650  1.00  0.00     0.053 C 
BRANCH   8   9
ATOM      9  C   UNL     1       8.667 -24.261  22.657  1.00  0.00     0.041 C 
ATOM     10  O   UNL     1       8.058 -23.886  23.692  1.00  0.00    -0.550 OA
ATOM     11  O   UNL     1       7.946 -24.641  21.533  1.00  0.00    -0.550 OA
ENDBRANCH   8   9
ENDBRANCH   7   8
ENDBRANCH   6   7
ENDBRANCH   5   6
ENDBRANCH   4   5
ENDBRANCH   3   4
ENDBRANCH   2   3
ENDBRANCH   1   2
BRANCH   1  12
ATOM     12  C   UNL     1      13.732 -22.210  23.233  1.00  0.00     0.000 C 
BRANCH  12  13
ATOM     13  C   UNL     1      12.943 -22.823  24.404  1.00  0.00    -0.000 C 
BRANCH  13  14
ATOM     14  C   UNL     1      11.783 -21.926  24.866  1.00  0.00    -0.000 C 
BRANCH  14  15
ATOM     15  C   UNL     1      11.300 -22.262  26.288  1.00  0.00    -0.000 C 
BRANCH  15  16
ATOM     16  C   UNL     1      10.101 -23.234  26.280  1.00  0.00    -0.000 C 
BRANCH  16  17
ATOM     17  C   UNL     1      10.505 -24.711  26.444  1.00  0.00    -0.000 C 
BRANCH  17  18
ATOM     18  C   UNL     1       9.299 -25.644  26.623  1.00  0.00    -0.000 C 
BRANCH  18  19
ATOM     19  C   UNL     1       9.739 -27.011  27.158  1.00  0.00    -0.003 C 
ATOM     20  C   UNL     1      11.164 -26.958  27.702  1.00  0.00     0.004 C 
ENDBRANCH  18  19
ENDBRANCH  17  18
ENDBRANCH  16  17
ENDBRANCH  15  16
ENDBRANCH  14  15
ENDBRANCH  13  14
ENDBRANCH  12  13
ENDBRANCH   1  12
TORSDOF 16
ENDMDL
MODEL 7
REMARK VINA RESULT:    -4.735      2.900      6.510
REMARK INTER + INTRA:         -11.413
REMARK INTER:                  -9.956
REMARK INTRA:                  -1.457
REMARK UNBOUND:                -2.249
REMARK SMILES CCCCCCCCCCCCCCCCCC(=O)[O-]
REMARK SMILES IDX 10 1 11 2 12 3 13 4 14 5 15 6 16 7 17 8 18 9 19 10 20 11
REMARK SMILES IDX 9 12 8 13 7 14 6 15 5 16 4 17 3 18 2 19 1 20
REMARK H PARENT
REMARK Flexibility Score: inf
ROOT
ATOM      1  C   UNL     1       8.382 -24.146  22.815  1.00  0.00     0.000 C 
ENDROOT
BRANCH   1   2
ATOM      2  C   UNL     1       9.245 -23.741  24.025  1.00  0.00     0.000 C 
BRANCH   2   3
ATOM      3  C   UNL     1       9.521 -24.872  25.034  1.00  0.00     0.000 C 
BRANCH   3   4
ATOM      4  C   UNL     1       9.778 -24.372  26.472  1.00  0.00     0.000 C 
BRANCH   4   5
ATOM      5  C   UNL     1      11.275 -24.367  26.829  1.00  0.00     0.000 C 
BRANCH   5   6
ATOM      6  C   UNL     1      11.998 -23.104  26.336  1.00  0.00     0.000 C 
BRANCH   6   7
ATOM      7  C   UNL     1      12.903 -23.371  25.124  1.00  0.00     0.006 C 
BRANCH   7   8
ATOM      8  C   UNL     1      12.921 -22.167  24.176  1.00  0.00     0.053 C 
BRANCH   8   9
ATOM      9  C   UNL     1      14.304 -21.605  24.072  1.00  0.00     0.041 C 
ATOM     10  O   UNL     1      14.477 -20.412  23.708  1.00  0.00    -0.550 OA
ATOM     11  O   UNL     1      15.403 -22.411  24.336  1.00  0.00    -0.550 OA
ENDBRANCH   8   9
ENDBRANCH   7   8
ENDBRANCH   6   7
ENDBRANCH   5   6
ENDBRANCH   4   5
ENDBRANCH   3   4
ENDBRANCH   2   3
ENDBRANCH   1   2
BRANCH   1  12
ATOM     12  C   UNL     1       8.977 -25.260  21.934  1.00  0.00     0.000 C 
BRANCH  12  13
ATOM     13  C   UNL     1      10.515 -25.236  21.898  1.00  0.00    -0.000 C 
BRANCH  13  14
ATOM     14  C   UNL     1      11.065 -24.322  20.792  1.00  0.00    -0.000 C 
BRANCH  14  15
ATOM     15  C   UNL     1      12.229 -23.437  21.273  1.00  0.00    -0.000 C 
BRANCH  15  16
ATOM     16  C   UNL     1      13.178 -23.048  20.121  1.00  0.00    -0.000 C 
BRANCH  16  17
ATOM     17  C   UNL     1      14.668 -23.231  20.461  1.00  0.00    -0.000 C 
BRANCH  17  18
ATOM     18  C   UNL     1      14.906 -24.279  21.558  1.00  0.00    -0.000 C 
BRANCH  18  19
ATOM     19  C   UNL     1      15.396 -25.601  20.955  1.00  0.00    -0.003 C 
ATOM     20  C   UNL     1      14.839 -25.806  19.550  1.00  0.00     0.004 C 
ENDBRANCH  18  19
ENDBRANCH  17  18
ENDBRANCH  16  17
ENDBRANCH  15  16
ENDBRANCH  14  15
ENDBRANCH  13  14
ENDBRANCH  12  13
ENDBRANCH   1  12
TORSDOF 16
ENDMDL
MODEL 8
REMARK VINA RESULT:    -4.685      1.431      5.105
REMARK INTER + INTRA:         -11.317
REMARK INTER:                  -9.155
REMARK INTRA:                  -2.162
REMARK UNBOUND:                -2.249
REMARK SMILES CCCCCCCCCCCCCCCCCC(=O)[O-]
REMARK SMILES IDX 10 1 11 2 12 3 13 4 14 5 15 6 16 7 17 8 18 9 19 10 20 11
REMARK SMILES IDX 9 12 8 13 7 14 6 15 5 16 4 17 3 18 2 19 1 20
REMARK H PARENT
REMARK Flexibility Score: inf
ROOT
ATOM      1  C   UNL     1      12.949 -23.327  24.682  1.00  0.00     0.000 C 
ENDROOT
BRANCH   1   2
ATOM      2  C   UNL     1      13.196 -22.955  26.157  1.00  0.00     0.000 C 
BRANCH   2   3
ATOM      3  C   UNL     1      12.039 -23.292  27.115  1.00  0.00     0.000 C 
BRANCH   3   4
ATOM      4  C   UNL     1      11.347 -24.637  26.805  1.00  0.00     0.000 C 
BRANCH   4   5
ATOM      5  C   UNL     1       9.871 -24.456  26.409  1.00  0.00     0.000 C 
BRANCH   5   6
ATOM      6  C   UNL     1       9.551 -23.025  25.949  1.00  0.00     0.000 C 
BRANCH   6   7
ATOM      7  C   UNL     1       9.212 -22.942  24.453  1.00  0.00     0.006 C 
BRANCH   7   8
ATOM      8  C   UNL     1       9.203 -24.335  23.813  1.00  0.00     0.053 C 
BRANCH   8   9
ATOM      9  C   UNL     1       8.172 -24.406  22.731  1.00  0.00     0.041 C 
ATOM     10  O   UNL     1       8.309 -25.217  21.778  1.00  0.00    -0.550 OA
ATOM     11  O   UNL     1       7.082 -23.546  22.753  1.00  0.00    -0.550 OA
ENDBRANCH   8   9
ENDBRANCH   7   8
ENDBRANCH   6   7
ENDBRANCH   5   6
ENDBRANCH   4   5
ENDBRANCH   3   4
ENDBRANCH   2   3
ENDBRANCH   1   2
BRANCH   1  12
ATOM     12  C   UNL     1      12.995 -22.145  23.696  1.00  0.00     0.000 C 
BRANCH  12  13
ATOM     13  C   UNL     1      12.019 -22.312  22.518  1.00  0.00    -0.000 C 
BRANCH  13  14
ATOM     14  C   UNL     1      12.372 -23.513  21.626  1.00  0.00    -0.000 C 
BRANCH  14  15
ATOM     15  C   UNL     1      12.907 -23.093  20.245  1.00  0.00    -0.000 C 
BRANCH  15  16
ATOM     16  C   UNL     1      14.367 -23.544  20.026  1.00  0.00    -0.000 C 
BRANCH  16  17
ATOM     17  C   UNL     1      15.335 -23.048  21.115  1.00  0.00    -0.000 C 
BRANCH  17  18
ATOM     18  C   UNL     1      15.773 -24.161  22.077  1.00  0.00    -0.000 C 
BRANCH  18  19
ATOM     19  C   UNL     1      15.466 -25.544  21.492  1.00  0.00    -0.003 C 
ATOM     20  C   UNL     1      16.214 -26.639  22.246  1.00  0.00     0.004 C 
ENDBRANCH  18  19
ENDBRANCH  17  18
ENDBRANCH  16  17
ENDBRANCH  15  16
ENDBRANCH  14  15
ENDBRANCH  13  14
ENDBRANCH  12  13
ENDBRANCH   1  12
TORSDOF 16
ENDMDL
MODEL 9
REMARK VINA RESULT:    -4.584      3.433      7.149
REMARK INTER + INTRA:         -11.122
REMARK INTER:                  -9.141
REMARK INTRA:                  -1.981
REMARK UNBOUND:                -2.249
REMARK SMILES CCCCCCCCCCCCCCCCCC(=O)[O-]
REMARK SMILES IDX 10 1 11 2 12 3 13 4 14 5 15 6 16 7 17 8 18 9 19 10 20 11
REMARK SMILES IDX 9 12 8 13 7 14 6 15 5 16 4 17 3 18 2 19 1 20
REMARK H PARENT
REMARK Flexibility Score: inf
ROOT
ATOM      1  C   UNL     1       9.779 -25.115  24.711  1.00  0.00     0.000 C 
ENDROOT
BRANCH   1   2
ATOM      2  C   UNL     1       9.496 -24.411  26.052  1.00  0.00     0.000 C 
BRANCH   2   3
ATOM      3  C   UNL     1      10.719 -23.742  26.707  1.00  0.00     0.000 C 
BRANCH   3   4
ATOM      4  C   UNL     1      11.850 -23.407  25.711  1.00  0.00     0.000 C 
BRANCH   4   5
ATOM      5  C   UNL     1      11.664 -22.025  25.060  1.00  0.00     0.000 C 
BRANCH   5   6
ATOM      6  C   UNL     1      12.802 -21.668  24.091  1.00  0.00     0.000 C 
BRANCH   6   7
ATOM      7  C   UNL     1      14.166 -22.207  24.549  1.00  0.00     0.006 C 
BRANCH   7   8
ATOM      8  C   UNL     1      15.124 -22.360  23.362  1.00  0.00     0.053 C 
BRANCH   8   9
ATOM      9  C   UNL     1      16.506 -22.670  23.843  1.00  0.00     0.041 C 
ATOM     10  O   UNL     1      16.934 -22.164  24.913  1.00  0.00    -0.550 OA
ATOM     11  O   UNL     1      17.337 -23.486  23.086  1.00  0.00    -0.550 OA
ENDBRANCH   8   9
ENDBRANCH   7   8
ENDBRANCH   6   7
ENDBRANCH   5   6
ENDBRANCH   4   5
ENDBRANCH   3   4
ENDBRANCH   2   3
ENDBRANCH   1   2
BRANCH   1  12
ATOM     12  C   UNL     1       9.073 -24.499  23.489  1.00  0.00     0.000 C 
BRANCH  12  13
ATOM     13  C   UNL     1       9.795 -24.804  22.165  1.00  0.00    -0.000 C 
BRANCH  13  14
ATOM     14  C   UNL     1      11.216 -24.221  22.121  1.00  0.00    -0.000 C 
BRANCH  14  15
ATOM     15  C   UNL     1      11.851 -24.305  20.721  1.00  0.00    -0.000 C 
BRANCH  15  16
ATOM     16  C   UNL     1      12.766 -23.097  20.425  1.00  0.00    -0.000 C 
BRANCH  16  17
ATOM     17  C   UNL     1      14.204 -23.493  20.043  1.00  0.00    -0.000 C 
BRANCH  17  18
ATOM     18  C   UNL     1      14.662 -24.798  20.710  1.00  0.00    -0.000 C 
BRANCH  18  19
ATOM     19  C   UNL     1      15.094 -25.828  19.660  1.00  0.00    -0.003 C 
ATOM     20  C   UNL     1      15.835 -25.160  18.505  1.00  0.00     0.004 C 
ENDBRANCH  18  19
ENDBRANCH  17  18
ENDBRANCH  16  17
ENDBRANCH  15  16
ENDBRANCH  14  15
ENDBRANCH  13  14
ENDBRANCH  12  13
ENDBRANCH   1  12
TORSDOF 16
ENDMDL
