MODEL 1
REMARK VINA RESULT:     3.735      0.000      0.000
REMARK INTER + INTRA:           5.345
REMARK INTER:                   5.918
REMARK INTRA:                  -0.573
REMARK UNBOUND:                -0.573
REMARK SMILES CCCCCCCCCCCC(=O)[O-]
REMARK SMILES IDX 7 1 8 2 9 3 10 4 11 5 12 6 13 7 14 8 6 9 5 10 4 11 3 12 2 13
REMARK SMILES IDX 1 14
REMARK H PARENT
REMARK Flexibility Score: inf
ROOT
ATOM      1  C   UNL     1      16.119 -10.015  27.695  1.00  0.00     0.000 C 
ENDROOT
BRANCH   1   2
ATOM      2  C   UNL     1      15.948  -8.511  27.951  1.00  0.00     0.000 C 
BRANCH   2   3
ATOM      3  C   UNL     1      15.875  -7.686  26.653  1.00  0.00     0.000 C 
BRANCH   3   4
ATOM      4  C   UNL     1      16.142  -8.481  25.359  1.00  0.00     0.006 C 
BRANCH   4   5
ATOM      5  C   UNL     1      17.148  -7.824  24.401  1.00  0.00     0.053 C 
BRANCH   5   6
ATOM      6  C   UNL     1      18.559  -8.217  24.714  1.00  0.00     0.041 C 
ATOM      7  O   UNL     1      19.445  -8.158  23.823  1.00  0.00    -0.550 OA
ATOM      8  O   UNL     1      18.902  -8.616  26.000  1.00  0.00    -0.550 OA
ENDBRANCH   5   6
ENDBRANCH   4   5
ENDBRANCH   3   4
ENDBRANCH   2   3
ENDBRANCH   1   2
BRANCH   1   9
ATOM      9  C   UNL     1      15.877 -10.820  28.981  1.00  0.00     0.000 C 
BRANCH   9  10
ATOM     10  C   UNL     1      16.821 -10.413  30.124  1.00  0.00    -0.000 C 
BRANCH  10  11
ATOM     11  C   UNL     1      18.303 -10.579  29.755  1.00  0.00    -0.000 C 
BRANCH  11  12
ATOM     12  C   UNL     1      19.069  -9.262  29.954  1.00  0.00    -0.000 C 
BRANCH  12  13
ATOM     13  C   UNL     1      18.134  -8.054  30.112  1.00  0.00    -0.003 C 
ATOM     14  C   UNL     1      18.702  -6.780  29.487  1.00  0.00     0.004 C 
ENDBRANCH  12  13
ENDBRANCH  11  12
ENDBRANCH  10  11
ENDBRANCH   9  10
ENDBRANCH   1   9
TORSDOF 10
ENDMDL
MODEL 2
REMARK VINA RESULT:     5.678     11.831     13.368
REMARK INTER + INTRA:           8.424
REMARK INTER:                   8.936
REMARK INTRA:                  -0.512
REMARK UNBOUND:                -0.573
REMARK SMILES CCCCCCCCCCCC(=O)[O-]
REMARK SMILES IDX 7 1 8 2 9 3 10 4 11 5 12 6 13 7 14 8 6 9 5 10 4 11 3 12 2 13
REMARK SMILES IDX 1 14
REMARK H PARENT
REMARK Flexibility Score: inf
ROOT
ATOM      1  C   UNL     1      18.639 -19.482  26.550  1.00  0.00     0.000 C 
ENDROOT
BRANCH   1   2
ATOM      2  C   UNL     1      20.143 -19.198  26.423  1.00  0.00     0.000 C 
BRANCH   2   3
ATOM      3  C   UNL     1      20.999 -20.477  26.450  1.00  0.00     0.000 C 
BRANCH   3   4
ATOM      4  C   UNL     1      21.559 -20.916  25.082  1.00  0.00     0.006 C 
BRANCH   4   5
ATOM      5  C   UNL     1      23.018 -21.400  25.114  1.00  0.00     0.053 C 
BRANCH   5   6
ATOM      6  C   UNL     1      23.753 -21.047  23.858  1.00  0.00     0.041 C 
ATOM      7  O   UNL     1      23.734 -19.867  23.423  1.00  0.00    -0.550 OA
ATOM      8  O   UNL     1      24.488 -22.016  23.185  1.00  0.00    -0.550 OA
ENDBRANCH   5   6
ENDBRANCH   4   5
ENDBRANCH   3   4
ENDBRANCH   2   3
ENDBRANCH   1   2
BRANCH   1   9
ATOM      9  C   UNL     1      17.845 -18.716  25.481  1.00  0.00     0.000 C 
BRANCH   9  10
ATOM     10  C   UNL     1      18.150 -19.200  24.054  1.00  0.00    -0.000 C 
BRANCH  10  11
ATOM     11  C   UNL     1      16.909 -19.756  23.338  1.00  0.00    -0.000 C 
BRANCH  11  12
ATOM     12  C   UNL     1      17.311 -20.732  22.222  1.00  0.00    -0.000 C 
BRANCH  12  13
ATOM     13  C   UNL     1      16.538 -22.057  22.290  1.00  0.00    -0.003 C 
ATOM     14  C   UNL     1      17.243 -23.192  21.548  1.00  0.00     0.004 C 
ENDBRANCH  12  13
ENDBRANCH  11  12
ENDBRANCH  10  11
ENDBRANCH   9  10
ENDBRANCH   1   9
TORSDOF 10
ENDMDL
MODEL 3
REMARK VINA RESULT:     5.743     16.889     19.090
REMARK INTER + INTRA:           8.528
REMARK INTER:                   9.070
REMARK INTRA:                  -0.543
REMARK UNBOUND:                -0.573
REMARK SMILES CCCCCCCCCCCC(=O)[O-]
REMARK SMILES IDX 7 1 8 2 9 3 10 4 11 5 12 6 13 7 14 8 6 9 5 10 4 11 3 12 2 13
REMARK SMILES IDX 1 14
REMARK H PARENT
REMARK Flexibility Score: inf
ROOT
ATOM      1  C   UNL     1      27.432 -18.032  13.720  1.00  0.00     0.000 C 
ENDROOT
BRANCH   1   2
ATOM      2  C   UNL     1      28.687 -17.284  13.247  1.00  0.00     0.000 C 
BRANCH   2   3
ATOM      3  C   UNL     1      29.076 -16.118  14.175  1.00  0.00     0.000 C 
BRANCH   3   4
ATOM      4  C   UNL     1      27.976 -15.675  15.161  1.00  0.00     0.006 C 
BRANCH   4   5
ATOM      5  C   UNL     1      28.430 -14.637  16.201  1.00  0.00     0.053 C 
BRANCH   5   6
ATOM      6  C   UNL     1      29.098 -15.279  17.378  1.00  0.00     0.041 C 
ATOM      7  O   UNL     1      28.854 -16.479  17.668  1.00  0.00    -0.550 OA
ATOM      8  O   UNL     1      30.015 -14.561  18.135  1.00  0.00    -0.550 OA
ENDBRANCH   5   6
ENDBRANCH   4   5
ENDBRANCH   3   4
ENDBRANCH   2   3
ENDBRANCH   1   2
BRANCH   1   9
ATOM      9  C   UNL     1      27.198 -19.295  12.878  1.00  0.00     0.000 C 
BRANCH   9  10
ATOM     10  C   UNL     1      26.017 -20.137  13.386  1.00  0.00    -0.000 C 
BRANCH  10  11
ATOM     11  C   UNL     1      25.721 -19.905  14.876  1.00  0.00    -0.000 C 
BRANCH  11  12
ATOM     12  C   UNL     1      25.104 -21.158  15.514  1.00  0.00    -0.000 C 
BRANCH  12  13
ATOM     13  C   UNL     1      25.826 -22.449  15.098  1.00  0.00    -0.003 C 
ATOM     14  C   UNL     1      24.916 -23.677  15.145  1.00  0.00     0.004 C 
ENDBRANCH  12  13
ENDBRANCH  11  12
ENDBRANCH  10  11
ENDBRANCH   9  10
ENDBRANCH   1   9
TORSDOF 10
ENDMDL
MODEL 4
REMARK VINA RESULT:     5.893     17.375     19.340
REMARK INTER + INTRA:           8.765
REMARK INTER:                   9.270
REMARK INTRA:                  -0.505
REMARK UNBOUND:                -0.573
REMARK SMILES CCCCCCCCCCCC(=O)[O-]
REMARK SMILES IDX 7 1 8 2 9 3 10 4 11 5 12 6 13 7 14 8 6 9 5 10 4 11 3 12 2 13
REMARK SMILES IDX 1 14
REMARK H PARENT
REMARK Flexibility Score: inf
ROOT
ATOM      1  C   UNL     1      27.489 -18.072  13.850  1.00  0.00     0.000 C 
ENDROOT
BRANCH   1   2
ATOM      2  C   UNL     1      27.159 -19.228  12.894  1.00  0.00     0.000 C 
BRANCH   2   3
ATOM      3  C   UNL     1      25.943 -20.055  13.350  1.00  0.00     0.000 C 
BRANCH   3   4
ATOM      4  C   UNL     1      25.941 -20.445  14.842  1.00  0.00     0.006 C 
BRANCH   4   5
ATOM      5  C   UNL     1      24.835 -21.434  15.242  1.00  0.00     0.053 C 
BRANCH   5   6
ATOM      6  C   UNL     1      25.280 -22.858  15.109  1.00  0.00     0.041 C 
ATOM      7  O   UNL     1      24.442 -23.793  15.185  1.00  0.00    -0.550 OA
ATOM      8  O   UNL     1      26.616 -23.150  14.866  1.00  0.00    -0.550 OA
ENDBRANCH   5   6
ENDBRANCH   4   5
ENDBRANCH   3   4
ENDBRANCH   2   3
ENDBRANCH   1   2
BRANCH   1   9
ATOM      9  C   UNL     1      28.576 -17.164  13.256  1.00  0.00     0.000 C 
BRANCH   9  10
ATOM     10  C   UNL     1      29.094 -16.122  14.261  1.00  0.00    -0.000 C 
BRANCH  10  11
ATOM     11  C   UNL     1      28.042 -15.742  15.315  1.00  0.00    -0.000 C 
BRANCH  11  12
ATOM     12  C   UNL     1      28.600 -14.699  16.295  1.00  0.00    -0.000 C 
BRANCH  12  13
ATOM     13  C   UNL     1      29.391 -15.336  17.447  1.00  0.00    -0.003 C 
ATOM     14  C   UNL     1      28.648 -16.500  18.103  1.00  0.00     0.004 C 
ENDBRANCH  12  13
ENDBRANCH  11  12
ENDBRANCH  10  11
ENDBRANCH   9  10
ENDBRANCH   1   9
TORSDOF 10
ENDMDL
MODEL 5
REMARK VINA RESULT:     6.086     12.441     13.415
REMARK INTER + INTRA:           9.071
REMARK INTER:                   9.546
REMARK INTRA:                  -0.475
REMARK UNBOUND:                -0.573
REMARK SMILES CCCCCCCCCCCC(=O)[O-]
REMARK SMILES IDX 7 1 8 2 9 3 10 4 11 5 12 6 13 7 14 8 6 9 5 10 4 11 3 12 2 13
REMARK SMILES IDX 1 14
REMARK H PARENT
REMARK Flexibility Score: inf
ROOT
ATOM      1  C   UNL     1      17.445 -19.160  25.008  1.00  0.00     0.000 C 
ENDROOT
BRANCH   1   2
ATOM      2  C   UNL     1      17.602 -19.154  23.481  1.00  0.00     0.000 C 
BRANCH   2   3
ATOM      3  C   UNL     1      16.823 -20.290  22.793  1.00  0.00     0.000 C 
BRANCH   3   4
ATOM      4  C   UNL     1      17.697 -21.409  22.191  1.00  0.00     0.006 C 
BRANCH   4   5
ATOM      5  C   UNL     1      16.927 -22.679  21.797  1.00  0.00     0.053 C 
BRANCH   5   6
ATOM      6  C   UNL     1      17.778 -23.631  21.014  1.00  0.00     0.041 C 
ATOM      7  O   UNL     1      18.117 -24.735  21.512  1.00  0.00    -0.550 OA
ATOM      8  O   UNL     1      18.170 -23.312  19.719  1.00  0.00    -0.550 OA
ENDBRANCH   5   6
ENDBRANCH   4   5
ENDBRANCH   3   4
ENDBRANCH   2   3
ENDBRANCH   1   2
BRANCH   1   9
ATOM      9  C   UNL     1      18.756 -18.749  25.695  1.00  0.00     0.000 C 
BRANCH   9  10
ATOM     10  C   UNL     1      19.483 -19.937  26.347  1.00  0.00    -0.000 C 
BRANCH  10  11
ATOM     11  C   UNL     1      21.003 -19.727  26.432  1.00  0.00    -0.000 C 
BRANCH  11  12
ATOM     12  C   UNL     1      21.757 -20.980  25.961  1.00  0.00    -0.000 C 
BRANCH  12  13
ATOM     13  C   UNL     1      22.089 -20.940  24.462  1.00  0.00    -0.003 C 
ATOM     14  C   UNL     1      23.590 -20.825  24.192  1.00  0.00     0.004 C 
ENDBRANCH  12  13
ENDBRANCH  11  12
ENDBRANCH  10  11
ENDBRANCH   9  10
ENDBRANCH   1   9
TORSDOF 10
ENDMDL
MODEL 6
REMARK VINA RESULT:     6.250     12.575     14.055
REMARK INTER + INTRA:           9.330
REMARK INTER:                   9.777
REMARK INTRA:                  -0.447
REMARK UNBOUND:                -0.573
REMARK SMILES CCCCCCCCCCCC(=O)[O-]
REMARK SMILES IDX 7 1 8 2 9 3 10 4 11 5 12 6 13 7 14 8 6 9 5 10 4 11 3 12 2 13
REMARK SMILES IDX 1 14
REMARK H PARENT
REMARK Flexibility Score: inf
ROOT
ATOM      1  C   UNL     1      21.625 -20.971  26.019  1.00  0.00     0.000 C 
ENDROOT
BRANCH   1   2
ATOM      2  C   UNL     1      22.009 -21.052  24.534  1.00  0.00     0.000 C 
BRANCH   2   3
ATOM      3  C   UNL     1      23.429 -20.531  24.252  1.00  0.00     0.000 C 
BRANCH   3   4
ATOM      4  C   UNL     1      24.533 -21.608  24.256  1.00  0.00     0.006 C 
BRANCH   4   5
ATOM      5  C   UNL     1      25.112 -21.925  25.644  1.00  0.00     0.053 C 
BRANCH   5   6
ATOM      6  C   UNL     1      26.279 -22.859  25.565  1.00  0.00     0.041 C 
ATOM      7  O   UNL     1      27.147 -22.867  26.476  1.00  0.00    -0.550 OA
ATOM      8  O   UNL     1      26.391 -23.746  24.501  1.00  0.00    -0.550 OA
ENDBRANCH   5   6
ENDBRANCH   4   5
ENDBRANCH   3   4
ENDBRANCH   2   3
ENDBRANCH   1   2
BRANCH   1   9
ATOM      9  C   UNL     1      20.896 -19.654  26.325  1.00  0.00     0.000 C 
BRANCH   9  10
ATOM     10  C   UNL     1      19.369 -19.820  26.386  1.00  0.00    -0.000 C 
BRANCH  10  11
ATOM     11  C   UNL     1      18.618 -18.623  25.780  1.00  0.00    -0.000 C 
BRANCH  11  12
ATOM     12  C   UNL     1      17.445 -19.097  24.908  1.00  0.00    -0.000 C 
BRANCH  12  13
ATOM     13  C   UNL     1      17.812 -19.181  23.419  1.00  0.00    -0.003 C 
ATOM     14  C   UNL     1      17.159 -20.371  22.715  1.00  0.00     0.004 C 
ENDBRANCH  12  13
ENDBRANCH  11  12
ENDBRANCH  10  11
ENDBRANCH   9  10
ENDBRANCH   1   9
TORSDOF 10
ENDMDL
MODEL 7
REMARK VINA RESULT:     6.405     12.018     13.310
REMARK INTER + INTRA:           9.577
REMARK INTER:                  10.134
REMARK INTRA:                  -0.557
REMARK UNBOUND:                -0.573
REMARK SMILES CCCCCCCCCCCC(=O)[O-]
REMARK SMILES IDX 7 1 8 2 9 3 10 4 11 5 12 6 13 7 14 8 6 9 5 10 4 11 3 12 2 13
REMARK SMILES IDX 1 14
REMARK H PARENT
REMARK Flexibility Score: inf
ROOT
ATOM      1  C   UNL     1      21.638 -20.940  25.990  1.00  0.00     0.000 C 
ENDROOT
BRANCH   1   2
ATOM      2  C   UNL     1      20.872 -19.711  26.500  1.00  0.00     0.000 C 
BRANCH   2   3
ATOM      3  C   UNL     1      19.345 -19.866  26.385  1.00  0.00     0.000 C 
BRANCH   3   4
ATOM      4  C   UNL     1      18.626 -18.716  25.650  1.00  0.00     0.006 C 
BRANCH   4   5
ATOM      5  C   UNL     1      17.308 -19.117  24.970  1.00  0.00     0.053 C 
BRANCH   5   6
ATOM      6  C   UNL     1      17.512 -19.512  23.540  1.00  0.00     0.041 C 
ATOM      7  O   UNL     1      18.488 -19.055  22.890  1.00  0.00    -0.550 OA
ATOM      8  O   UNL     1      16.644 -20.413  22.935  1.00  0.00    -0.550 OA
ENDBRANCH   5   6
ENDBRANCH   4   5
ENDBRANCH   3   4
ENDBRANCH   2   3
ENDBRANCH   1   2
BRANCH   1   9
ATOM      9  C   UNL     1      22.016 -20.776  24.510  1.00  0.00     0.000 C 
BRANCH   9  10
ATOM     10  C   UNL     1      23.524 -20.566  24.302  1.00  0.00    -0.000 C 
BRANCH  10  11
ATOM     11  C   UNL     1      24.150 -21.634  23.391  1.00  0.00    -0.000 C 
BRANCH  11  12
ATOM     12  C   UNL     1      25.226 -22.432  24.143  1.00  0.00    -0.000 C 
BRANCH  12  13
ATOM     13  C   UNL     1      25.288 -22.078  25.636  1.00  0.00    -0.003 C 
ATOM     14  C   UNL     1      26.516 -22.666  26.333  1.00  0.00     0.004 C 
ENDBRANCH  12  13
ENDBRANCH  11  12
ENDBRANCH  10  11
ENDBRANCH   9  10
ENDBRANCH   1   9
TORSDOF 10
ENDMDL
MODEL 8
REMARK VINA RESULT:     6.415     12.437     13.957
REMARK INTER + INTRA:           9.592
REMARK INTER:                  10.000
REMARK INTRA:                  -0.408
REMARK UNBOUND:                -0.573
REMARK SMILES CCCCCCCCCCCC(=O)[O-]
REMARK SMILES IDX 7 1 8 2 9 3 10 4 11 5 12 6 13 7 14 8 6 9 5 10 4 11 3 12 2 13
REMARK SMILES IDX 1 14
REMARK H PARENT
REMARK Flexibility Score: inf
ROOT
ATOM      1  C   UNL     1      17.524 -19.108  23.551  1.00  0.00     0.000 C 
ENDROOT
BRANCH   1   2
ATOM      2  C   UNL     1      17.431 -19.080  25.084  1.00  0.00     0.000 C 
BRANCH   2   3
ATOM      3  C   UNL     1      18.758 -18.689  25.759  1.00  0.00     0.000 C 
BRANCH   3   4
ATOM      4  C   UNL     1      19.500 -19.846  26.456  1.00  0.00     0.006 C 
BRANCH   4   5
ATOM      5  C   UNL     1      21.033 -19.755  26.388  1.00  0.00     0.053 C 
BRANCH   5   6
ATOM      6  C   UNL     1      21.636 -20.944  25.705  1.00  0.00     0.041 C 
ATOM      7  O   UNL     1      21.444 -22.100  26.162  1.00  0.00    -0.550 OA
ATOM      8  O   UNL     1      22.381 -20.777  24.545  1.00  0.00    -0.550 OA
ENDBRANCH   5   6
ENDBRANCH   4   5
ENDBRANCH   3   4
ENDBRANCH   2   3
ENDBRANCH   1   2
BRANCH   1   9
ATOM      9  C   UNL     1      16.720 -20.283  22.975  1.00  0.00     0.000 C 
BRANCH   9  10
ATOM     10  C   UNL     1      17.590 -21.258  22.166  1.00  0.00    -0.000 C 
BRANCH  10  11
ATOM     11  C   UNL     1      16.845 -22.550  21.796  1.00  0.00    -0.000 C 
BRANCH  11  12
ATOM     12  C   UNL     1      17.833 -23.694  21.522  1.00  0.00    -0.000 C 
BRANCH  12  13
ATOM     13  C   UNL     1      17.845 -24.123  20.047  1.00  0.00    -0.003 C 
ATOM     14  C   UNL     1      18.590 -23.135  19.149  1.00  0.00     0.004 C 
ENDBRANCH  12  13
ENDBRANCH  11  12
ENDBRANCH  10  11
ENDBRANCH   9  10
ENDBRANCH   1   9
TORSDOF 10
ENDMDL
