MODEL 1
REMARK VINA RESULT:    -3.719      0.000      0.000
REMARK INTER + INTRA:          -8.312
REMARK INTER:                  -6.545
REMARK INTRA:                  -1.768
REMARK UNBOUND:                -1.768
REMARK SMILES CCCCCCCCCCCCCCC(=O)[O-]
REMARK SMILES IDX 9 1 10 2 11 3 12 4 13 5 14 6 15 7 16 8 17 9 8 10 7 11 6 12
REMARK SMILES IDX 5 13 4 14 3 15 2 16 1 17
REMARK H PARENT
REMARK Flexibility Score: inf
ROOT
ATOM      1  C   UNL     1     -22.219  30.109 -39.613  1.00  0.00     0.000 C 
ENDROOT
BRANCH   1   2
ATOM      2  C   UNL     1     -22.279  29.066 -40.742  1.00  0.00     0.000 C 
BRANCH   2   3
ATOM      3  C   UNL     1     -23.318  29.414 -41.824  1.00  0.00     0.000 C 
BRANCH   3   4
ATOM      4  C   UNL     1     -24.512  28.443 -41.929  1.00  0.00     0.000 C 
BRANCH   4   5
ATOM      5  C   UNL     1     -25.696  28.759 -40.998  1.00  0.00     0.006 C 
BRANCH   5   6
ATOM      6  C   UNL     1     -26.979  29.108 -41.765  1.00  0.00     0.053 C 
BRANCH   6   7
ATOM      7  C   UNL     1     -27.860  27.905 -41.881  1.00  0.00     0.041 C 
ATOM      8  O   UNL     1     -28.564  27.538 -40.904  1.00  0.00    -0.550 OA
ATOM      9  O   UNL     1     -27.941  27.217 -43.085  1.00  0.00    -0.550 OA
ENDBRANCH   6   7
ENDBRANCH   5   6
ENDBRANCH   4   5
ENDBRANCH   3   4
ENDBRANCH   2   3
ENDBRANCH   1   2
BRANCH   1  10
ATOM     10  C   UNL     1     -23.099  29.739 -38.405  1.00  0.00     0.000 C 
BRANCH  10  11
ATOM     11  C   UNL     1     -24.309  30.659 -38.161  1.00  0.00    -0.000 C 
BRANCH  11  12
ATOM     12  C   UNL     1     -24.256  31.952 -38.992  1.00  0.00    -0.000 C 
BRANCH  12  13
ATOM     13  C   UNL     1     -24.304  33.217 -38.118  1.00  0.00    -0.000 C 
BRANCH  13  14
ATOM     14  C   UNL     1     -23.000  34.032 -38.181  1.00  0.00    -0.000 C 
BRANCH  14  15
ATOM     15  C   UNL     1     -21.860  33.386 -37.379  1.00  0.00    -0.000 C 
BRANCH  15  16
ATOM     16  C   UNL     1     -20.579  33.214 -38.209  1.00  0.00    -0.003 C 
ATOM     17  C   UNL     1     -20.811  33.607 -39.665  1.00  0.00     0.004 C 
ENDBRANCH  15  16
ENDBRANCH  14  15
ENDBRANCH  13  14
ENDBRANCH  12  13
ENDBRANCH  11  12
ENDBRANCH  10  11
ENDBRANCH   1  10
TORSDOF 13
ENDMDL
MODEL 2
REMARK VINA RESULT:    -3.718      4.318      5.413
REMARK INTER + INTRA:          -8.312
REMARK INTER:                  -6.409
REMARK INTRA:                  -1.902
REMARK UNBOUND:                -1.768
REMARK SMILES CCCCCCCCCCCCCCC(=O)[O-]
REMARK SMILES IDX 9 1 10 2 11 3 12 4 13 5 14 6 15 7 16 8 17 9 8 10 7 11 6 12
REMARK SMILES IDX 5 13 4 14 3 15 2 16 1 17
REMARK H PARENT
REMARK Flexibility Score: inf
ROOT
ATOM      1  C   UNL     1     -24.201  30.553 -39.761  1.00  0.00     0.000 C 
ENDROOT
BRANCH   1   2
ATOM      2  C   UNL     1     -24.201  31.530 -40.949  1.00  0.00     0.000 C 
BRANCH   2   3
ATOM      3  C   UNL     1     -22.966  31.370 -41.855  1.00  0.00     0.000 C 
BRANCH   3   4
ATOM      4  C   UNL     1     -21.853  30.459 -41.299  1.00  0.00     0.000 C 
BRANCH   4   5
ATOM      5  C   UNL     1     -20.599  30.344 -42.183  1.00  0.00     0.006 C 
BRANCH   5   6
ATOM      6  C   UNL     1     -19.763  31.630 -42.200  1.00  0.00     0.053 C 
BRANCH   6   7
ATOM      7  C   UNL     1     -18.423  31.374 -42.814  1.00  0.00     0.041 C 
ATOM      8  O   UNL     1     -17.712  30.418 -42.407  1.00  0.00    -0.550 OA
ATOM      9  O   UNL     1     -17.980  32.161 -43.870  1.00  0.00    -0.550 OA
ENDBRANCH   6   7
ENDBRANCH   5   6
ENDBRANCH   4   5
ENDBRANCH   3   4
ENDBRANCH   2   3
ENDBRANCH   1   2
BRANCH   1  10
ATOM     10  C   UNL     1     -24.482  31.245 -38.414  1.00  0.00     0.000 C 
BRANCH  10  11
ATOM     11  C   UNL     1     -25.343  32.519 -38.492  1.00  0.00    -0.000 C 
BRANCH  11  12
ATOM     12  C   UNL     1     -24.744  33.696 -37.703  1.00  0.00    -0.000 C 
BRANCH  12  13
ATOM     13  C   UNL     1     -23.296  33.434 -37.261  1.00  0.00    -0.000 C 
BRANCH  13  14
ATOM     14  C   UNL     1     -22.284  34.356 -37.964  1.00  0.00    -0.000 C 
BRANCH  14  15
ATOM     15  C   UNL     1     -21.616  33.685 -39.175  1.00  0.00    -0.000 C 
BRANCH  15  16
ATOM     16  C   UNL     1     -20.156  33.291 -38.900  1.00  0.00    -0.003 C 
ATOM     17  C   UNL     1     -20.070  31.890 -38.301  1.00  0.00     0.004 C 
ENDBRANCH  15  16
ENDBRANCH  14  15
ENDBRANCH  13  14
ENDBRANCH  12  13
ENDBRANCH  11  12
ENDBRANCH  10  11
ENDBRANCH   1  10
TORSDOF 13
ENDMDL
MODEL 3
REMARK VINA RESULT:    -3.601      2.033      3.446
REMARK INTER + INTRA:          -8.106
REMARK INTER:                  -6.113
REMARK INTRA:                  -1.993
REMARK UNBOUND:                -1.768
REMARK SMILES CCCCCCCCCCCCCCC(=O)[O-]
REMARK SMILES IDX 9 1 10 2 11 3 12 4 13 5 14 6 15 7 16 8 17 9 8 10 7 11 6 12
REMARK SMILES IDX 5 13 4 14 3 15 2 16 1 17
REMARK H PARENT
REMARK Flexibility Score: inf
ROOT
ATOM      1  C   UNL     1     -20.254  30.347 -42.205  1.00  0.00     0.000 C 
ENDROOT
BRANCH   1   2
ATOM      2  C   UNL     1     -21.751  30.056 -42.400  1.00  0.00     0.000 C 
BRANCH   2   3
ATOM      3  C   UNL     1     -22.631  31.310 -42.239  1.00  0.00     0.000 C 
BRANCH   3   4
ATOM      4  C   UNL     1     -23.405  31.407 -40.908  1.00  0.00     0.000 C 
BRANCH   4   5
ATOM      5  C   UNL     1     -23.490  30.098 -40.103  1.00  0.00     0.006 C 
BRANCH   5   6
ATOM      6  C   UNL     1     -24.916  29.534 -40.036  1.00  0.00     0.053 C 
BRANCH   6   7
ATOM      7  C   UNL     1     -25.403  29.180 -41.405  1.00  0.00     0.041 C 
ATOM      8  O   UNL     1     -24.839  28.265 -42.060  1.00  0.00    -0.550 OA
ATOM      9  O   UNL     1     -26.510  29.828 -41.939  1.00  0.00    -0.550 OA
ENDBRANCH   6   7
ENDBRANCH   5   6
ENDBRANCH   4   5
ENDBRANCH   3   4
ENDBRANCH   2   3
ENDBRANCH   1   2
BRANCH   1  10
ATOM     10  C   UNL     1     -19.743  29.960 -40.805  1.00  0.00     0.000 C 
BRANCH  10  11
ATOM     11  C   UNL     1     -19.001  31.072 -40.041  1.00  0.00    -0.000 C 
BRANCH  11  12
ATOM     12  C   UNL     1     -19.227  32.469 -40.645  1.00  0.00    -0.000 C 
BRANCH  12  13
ATOM     13  C   UNL     1     -20.353  33.241 -39.939  1.00  0.00    -0.000 C 
BRANCH  13  14
ATOM     14  C   UNL     1     -20.298  33.105 -38.407  1.00  0.00    -0.000 C 
BRANCH  14  15
ATOM     15  C   UNL     1     -21.678  32.834 -37.788  1.00  0.00    -0.000 C 
BRANCH  15  16
ATOM     16  C   UNL     1     -22.535  34.104 -37.677  1.00  0.00    -0.003 C 
ATOM     17  C   UNL     1     -24.015  33.787 -37.873  1.00  0.00     0.004 C 
ENDBRANCH  15  16
ENDBRANCH  14  15
ENDBRANCH  13  14
ENDBRANCH  12  13
ENDBRANCH  11  12
ENDBRANCH  10  11
ENDBRANCH   1  10
TORSDOF 13
ENDMDL
MODEL 4
REMARK VINA RESULT:    -3.578      2.530      4.193
REMARK INTER + INTRA:          -8.064
REMARK INTER:                  -6.182
REMARK INTRA:                  -1.883
REMARK UNBOUND:                -1.768
REMARK SMILES CCCCCCCCCCCCCCC(=O)[O-]
REMARK SMILES IDX 9 1 10 2 11 3 12 4 13 5 14 6 15 7 16 8 17 9 8 10 7 11 6 12
REMARK SMILES IDX 5 13 4 14 3 15 2 16 1 17
REMARK H PARENT
REMARK Flexibility Score: inf
ROOT
ATOM      1  C   UNL     1     -18.641  29.904 -40.966  1.00  0.00     0.000 C 
ENDROOT
BRANCH   1   2
ATOM      2  C   UNL     1     -19.286  30.405 -42.269  1.00  0.00     0.000 C 
BRANCH   2   3
ATOM      3  C   UNL     1     -20.805  30.156 -42.319  1.00  0.00     0.000 C 
BRANCH   3   4
ATOM      4  C   UNL     1     -21.669  31.191 -41.571  1.00  0.00     0.000 C 
BRANCH   4   5
ATOM      5  C   UNL     1     -22.364  30.668 -40.301  1.00  0.00     0.006 C 
BRANCH   5   6
ATOM      6  C   UNL     1     -22.987  29.279 -40.493  1.00  0.00     0.053 C 
BRANCH   6   7
ATOM      7  C   UNL     1     -24.195  29.367 -41.372  1.00  0.00     0.041 C 
ATOM      8  O   UNL     1     -24.461  28.435 -42.176  1.00  0.00    -0.550 OA
ATOM      9  O   UNL     1     -25.053  30.454 -41.268  1.00  0.00    -0.550 OA
ENDBRANCH   6   7
ENDBRANCH   5   6
ENDBRANCH   4   5
ENDBRANCH   3   4
ENDBRANCH   2   3
ENDBRANCH   1   2
BRANCH   1  10
ATOM     10  C   UNL     1     -17.912  31.016 -40.190  1.00  0.00     0.000 C 
BRANCH  10  11
ATOM     11  C   UNL     1     -18.232  32.454 -40.637  1.00  0.00    -0.000 C 
BRANCH  11  12
ATOM     12  C   UNL     1     -19.138  33.203 -39.646  1.00  0.00    -0.000 C 
BRANCH  12  13
ATOM     13  C   UNL     1     -19.519  32.344 -38.429  1.00  0.00    -0.000 C 
BRANCH  13  14
ATOM     14  C   UNL     1     -20.791  32.844 -37.723  1.00  0.00    -0.000 C 
BRANCH  14  15
ATOM     15  C   UNL     1     -21.400  34.078 -38.406  1.00  0.00    -0.000 C 
BRANCH  15  16
ATOM     16  C   UNL     1     -22.936  34.043 -38.427  1.00  0.00    -0.003 C 
ATOM     17  C   UNL     1     -23.492  33.550 -37.094  1.00  0.00     0.004 C 
ENDBRANCH  15  16
ENDBRANCH  14  15
ENDBRANCH  13  14
ENDBRANCH  12  13
ENDBRANCH  11  12
ENDBRANCH  10  11
ENDBRANCH   1  10
TORSDOF 13
ENDMDL
MODEL 5
REMARK VINA RESULT:    -3.561     10.805     12.710
REMARK INTER + INTRA:          -8.034
REMARK INTER:                  -5.896
REMARK INTRA:                  -2.139
REMARK UNBOUND:                -1.768
REMARK SMILES CCCCCCCCCCCCCCC(=O)[O-]
REMARK SMILES IDX 9 1 10 2 11 3 12 4 13 5 14 6 15 7 16 8 17 9 8 10 7 11 6 12
REMARK SMILES IDX 5 13 4 14 3 15 2 16 1 17
REMARK H PARENT
REMARK Flexibility Score: inf
ROOT
ATOM      1  C   UNL     1     -26.310  20.385 -38.419  1.00  0.00     0.000 C 
ENDROOT
BRANCH   1   2
ATOM      2  C   UNL     1     -25.461  21.082 -37.343  1.00  0.00     0.000 C 
BRANCH   2   3
ATOM      3  C   UNL     1     -25.217  20.197 -36.106  1.00  0.00     0.000 C 
BRANCH   3   4
ATOM      4  C   UNL     1     -25.632  18.719 -36.260  1.00  0.00     0.000 C 
BRANCH   4   5
ATOM      5  C   UNL     1     -26.034  18.013 -34.953  1.00  0.00     0.006 C 
BRANCH   5   6
ATOM      6  C   UNL     1     -25.930  18.929 -33.726  1.00  0.00     0.053 C 
BRANCH   6   7
ATOM      7  C   UNL     1     -24.725  18.576 -32.912  1.00  0.00     0.041 C 
ATOM      8  O   UNL     1     -23.785  19.403 -32.781  1.00  0.00    -0.550 OA
ATOM      9  O   UNL     1     -24.661  17.352 -32.259  1.00  0.00    -0.550 OA
ENDBRANCH   6   7
ENDBRANCH   5   6
ENDBRANCH   4   5
ENDBRANCH   3   4
ENDBRANCH   2   3
ENDBRANCH   1   2
BRANCH   1  10
ATOM     10  C   UNL     1     -27.211  21.360 -39.199  1.00  0.00     0.000 C 
BRANCH  10  11
ATOM     11  C   UNL     1     -28.681  20.928 -39.347  1.00  0.00    -0.000 C 
BRANCH  11  12
ATOM     12  C   UNL     1     -29.046  19.726 -38.459  1.00  0.00    -0.000 C 
BRANCH  12  13
ATOM     13  C   UNL     1     -29.895  20.128 -37.242  1.00  0.00    -0.000 C 
BRANCH  13  14
ATOM     14  C   UNL     1     -29.106  20.071 -35.922  1.00  0.00    -0.000 C 
BRANCH  14  15
ATOM     15  C   UNL     1     -28.635  21.456 -35.454  1.00  0.00    -0.000 C 
BRANCH  15  16
ATOM     16  C   UNL     1     -29.386  22.601 -36.152  1.00  0.00    -0.003 C 
ATOM     17  C   UNL     1     -30.341  23.300 -35.188  1.00  0.00     0.004 C 
ENDBRANCH  15  16
ENDBRANCH  14  15
ENDBRANCH  13  14
ENDBRANCH  12  13
ENDBRANCH  11  12
ENDBRANCH  10  11
ENDBRANCH   1  10
TORSDOF 13
ENDMDL
MODEL 6
REMARK VINA RESULT:    -3.560      1.542      3.446
REMARK INTER + INTRA:          -8.034
REMARK INTER:                  -6.133
REMARK INTRA:                  -1.901
REMARK UNBOUND:                -1.768
REMARK SMILES CCCCCCCCCCCCCCC(=O)[O-]
REMARK SMILES IDX 9 1 10 2 11 3 12 4 13 5 14 6 15 7 16 8 17 9 8 10 7 11 6 12
REMARK SMILES IDX 5 13 4 14 3 15 2 16 1 17
REMARK H PARENT
REMARK Flexibility Score: inf
ROOT
ATOM      1  C   UNL     1     -24.066  32.779 -38.114  1.00  0.00     0.000 C 
ENDROOT
BRANCH   1   2
ATOM      2  C   UNL     1     -23.714  31.282 -38.106  1.00  0.00     0.000 C 
BRANCH   2   3
ATOM      3  C   UNL     1     -24.142  30.560 -39.397  1.00  0.00     0.000 C 
BRANCH   3   4
ATOM      4  C   UNL     1     -24.582  31.480 -40.554  1.00  0.00     0.000 C 
BRANCH   4   5
ATOM      5  C   UNL     1     -25.641  30.884 -41.497  1.00  0.00     0.006 C 
BRANCH   5   6
ATOM      6  C   UNL     1     -26.436  29.741 -40.853  1.00  0.00     0.053 C 
BRANCH   6   7
ATOM      7  C   UNL     1     -26.308  28.493 -41.667  1.00  0.00     0.041 C 
ATOM      8  O   UNL     1     -27.316  27.770 -41.882  1.00  0.00    -0.550 OA
ATOM      9  O   UNL     1     -25.084  28.153 -42.231  1.00  0.00    -0.550 OA
ENDBRANCH   6   7
ENDBRANCH   5   6
ENDBRANCH   4   5
ENDBRANCH   3   4
ENDBRANCH   2   3
ENDBRANCH   1   2
BRANCH   1  10
ATOM     10  C   UNL     1     -23.109  33.626 -37.255  1.00  0.00     0.000 C 
BRANCH  10  11
ATOM     11  C   UNL     1     -21.986  34.342 -38.026  1.00  0.00    -0.000 C 
BRANCH  11  12
ATOM     12  C   UNL     1     -20.724  33.478 -38.190  1.00  0.00    -0.000 C 
BRANCH  12  13
ATOM     13  C   UNL     1     -20.250  33.397 -39.650  1.00  0.00    -0.000 C 
BRANCH  13  14
ATOM     14  C   UNL     1     -20.926  32.257 -40.432  1.00  0.00    -0.000 C 
BRANCH  14  15
ATOM     15  C   UNL     1     -20.440  30.868 -39.990  1.00  0.00    -0.000 C 
BRANCH  15  16
ATOM     16  C   UNL     1     -20.893  29.753 -40.944  1.00  0.00    -0.003 C 
ATOM     17  C   UNL     1     -21.400  30.331 -42.263  1.00  0.00     0.004 C 
ENDBRANCH  15  16
ENDBRANCH  14  15
ENDBRANCH  13  14
ENDBRANCH  12  13
ENDBRANCH  11  12
ENDBRANCH  10  11
ENDBRANCH   1  10
TORSDOF 13
ENDMDL
MODEL 7
REMARK VINA RESULT:    -3.551      2.229      3.671
REMARK INTER + INTRA:          -8.018
REMARK INTER:                  -5.954
REMARK INTRA:                  -2.063
REMARK UNBOUND:                -1.768
REMARK SMILES CCCCCCCCCCCCCCC(=O)[O-]
REMARK SMILES IDX 9 1 10 2 11 3 12 4 13 5 14 6 15 7 16 8 17 9 8 10 7 11 6 12
REMARK SMILES IDX 5 13 4 14 3 15 2 16 1 17
REMARK H PARENT
REMARK Flexibility Score: inf
ROOT
ATOM      1  C   UNL     1     -18.931  32.436 -40.610  1.00  0.00     0.000 C 
ENDROOT
BRANCH   1   2
ATOM      2  C   UNL     1     -19.585  31.083 -40.936  1.00  0.00     0.000 C 
BRANCH   2   3
ATOM      3  C   UNL     1     -20.067  30.987 -42.396  1.00  0.00     0.000 C 
BRANCH   3   4
ATOM      4  C   UNL     1     -21.257  30.036 -42.637  1.00  0.00     0.000 C 
BRANCH   4   5
ATOM      5  C   UNL     1     -22.595  30.496 -42.034  1.00  0.00     0.006 C 
BRANCH   5   6
ATOM      6  C   UNL     1     -23.642  29.375 -41.984  1.00  0.00     0.053 C 
BRANCH   6   7
ATOM      7  C   UNL     1     -24.811  29.790 -41.148  1.00  0.00     0.041 C 
ATOM      8  O   UNL     1     -25.088  29.163 -40.091  1.00  0.00    -0.550 OA
ATOM      9  O   UNL     1     -25.566  30.898 -41.509  1.00  0.00    -0.550 OA
ENDBRANCH   6   7
ENDBRANCH   5   6
ENDBRANCH   4   5
ENDBRANCH   3   4
ENDBRANCH   2   3
ENDBRANCH   1   2
BRANCH   1  10
ATOM     10  C   UNL     1     -19.556  33.125 -39.382  1.00  0.00     0.000 C 
BRANCH  10  11
ATOM     11  C   UNL     1     -20.947  33.744 -39.609  1.00  0.00    -0.000 C 
BRANCH  11  12
ATOM     12  C   UNL     1     -21.648  34.140 -38.298  1.00  0.00    -0.000 C 
BRANCH  12  13
ATOM     13  C   UNL     1     -23.162  33.879 -38.337  1.00  0.00    -0.000 C 
BRANCH  13  14
ATOM     14  C   UNL     1     -23.512  32.489 -38.898  1.00  0.00    -0.000 C 
BRANCH  14  15
ATOM     15  C   UNL     1     -23.244  31.361 -37.889  1.00  0.00    -0.000 C 
BRANCH  15  16
ATOM     16  C   UNL     1     -22.198  30.354 -38.394  1.00  0.00    -0.003 C 
ATOM     17  C   UNL     1     -21.010  30.273 -37.439  1.00  0.00     0.004 C 
ENDBRANCH  15  16
ENDBRANCH  14  15
ENDBRANCH  13  14
ENDBRANCH  12  13
ENDBRANCH  11  12
ENDBRANCH  10  11
ENDBRANCH   1  10
TORSDOF 13
ENDMDL
MODEL 8
REMARK VINA RESULT:    -3.531      2.314      3.818
REMARK INTER + INTRA:          -7.983
REMARK INTER:                  -5.934
REMARK INTRA:                  -2.049
REMARK UNBOUND:                -1.768
REMARK SMILES CCCCCCCCCCCCCCC(=O)[O-]
REMARK SMILES IDX 9 1 10 2 11 3 12 4 13 5 14 6 15 7 16 8 17 9 8 10 7 11 6 12
REMARK SMILES IDX 5 13 4 14 3 15 2 16 1 17
REMARK H PARENT
REMARK Flexibility Score: inf
ROOT
ATOM      1  C   UNL     1     -21.640  29.997 -41.270  1.00  0.00     0.000 C 
ENDROOT
BRANCH   1   2
ATOM      2  C   UNL     1     -22.253  31.141 -42.095  1.00  0.00     0.000 C 
BRANCH   2   3
ATOM      3  C   UNL     1     -23.573  31.666 -41.501  1.00  0.00     0.000 C 
BRANCH   3   4
ATOM      4  C   UNL     1     -23.958  31.081 -40.126  1.00  0.00     0.000 C 
BRANCH   4   5
ATOM      5  C   UNL     1     -25.312  30.351 -40.081  1.00  0.00     0.006 C 
BRANCH   5   6
ATOM      6  C   UNL     1     -25.892  30.087 -41.477  1.00  0.00     0.053 C 
BRANCH   6   7
ATOM      7  C   UNL     1     -25.721  28.648 -41.849  1.00  0.00     0.041 C 
ATOM      8  O   UNL     1     -24.571  28.140 -41.903  1.00  0.00    -0.550 OA
ATOM      9  O   UNL     1     -26.837  27.855 -42.089  1.00  0.00    -0.550 OA
ENDBRANCH   6   7
ENDBRANCH   5   6
ENDBRANCH   4   5
ENDBRANCH   3   4
ENDBRANCH   2   3
ENDBRANCH   1   2
BRANCH   1  10
ATOM     10  C   UNL     1     -20.104  29.942 -41.368  1.00  0.00     0.000 C 
BRANCH  10  11
ATOM     11  C   UNL     1     -19.487  30.729 -42.538  1.00  0.00    -0.000 C 
BRANCH  11  12
ATOM     12  C   UNL     1     -18.741  31.995 -42.083  1.00  0.00    -0.000 C 
BRANCH  12  13
ATOM     13  C   UNL     1     -17.941  31.775 -40.789  1.00  0.00    -0.000 C 
BRANCH  13  14
ATOM     14  C   UNL     1     -18.461  32.626 -39.617  1.00  0.00    -0.000 C 
BRANCH  14  15
ATOM     15  C   UNL     1     -19.751  33.385 -39.965  1.00  0.00    -0.000 C 
BRANCH  15  16
ATOM     16  C   UNL     1     -20.930  32.986 -39.064  1.00  0.00    -0.003 C 
ATOM     17  C   UNL     1     -20.499  31.964 -38.016  1.00  0.00     0.004 C 
ENDBRANCH  15  16
ENDBRANCH  14  15
ENDBRANCH  13  14
ENDBRANCH  12  13
ENDBRANCH  11  12
ENDBRANCH  10  11
ENDBRANCH   1  10
TORSDOF 13
ENDMDL
MODEL 9
REMARK VINA RESULT:    -3.528      1.499      3.003
REMARK INTER + INTRA:          -7.978
REMARK INTER:                  -6.225
REMARK INTRA:                  -1.753
REMARK UNBOUND:                -1.768
REMARK SMILES CCCCCCCCCCCCCCC(=O)[O-]
REMARK SMILES IDX 9 1 10 2 11 3 12 4 13 5 14 6 15 7 16 8 17 9 8 10 7 11 6 12
REMARK SMILES IDX 5 13 4 14 3 15 2 16 1 17
REMARK H PARENT
REMARK Flexibility Score: inf
ROOT
ATOM      1  C   UNL     1     -23.098  31.412 -41.878  1.00  0.00     0.000 C 
ENDROOT
BRANCH   1   2
ATOM      2  C   UNL     1     -24.032  31.384 -40.656  1.00  0.00     0.000 C 
BRANCH   2   3
ATOM      3  C   UNL     1     -24.068  30.010 -39.961  1.00  0.00     0.000 C 
BRANCH   3   4
ATOM      4  C   UNL     1     -25.387  29.226 -40.116  1.00  0.00     0.000 C 
BRANCH   4   5
ATOM      5  C   UNL     1     -25.750  28.837 -41.560  1.00  0.00     0.006 C 
BRANCH   5   6
ATOM      6  C   UNL     1     -27.222  29.112 -41.898  1.00  0.00     0.053 C 
BRANCH   6   7
ATOM      7  C   UNL     1     -27.986  27.829 -41.982  1.00  0.00     0.041 C 
ATOM      8  O   UNL     1     -28.026  27.186 -43.064  1.00  0.00    -0.550 OA
ATOM      9  O   UNL     1     -28.615  27.318 -40.853  1.00  0.00    -0.550 OA
ENDBRANCH   6   7
ENDBRANCH   5   6
ENDBRANCH   4   5
ENDBRANCH   3   4
ENDBRANCH   2   3
ENDBRANCH   1   2
BRANCH   1  10
ATOM     10  C   UNL     1     -22.171  30.185 -41.954  1.00  0.00     0.000 C 
BRANCH  10  11
ATOM     11  C   UNL     1     -20.688  30.492 -42.227  1.00  0.00    -0.000 C 
BRANCH  11  12
ATOM     12  C   UNL     1     -20.099  31.522 -41.249  1.00  0.00    -0.000 C 
BRANCH  12  13
ATOM     13  C   UNL     1     -20.036  30.997 -39.805  1.00  0.00    -0.000 C 
BRANCH  13  14
ATOM     14  C   UNL     1     -20.787  31.900 -38.811  1.00  0.00    -0.000 C 
BRANCH  14  15
ATOM     15  C   UNL     1     -21.049  33.307 -39.372  1.00  0.00    -0.000 C 
BRANCH  15  16
ATOM     16  C   UNL     1     -21.797  34.208 -38.377  1.00  0.00    -0.003 C 
ATOM     17  C   UNL     1     -22.983  33.474 -37.756  1.00  0.00     0.004 C 
ENDBRANCH  15  16
ENDBRANCH  14  15
ENDBRANCH  13  14
ENDBRANCH  12  13
ENDBRANCH  11  12
ENDBRANCH  10  11
ENDBRANCH   1  10
TORSDOF 13
ENDMDL
