MODEL 1
REMARK VINA RESULT:    -4.330      0.000      0.000
REMARK INTER + INTRA:          -7.450
REMARK INTER:                  -6.356
REMARK INTRA:                  -1.094
REMARK UNBOUND:                -1.094
REMARK SMILES CCCOC(=O)c1ccccc1C(=O)OCCC
REMARK SMILES IDX 7 1 8 2 9 3 10 4 11 5 12 6 5 7 6 8 4 9 3 10 2 11 1 12 13 13
REMARK SMILES IDX 14 14 15 15 16 16 17 17 18 18
REMARK H PARENT
REMARK Flexibility Score: inf
ROOT
ATOM      1  C   UNL     1     139.454 140.493 138.980  1.00  0.00     0.074 A 
ATOM      2  C   UNL     1     139.855 141.183 140.140  1.00  0.00     0.016 A 
ATOM      3  C   UNL     1     139.146 141.042 141.333  1.00  0.00     0.001 A 
ATOM      4  C   UNL     1     138.025 140.216 141.387  1.00  0.00     0.001 A 
ATOM      5  C   UNL     1     137.623 139.506 140.255  1.00  0.00     0.016 A 
ATOM      6  C   UNL     1     138.340 139.614 139.051  1.00  0.00     0.074 A 
ENDROOT
BRANCH   1   7
ATOM      7  C   UNL     1     140.162 140.771 137.709  1.00  0.00     0.339 C 
ATOM      8  O   UNL     1     141.341 140.352 137.543  1.00  0.00    -0.246 OA
BRANCH   7   9
ATOM      9  O   UNL     1     139.543 141.546 136.721  1.00  0.00    -0.462 OA
BRANCH   9  10
ATOM     10  C   UNL     1     139.709 141.323 135.323  1.00  0.00     0.233 C 
BRANCH  10  11
ATOM     11  C   UNL     1     138.360 141.407 134.604  1.00  0.00     0.038 C 
ATOM     12  C   UNL     1     138.102 140.157 133.768  1.00  0.00     0.007 C 
ENDBRANCH  10  11
ENDBRANCH   9  10
ENDBRANCH   7   9
ENDBRANCH   1   7
BRANCH   6  13
ATOM     13  C   UNL     1     137.935 138.755 137.920  1.00  0.00     0.339 C 
ATOM     14  O   UNL     1     137.106 139.180 137.068  1.00  0.00    -0.246 OA
BRANCH  13  15
ATOM     15  O   UNL     1     138.509 137.486 137.775  1.00  0.00    -0.462 OA
BRANCH  15  16
ATOM     16  C   UNL     1     139.833 137.278 137.287  1.00  0.00     0.233 C 
BRANCH  16  17
ATOM     17  C   UNL     1     139.904 137.576 135.787  1.00  0.00     0.038 C 
ATOM     18  C   UNL     1     139.002 136.637 134.992  1.00  0.00     0.007 C 
ENDBRANCH  16  17
ENDBRANCH  15  16
ENDBRANCH  13  15
ENDBRANCH   6  13
TORSDOF 8
ENDMDL
MODEL 2
REMARK VINA RESULT:    -4.319      1.632      3.975
REMARK INTER + INTRA:          -7.433
REMARK INTER:                  -6.646
REMARK INTRA:                  -0.788
REMARK UNBOUND:                -1.094
REMARK SMILES CCCOC(=O)c1ccccc1C(=O)OCCC
REMARK SMILES IDX 7 1 8 2 9 3 10 4 11 5 12 6 5 7 6 8 4 9 3 10 2 11 1 12 13 13
REMARK SMILES IDX 14 14 15 15 16 16 17 17 18 18
REMARK H PARENT
REMARK Flexibility Score: inf
ROOT
ATOM      1  C   UNL     1     139.037 138.153 139.022  1.00  0.00     0.074 A 
ATOM      2  C   UNL     1     138.636 137.452 140.175  1.00  0.00     0.016 A 
ATOM      3  C   UNL     1     139.295 137.645 141.390  1.00  0.00     0.001 A 
ATOM      4  C   UNL     1     140.365 138.534 141.472  1.00  0.00     0.001 A 
ATOM      5  C   UNL     1     140.764 139.255 140.346  1.00  0.00     0.016 A 
ATOM      6  C   UNL     1     140.096 139.094 139.119  1.00  0.00     0.074 A 
ENDROOT
BRANCH   1   7
ATOM      7  C   UNL     1     138.390 137.822 137.731  1.00  0.00     0.339 C 
ATOM      8  O   UNL     1     137.206 138.198 137.508  1.00  0.00    -0.246 OA
BRANCH   7   9
ATOM      9  O   UNL     1     139.073 137.045 136.787  1.00  0.00    -0.462 OA
BRANCH   9  10
ATOM     10  C   UNL     1     138.914 137.193 135.379  1.00  0.00     0.233 C 
BRANCH  10  11
ATOM     11  C   UNL     1     139.596 136.040 134.639  1.00  0.00     0.038 C 
ATOM     12  C   UNL     1     138.574 135.159 133.928  1.00  0.00     0.007 C 
ENDBRANCH  10  11
ENDBRANCH   9  10
ENDBRANCH   7   9
ENDBRANCH   1   7
BRANCH   6  13
ATOM     13  C   UNL     1     140.490 139.965 137.993  1.00  0.00     0.339 C 
ATOM     14  O   UNL     1     141.372 139.581 137.176  1.00  0.00    -0.246 OA
BRANCH  13  15
ATOM     15  O   UNL     1     139.848 141.196 137.813  1.00  0.00    -0.462 OA
BRANCH  15  16
ATOM     16  C   UNL     1     138.546 141.323 137.245  1.00  0.00     0.233 C 
BRANCH  16  17
ATOM     17  C   UNL     1     138.584 141.023 135.744  1.00  0.00     0.038 C 
ATOM     18  C   UNL     1     139.452 142.033 135.000  1.00  0.00     0.007 C 
ENDBRANCH  16  17
ENDBRANCH  15  16
ENDBRANCH  13  15
ENDBRANCH   6  13
TORSDOF 8
ENDMDL
MODEL 3
REMARK VINA RESULT:    -4.306      1.581      5.596
REMARK INTER + INTRA:          -7.414
REMARK INTER:                  -6.283
REMARK INTRA:                  -1.130
REMARK UNBOUND:                -1.094
REMARK SMILES CCCOC(=O)c1ccccc1C(=O)OCCC
REMARK SMILES IDX 7 1 8 2 9 3 10 4 11 5 12 6 5 7 6 8 4 9 3 10 2 11 1 12 13 13
REMARK SMILES IDX 14 14 15 15 16 16 17 17 18 18
REMARK H PARENT
REMARK Flexibility Score: inf
ROOT
ATOM      1  C   UNL     1     139.376 137.827 136.364  1.00  0.00     0.074 A 
ATOM      2  C   UNL     1     139.311 136.745 135.466  1.00  0.00     0.016 A 
ATOM      3  C   UNL     1     140.126 136.710 134.333  1.00  0.00     0.001 A 
ATOM      4  C   UNL     1     141.012 137.755 134.076  1.00  0.00     0.001 A 
ATOM      5  C   UNL     1     141.106 138.826 134.965  1.00  0.00     0.016 A 
ATOM      6  C   UNL     1     140.314 138.867 136.125  1.00  0.00     0.074 A 
ENDROOT
BRANCH   1   7
ATOM      7  C   UNL     1     138.406 137.879 137.482  1.00  0.00     0.339 C 
ATOM      8  O   UNL     1     137.229 138.283 137.273  1.00  0.00    -0.246 OA
BRANCH   7   9
ATOM      9  O   UNL     1     138.815 137.535 138.776  1.00  0.00    -0.462 OA
BRANCH   9  10
ATOM     10  C   UNL     1     138.602 138.362 139.918  1.00  0.00     0.233 C 
BRANCH  10  11
ATOM     11  C   UNL     1     139.262 137.749 141.154  1.00  0.00     0.038 C 
ATOM     12  C   UNL     1     138.608 136.423 141.529  1.00  0.00     0.007 C 
ENDBRANCH  10  11
ENDBRANCH   9  10
ENDBRANCH   7   9
ENDBRANCH   1   7
BRANCH   6  13
ATOM     13  C   UNL     1     140.537 139.968 137.083  1.00  0.00     0.339 C 
ATOM     14  O   UNL     1     141.258 139.781 138.103  1.00  0.00    -0.246 OA
BRANCH  13  15
ATOM     15  O   UNL     1     139.983 141.228 136.832  1.00  0.00    -0.462 OA
BRANCH  15  16
ATOM     16  C   UNL     1     138.623 141.421 136.449  1.00  0.00     0.233 C 
BRANCH  16  17
ATOM     17  C   UNL     1     138.516 141.618 134.935  1.00  0.00     0.038 C 
ATOM     18  C   UNL     1     137.614 140.562 134.302  1.00  0.00     0.007 C 
ENDBRANCH  16  17
ENDBRANCH  15  16
ENDBRANCH  13  15
ENDBRANCH   6  13
TORSDOF 8
ENDMDL
MODEL 4
REMARK VINA RESULT:    -4.289      1.872      2.360
REMARK INTER + INTRA:          -7.390
REMARK INTER:                  -6.625
REMARK INTRA:                  -0.765
REMARK UNBOUND:                -1.094
REMARK SMILES CCCOC(=O)c1ccccc1C(=O)OCCC
REMARK SMILES IDX 7 1 8 2 9 3 10 4 11 5 12 6 5 7 6 8 4 9 3 10 2 11 1 12 13 13
REMARK SMILES IDX 14 14 15 15 16 16 17 17 18 18
REMARK H PARENT
REMARK Flexibility Score: inf
ROOT
ATOM      1  C   UNL     1     139.935 139.301 139.183  1.00  0.00     0.074 A 
ATOM      2  C   UNL     1     140.586 139.479 140.418  1.00  0.00     0.016 A 
ATOM      3  C   UNL     1     140.278 138.663 141.508  1.00  0.00     0.001 A 
ATOM      4  C   UNL     1     139.315 137.663 141.384  1.00  0.00     0.001 A 
ATOM      5  C   UNL     1     138.675 137.457 140.162  1.00  0.00     0.016 A 
ATOM      6  C   UNL     1     138.989 138.250 139.045  1.00  0.00     0.074 A 
ENDROOT
BRANCH   1   7
ATOM      7  C   UNL     1     140.205 140.269 138.094  1.00  0.00     0.339 C 
ATOM      8  O   UNL     1     139.459 141.277 137.952  1.00  0.00    -0.246 OA
BRANCH   7   9
ATOM      9  O   UNL     1     141.250 140.032 137.193  1.00  0.00    -0.462 OA
BRANCH   9  10
ATOM     10  C   UNL     1     141.119 140.167 135.780  1.00  0.00     0.233 C 
BRANCH  10  11
ATOM     11  C   UNL     1     141.995 139.139 135.060  1.00  0.00     0.038 C 
ATOM     12  C   UNL     1     143.083 139.821 134.237  1.00  0.00     0.007 C 
ENDBRANCH  10  11
ENDBRANCH   9  10
ENDBRANCH   7   9
ENDBRANCH   1   7
BRANCH   6  13
ATOM     13  C   UNL     1     138.362 137.913 137.752  1.00  0.00     0.339 C 
ATOM     14  O   UNL     1     137.202 138.334 137.483  1.00  0.00    -0.246 OA
BRANCH  13  15
ATOM     15  O   UNL     1     139.076 137.162 136.811  1.00  0.00    -0.462 OA
BRANCH  15  16
ATOM     16  C   UNL     1     138.826 137.225 135.408  1.00  0.00     0.233 C 
BRANCH  16  17
ATOM     17  C   UNL     1     139.538 136.078 134.686  1.00  0.00     0.038 C 
ATOM     18  C   UNL     1     138.542 135.178 133.960  1.00  0.00     0.007 C 
ENDBRANCH  16  17
ENDBRANCH  15  16
ENDBRANCH  13  15
ENDBRANCH   6  13
TORSDOF 8
ENDMDL
MODEL 5
REMARK VINA RESULT:    -4.287      1.247      2.793
REMARK INTER + INTRA:          -7.386
REMARK INTER:                  -6.253
REMARK INTRA:                  -1.133
REMARK UNBOUND:                -1.094
REMARK SMILES CCCOC(=O)c1ccccc1C(=O)OCCC
REMARK SMILES IDX 7 1 8 2 9 3 10 4 11 5 12 6 5 7 6 8 4 9 3 10 2 11 1 12 13 13
REMARK SMILES IDX 14 14 15 15 16 16 17 17 18 18
REMARK H PARENT
REMARK Flexibility Score: inf
ROOT
ATOM      1  C   UNL     1     139.743 139.439 139.181  1.00  0.00     0.074 A 
ATOM      2  C   UNL     1     140.300 139.446 140.474  1.00  0.00     0.016 A 
ATOM      3  C   UNL     1     139.489 139.619 141.597  1.00  0.00     0.001 A 
ATOM      4  C   UNL     1     138.115 139.793 141.447  1.00  0.00     0.001 A 
ATOM      5  C   UNL     1     137.540 139.768 140.176  1.00  0.00     0.016 A 
ATOM      6  C   UNL     1     138.336 139.568 139.035  1.00  0.00     0.074 A 
ENDROOT
BRANCH   1   7
ATOM      7  C   UNL     1     140.657 139.377 138.017  1.00  0.00     0.339 C 
ATOM      8  O   UNL     1     141.254 140.420 137.632  1.00  0.00    -0.246 OA
BRANCH   7   9
ATOM      9  O   UNL     1     140.808 138.175 137.313  1.00  0.00    -0.462 OA
BRANCH   9  10
ATOM     10  C   UNL     1     140.633 138.059 135.903  1.00  0.00     0.233 C 
BRANCH  10  11
ATOM     11  C   UNL     1     139.741 136.860 135.572  1.00  0.00     0.038 C 
ATOM     12  C   UNL     1     138.779 137.186 134.434  1.00  0.00     0.007 C 
ENDBRANCH  10  11
ENDBRANCH   9  10
ENDBRANCH   7   9
ENDBRANCH   1   7
BRANCH   6  13
ATOM     13  C   UNL     1     137.660 139.439 137.728  1.00  0.00     0.339 C 
ATOM     14  O   UNL     1     137.148 138.336 137.388  1.00  0.00    -0.246 OA
BRANCH  13  15
ATOM     15  O   UNL     1     137.553 140.555 136.890  1.00  0.00    -0.462 OA
BRANCH  15  16
ATOM     16  C   UNL     1     138.051 140.580 135.554  1.00  0.00     0.233 C 
BRANCH  16  17
ATOM     17  C   UNL     1     139.003 141.763 135.360  1.00  0.00     0.038 C 
ATOM     18  C   UNL     1     140.107 141.427 134.362  1.00  0.00     0.007 C 
ENDBRANCH  16  17
ENDBRANCH  15  16
ENDBRANCH  13  15
ENDBRANCH   6  13
TORSDOF 8
ENDMDL
MODEL 6
REMARK VINA RESULT:    -4.276      1.826      3.110
REMARK INTER + INTRA:          -7.371
REMARK INTER:                  -6.458
REMARK INTRA:                  -0.912
REMARK UNBOUND:                -1.094
REMARK SMILES CCCOC(=O)c1ccccc1C(=O)OCCC
REMARK SMILES IDX 7 1 8 2 9 3 10 4 11 5 12 6 5 7 6 8 4 9 3 10 2 11 1 12 13 13
REMARK SMILES IDX 14 14 15 15 16 16 17 17 18 18
REMARK H PARENT
REMARK Flexibility Score: inf
ROOT
ATOM      1  C   UNL     1     139.083 138.556 139.098  1.00  0.00     0.074 A 
ATOM      2  C   UNL     1     138.962 137.858 140.314  1.00  0.00     0.016 A 
ATOM      3  C   UNL     1     139.164 138.509 141.532  1.00  0.00     0.001 A 
ATOM      4  C   UNL     1     139.494 139.862 141.556  1.00  0.00     0.001 A 
ATOM      5  C   UNL     1     139.598 140.578 140.362  1.00  0.00     0.016 A 
ATOM      6  C   UNL     1     139.373 139.947 139.127  1.00  0.00     0.074 A 
ENDROOT
BRANCH   1   7
ATOM      7  C   UNL     1     138.983 137.796 137.831  1.00  0.00     0.339 C 
ATOM      8  O   UNL     1     139.971 137.127 137.421  1.00  0.00    -0.246 OA
BRANCH   7   9
ATOM      9  O   UNL     1     137.813 137.870 137.064  1.00  0.00    -0.462 OA
BRANCH   9  10
ATOM     10  C   UNL     1     137.798 138.196 135.677  1.00  0.00     0.233 C 
BRANCH  10  11
ATOM     11  C   UNL     1     136.742 139.266 135.389  1.00  0.00     0.038 C 
ATOM     12  C   UNL     1     135.591 138.698 134.567  1.00  0.00     0.007 C 
ENDBRANCH  10  11
ENDBRANCH   9  10
ENDBRANCH   7   9
ENDBRANCH   1   7
BRANCH   6  13
ATOM     13  C   UNL     1     139.386 140.779 137.907  1.00  0.00     0.339 C 
ATOM     14  O   UNL     1     138.362 141.443 137.583  1.00  0.00    -0.246 OA
BRANCH  13  15
ATOM     15  O   UNL     1     140.552 140.861 137.138  1.00  0.00    -0.462 OA
BRANCH  15  16
ATOM     16  C   UNL     1     140.602 140.515 135.755  1.00  0.00     0.233 C 
BRANCH  16  17
ATOM     17  C   UNL     1     141.641 139.416 135.515  1.00  0.00     0.038 C 
ATOM     18  C   UNL     1     142.736 139.887 134.563  1.00  0.00     0.007 C 
ENDBRANCH  16  17
ENDBRANCH  15  16
ENDBRANCH  13  15
ENDBRANCH   6  13
TORSDOF 8
ENDMDL
MODEL 7
REMARK VINA RESULT:    -4.270      1.421      2.549
REMARK INTER + INTRA:          -7.362
REMARK INTER:                  -6.456
REMARK INTRA:                  -0.906
REMARK UNBOUND:                -1.094
REMARK SMILES CCCOC(=O)c1ccccc1C(=O)OCCC
REMARK SMILES IDX 7 1 8 2 9 3 10 4 11 5 12 6 5 7 6 8 4 9 3 10 2 11 1 12 13 13
REMARK SMILES IDX 14 14 15 15 16 16 17 17 18 18
REMARK H PARENT
REMARK Flexibility Score: inf
ROOT
ATOM      1  C   UNL     1     138.737 139.454 139.074  1.00  0.00     0.074 A 
ATOM      2  C   UNL     1     138.164 139.584 140.353  1.00  0.00     0.016 A 
ATOM      3  C   UNL     1     138.929 139.371 141.501  1.00  0.00     0.001 A 
ATOM      4  C   UNL     1     140.274 139.021 141.390  1.00  0.00     0.001 A 
ATOM      5  C   UNL     1     140.866 138.908 140.131  1.00  0.00     0.016 A 
ATOM      6  C   UNL     1     140.119 139.144 138.964  1.00  0.00     0.074 A 
ENDROOT
BRANCH   1   7
ATOM      7  C   UNL     1     137.856 139.567 137.888  1.00  0.00     0.339 C 
ATOM      8  O   UNL     1     137.141 138.586 137.542  1.00  0.00    -0.246 OA
BRANCH   7   9
ATOM      9  O   UNL     1     137.864 140.740 137.123  1.00  0.00    -0.462 OA
BRANCH   9  10
ATOM     10  C   UNL     1     138.093 140.763 135.716  1.00  0.00     0.233 C 
BRANCH  10  11
ATOM     11  C   UNL     1     139.185 141.777 135.369  1.00  0.00     0.038 C 
ATOM     12  C   UNL     1     138.610 142.971 134.614  1.00  0.00     0.007 C 
ENDBRANCH  10  11
ENDBRANCH   9  10
ENDBRANCH   7   9
ENDBRANCH   1   7
BRANCH   6  13
ATOM     13  C   UNL     1     140.826 139.120 137.668  1.00  0.00     0.339 C 
ATOM     14  O   UNL     1     141.500 140.120 137.297  1.00  0.00    -0.246 OA
BRANCH  13  15
ATOM     15  O   UNL     1     140.779 137.967 136.875  1.00  0.00    -0.462 OA
BRANCH  15  16
ATOM     16  C   UNL     1     140.341 137.969 135.518  1.00  0.00     0.233 C 
BRANCH  16  17
ATOM     17  C   UNL     1     139.253 136.913 135.305  1.00  0.00     0.038 C 
ATOM     18  C   UNL     1     139.805 135.686 134.587  1.00  0.00     0.007 C 
ENDBRANCH  16  17
ENDBRANCH  15  16
ENDBRANCH  13  15
ENDBRANCH   6  13
TORSDOF 8
ENDMDL
MODEL 8
REMARK VINA RESULT:    -4.260      1.582      4.182
REMARK INTER + INTRA:          -7.347
REMARK INTER:                  -6.288
REMARK INTRA:                  -1.059
REMARK UNBOUND:                -1.094
REMARK SMILES CCCOC(=O)c1ccccc1C(=O)OCCC
REMARK SMILES IDX 7 1 8 2 9 3 10 4 11 5 12 6 5 7 6 8 4 9 3 10 2 11 1 12 13 13
REMARK SMILES IDX 14 14 15 15 16 16 17 17 18 18
REMARK H PARENT
REMARK Flexibility Score: inf
ROOT
ATOM      1  C   UNL     1     140.263 138.811 136.082  1.00  0.00     0.074 A 
ATOM      2  C   UNL     1     141.036 138.696 134.911  1.00  0.00     0.016 A 
ATOM      3  C   UNL     1     140.865 137.612 134.048  1.00  0.00     0.001 A 
ATOM      4  C   UNL     1     139.927 136.625 134.342  1.00  0.00     0.001 A 
ATOM      5  C   UNL     1     139.135 136.731 135.487  1.00  0.00     0.016 A 
ATOM      6  C   UNL     1     139.274 137.828 136.354  1.00  0.00     0.074 A 
ENDROOT
BRANCH   1   7
ATOM      7  C   UNL     1     140.567 139.910 137.027  1.00  0.00     0.339 C 
ATOM      8  O   UNL     1     141.263 139.680 138.054  1.00  0.00    -0.246 OA
BRANCH   7   9
ATOM      9  O   UNL     1     140.032 141.186 136.807  1.00  0.00    -0.462 OA
BRANCH   9  10
ATOM     10  C   UNL     1     138.687 141.417 136.394  1.00  0.00     0.233 C 
BRANCH  10  11
ATOM     11  C   UNL     1     138.657 142.038 134.996  1.00  0.00     0.038 C 
ATOM     12  C   UNL     1     138.231 141.016 133.947  1.00  0.00     0.007 C 
ENDBRANCH  10  11
ENDBRANCH   9  10
ENDBRANCH   7   9
ENDBRANCH   1   7
BRANCH   6  13
ATOM     13  C   UNL     1     138.334 137.944 137.487  1.00  0.00     0.339 C 
ATOM     14  O   UNL     1     137.152 138.342 137.290  1.00  0.00    -0.246 OA
BRANCH  13  15
ATOM     15  O   UNL     1     138.747 137.568 138.771  1.00  0.00    -0.462 OA
BRANCH  15  16
ATOM     16  C   UNL     1     138.624 138.416 139.911  1.00  0.00     0.233 C 
BRANCH  16  17
ATOM     17  C   UNL     1     139.286 137.772 141.131  1.00  0.00     0.038 C 
ATOM     18  C   UNL     1     138.610 136.454 141.497  1.00  0.00     0.007 C 
ENDBRANCH  16  17
ENDBRANCH  15  16
ENDBRANCH  13  15
ENDBRANCH   6  13
TORSDOF 8
ENDMDL
MODEL 9
REMARK VINA RESULT:    -4.257      1.803      2.535
REMARK INTER + INTRA:          -7.343
REMARK INTER:                  -6.429
REMARK INTRA:                  -0.914
REMARK UNBOUND:                -1.094
REMARK SMILES CCCOC(=O)c1ccccc1C(=O)OCCC
REMARK SMILES IDX 7 1 8 2 9 3 10 4 11 5 12 6 5 7 6 8 4 9 3 10 2 11 1 12 13 13
REMARK SMILES IDX 14 14 15 15 16 16 17 17 18 18
REMARK H PARENT
REMARK Flexibility Score: inf
ROOT
ATOM      1  C   UNL     1     139.439 140.027 139.059  1.00  0.00     0.074 A 
ATOM      2  C   UNL     1     139.638 140.686 140.288  1.00  0.00     0.016 A 
ATOM      3  C   UNL     1     139.525 139.992 141.494  1.00  0.00     0.001 A 
ATOM      4  C   UNL     1     139.208 138.635 141.493  1.00  0.00     0.001 A 
ATOM      5  C   UNL     1     139.028 137.959 140.286  1.00  0.00     0.016 A 
ATOM      6  C   UNL     1     139.163 138.633 139.060  1.00  0.00     0.074 A 
ENDROOT
BRANCH   1   7
ATOM      7  C   UNL     1     139.445 140.831 137.815  1.00  0.00     0.339 C 
ATOM      8  O   UNL     1     138.401 141.442 137.457  1.00  0.00    -0.246 OA
BRANCH   7   9
ATOM      9  O   UNL     1     140.592 140.861 137.011  1.00  0.00    -0.462 OA
BRANCH   9  10
ATOM     10  C   UNL     1     140.604 140.475 135.639  1.00  0.00     0.233 C 
BRANCH  10  11
ATOM     11  C   UNL     1     141.670 139.405 135.394  1.00  0.00     0.038 C 
ATOM     12  C   UNL     1     142.852 139.971 134.615  1.00  0.00     0.007 C 
ENDBRANCH  10  11
ENDBRANCH   9  10
ENDBRANCH   7   9
ENDBRANCH   1   7
BRANCH   6  13
ATOM     13  C   UNL     1     139.072 137.843 137.816  1.00  0.00     0.339 C 
ATOM     14  O   UNL     1     140.050 137.137 137.444  1.00  0.00    -0.246 OA
BRANCH  13  15
ATOM     15  O   UNL     1     137.883 137.847 137.079  1.00  0.00    -0.462 OA
BRANCH  15  16
ATOM     16  C   UNL     1     137.830 138.136 135.683  1.00  0.00     0.233 C 
BRANCH  16  17
ATOM     17  C   UNL     1     136.760 139.193 135.396  1.00  0.00     0.038 C 
ATOM     18  C   UNL     1     135.686 138.652 134.456  1.00  0.00     0.007 C 
ENDBRANCH  16  17
ENDBRANCH  15  16
ENDBRANCH  13  15
ENDBRANCH   6  13
TORSDOF 8
ENDMDL
