MODEL 1
REMARK VINA RESULT:    -7.318      0.000      0.000
REMARK INTER + INTRA:          -7.318
REMARK INTER:                  -7.318
REMARK INTRA:                   0.000
REMARK UNBOUND:                 0.000
REMARK SMILES O=c1ccc2ccccc2o1
REMARK SMILES IDX 7 1 8 2 9 3 10 4 5 5 6 6 4 7 3 8 2 9 1 10 11 11
REMARK H PARENT
REMARK Flexibility Score: inf
ROOT
ATOM      1  C   UNL     1     -28.654 -18.785  -4.011  1.00  0.00     0.001 A 
ATOM      2  C   UNL     1     -28.528 -20.172  -4.129  1.00  0.00     0.004 A 
ATOM      3  C   UNL     1     -28.497 -20.772  -5.392  1.00  0.00     0.048 A 
ATOM      4  C   UNL     1     -28.594 -19.984  -6.544  1.00  0.00     0.138 A 
ATOM      5  C   UNL     1     -28.722 -18.581  -6.426  1.00  0.00     0.018 A 
ATOM      6  C   UNL     1     -28.751 -17.987  -5.156  1.00  0.00     0.012 A 
ATOM      7  C   UNL     1     -28.816 -17.820  -7.594  1.00  0.00     0.019 A 
ATOM      8  C   UNL     1     -28.781 -18.460  -8.833  1.00  0.00     0.094 A 
ATOM      9  C   UNL     1     -28.653 -19.852  -8.873  1.00  0.00     0.336 A 
ATOM     10  O   UNL     1     -28.619 -20.448  -9.982  1.00  0.00    -0.246 OA
ATOM     11  O   UNL     1     -28.565 -20.554  -7.746  1.00  0.00    -0.423 OA
ENDROOT
TORSDOF 0
ENDMDL
MODEL 2
REMARK VINA RESULT:    -6.648      1.066      2.083
REMARK INTER + INTRA:          -6.648
REMARK INTER:                  -6.648
REMARK INTRA:                   0.000
REMARK UNBOUND:                 0.000
REMARK SMILES O=c1ccc2ccccc2o1
REMARK SMILES IDX 7 1 8 2 9 3 10 4 5 5 6 6 4 7 3 8 2 9 1 10 11 11
REMARK H PARENT
REMARK Flexibility Score: inf
ROOT
ATOM      1  C   UNL     1     -28.641 -19.955  -3.913  1.00  0.00     0.001 A 
ATOM      2  C   UNL     1     -28.725 -18.569  -4.075  1.00  0.00     0.004 A 
ATOM      3  C   UNL     1     -28.743 -18.009  -5.356  1.00  0.00     0.048 A 
ATOM      4  C   UNL     1     -28.675 -18.835  -6.483  1.00  0.00     0.138 A 
ATOM      5  C   UNL     1     -28.590 -20.237  -6.321  1.00  0.00     0.018 A 
ATOM      6  C   UNL     1     -28.573 -20.791  -5.033  1.00  0.00     0.012 A 
ATOM      7  C   UNL     1     -28.524 -21.037  -7.464  1.00  0.00     0.019 A 
ATOM      8  C   UNL     1     -28.545 -20.436  -8.723  1.00  0.00     0.094 A 
ATOM      9  C   UNL     1     -28.630 -19.042  -8.807  1.00  0.00     0.336 A 
ATOM     10  O   UNL     1     -28.651 -18.480  -9.934  1.00  0.00    -0.246 OA
ATOM     11  O   UNL     1     -28.692 -18.302  -7.702  1.00  0.00    -0.423 OA
ENDROOT
TORSDOF 0
ENDMDL
MODEL 3
REMARK VINA RESULT:    -6.349      1.603      3.821
REMARK INTER + INTRA:          -6.349
REMARK INTER:                  -6.349
REMARK INTRA:                   0.000
REMARK UNBOUND:                 0.000
REMARK SMILES O=c1ccc2ccccc2o1
REMARK SMILES IDX 7 1 8 2 9 3 10 4 5 5 6 6 4 7 3 8 2 9 1 10 11 11
REMARK H PARENT
REMARK Flexibility Score: inf
ROOT
ATOM      1  C   UNL     1     -28.604 -18.748  -9.153  1.00  0.00     0.001 A 
ATOM      2  C   UNL     1     -28.534 -20.144  -9.101  1.00  0.00     0.004 A 
ATOM      3  C   UNL     1     -28.581 -20.806  -7.870  1.00  0.00     0.048 A 
ATOM      4  C   UNL     1     -28.695 -20.074  -6.684  1.00  0.00     0.138 A 
ATOM      5  C   UNL     1     -28.764 -18.663  -6.735  1.00  0.00     0.018 A 
ATOM      6  C   UNL     1     -28.718 -18.005  -7.973  1.00  0.00     0.012 A 
ATOM      7  C   UNL     1     -28.879 -17.957  -5.534  1.00  0.00     0.019 A 
ATOM      8  C   UNL     1     -28.921 -18.658  -4.329  1.00  0.00     0.094 A 
ATOM      9  C   UNL     1     -28.847 -20.055  -4.355  1.00  0.00     0.336 A 
ATOM     10  O   UNL     1     -28.884 -20.707  -3.278  1.00  0.00    -0.246 OA
ATOM     11  O   UNL     1     -28.739 -20.703  -5.513  1.00  0.00    -0.423 OA
ENDROOT
TORSDOF 0
ENDMDL
MODEL 4
REMARK VINA RESULT:    -6.258      6.668      8.191
REMARK INTER + INTRA:          -6.258
REMARK INTER:                  -6.258
REMARK INTRA:                   0.000
REMARK UNBOUND:                 0.000
REMARK SMILES O=c1ccc2ccccc2o1
REMARK SMILES IDX 7 1 8 2 9 3 10 4 5 5 6 6 4 7 3 8 2 9 1 10 11 11
REMARK H PARENT
REMARK Flexibility Score: inf
ROOT
ATOM      1  C   UNL     1     -24.817 -21.544 -10.324  1.00  0.00     0.001 A 
ATOM      2  C   UNL     1     -25.519 -22.707  -9.993  1.00  0.00     0.004 A 
ATOM      3  C   UNL     1     -25.539 -23.793 -10.875  1.00  0.00     0.048 A 
ATOM      4  C   UNL     1     -24.858 -23.719 -12.094  1.00  0.00     0.138 A 
ATOM      5  C   UNL     1     -24.149 -22.543 -12.430  1.00  0.00     0.018 A 
ATOM      6  C   UNL     1     -24.132 -21.458 -11.541  1.00  0.00     0.012 A 
ATOM      7  C   UNL     1     -23.477 -22.497 -13.655  1.00  0.00     0.019 A 
ATOM      8  C   UNL     1     -23.525 -23.603 -14.503  1.00  0.00     0.094 A 
ATOM      9  C   UNL     1     -24.247 -24.734 -14.105  1.00  0.00     0.336 A 
ATOM     10  O   UNL     1     -24.301 -25.742 -14.856  1.00  0.00    -0.246 OA
ATOM     11  O   UNL     1     -24.877 -24.751 -12.932  1.00  0.00    -0.423 OA
ENDROOT
TORSDOF 0
ENDMDL
MODEL 5
REMARK VINA RESULT:    -6.213      8.735     10.065
REMARK INTER + INTRA:          -6.213
REMARK INTER:                  -6.213
REMARK INTRA:                   0.000
REMARK UNBOUND:                 0.000
REMARK SMILES O=c1ccc2ccccc2o1
REMARK SMILES IDX 7 1 8 2 9 3 10 4 5 5 6 6 4 7 3 8 2 9 1 10 11 11
REMARK H PARENT
REMARK Flexibility Score: inf
ROOT
ATOM      1  C   UNL     1     -25.172 -25.721 -15.230  1.00  0.00     0.001 A 
ATOM      2  C   UNL     1     -26.289 -24.960 -15.590  1.00  0.00     0.004 A 
ATOM      3  C   UNL     1     -26.320 -23.586 -15.328  1.00  0.00     0.048 A 
ATOM      4  C   UNL     1     -25.232 -22.967 -14.704  1.00  0.00     0.138 A 
ATOM      5  C   UNL     1     -24.102 -23.735 -14.340  1.00  0.00     0.018 A 
ATOM      6  C   UNL     1     -24.078 -25.112 -14.606  1.00  0.00     0.012 A 
ATOM      7  C   UNL     1     -23.030 -23.090 -13.719  1.00  0.00     0.019 A 
ATOM      8  C   UNL     1     -23.103 -21.718 -13.477  1.00  0.00     0.094 A 
ATOM      9  C   UNL     1     -24.254 -21.022 -13.865  1.00  0.00     0.336 A 
ATOM     10  O   UNL     1     -24.339 -19.783 -13.656  1.00  0.00    -0.246 OA
ATOM     11  O   UNL     1     -25.261 -21.661 -14.456  1.00  0.00    -0.423 OA
ENDROOT
TORSDOF 0
ENDMDL
MODEL 6
REMARK VINA RESULT:    -6.092      6.243      8.334
REMARK INTER + INTRA:          -6.092
REMARK INTER:                  -6.092
REMARK INTRA:                   0.000
REMARK UNBOUND:                 0.000
REMARK SMILES O=c1ccc2ccccc2o1
REMARK SMILES IDX 7 1 8 2 9 3 10 4 5 5 6 6 4 7 3 8 2 9 1 10 11 11
REMARK H PARENT
REMARK Flexibility Score: inf
ROOT
ATOM      1  C   UNL     1     -23.397 -23.414 -14.358  1.00  0.00     0.001 A 
ATOM      2  C   UNL     1     -24.153 -24.576 -14.177  1.00  0.00     0.004 A 
ATOM      3  C   UNL     1     -24.927 -24.740 -13.024  1.00  0.00     0.048 A 
ATOM      4  C   UNL     1     -24.945 -23.743 -12.044  1.00  0.00     0.138 A 
ATOM      5  C   UNL     1     -24.180 -22.568 -12.225  1.00  0.00     0.018 A 
ATOM      6  C   UNL     1     -23.408 -22.409 -13.384  1.00  0.00     0.012 A 
ATOM      7  C   UNL     1     -24.218 -21.588 -11.229  1.00  0.00     0.019 A 
ATOM      8  C   UNL     1     -25.003 -21.794 -10.095  1.00  0.00     0.094 A 
ATOM      9  C   UNL     1     -25.734 -22.982  -9.983  1.00  0.00     0.336 A 
ATOM     10  O   UNL     1     -26.449 -23.187  -8.967  1.00  0.00    -0.246 OA
ATOM     11  O   UNL     1     -25.681 -23.899 -10.947  1.00  0.00    -0.423 OA
ENDROOT
TORSDOF 0
ENDMDL
MODEL 7
REMARK VINA RESULT:    -5.968      6.680      8.345
REMARK INTER + INTRA:          -5.968
REMARK INTER:                  -5.968
REMARK INTRA:                   0.000
REMARK UNBOUND:                 0.000
REMARK SMILES O=c1ccc2ccccc2o1
REMARK SMILES IDX 7 1 8 2 9 3 10 4 5 5 6 6 4 7 3 8 2 9 1 10 11 11
REMARK H PARENT
REMARK Flexibility Score: inf
ROOT
ATOM      1  C   UNL     1     -24.574 -22.454 -10.099  1.00  0.00     0.001 A 
ATOM      2  C   UNL     1     -24.508 -21.228 -10.769  1.00  0.00     0.004 A 
ATOM      3  C   UNL     1     -24.579 -21.184 -12.165  1.00  0.00     0.048 A 
ATOM      4  C   UNL     1     -24.716 -22.368 -12.898  1.00  0.00     0.138 A 
ATOM      5  C   UNL     1     -24.782 -23.607 -12.222  1.00  0.00     0.018 A 
ATOM      6  C   UNL     1     -24.710 -23.644 -10.822  1.00  0.00     0.012 A 
ATOM      7  C   UNL     1     -24.919 -24.773 -12.980  1.00  0.00     0.019 A 
ATOM      8  C   UNL     1     -24.986 -24.682 -14.370  1.00  0.00     0.094 A 
ATOM      9  C   UNL     1     -24.913 -23.421 -14.971  1.00  0.00     0.336 A 
ATOM     10  O   UNL     1     -24.972 -23.317 -16.225  1.00  0.00    -0.246 OA
ATOM     11  O   UNL     1     -24.783 -22.326 -14.226  1.00  0.00    -0.423 OA
ENDROOT
TORSDOF 0
ENDMDL
MODEL 8
REMARK VINA RESULT:    -5.956      6.728      8.009
REMARK INTER + INTRA:          -5.956
REMARK INTER:                  -5.956
REMARK INTRA:                   0.000
REMARK UNBOUND:                 0.000
REMARK SMILES O=c1ccc2ccccc2o1
REMARK SMILES IDX 7 1 8 2 9 3 10 4 5 5 6 6 4 7 3 8 2 9 1 10 11 11
REMARK H PARENT
REMARK Flexibility Score: inf
ROOT
ATOM      1  C   UNL     1     -24.648 -19.011 -12.252  1.00  0.00     0.001 A 
ATOM      2  C   UNL     1     -24.633 -19.259 -13.628  1.00  0.00     0.004 A 
ATOM      3  C   UNL     1     -24.668 -20.573 -14.108  1.00  0.00     0.048 A 
ATOM      4  C   UNL     1     -24.717 -21.645 -13.211  1.00  0.00     0.138 A 
ATOM      5  C   UNL     1     -24.731 -21.396 -11.820  1.00  0.00     0.018 A 
ATOM      6  C   UNL     1     -24.697 -20.077 -11.346  1.00  0.00     0.012 A 
ATOM      7  C   UNL     1     -24.781 -22.487 -10.948  1.00  0.00     0.019 A 
ATOM      8  C   UNL     1     -24.814 -23.780 -11.470  1.00  0.00     0.094 A 
ATOM      9  C   UNL     1     -24.797 -23.951 -12.859  1.00  0.00     0.336 A 
ATOM     10  O   UNL     1     -24.826 -25.110 -13.350  1.00  0.00    -0.246 OA
ATOM     11  O   UNL     1     -24.750 -22.894 -13.667  1.00  0.00    -0.423 OA
ENDROOT
TORSDOF 0
ENDMDL
MODEL 9
REMARK VINA RESULT:    -5.905      5.821      7.553
REMARK INTER + INTRA:          -5.905
REMARK INTER:                  -5.905
REMARK INTRA:                   0.000
REMARK UNBOUND:                 0.000
REMARK SMILES O=c1ccc2ccccc2o1
REMARK SMILES IDX 7 1 8 2 9 3 10 4 5 5 6 6 4 7 3 8 2 9 1 10 11 11
REMARK H PARENT
REMARK Flexibility Score: inf
ROOT
ATOM      1  C   UNL     1     -24.464 -19.312 -13.907  1.00  0.00     0.001 A 
ATOM      2  C   UNL     1     -25.231 -18.651 -12.942  1.00  0.00     0.004 A 
ATOM      3  C   UNL     1     -25.617 -19.315 -11.773  1.00  0.00     0.048 A 
ATOM      4  C   UNL     1     -25.238 -20.645 -11.565  1.00  0.00     0.138 A 
ATOM      5  C   UNL     1     -24.464 -21.315 -12.540  1.00  0.00     0.018 A 
ATOM      6  C   UNL     1     -24.080 -20.643 -13.709  1.00  0.00     0.012 A 
ATOM      7  C   UNL     1     -24.099 -22.643 -12.305  1.00  0.00     0.019 A 
ATOM      8  C   UNL     1     -24.507 -23.266 -11.125  1.00  0.00     0.094 A 
ATOM      9  C   UNL     1     -25.272 -22.542 -10.205  1.00  0.00     0.336 A 
ATOM     10  O   UNL     1     -25.650 -23.086  -9.134  1.00  0.00    -0.246 OA
ATOM     11  O   UNL     1     -25.605 -21.277 -10.453  1.00  0.00    -0.423 OA
ENDROOT
TORSDOF 0
ENDMDL
