MODEL 1
REMARK VINA RESULT:    -4.444      0.000      0.000
REMARK INTER + INTRA:          -4.891
REMARK INTER:                  -4.704
REMARK INTRA:                  -0.187
REMARK UNBOUND:                -0.187
REMARK SMILES C=C1CC=C(C(C)C)CC1
REMARK SMILES IDX 5 1 4 2 3 3 2 4 1 5 10 6 9 7 6 8 7 9 8 10
REMARK H PARENT
REMARK Flexibility Score: inf
ROOT
ATOM      1  C   UNL     1      18.069  64.732  15.735  1.00  0.00    -0.071 C 
ATOM      2  C   UNL     1      17.296  64.523  14.647  1.00  0.00    -0.023 C 
ATOM      3  C   UNL     1      15.850  64.946  14.625  1.00  0.00     0.057 C 
ATOM      4  C   UNL     1      15.212  64.769  15.988  1.00  0.00    -0.073 C 
ATOM      5  C   UNL     1      13.891  64.569  16.091  1.00  0.00     0.008 C 
ATOM      6  C   UNL     1      16.061  64.852  17.240  1.00  0.00     0.035 C 
ATOM      7  C   UNL     1      17.457  65.417  16.937  1.00  0.00     0.035 C 
ENDROOT
BRANCH   1   8
ATOM      8  C   UNL     1      19.519  64.273  15.777  1.00  0.00     0.008 C 
ATOM      9  C   UNL     1      19.783  63.164  14.751  1.00  0.00     0.012 C 
ATOM     10  C   UNL     1      19.918  63.826  17.189  1.00  0.00     0.012 C 
ENDBRANCH   1   8
TORSDOF 1
ENDMDL
MODEL 2
REMARK VINA RESULT:    -4.094      1.254      4.698
REMARK INTER + INTRA:          -4.521
REMARK INTER:                  -4.383
REMARK INTRA:                  -0.138
REMARK UNBOUND:                -0.187
REMARK SMILES C=C1CC=C(C(C)C)CC1
REMARK SMILES IDX 5 1 4 2 3 3 2 4 1 5 10 6 9 7 6 8 7 9 8 10
REMARK H PARENT
REMARK Flexibility Score: inf
ROOT
ATOM      1  C   UNL     1      18.537  64.253  15.331  1.00  0.00    -0.071 C 
ATOM      2  C   UNL     1      18.632  63.483  14.225  1.00  0.00    -0.023 C 
ATOM      3  C   UNL     1      19.825  62.593  13.994  1.00  0.00     0.057 C 
ATOM      4  C   UNL     1      21.093  63.240  14.512  1.00  0.00    -0.073 C 
ATOM      5  C   UNL     1      22.279  62.921  13.976  1.00  0.00     0.008 C 
ATOM      6  C   UNL     1      21.027  64.224  15.663  1.00  0.00     0.035 C 
ATOM      7  C   UNL     1      19.654  64.196  16.350  1.00  0.00     0.035 C 
ENDROOT
BRANCH   1   8
ATOM      8  C   UNL     1      17.353  65.182  15.551  1.00  0.00     0.008 C 
ATOM      9  C   UNL     1      16.933  65.210  17.026  1.00  0.00     0.012 C 
ATOM     10  C   UNL     1      16.173  64.802  14.647  1.00  0.00     0.012 C 
ENDBRANCH   1   8
TORSDOF 1
ENDMDL
MODEL 3
REMARK VINA RESULT:    -4.029      3.302      6.895
REMARK INTER + INTRA:          -4.452
REMARK INTER:                  -4.272
REMARK INTRA:                  -0.180
REMARK UNBOUND:                -0.187
REMARK SMILES C=C1CC=C(C(C)C)CC1
REMARK SMILES IDX 5 1 4 2 3 3 2 4 1 5 10 6 9 7 6 8 7 9 8 10
REMARK H PARENT
REMARK Flexibility Score: inf
ROOT
ATOM      1  C   UNL     1      21.763  63.382  14.992  1.00  0.00    -0.071 C 
ATOM      2  C   UNL     1      22.180  63.130  16.252  1.00  0.00    -0.023 C 
ATOM      3  C   UNL     1      23.601  62.717  16.536  1.00  0.00     0.057 C 
ATOM      4  C   UNL     1      24.143  61.839  15.427  1.00  0.00    -0.073 C 
ATOM      5  C   UNL     1      25.119  60.957  15.683  1.00  0.00     0.008 C 
ATOM      6  C   UNL     1      23.607  61.982  14.016  1.00  0.00     0.035 C 
ATOM      7  C   UNL     1      22.761  63.254  13.861  1.00  0.00     0.035 C 
ENDROOT
BRANCH   1   8
ATOM      8  C   UNL     1      20.321  63.761  14.694  1.00  0.00     0.008 C 
ATOM      9  C   UNL     1      19.581  64.185  15.969  1.00  0.00     0.012 C 
ATOM     10  C   UNL     1      19.583  62.621  13.980  1.00  0.00     0.012 C 
ENDBRANCH   1   8
TORSDOF 1
ENDMDL
MODEL 4
REMARK VINA RESULT:    -4.010      3.627      5.257
REMARK INTER + INTRA:          -4.432
REMARK INTER:                  -4.249
REMARK INTRA:                  -0.183
REMARK UNBOUND:                -0.187
REMARK SMILES C=C1CC=C(C(C)C)CC1
REMARK SMILES IDX 5 1 4 2 3 3 2 4 1 5 10 6 9 7 6 8 7 9 8 10
REMARK H PARENT
REMARK Flexibility Score: inf
ROOT
ATOM      1  C   UNL     1      22.820  63.145  16.153  1.00  0.00    -0.071 C 
ATOM      2  C   UNL     1      22.864  62.745  14.864  1.00  0.00    -0.023 C 
ATOM      3  C   UNL     1      21.755  63.087  13.902  1.00  0.00     0.057 C 
ATOM      4  C   UNL     1      20.410  63.071  14.599  1.00  0.00    -0.073 C 
ATOM      5  C   UNL     1      19.294  62.821  13.900  1.00  0.00     0.008 C 
ATOM      6  C   UNL     1      20.319  63.374  16.081  1.00  0.00     0.035 C 
ATOM      7  C   UNL     1      21.633  63.960  16.618  1.00  0.00     0.035 C 
ENDROOT
BRANCH   1   8
ATOM      8  C   UNL     1      23.917  62.770  17.138  1.00  0.00     0.008 C 
ATOM      9  C   UNL     1      24.292  61.288  17.018  1.00  0.00     0.012 C 
ATOM     10  C   UNL     1      23.517  63.125  18.575  1.00  0.00     0.012 C 
ENDBRANCH   1   8
TORSDOF 1
ENDMDL
MODEL 5
REMARK VINA RESULT:    -3.847      4.678      7.185
REMARK INTER + INTRA:          -4.258
REMARK INTER:                  -4.107
REMARK INTRA:                  -0.151
REMARK UNBOUND:                -0.187
REMARK SMILES C=C1CC=C(C(C)C)CC1
REMARK SMILES IDX 5 1 4 2 3 3 2 4 1 5 10 6 9 7 6 8 7 9 8 10
REMARK H PARENT
REMARK Flexibility Score: inf
ROOT
ATOM      1  C   UNL     1      22.904  62.645  17.148  1.00  0.00    -0.071 C 
ATOM      2  C   UNL     1      23.886  61.723  17.048  1.00  0.00    -0.023 C 
ATOM      3  C   UNL     1      24.742  61.626  15.811  1.00  0.00     0.057 C 
ATOM      4  C   UNL     1      23.935  61.933  14.567  1.00  0.00    -0.073 C 
ATOM      5  C   UNL     1      24.299  61.418  13.385  1.00  0.00     0.008 C 
ATOM      6  C   UNL     1      22.732  62.852  14.650  1.00  0.00     0.035 C 
ATOM      7  C   UNL     1      22.684  63.596  15.992  1.00  0.00     0.035 C 
ENDROOT
BRANCH   1   8
ATOM      8  C   UNL     1      22.012  62.722  18.378  1.00  0.00     0.008 C 
ATOM      9  C   UNL     1      20.611  63.232  18.019  1.00  0.00     0.012 C 
ATOM     10  C   UNL     1      22.651  63.587  19.473  1.00  0.00     0.012 C 
ENDBRANCH   1   8
TORSDOF 1
ENDMDL
MODEL 6
REMARK VINA RESULT:    -3.752      2.277      4.424
REMARK INTER + INTRA:          -4.159
REMARK INTER:                  -3.996
REMARK INTRA:                  -0.162
REMARK UNBOUND:                -0.187
REMARK SMILES C=C1CC=C(C(C)C)CC1
REMARK SMILES IDX 5 1 4 2 3 3 2 4 1 5 10 6 9 7 6 8 7 9 8 10
REMARK H PARENT
REMARK Flexibility Score: inf
ROOT
ATOM      1  C   UNL     1      21.461  63.097  14.750  1.00  0.00    -0.071 C 
ATOM      2  C   UNL     1      21.581  63.468  16.043  1.00  0.00    -0.023 C 
ATOM      3  C   UNL     1      20.367  63.665  16.914  1.00  0.00     0.057 C 
ATOM      4  C   UNL     1      19.217  64.248  16.118  1.00  0.00    -0.073 C 
ATOM      5  C   UNL     1      18.274  64.975  16.733  1.00  0.00     0.008 C 
ATOM      6  C   UNL     1      19.112  63.981  14.630  1.00  0.00     0.035 C 
ATOM      7  C   UNL     1      20.074  62.869  14.188  1.00  0.00     0.035 C 
ENDROOT
BRANCH   1   8
ATOM      8  C   UNL     1      22.680  62.934  13.855  1.00  0.00     0.008 C 
ATOM      9  C   UNL     1      23.765  62.094  14.540  1.00  0.00     0.012 C 
ATOM     10  C   UNL     1      23.231  64.296  13.414  1.00  0.00     0.012 C 
ENDBRANCH   1   8
TORSDOF 1
ENDMDL
MODEL 7
REMARK VINA RESULT:    -3.749      1.011      4.425
REMARK INTER + INTRA:          -4.155
REMARK INTER:                  -3.970
REMARK INTRA:                  -0.185
REMARK UNBOUND:                -0.187
REMARK SMILES C=C1CC=C(C(C)C)CC1
REMARK SMILES IDX 5 1 4 2 3 3 2 4 1 5 10 6 9 7 6 8 7 9 8 10
REMARK H PARENT
REMARK Flexibility Score: inf
ROOT
ATOM      1  C   UNL     1      17.022  65.408  15.976  1.00  0.00    -0.071 C 
ATOM      2  C   UNL     1      17.498  65.279  17.234  1.00  0.00    -0.023 C 
ATOM      3  C   UNL     1      18.969  65.078  17.494  1.00  0.00     0.057 C 
ATOM      4  C   UNL     1      19.600  64.227  16.412  1.00  0.00    -0.073 C 
ATOM      5  C   UNL     1      20.693  63.500  16.679  1.00  0.00     0.008 C 
ATOM      6  C   UNL     1      19.017  64.224  15.013  1.00  0.00     0.035 C 
ATOM      7  C   UNL     1      18.001  65.359  14.823  1.00  0.00     0.035 C 
ENDROOT
BRANCH   1   8
ATOM      8  C   UNL     1      15.534  65.573  15.705  1.00  0.00     0.008 C 
ATOM      9  C   UNL     1      14.695  64.715  16.660  1.00  0.00     0.012 C 
ATOM     10  C   UNL     1      15.200  65.260  14.241  1.00  0.00     0.012 C 
ENDBRANCH   1   8
TORSDOF 1
ENDMDL
MODEL 8
REMARK VINA RESULT:    -3.738      3.073      4.688
REMARK INTER + INTRA:          -4.143
REMARK INTER:                  -4.007
REMARK INTRA:                  -0.136
REMARK UNBOUND:                -0.187
REMARK SMILES C=C1CC=C(C(C)C)CC1
REMARK SMILES IDX 5 1 4 2 3 3 2 4 1 5 10 6 9 7 6 8 7 9 8 10
REMARK H PARENT
REMARK Flexibility Score: inf
ROOT
ATOM      1  C   UNL     1      20.536  63.602  16.100  1.00  0.00    -0.071 C 
ATOM      2  C   UNL     1      21.459  63.059  16.923  1.00  0.00    -0.023 C 
ATOM      3  C   UNL     1      21.302  63.119  18.421  1.00  0.00     0.057 C 
ATOM      4  C   UNL     1      20.659  64.423  18.847  1.00  0.00    -0.073 C 
ATOM      5  C   UNL     1      20.892  64.919  20.069  1.00  0.00     0.008 C 
ATOM      6  C   UNL     1      19.722  65.150  17.904  1.00  0.00     0.035 C 
ATOM      7  C   UNL     1      19.322  64.266  16.714  1.00  0.00     0.035 C 
ENDROOT
BRANCH   1   8
ATOM      8  C   UNL     1      20.708  63.579  14.589  1.00  0.00     0.008 C 
ATOM      9  C   UNL     1      19.580  62.791  13.912  1.00  0.00     0.012 C 
ATOM     10  C   UNL     1      22.083  63.024  14.196  1.00  0.00     0.012 C 
ENDBRANCH   1   8
TORSDOF 1
ENDMDL
MODEL 9
REMARK VINA RESULT:    -3.731      3.625      5.409
REMARK INTER + INTRA:          -4.136
REMARK INTER:                  -4.000
REMARK INTRA:                  -0.136
REMARK UNBOUND:                -0.187
REMARK SMILES C=C1CC=C(C(C)C)CC1
REMARK SMILES IDX 5 1 4 2 3 3 2 4 1 5 10 6 9 7 6 8 7 9 8 10
REMARK H PARENT
REMARK Flexibility Score: inf
ROOT
ATOM      1  C   UNL     1      21.099  63.578  15.569  1.00  0.00    -0.071 C 
ATOM      2  C   UNL     1      20.153  63.507  16.531  1.00  0.00    -0.023 C 
ATOM      3  C   UNL     1      20.469  63.853  17.963  1.00  0.00     0.057 C 
ATOM      4  C   UNL     1      21.876  63.428  18.327  1.00  0.00    -0.073 C 
ATOM      5  C   UNL     1      22.186  63.148  19.600  1.00  0.00     0.008 C 
ATOM      6  C   UNL     1      22.947  63.353  17.257  1.00  0.00     0.035 C 
ATOM      7  C   UNL     1      22.491  64.029  15.956  1.00  0.00     0.035 C 
ENDROOT
BRANCH   1   8
ATOM      8  C   UNL     1      20.797  63.192  14.129  1.00  0.00     0.008 C 
ATOM      9  C   UNL     1      20.982  64.384  13.182  1.00  0.00     0.012 C 
ATOM     10  C   UNL     1      19.389  62.596  13.999  1.00  0.00     0.012 C 
ENDBRANCH   1   8
TORSDOF 1
ENDMDL
