MODEL 1
REMARK VINA RESULT:    -3.503      0.000      0.000
REMARK INTER + INTRA:          -5.468
REMARK INTER:                  -5.141
REMARK INTRA:                  -0.327
REMARK UNBOUND:                -0.327
REMARK SMILES O=C([O-])CCCCCCCC(=O)[O-]
REMARK SMILES IDX 7 1 6 2 5 3 4 4 2 5 1 6 3 7 8 8 9 9 10 10 11 11 12 12 13 13
REMARK H PARENT
REMARK Flexibility Score: inf
ROOT
ATOM      1  C   UNL     1      -1.687 -51.006   2.364  1.00  0.00     0.000 C 
ENDROOT
BRANCH   1   2
ATOM      2  C   UNL     1      -1.231 -51.870   3.551  1.00  0.00     0.000 C 
BRANCH   2   3
ATOM      3  C   UNL     1      -2.169 -51.756   4.762  1.00  0.00     0.006 C 
BRANCH   3   4
ATOM      4  C   UNL     1      -1.376 -51.487   6.044  1.00  0.00     0.053 C 
BRANCH   4   5
ATOM      5  C   UNL     1      -2.300 -51.158   7.174  1.00  0.00     0.041 C 
ATOM      6  O   UNL     1      -3.268 -50.373   6.993  1.00  0.00    -0.550 OA
ATOM      7  O   UNL     1      -2.065 -51.679   8.440  1.00  0.00    -0.550 OA
ENDBRANCH   4   5
ENDBRANCH   3   4
ENDBRANCH   2   3
ENDBRANCH   1   2
BRANCH   1   8
ATOM      8  C   UNL     1      -1.307 -51.621   1.006  1.00  0.00     0.000 C 
BRANCH   8   9
ATOM      9  C   UNL     1      -2.450 -51.546  -0.023  1.00  0.00     0.006 C 
BRANCH   9  10
ATOM     10  C   UNL     1      -3.621 -50.641   0.395  1.00  0.00     0.053 C 
BRANCH  10  11
ATOM     11  C   UNL     1      -4.904 -51.404   0.520  1.00  0.00     0.041 C 
ATOM     12  O   UNL     1      -5.225 -51.929   1.618  1.00  0.00    -0.550 OA
ATOM     13  O   UNL     1      -5.760 -51.507  -0.569  1.00  0.00    -0.550 OA
ENDBRANCH  10  11
ENDBRANCH   9  10
ENDBRANCH   8   9
ENDBRANCH   1   8
TORSDOF 8
ENDMDL
MODEL 2
REMARK VINA RESULT:    -3.414      2.258      6.532
REMARK INTER + INTRA:          -5.337
REMARK INTER:                  -5.032
REMARK INTRA:                  -0.305
REMARK UNBOUND:                -0.327
REMARK SMILES O=C([O-])CCCCCCCC(=O)[O-]
REMARK SMILES IDX 7 1 6 2 5 3 4 4 2 5 1 6 3 7 8 8 9 9 10 10 11 11 12 12 13 13
REMARK H PARENT
REMARK Flexibility Score: inf
ROOT
ATOM      1  C   UNL     1      -1.493 -51.912   5.073  1.00  0.00     0.000 C 
ENDROOT
BRANCH   1   2
ATOM      2  C   UNL     1      -2.887 -51.698   4.462  1.00  0.00     0.000 C 
BRANCH   2   3
ATOM      3  C   UNL     1      -2.887 -51.814   2.930  1.00  0.00     0.006 C 
BRANCH   3   4
ATOM      4  C   UNL     1      -1.764 -50.971   2.318  1.00  0.00     0.053 C 
BRANCH   4   5
ATOM      5  C   UNL     1      -1.722 -51.151   0.833  1.00  0.00     0.041 C 
ATOM      6  O   UNL     1      -2.761 -50.976   0.143  1.00  0.00    -0.550 OA
ATOM      7  O   UNL     1      -0.547 -51.561   0.216  1.00  0.00    -0.550 OA
ENDBRANCH   4   5
ENDBRANCH   3   4
ENDBRANCH   2   3
ENDBRANCH   1   2
BRANCH   1   8
ATOM      8  C   UNL     1      -1.408 -51.432   6.533  1.00  0.00     0.000 C 
BRANCH   8   9
ATOM      9  C   UNL     1      -2.763 -50.944   7.079  1.00  0.00     0.006 C 
BRANCH   9  10
ATOM     10  C   UNL     1      -3.386 -51.862   8.143  1.00  0.00     0.053 C 
BRANCH  10  11
ATOM     11  C   UNL     1      -4.632 -51.274   8.731  1.00  0.00     0.041 C 
ATOM     12  O   UNL     1      -5.728 -51.367   8.117  1.00  0.00    -0.550 OA
ATOM     13  O   UNL     1      -4.590 -50.652   9.972  1.00  0.00    -0.550 OA
ENDBRANCH  10  11
ENDBRANCH   9  10
ENDBRANCH   8   9
ENDBRANCH   1   8
TORSDOF 8
ENDMDL
MODEL 3
REMARK VINA RESULT:    -3.412      2.590      5.409
REMARK INTER + INTRA:          -5.335
REMARK INTER:                  -4.906
REMARK INTRA:                  -0.429
REMARK UNBOUND:                -0.327
REMARK SMILES O=C([O-])CCCCCCCC(=O)[O-]
REMARK SMILES IDX 7 1 6 2 5 3 4 4 2 5 1 6 3 7 8 8 9 9 10 10 11 11 12 12 13 13
REMARK H PARENT
REMARK Flexibility Score: inf
ROOT
ATOM      1  C   UNL     1      -4.142 -50.995   0.472  1.00  0.00     0.000 C 
ENDROOT
BRANCH   1   2
ATOM      2  C   UNL     1      -5.428 -51.183  -0.349  1.00  0.00     0.000 C 
BRANCH   2   3
ATOM      3  C   UNL     1      -6.434 -52.125   0.331  1.00  0.00     0.006 C 
BRANCH   3   4
ATOM      4  C   UNL     1      -6.440 -51.914   1.848  1.00  0.00     0.053 C 
BRANCH   4   5
ATOM      5  C   UNL     1      -7.770 -51.397   2.300  1.00  0.00     0.041 C 
ATOM      6  O   UNL     1      -8.632 -51.039   1.454  1.00  0.00    -0.550 OA
ATOM      7  O   UNL     1      -8.040 -51.265   3.656  1.00  0.00    -0.550 OA
ENDBRANCH   4   5
ENDBRANCH   3   4
ENDBRANCH   2   3
ENDBRANCH   1   2
BRANCH   1   8
ATOM      8  C   UNL     1      -2.936 -51.724  -0.144  1.00  0.00     0.000 C 
BRANCH   8   9
ATOM      9  C   UNL     1      -1.623 -51.447   0.611  1.00  0.00     0.006 C 
BRANCH   9  10
ATOM     10  C   UNL     1      -1.796 -50.639   1.908  1.00  0.00     0.053 C 
BRANCH  10  11
ATOM     11  C   UNL     1      -1.631 -51.493   3.127  1.00  0.00     0.041 C 
ATOM     12  O   UNL     1      -0.506 -51.985   3.411  1.00  0.00    -0.550 OA
ATOM     13  O   UNL     1      -2.712 -51.720   3.969  1.00  0.00    -0.550 OA
ENDBRANCH  10  11
ENDBRANCH   9  10
ENDBRANCH   8   9
ENDBRANCH   1   8
TORSDOF 8
ENDMDL
MODEL 4
REMARK VINA RESULT:    -3.406      1.285      5.680
REMARK INTER + INTRA:          -5.326
REMARK INTER:                  -4.843
REMARK INTRA:                  -0.482
REMARK UNBOUND:                -0.327
REMARK SMILES O=C([O-])CCCCCCCC(=O)[O-]
REMARK SMILES IDX 7 1 6 2 5 3 4 4 2 5 1 6 3 7 8 8 9 9 10 10 11 11 12 12 13 13
REMARK H PARENT
REMARK Flexibility Score: inf
ROOT
ATOM      1  C   UNL     1      -2.545 -50.604   1.828  1.00  0.00     0.000 C 
ENDROOT
BRANCH   1   2
ATOM      2  C   UNL     1      -2.953 -50.779   0.357  1.00  0.00     0.000 C 
BRANCH   2   3
ATOM      3  C   UNL     1      -3.972 -51.911   0.154  1.00  0.00     0.006 C 
BRANCH   3   4
ATOM      4  C   UNL     1      -5.369 -51.346  -0.122  1.00  0.00     0.053 C 
BRANCH   4   5
ATOM      5  C   UNL     1      -6.315 -51.728   0.973  1.00  0.00     0.041 C 
ATOM      6  O   UNL     1      -7.556 -51.744   0.762  1.00  0.00    -0.550 OA
ATOM      7  O   UNL     1      -5.828 -52.019   2.241  1.00  0.00    -0.550 OA
ENDBRANCH   4   5
ENDBRANCH   3   4
ENDBRANCH   2   3
ENDBRANCH   1   2
BRANCH   1   8
ATOM      8  C   UNL     1      -1.452 -51.596   2.260  1.00  0.00     0.000 C 
BRANCH   8   9
ATOM      9  C   UNL     1      -1.558 -51.991   3.745  1.00  0.00     0.006 C 
BRANCH   9  10
ATOM     10  C   UNL     1      -2.921 -51.683   4.387  1.00  0.00     0.053 C 
BRANCH  10  11
ATOM     11  C   UNL     1      -2.815 -51.506   5.870  1.00  0.00     0.041 C 
ATOM     12  O   UNL     1      -1.701 -51.261   6.402  1.00  0.00    -0.550 OA
ATOM     13  O   UNL     1      -3.954 -51.579   6.662  1.00  0.00    -0.550 OA
ENDBRANCH  10  11
ENDBRANCH   9  10
ENDBRANCH   8   9
ENDBRANCH   1   8
TORSDOF 8
ENDMDL
MODEL 5
REMARK VINA RESULT:    -3.376      1.142      1.604
REMARK INTER + INTRA:          -5.282
REMARK INTER:                  -4.815
REMARK INTRA:                  -0.468
REMARK UNBOUND:                -0.327
REMARK SMILES O=C([O-])CCCCCCCC(=O)[O-]
REMARK SMILES IDX 7 1 6 2 5 3 4 4 2 5 1 6 3 7 8 8 9 9 10 10 11 11 12 12 13 13
REMARK H PARENT
REMARK Flexibility Score: inf
ROOT
ATOM      1  C   UNL     1      -2.180 -50.607   1.999  1.00  0.00     0.000 C 
ENDROOT
BRANCH   1   2
ATOM      2  C   UNL     1      -2.254 -51.937   2.766  1.00  0.00     0.000 C 
BRANCH   2   3
ATOM      3  C   UNL     1      -2.790 -51.769   4.196  1.00  0.00     0.006 C 
BRANCH   3   4
ATOM      4  C   UNL     1      -1.657 -51.885   5.221  1.00  0.00     0.053 C 
BRANCH   4   5
ATOM      5  C   UNL     1      -2.139 -51.492   6.582  1.00  0.00     0.041 C 
ATOM      6  O   UNL     1      -1.601 -51.981   7.610  1.00  0.00    -0.550 OA
ATOM      7  O   UNL     1      -3.216 -50.624   6.714  1.00  0.00    -0.550 OA
ENDBRANCH   4   5
ENDBRANCH   3   4
ENDBRANCH   2   3
ENDBRANCH   1   2
BRANCH   1   8
ATOM      8  C   UNL     1      -2.832 -50.690   0.608  1.00  0.00     0.000 C 
BRANCH   8   9
ATOM      9  C   UNL     1      -3.804 -51.877   0.475  1.00  0.00     0.006 C 
BRANCH   9  10
ATOM     10  C   UNL     1      -5.242 -51.480   0.104  1.00  0.00     0.053 C 
BRANCH  10  11
ATOM     11  C   UNL     1      -6.199 -51.720   1.232  1.00  0.00     0.041 C 
ATOM     12  O   UNL     1      -5.776 -52.121   2.348  1.00  0.00    -0.550 OA
ATOM     13  O   UNL     1      -7.554 -51.468   1.059  1.00  0.00    -0.550 OA
ENDBRANCH  10  11
ENDBRANCH   9  10
ENDBRANCH   8   9
ENDBRANCH   1   8
TORSDOF 8
ENDMDL
MODEL 6
REMARK VINA RESULT:    -3.339      1.155      6.139
REMARK INTER + INTRA:          -5.228
REMARK INTER:                  -4.882
REMARK INTRA:                  -0.346
REMARK UNBOUND:                -0.327
REMARK SMILES O=C([O-])CCCCCCCC(=O)[O-]
REMARK SMILES IDX 7 1 6 2 5 3 4 4 2 5 1 6 3 7 8 8 9 9 10 10 11 11 12 12 13 13
REMARK H PARENT
REMARK Flexibility Score: inf
ROOT
ATOM      1  C   UNL     1      -2.244 -51.807   4.016  1.00  0.00     0.000 C 
ENDROOT
BRANCH   1   2
ATOM      2  C   UNL     1      -1.636 -51.673   2.610  1.00  0.00     0.000 C 
BRANCH   2   3
ATOM      3  C   UNL     1      -2.361 -50.629   1.747  1.00  0.00     0.006 C 
BRANCH   3   4
ATOM      4  C   UNL     1      -3.017 -51.288   0.529  1.00  0.00     0.053 C 
BRANCH   4   5
ATOM      5  C   UNL     1      -4.504 -51.334   0.696  1.00  0.00     0.041 C 
ATOM      6  O   UNL     1      -5.008 -51.757   1.769  1.00  0.00    -0.550 OA
ATOM      7  O   UNL     1      -5.333 -50.957  -0.353  1.00  0.00    -0.550 OA
ENDBRANCH   4   5
ENDBRANCH   3   4
ENDBRANCH   2   3
ENDBRANCH   1   2
BRANCH   1   8
ATOM      8  C   UNL     1      -1.218 -51.537   5.131  1.00  0.00     0.000 C 
BRANCH   8   9
ATOM      9  C   UNL     1      -1.647 -52.125   6.488  1.00  0.00     0.006 C 
BRANCH   9  10
ATOM     10  C   UNL     1      -2.155 -51.083   7.498  1.00  0.00     0.053 C 
BRANCH  10  11
ATOM     11  C   UNL     1      -3.640 -51.153   7.678  1.00  0.00     0.041 C 
ATOM     12  O   UNL     1      -4.193 -50.550   8.635  1.00  0.00    -0.550 OA
ATOM     13  O   UNL     1      -4.418 -51.858   6.768  1.00  0.00    -0.550 OA
ENDBRANCH  10  11
ENDBRANCH   9  10
ENDBRANCH   8   9
ENDBRANCH   1   8
TORSDOF 8
ENDMDL
MODEL 7
REMARK VINA RESULT:    -3.280      2.598      2.868
REMARK INTER + INTRA:          -5.142
REMARK INTER:                  -4.980
REMARK INTRA:                  -0.161
REMARK UNBOUND:                -0.327
REMARK SMILES O=C([O-])CCCCCCCC(=O)[O-]
REMARK SMILES IDX 7 1 6 2 5 3 4 4 2 5 1 6 3 7 8 8 9 9 10 10 11 11 12 12 13 13
REMARK H PARENT
REMARK Flexibility Score: inf
ROOT
ATOM      1  C   UNL     1      -1.379 -51.233   2.975  1.00  0.00     0.000 C 
ENDROOT
BRANCH   1   2
ATOM      2  C   UNL     1      -1.181 -52.066   4.252  1.00  0.00     0.000 C 
BRANCH   2   3
ATOM      3  C   UNL     1      -2.205 -51.729   5.346  1.00  0.00     0.006 C 
BRANCH   3   4
ATOM      4  C   UNL     1      -1.509 -51.492   6.690  1.00  0.00     0.053 C 
BRANCH   4   5
ATOM      5  C   UNL     1      -2.520 -51.255   7.769  1.00  0.00     0.041 C 
ATOM      6  O   UNL     1      -3.555 -50.579   7.530  1.00  0.00    -0.550 OA
ATOM      7  O   UNL     1      -2.295 -51.741   9.051  1.00  0.00    -0.550 OA
ENDBRANCH   4   5
ENDBRANCH   3   4
ENDBRANCH   2   3
ENDBRANCH   1   2
BRANCH   1   8
ATOM      8  C   UNL     1      -1.983 -52.053   1.822  1.00  0.00     0.000 C 
BRANCH   8   9
ATOM      9  C   UNL     1      -2.050 -51.264   0.501  1.00  0.00     0.006 C 
BRANCH   9  10
ATOM     10  C   UNL     1      -1.882 -52.125  -0.761  1.00  0.00     0.053 C 
BRANCH  10  11
ATOM     11  C   UNL     1      -0.491 -52.051  -1.310  1.00  0.00     0.041 C 
ATOM     12  O   UNL     1       0.496 -51.981  -0.531  1.00  0.00    -0.550 OA
ATOM     13  O   UNL     1      -0.281 -52.092  -2.683  1.00  0.00    -0.550 OA
ENDBRANCH  10  11
ENDBRANCH   9  10
ENDBRANCH   8   9
ENDBRANCH   1   8
TORSDOF 8
ENDMDL
MODEL 8
REMARK VINA RESULT:    -3.209      2.632      3.716
REMARK INTER + INTRA:          -5.037
REMARK INTER:                  -4.795
REMARK INTRA:                  -0.242
REMARK UNBOUND:                -0.327
REMARK SMILES O=C([O-])CCCCCCCC(=O)[O-]
REMARK SMILES IDX 7 1 6 2 5 3 4 4 2 5 1 6 3 7 8 8 9 9 10 10 11 11 12 12 13 13
REMARK H PARENT
REMARK Flexibility Score: inf
ROOT
ATOM      1  C   UNL     1      -2.653 -52.009   5.469  1.00  0.00     0.000 C 
ENDROOT
BRANCH   1   2
ATOM      2  C   UNL     1      -2.664 -51.148   6.742  1.00  0.00     0.000 C 
BRANCH   2   3
ATOM      3  C   UNL     1      -3.287 -51.873   7.944  1.00  0.00     0.006 C 
BRANCH   3   4
ATOM      4  C   UNL     1      -4.140 -50.913   8.780  1.00  0.00     0.053 C 
BRANCH   4   5
ATOM      5  C   UNL     1      -5.552 -51.403   8.863  1.00  0.00     0.041 C 
ATOM      6  O   UNL     1      -6.096 -51.580   9.985  1.00  0.00    -0.550 OA
ATOM      7  O   UNL     1      -6.250 -51.710   7.703  1.00  0.00    -0.550 OA
ENDBRANCH   4   5
ENDBRANCH   3   4
ENDBRANCH   2   3
ENDBRANCH   1   2
BRANCH   1   8
ATOM      8  C   UNL     1      -3.597 -51.468   4.381  1.00  0.00     0.000 C 
BRANCH   8   9
ATOM      9  C   UNL     1      -3.149 -51.853   2.959  1.00  0.00     0.006 C 
BRANCH   9  10
ATOM     10  C   UNL     1      -1.947 -51.051   2.433  1.00  0.00     0.053 C 
BRANCH  10  11
ATOM     11  C   UNL     1      -1.860 -51.083   0.939  1.00  0.00     0.041 C 
ATOM     12  O   UNL     1      -2.865 -50.788   0.238  1.00  0.00    -0.550 OA
ATOM     13  O   UNL     1      -0.661 -51.408   0.318  1.00  0.00    -0.550 OA
ENDBRANCH  10  11
ENDBRANCH   9  10
ENDBRANCH   8   9
ENDBRANCH   1   8
TORSDOF 8
ENDMDL
