MODEL 1
REMARK VINA RESULT:    -1.744      0.000      0.000
REMARK INTER + INTRA:          -5.617
REMARK INTER:                  -3.171
REMARK INTRA:                  -2.445
REMARK UNBOUND:                -2.445
REMARK SMILES CCCCCCCCCCCCCC[C@H](C)C(=O)[O-]
REMARK SMILES IDX 9 1 10 2 11 3 12 4 13 5 14 6 15 7 16 8 17 9 18 10 19 11 8 12
REMARK SMILES IDX 7 13 6 14 5 15 4 16 3 17 2 18 1 19
REMARK H PARENT
REMARK Flexibility Score: inf
ROOT
ATOM      1  C   UNL     1      22.185  25.379  16.340  1.00  0.00     0.000 C 
ENDROOT
BRANCH   1   2
ATOM      2  C   UNL     1      21.872  26.715  17.036  1.00  0.00     0.000 C 
BRANCH   2   3
ATOM      3  C   UNL     1      22.840  27.019  18.189  1.00  0.00     0.000 C 
BRANCH   3   4
ATOM      4  C   UNL     1      23.764  28.212  17.886  1.00  0.00     0.000 C 
BRANCH   4   5
ATOM      5  C   UNL     1      23.239  29.066  16.714  1.00  0.00     0.001 C 
BRANCH   5   6
ATOM      6  C   UNL     1      24.272  29.304  15.595  1.00  0.00     0.009 C 
BRANCH   6   7
ATOM      7  C   UNL     1      23.650  29.674  14.225  1.00  0.00     0.032 C 
ATOM      8  C   UNL     1      22.278  29.010  14.060  1.00  0.00     0.014 C 
BRANCH   7   9
ATOM      9  C   UNL     1      24.530  29.264  13.074  1.00  0.00     0.044 C 
ATOM     10  O   UNL     1      24.125  29.405  11.889  1.00  0.00    -0.550 OA
ATOM     11  O   UNL     1      25.759  28.658  13.306  1.00  0.00    -0.550 OA
ENDBRANCH   7   9
ENDBRANCH   6   7
ENDBRANCH   5   6
ENDBRANCH   4   5
ENDBRANCH   3   4
ENDBRANCH   2   3
ENDBRANCH   1   2
BRANCH   1  12
ATOM     12  C   UNL     1      22.445  25.547  14.835  1.00  0.00     0.000 C 
BRANCH  12  13
ATOM     13  C   UNL     1      23.880  25.159  14.438  1.00  0.00    -0.000 C 
BRANCH  13  14
ATOM     14  C   UNL     1      24.936  25.658  15.441  1.00  0.00    -0.000 C 
BRANCH  14  15
ATOM     15  C   UNL     1      26.125  24.705  15.667  1.00  0.00    -0.000 C 
BRANCH  15  16
ATOM     16  C   UNL     1      25.995  23.388  14.884  1.00  0.00    -0.000 C 
BRANCH  16  17
ATOM     17  C   UNL     1      25.803  22.164  15.798  1.00  0.00    -0.000 C 
BRANCH  17  18
ATOM     18  C   UNL     1      24.957  22.419  17.060  1.00  0.00    -0.003 C 
ATOM     19  C   UNL     1      23.499  21.989  16.902  1.00  0.00     0.004 C 
ENDBRANCH  17  18
ENDBRANCH  16  17
ENDBRANCH  15  16
ENDBRANCH  14  15
ENDBRANCH  13  14
ENDBRANCH  12  13
ENDBRANCH   1  12
TORSDOF 14
ENDMDL
MODEL 2
REMARK VINA RESULT:    -1.656      3.105      5.961
REMARK INTER + INTRA:          -5.456
REMARK INTER:                  -3.111
REMARK INTRA:                  -2.345
REMARK UNBOUND:                -2.445
REMARK SMILES CCCCCCCCCCCCCC[C@H](C)C(=O)[O-]
REMARK SMILES IDX 9 1 10 2 11 3 12 4 13 5 14 6 15 7 16 8 17 9 18 10 19 11 8 12
REMARK SMILES IDX 7 13 6 14 5 15 4 16 3 17 2 18 1 19
REMARK H PARENT
REMARK Flexibility Score: inf
ROOT
ATOM      1  C   UNL     1      23.733  26.731  16.170  1.00  0.00     0.000 C 
ENDROOT
BRANCH   1   2
ATOM      2  C   UNL     1      24.323  26.314  17.529  1.00  0.00     0.000 C 
BRANCH   2   3
ATOM      3  C   UNL     1      25.481  25.316  17.387  1.00  0.00     0.000 C 
BRANCH   3   4
ATOM      4  C   UNL     1      26.111  25.337  15.983  1.00  0.00     0.000 C 
BRANCH   4   5
ATOM      5  C   UNL     1      26.099  23.942  15.324  1.00  0.00     0.001 C 
BRANCH   5   6
ATOM      6  C   UNL     1      24.885  23.689  14.408  1.00  0.00     0.009 C 
BRANCH   6   7
ATOM      7  C   UNL     1      24.098  22.396  14.742  1.00  0.00     0.032 C 
ATOM      8  C   UNL     1      23.386  22.533  16.092  1.00  0.00     0.014 C 
BRANCH   7   9
ATOM      9  C   UNL     1      24.991  21.184  14.784  1.00  0.00     0.044 C 
ATOM     10  O   UNL     1      25.254  20.633  15.885  1.00  0.00    -0.550 OA
ATOM     11  O   UNL     1      25.592  20.709  13.623  1.00  0.00    -0.550 OA
ENDBRANCH   7   9
ENDBRANCH   6   7
ENDBRANCH   5   6
ENDBRANCH   4   5
ENDBRANCH   3   4
ENDBRANCH   2   3
ENDBRANCH   1   2
BRANCH   1  12
ATOM     12  C   UNL     1      23.302  28.205  16.143  1.00  0.00     0.000 C 
BRANCH  12  13
ATOM     13  C   UNL     1      24.280  29.090  15.350  1.00  0.00    -0.000 C 
BRANCH  13  14
ATOM     14  C   UNL     1      25.057  28.311  14.274  1.00  0.00    -0.000 C 
BRANCH  14  15
ATOM     15  C   UNL     1      25.018  28.928  12.864  1.00  0.00    -0.000 C 
BRANCH  15  16
ATOM     16  C   UNL     1      23.980  28.260  11.945  1.00  0.00    -0.000 C 
BRANCH  16  17
ATOM     17  C   UNL     1      23.517  26.886  12.464  1.00  0.00    -0.000 C 
BRANCH  17  18
ATOM     18  C   UNL     1      22.006  26.765  12.729  1.00  0.00    -0.003 C 
ATOM     19  C   UNL     1      21.331  28.112  12.983  1.00  0.00     0.004 C 
ENDBRANCH  17  18
ENDBRANCH  16  17
ENDBRANCH  15  16
ENDBRANCH  14  15
ENDBRANCH  13  14
ENDBRANCH  12  13
ENDBRANCH   1  12
TORSDOF 14
ENDMDL
MODEL 3
REMARK VINA RESULT:    -1.650      2.860      5.734
REMARK INTER + INTRA:          -5.446
REMARK INTER:                  -2.962
REMARK INTRA:                  -2.485
REMARK UNBOUND:                -2.445
REMARK SMILES CCCCCCCCCCCCCC[C@H](C)C(=O)[O-]
REMARK SMILES IDX 9 1 10 2 11 3 12 4 13 5 14 6 15 7 16 8 17 9 18 10 19 11 8 12
REMARK SMILES IDX 7 13 6 14 5 15 4 16 3 17 2 18 1 19
REMARK H PARENT
REMARK Flexibility Score: inf
ROOT
ATOM      1  C   UNL     1      23.065  28.321  11.875  1.00  0.00     0.000 C 
ENDROOT
BRANCH   1   2
ATOM      2  C   UNL     1      21.883  28.047  12.821  1.00  0.00     0.000 C 
BRANCH   2   3
ATOM      3  C   UNL     1      21.910  26.625  13.402  1.00  0.00     0.000 C 
BRANCH   3   4
ATOM      4  C   UNL     1      23.124  25.813  12.920  1.00  0.00     0.000 C 
BRANCH   4   5
ATOM      5  C   UNL     1      22.935  24.299  13.150  1.00  0.00     0.001 C 
BRANCH   5   6
ATOM      6  C   UNL     1      24.208  23.570  13.624  1.00  0.00     0.009 C 
BRANCH   6   7
ATOM      7  C   UNL     1      24.523  23.756  15.130  1.00  0.00     0.032 C 
ATOM      8  C   UNL     1      26.010  24.069  15.334  1.00  0.00     0.014 C 
BRANCH   7   9
ATOM      9  C   UNL     1      24.167  22.537  15.938  1.00  0.00     0.044 C 
ATOM     10  O   UNL     1      23.349  22.628  16.891  1.00  0.00    -0.550 OA
ATOM     11  O   UNL     1      24.793  21.320  15.692  1.00  0.00    -0.550 OA
ENDBRANCH   7   9
ENDBRANCH   6   7
ENDBRANCH   5   6
ENDBRANCH   4   5
ENDBRANCH   3   4
ENDBRANCH   2   3
ENDBRANCH   1   2
BRANCH   1  12
ATOM     12  C   UNL     1      24.000  29.419  12.404  1.00  0.00     0.000 C 
BRANCH  12  13
ATOM     13  C   UNL     1      25.313  28.852  12.972  1.00  0.00    -0.000 C 
BRANCH  13  14
ATOM     14  C   UNL     1      25.198  28.438  14.450  1.00  0.00    -0.000 C 
BRANCH  14  15
ATOM     15  C   UNL     1      24.250  29.305  15.300  1.00  0.00    -0.000 C 
BRANCH  15  16
ATOM     16  C   UNL     1      23.752  28.586  16.566  1.00  0.00    -0.000 C 
BRANCH  16  17
ATOM     17  C   UNL     1      23.896  27.055  16.480  1.00  0.00    -0.000 C 
BRANCH  17  18
ATOM     18  C   UNL     1      22.744  26.255  17.117  1.00  0.00    -0.003 C 
ATOM     19  C   UNL     1      21.395  26.967  17.022  1.00  0.00     0.004 C 
ENDBRANCH  17  18
ENDBRANCH  16  17
ENDBRANCH  15  16
ENDBRANCH  14  15
ENDBRANCH  13  14
ENDBRANCH  12  13
ENDBRANCH   1  12
TORSDOF 14
ENDMDL
MODEL 4
REMARK VINA RESULT:    -1.642     21.208     23.503
REMARK INTER + INTRA:          -5.432
REMARK INTER:                  -2.538
REMARK INTRA:                  -2.894
REMARK UNBOUND:                -2.445
REMARK SMILES CCCCCCCCCCCCCC[C@H](C)C(=O)[O-]
REMARK SMILES IDX 9 1 10 2 11 3 12 4 13 5 14 6 15 7 16 8 17 9 18 10 19 11 8 12
REMARK SMILES IDX 7 13 6 14 5 15 4 16 3 17 2 18 1 19
REMARK H PARENT
REMARK Flexibility Score: inf
ROOT
ATOM      1  C   UNL     1       6.409  12.612  27.257  1.00  0.00     0.000 C 
ENDROOT
BRANCH   1   2
ATOM      2  C   UNL     1       7.094  11.258  27.505  1.00  0.00     0.000 C 
BRANCH   2   3
ATOM      3  C   UNL     1       6.651  10.180  26.504  1.00  0.00     0.000 C 
BRANCH   3   4
ATOM      4  C   UNL     1       7.729   9.875  25.449  1.00  0.00     0.000 C 
BRANCH   4   5
ATOM      5  C   UNL     1       7.372  10.469  24.070  1.00  0.00     0.001 C 
BRANCH   5   6
ATOM      6  C   UNL     1       8.414  11.465  23.525  1.00  0.00     0.009 C 
BRANCH   6   7
ATOM      7  C   UNL     1       8.096  12.950  23.835  1.00  0.00     0.032 C 
ATOM      8  C   UNL     1       6.604  13.235  23.627  1.00  0.00     0.014 C 
BRANCH   7   9
ATOM      9  C   UNL     1       8.896  13.893  22.976  1.00  0.00     0.044 C 
ATOM     10  O   UNL     1       8.585  14.062  21.767  1.00  0.00    -0.550 OA
ATOM     11  O   UNL     1      10.025  14.524  23.483  1.00  0.00    -0.550 OA
ENDBRANCH   7   9
ENDBRANCH   6   7
ENDBRANCH   5   6
ENDBRANCH   4   5
ENDBRANCH   3   4
ENDBRANCH   2   3
ENDBRANCH   1   2
BRANCH   1  12
ATOM     12  C   UNL     1       7.398  13.787  27.291  1.00  0.00     0.000 C 
BRANCH  12  13
ATOM     13  C   UNL     1       8.782  13.377  27.824  1.00  0.00    -0.000 C 
BRANCH  13  14
ATOM     14  C   UNL     1       9.937  14.133  27.143  1.00  0.00    -0.000 C 
BRANCH  14  15
ATOM     15  C   UNL     1      11.069  13.244  26.596  1.00  0.00    -0.000 C 
BRANCH  15  16
ATOM     16  C   UNL     1      10.612  11.803  26.306  1.00  0.00    -0.000 C 
BRANCH  16  17
ATOM     17  C   UNL     1      11.356  10.756  27.156  1.00  0.00    -0.000 C 
BRANCH  17  18
ATOM     18  C   UNL     1      10.521  10.118  28.281  1.00  0.00    -0.003 C 
ATOM     19  C   UNL     1      10.919  10.604  29.674  1.00  0.00     0.004 C 
ENDBRANCH  17  18
ENDBRANCH  16  17
ENDBRANCH  15  16
ENDBRANCH  14  15
ENDBRANCH  13  14
ENDBRANCH  12  13
ENDBRANCH   1  12
TORSDOF 14
ENDMDL
MODEL 5
REMARK VINA RESULT:    -1.618      2.470      6.027
REMARK INTER + INTRA:          -5.388
REMARK INTER:                  -2.954
REMARK INTRA:                  -2.434
REMARK UNBOUND:                -2.445
REMARK SMILES CCCCCCCCCCCCCC[C@H](C)C(=O)[O-]
REMARK SMILES IDX 9 1 10 2 11 3 12 4 13 5 14 6 15 7 16 8 17 9 18 10 19 11 8 12
REMARK SMILES IDX 7 13 6 14 5 15 4 16 3 17 2 18 1 19
REMARK H PARENT
REMARK Flexibility Score: inf
ROOT
ATOM      1  C   UNL     1      23.953  28.084  12.085  1.00  0.00     0.000 C 
ENDROOT
BRANCH   1   2
ATOM      2  C   UNL     1      22.481  27.930  12.503  1.00  0.00     0.000 C 
BRANCH   2   3
ATOM      3  C   UNL     1      22.157  26.517  13.011  1.00  0.00     0.000 C 
BRANCH   3   4
ATOM      4  C   UNL     1      23.421  25.698  13.326  1.00  0.00     0.000 C 
BRANCH   4   5
ATOM      5  C   UNL     1      23.629  25.518  14.844  1.00  0.00     0.001 C 
BRANCH   5   6
ATOM      6  C   UNL     1      25.031  25.925  15.340  1.00  0.00     0.009 C 
BRANCH   6   7
ATOM      7  C   UNL     1      25.863  24.754  15.922  1.00  0.00     0.032 C 
ATOM      8  C   UNL     1      25.260  23.407  15.506  1.00  0.00     0.014 C 
BRANCH   7   9
ATOM      9  C   UNL     1      25.942  24.807  17.424  1.00  0.00     0.044 C 
ATOM     10  O   UNL     1      25.926  25.918  18.018  1.00  0.00    -0.550 OA
ATOM     11  O   UNL     1      26.111  23.642  18.164  1.00  0.00    -0.550 OA
ENDBRANCH   7   9
ENDBRANCH   6   7
ENDBRANCH   5   6
ENDBRANCH   4   5
ENDBRANCH   3   4
ENDBRANCH   2   3
ENDBRANCH   1   2
BRANCH   1  12
ATOM     12  C   UNL     1      24.697  29.132  12.927  1.00  0.00     0.000 C 
BRANCH  12  13
ATOM     13  C   UNL     1      23.795  29.779  13.992  1.00  0.00    -0.000 C 
BRANCH  13  14
ATOM     14  C   UNL     1      24.191  29.395  15.429  1.00  0.00    -0.000 C 
BRANCH  14  15
ATOM     15  C   UNL     1      23.182  29.806  16.518  1.00  0.00    -0.000 C 
BRANCH  15  16
ATOM     16  C   UNL     1      22.410  28.611  17.102  1.00  0.00    -0.000 C 
BRANCH  16  17
ATOM     17  C   UNL     1      21.288  28.111  16.174  1.00  0.00    -0.000 C 
BRANCH  17  18
ATOM     18  C   UNL     1      20.068  29.045  16.064  1.00  0.00    -0.003 C 
ATOM     19  C   UNL     1      19.886  29.632  14.665  1.00  0.00     0.004 C 
ENDBRANCH  17  18
ENDBRANCH  16  17
ENDBRANCH  15  16
ENDBRANCH  14  15
ENDBRANCH  13  14
ENDBRANCH  12  13
ENDBRANCH   1  12
TORSDOF 14
ENDMDL
MODEL 6
REMARK VINA RESULT:    -1.618      1.469      2.350
REMARK INTER + INTRA:          -5.387
REMARK INTER:                  -2.612
REMARK INTRA:                  -2.776
REMARK UNBOUND:                -2.445
REMARK SMILES CCCCCCCCCCCCCC[C@H](C)C(=O)[O-]
REMARK SMILES IDX 9 1 10 2 11 3 12 4 13 5 14 6 15 7 16 8 17 9 18 10 19 11 8 12
REMARK SMILES IDX 7 13 6 14 5 15 4 16 3 17 2 18 1 19
REMARK H PARENT
REMARK Flexibility Score: inf
ROOT
ATOM      1  C   UNL     1      20.573  26.732  15.843  1.00  0.00     0.000 C 
ENDROOT
BRANCH   1   2
ATOM      2  C   UNL     1      20.861  27.348  17.223  1.00  0.00     0.000 C 
BRANCH   2   3
ATOM      3  C   UNL     1      21.972  26.604  17.980  1.00  0.00     0.000 C 
BRANCH   3   4
ATOM      4  C   UNL     1      23.289  27.398  18.028  1.00  0.00     0.000 C 
BRANCH   4   5
ATOM      5  C   UNL     1      23.134  28.810  17.425  1.00  0.00     0.001 C 
BRANCH   5   6
ATOM      6  C   UNL     1      24.298  29.235  16.508  1.00  0.00     0.009 C 
BRANCH   6   7
ATOM      7  C   UNL     1      24.533  28.291  15.302  1.00  0.00     0.032 C 
ATOM      8  C   UNL     1      25.821  27.482  15.494  1.00  0.00     0.014 C 
BRANCH   7   9
ATOM      9  C   UNL     1      24.622  29.045  14.001  1.00  0.00     0.044 C 
ATOM     10  O   UNL     1      23.752  29.908  13.712  1.00  0.00    -0.550 OA
ATOM     11  O   UNL     1      25.616  28.743  13.078  1.00  0.00    -0.550 OA
ENDBRANCH   7   9
ENDBRANCH   6   7
ENDBRANCH   5   6
ENDBRANCH   4   5
ENDBRANCH   3   4
ENDBRANCH   2   3
ENDBRANCH   1   2
BRANCH   1  12
ATOM     12  C   UNL     1      20.900  27.694  14.690  1.00  0.00     0.000 C 
BRANCH  12  13
ATOM     13  C   UNL     1      21.535  26.976  13.487  1.00  0.00    -0.000 C 
BRANCH  13  14
ATOM     14  C   UNL     1      21.858  25.497  13.772  1.00  0.00    -0.000 C 
BRANCH  14  15
ATOM     15  C   UNL     1      23.201  25.000  13.204  1.00  0.00    -0.000 C 
BRANCH  15  16
ATOM     16  C   UNL     1      24.176  24.528  14.296  1.00  0.00    -0.000 C 
BRANCH  16  17
ATOM     17  C   UNL     1      23.522  24.446  15.688  1.00  0.00    -0.000 C 
BRANCH  17  18
ATOM     18  C   UNL     1      24.256  23.548  16.700  1.00  0.00    -0.003 C 
ATOM     19  C   UNL     1      25.360  24.280  17.463  1.00  0.00     0.004 C 
ENDBRANCH  17  18
ENDBRANCH  16  17
ENDBRANCH  15  16
ENDBRANCH  14  15
ENDBRANCH  13  14
ENDBRANCH  12  13
ENDBRANCH   1  12
TORSDOF 14
ENDMDL
MODEL 7
REMARK VINA RESULT:    -1.599     21.524     23.435
REMARK INTER + INTRA:          -5.354
REMARK INTER:                  -2.686
REMARK INTRA:                  -2.668
REMARK UNBOUND:                -2.445
REMARK SMILES CCCCCCCCCCCCCC[C@H](C)C(=O)[O-]
REMARK SMILES IDX 9 1 10 2 11 3 12 4 13 5 14 6 15 7 16 8 17 9 18 10 19 11 8 12
REMARK SMILES IDX 7 13 6 14 5 15 4 16 3 17 2 18 1 19
REMARK H PARENT
REMARK Flexibility Score: inf
ROOT
ATOM      1  C   UNL     1       9.483  14.086  24.907  1.00  0.00     0.000 C 
ENDROOT
BRANCH   1   2
ATOM      2  C   UNL     1       8.827  15.129  25.829  1.00  0.00     0.000 C 
BRANCH   2   3
ATOM      3  C   UNL     1       9.161  14.897  27.311  1.00  0.00     0.000 C 
BRANCH   3   4
ATOM      4  C   UNL     1       8.008  15.301  28.246  1.00  0.00     0.000 C 
BRANCH   4   5
ATOM      5  C   UNL     1       6.718  15.627  27.466  1.00  0.00     0.001 C 
BRANCH   5   6
ATOM      6  C   UNL     1       6.128  17.017  27.777  1.00  0.00     0.009 C 
BRANCH   6   7
ATOM      7  C   UNL     1       6.854  17.774  28.917  1.00  0.00     0.032 C 
ATOM      8  C   UNL     1       5.875  18.112  30.047  1.00  0.00     0.014 C 
BRANCH   7   9
ATOM      9  C   UNL     1       7.496  19.048  28.433  1.00  0.00     0.044 C 
ATOM     10  O   UNL     1       6.795  20.080  28.258  1.00  0.00    -0.550 OA
ATOM     11  O   UNL     1       8.846  19.076  28.103  1.00  0.00    -0.550 OA
ENDBRANCH   7   9
ENDBRANCH   6   7
ENDBRANCH   5   6
ENDBRANCH   4   5
ENDBRANCH   3   4
ENDBRANCH   2   3
ENDBRANCH   1   2
BRANCH   1  12
ATOM     12  C   UNL     1       8.452  13.169  24.231  1.00  0.00     0.000 C 
BRANCH  12  13
ATOM     13  C   UNL     1       7.082  13.847  24.062  1.00  0.00    -0.000 C 
BRANCH  13  14
ATOM     14  C   UNL     1       5.967  13.155  24.867  1.00  0.00    -0.000 C 
BRANCH  14  15
ATOM     15  C   UNL     1       6.407  11.907  25.655  1.00  0.00    -0.000 C 
BRANCH  15  16
ATOM     16  C   UNL     1       6.224  12.062  27.175  1.00  0.00    -0.000 C 
BRANCH  16  17
ATOM     17  C   UNL     1       7.382  11.449  27.984  1.00  0.00    -0.000 C 
BRANCH  17  18
ATOM     18  C   UNL     1       8.573  10.954  27.144  1.00  0.00    -0.003 C 
ATOM     19  C   UNL     1       9.928  11.307  27.756  1.00  0.00     0.004 C 
ENDBRANCH  17  18
ENDBRANCH  16  17
ENDBRANCH  15  16
ENDBRANCH  14  15
ENDBRANCH  13  14
ENDBRANCH  12  13
ENDBRANCH   1  12
TORSDOF 14
ENDMDL
MODEL 8
REMARK VINA RESULT:    -1.599      2.227      4.237
REMARK INTER + INTRA:          -5.352
REMARK INTER:                  -2.691
REMARK INTRA:                  -2.662
REMARK UNBOUND:                -2.445
REMARK SMILES CCCCCCCCCCCCCC[C@H](C)C(=O)[O-]
REMARK SMILES IDX 9 1 10 2 11 3 12 4 13 5 14 6 15 7 16 8 17 9 18 10 19 11 8 12
REMARK SMILES IDX 7 13 6 14 5 15 4 16 3 17 2 18 1 19
REMARK H PARENT
REMARK Flexibility Score: inf
ROOT
ATOM      1  C   UNL     1      21.998  28.530  16.065  1.00  0.00     0.000 C 
ENDROOT
BRANCH   1   2
ATOM      2  C   UNL     1      22.422  29.761  15.245  1.00  0.00     0.000 C 
BRANCH   2   3
ATOM      3  C   UNL     1      23.905  29.725  14.850  1.00  0.00     0.000 C 
BRANCH   3   4
ATOM      4  C   UNL     1      24.113  29.748  13.326  1.00  0.00     0.000 C 
BRANCH   4   5
ATOM      5  C   UNL     1      24.787  28.458  12.815  1.00  0.00     0.001 C 
BRANCH   5   6
ATOM      6  C   UNL     1      23.865  27.556  11.972  1.00  0.00     0.009 C 
BRANCH   6   7
ATOM      7  C   UNL     1      22.841  26.742  12.803  1.00  0.00     0.032 C 
ATOM      8  C   UNL     1      23.073  25.238  12.619  1.00  0.00     0.014 C 
BRANCH   7   9
ATOM      9  C   UNL     1      21.419  27.063  12.423  1.00  0.00     0.044 C 
ATOM     10  O   UNL     1      21.063  28.261  12.271  1.00  0.00    -0.550 OA
ATOM     11  O   UNL     1      20.473  26.052  12.310  1.00  0.00    -0.550 OA
ENDBRANCH   7   9
ENDBRANCH   6   7
ENDBRANCH   5   6
ENDBRANCH   4   5
ENDBRANCH   3   4
ENDBRANCH   2   3
ENDBRANCH   1   2
BRANCH   1  12
ATOM     12  C   UNL     1      21.755  28.864  17.545  1.00  0.00     0.000 C 
BRANCH  12  13
ATOM     13  C   UNL     1      22.718  28.116  18.483  1.00  0.00    -0.000 C 
BRANCH  13  14
ATOM     14  C   UNL     1      24.126  28.737  18.517  1.00  0.00    -0.000 C 
BRANCH  14  15
ATOM     15  C   UNL     1      25.288  27.727  18.457  1.00  0.00    -0.000 C 
BRANCH  15  16
ATOM     16  C   UNL     1      26.125  27.852  17.172  1.00  0.00    -0.000 C 
BRANCH  16  17
ATOM     17  C   UNL     1      26.078  26.584  16.300  1.00  0.00    -0.000 C 
BRANCH  17  18
ATOM     18  C   UNL     1      24.667  26.133  15.880  1.00  0.00    -0.003 C 
ATOM     19  C   UNL     1      24.361  24.685  16.261  1.00  0.00     0.004 C 
ENDBRANCH  17  18
ENDBRANCH  16  17
ENDBRANCH  15  16
ENDBRANCH  14  15
ENDBRANCH  13  14
ENDBRANCH  12  13
ENDBRANCH   1  12
TORSDOF 14
ENDMDL
MODEL 9
REMARK VINA RESULT:    -1.594     21.344     23.569
REMARK INTER + INTRA:          -5.344
REMARK INTER:                  -2.642
REMARK INTRA:                  -2.701
REMARK UNBOUND:                -2.445
REMARK SMILES CCCCCCCCCCCCCC[C@H](C)C(=O)[O-]
REMARK SMILES IDX 9 1 10 2 11 3 12 4 13 5 14 6 15 7 16 8 17 9 18 10 19 11 8 12
REMARK SMILES IDX 7 13 6 14 5 15 4 16 3 17 2 18 1 19
REMARK H PARENT
REMARK Flexibility Score: inf
ROOT
ATOM      1  C   UNL     1       7.647  11.036  27.951  1.00  0.00     0.000 C 
ENDROOT
BRANCH   1   2
ATOM      2  C   UNL     1       6.555  11.279  26.895  1.00  0.00     0.000 C 
BRANCH   2   3
ATOM      3  C   UNL     1       5.901  12.662  27.031  1.00  0.00     0.000 C 
BRANCH   3   4
ATOM      4  C   UNL     1       5.875  13.437  25.702  1.00  0.00     0.000 C 
BRANCH   4   5
ATOM      5  C   UNL     1       6.566  14.811  25.821  1.00  0.00     0.001 C 
BRANCH   5   6
ATOM      6  C   UNL     1       6.957  15.197  27.261  1.00  0.00     0.009 C 
BRANCH   6   7
ATOM      7  C   UNL     1       8.472  15.460  27.458  1.00  0.00     0.032 C 
ATOM      8  C   UNL     1       8.801  15.621  28.947  1.00  0.00     0.014 C 
BRANCH   7   9
ATOM      9  C   UNL     1       8.933  16.691  26.724  1.00  0.00     0.044 C 
ATOM     10  O   UNL     1       8.508  17.826  27.065  1.00  0.00    -0.550 OA
ATOM     11  O   UNL     1       9.770  16.581  25.619  1.00  0.00    -0.550 OA
ENDBRANCH   7   9
ENDBRANCH   6   7
ENDBRANCH   5   6
ENDBRANCH   4   5
ENDBRANCH   3   4
ENDBRANCH   2   3
ENDBRANCH   1   2
BRANCH   1  12
ATOM     12  C   UNL     1       8.900  11.892  27.710  1.00  0.00     0.000 C 
BRANCH  12  13
ATOM     13  C   UNL     1       9.661  11.478  26.439  1.00  0.00    -0.000 C 
BRANCH  13  14
ATOM     14  C   UNL     1       9.601  12.542  25.328  1.00  0.00    -0.000 C 
BRANCH  14  15
ATOM     15  C   UNL     1       8.943  12.080  24.014  1.00  0.00    -0.000 C 
BRANCH  15  16
ATOM     16  C   UNL     1       8.648  10.570  23.991  1.00  0.00    -0.000 C 
BRANCH  16  17
ATOM     17  C   UNL     1       7.462  10.206  23.078  1.00  0.00    -0.000 C 
BRANCH  17  18
ATOM     18  C   UNL     1       6.399  11.309  22.918  1.00  0.00    -0.003 C 
ATOM     19  C   UNL     1       5.879  11.439  21.487  1.00  0.00     0.004 C 
ENDBRANCH  17  18
ENDBRANCH  16  17
ENDBRANCH  15  16
ENDBRANCH  14  15
ENDBRANCH  13  14
ENDBRANCH  12  13
ENDBRANCH   1  12
TORSDOF 14
ENDMDL
