MODEL 1
REMARK VINA RESULT:    -5.488      0.000      0.000
REMARK INTER + INTRA:          -6.020
REMARK INTER:                  -5.969
REMARK INTRA:                  -0.051
REMARK UNBOUND:                -0.051
REMARK SMILES CCc1cccc(O)c1
REMARK SMILES IDX 3 1 9 2 7 3 6 4 5 5 4 6 2 7 1 8 8 9
REMARK H PARENT 8 10
REMARK Flexibility Score: inf
ROOT
ATOM      1  C   UNL     1     -13.124   1.354  -9.649  1.00  0.00    -0.045 A 
ATOM      2  C   UNL     1     -11.795   0.904  -9.701  1.00  0.00     0.049 A 
ATOM      3  C   UNL     1     -11.503  -0.391 -10.155  1.00  0.00     0.115 A 
ATOM      4  C   UNL     1     -12.543  -1.240 -10.549  1.00  0.00     0.046 A 
ATOM      5  C   UNL     1     -13.867  -0.802 -10.487  1.00  0.00     0.004 A 
ATOM      6  C   UNL     1     -14.160   0.488 -10.035  1.00  0.00     0.004 A 
ENDROOT
BRANCH   1   7
ATOM      7  C   UNL     1     -13.440   2.732  -9.132  1.00  0.00     0.032 C 
ATOM      8  C   UNL     1     -12.172   3.573  -9.029  1.00  0.00     0.009 C 
ENDBRANCH   1   7
BRANCH   3   9
ATOM      9  O   UNL     1     -10.186  -0.842 -10.214  1.00  0.00    -0.508 OA
ATOM     10  H   UNL     1      -9.428  -0.230 -10.493  1.00  0.00     0.293 HD
ENDBRANCH   3   9
TORSDOF 2
ENDMDL
MODEL 2
REMARK VINA RESULT:    -5.155      1.788      3.572
REMARK INTER + INTRA:          -5.658
REMARK INTER:                  -5.582
REMARK INTRA:                  -0.076
REMARK UNBOUND:                -0.051
REMARK SMILES CCc1cccc(O)c1
REMARK SMILES IDX 3 1 9 2 7 3 6 4 5 5 4 6 2 7 1 8 8 9
REMARK H PARENT 8 10
REMARK Flexibility Score: inf
ROOT
ATOM      1  C   UNL     1     -12.719   0.270  -9.943  1.00  0.00    -0.045 A 
ATOM      2  C   UNL     1     -11.804   1.258  -9.544  1.00  0.00     0.049 A 
ATOM      3  C   UNL     1     -12.259   2.519  -9.132  1.00  0.00     0.115 A 
ATOM      4  C   UNL     1     -13.630   2.796  -9.128  1.00  0.00     0.046 A 
ATOM      5  C   UNL     1     -14.544   1.821  -9.537  1.00  0.00     0.004 A 
ATOM      6  C   UNL     1     -14.092   0.563  -9.948  1.00  0.00     0.004 A 
ENDROOT
BRANCH   1   7
ATOM      7  C   UNL     1     -12.229  -1.073 -10.416  1.00  0.00     0.032 C 
ATOM      8  C   UNL     1     -13.402  -1.998 -10.721  1.00  0.00     0.009 C 
ENDBRANCH   1   7
BRANCH   3   9
ATOM      9  O   UNL     1     -11.358   3.502  -8.729  1.00  0.00    -0.508 OA
ATOM     10  H   UNL     1     -10.542   3.734  -9.285  1.00  0.00     0.293 HD
ENDBRANCH   3   9
TORSDOF 2
ENDMDL
MODEL 3
REMARK VINA RESULT:    -5.110      1.639      2.301
REMARK INTER + INTRA:          -5.609
REMARK INTER:                  -5.534
REMARK INTRA:                  -0.076
REMARK UNBOUND:                -0.051
REMARK SMILES CCc1cccc(O)c1
REMARK SMILES IDX 3 1 9 2 7 3 6 4 5 5 4 6 2 7 1 8 8 9
REMARK H PARENT 8 10
REMARK Flexibility Score: inf
ROOT
ATOM      1  C   UNL     1     -13.183   1.369  -9.625  1.00  0.00    -0.045 A 
ATOM      2  C   UNL     1     -14.226   0.538 -10.066  1.00  0.00     0.049 A 
ATOM      3  C   UNL     1     -13.954  -0.758 -10.525  1.00  0.00     0.115 A 
ATOM      4  C   UNL     1     -12.634  -1.222 -10.552  1.00  0.00     0.046 A 
ATOM      5  C   UNL     1     -11.591  -0.396 -10.127  1.00  0.00     0.004 A 
ATOM      6  C   UNL     1     -11.861   0.897  -9.669  1.00  0.00     0.004 A 
ENDROOT
BRANCH   1   7
ATOM      7  C   UNL     1     -13.471   2.772  -9.163  1.00  0.00     0.032 C 
ATOM      8  C   UNL     1     -12.179   3.569  -9.018  1.00  0.00     0.009 C 
ENDBRANCH   1   7
BRANCH   3   9
ATOM      9  O   UNL     1     -14.984  -1.589 -10.959  1.00  0.00    -0.508 OA
ATOM     10  H   UNL     1     -14.974  -2.586 -10.774  1.00  0.00     0.293 HD
ENDBRANCH   3   9
TORSDOF 2
ENDMDL
MODEL 4
REMARK VINA RESULT:    -4.968      1.834      2.885
REMARK INTER + INTRA:          -5.455
REMARK INTER:                  -5.386
REMARK INTRA:                  -0.069
REMARK UNBOUND:                -0.051
REMARK SMILES CCc1cccc(O)c1
REMARK SMILES IDX 3 1 9 2 7 3 6 4 5 5 4 6 2 7 1 8 8 9
REMARK H PARENT 8 10
REMARK Flexibility Score: inf
ROOT
ATOM      1  C   UNL     1     -12.906  -0.602 -10.223  1.00  0.00    -0.045 A 
ATOM      2  C   UNL     1     -12.880  -2.006 -10.213  1.00  0.00     0.049 A 
ATOM      3  C   UNL     1     -11.694  -2.691  -9.910  1.00  0.00     0.115 A 
ATOM      4  C   UNL     1     -10.530  -1.969  -9.624  1.00  0.00     0.046 A 
ATOM      5  C   UNL     1     -10.547  -0.573  -9.644  1.00  0.00     0.004 A 
ATOM      6  C   UNL     1     -11.728   0.111  -9.947  1.00  0.00     0.004 A 
ENDROOT
BRANCH   1   7
ATOM      7  C   UNL     1     -14.171   0.132 -10.580  1.00  0.00     0.032 C 
ATOM      8  C   UNL     1     -14.334   1.377  -9.714  1.00  0.00     0.009 C 
ENDBRANCH   1   7
BRANCH   3   9
ATOM      9  O   UNL     1     -11.662  -4.083  -9.893  1.00  0.00    -0.508 OA
ATOM     10  H   UNL     1     -10.849  -4.590  -9.563  1.00  0.00     0.293 HD
ENDBRANCH   3   9
TORSDOF 2
ENDMDL
MODEL 5
REMARK VINA RESULT:    -4.938      2.178      4.133
REMARK INTER + INTRA:          -5.421
REMARK INTER:                  -5.366
REMARK INTRA:                  -0.055
REMARK UNBOUND:                -0.051
REMARK SMILES CCc1cccc(O)c1
REMARK SMILES IDX 3 1 9 2 7 3 6 4 5 5 4 6 2 7 1 8 8 9
REMARK H PARENT 8 10
REMARK Flexibility Score: inf
ROOT
ATOM      1  C   UNL     1     -13.270  -0.641 -10.531  1.00  0.00    -0.045 A 
ATOM      2  C   UNL     1     -14.267   0.291 -10.195  1.00  0.00     0.049 A 
ATOM      3  C   UNL     1     -13.921   1.519  -9.613  1.00  0.00     0.115 A 
ATOM      4  C   UNL     1     -12.577   1.813  -9.359  1.00  0.00     0.046 A 
ATOM      5  C   UNL     1     -11.583   0.885  -9.679  1.00  0.00     0.004 A 
ATOM      6  C   UNL     1     -11.926  -0.340 -10.259  1.00  0.00     0.004 A 
ENDROOT
BRANCH   1   7
ATOM      7  C   UNL     1     -13.644  -1.972 -11.125  1.00  0.00     0.032 C 
ATOM      8  C   UNL     1     -13.752  -3.037 -10.037  1.00  0.00     0.009 C 
ENDBRANCH   1   7
BRANCH   3   9
ATOM      9  O   UNL     1     -14.903   2.450  -9.282  1.00  0.00    -0.508 OA
ATOM     10  H   UNL     1     -14.667   3.404  -9.034  1.00  0.00     0.293 HD
ENDBRANCH   3   9
TORSDOF 2
ENDMDL
MODEL 6
REMARK VINA RESULT:    -4.921      2.449      4.188
REMARK INTER + INTRA:          -5.403
REMARK INTER:                  -5.328
REMARK INTRA:                  -0.075
REMARK UNBOUND:                -0.051
REMARK SMILES CCc1cccc(O)c1
REMARK SMILES IDX 3 1 9 2 7 3 6 4 5 5 4 6 2 7 1 8 8 9
REMARK H PARENT 8 10
REMARK Flexibility Score: inf
ROOT
ATOM      1  C   UNL     1     -13.560   1.254  -9.573  1.00  0.00    -0.045 A 
ATOM      2  C   UNL     1     -14.130   2.440  -9.082  1.00  0.00     0.049 A 
ATOM      3  C   UNL     1     -13.312   3.498  -8.662  1.00  0.00     0.115 A 
ATOM      4  C   UNL     1     -11.920   3.368  -8.725  1.00  0.00     0.046 A 
ATOM      5  C   UNL     1     -11.348   2.186  -9.200  1.00  0.00     0.004 A 
ATOM      6  C   UNL     1     -12.162   1.129  -9.619  1.00  0.00     0.004 A 
ENDROOT
BRANCH   1   7
ATOM      7  C   UNL     1     -14.438   0.106  -9.993  1.00  0.00     0.032 C 
ATOM      8  C   UNL     1     -13.613  -0.982 -10.673  1.00  0.00     0.009 C 
ENDBRANCH   1   7
BRANCH   3   9
ATOM      9  O   UNL     1     -13.870   4.680  -8.179  1.00  0.00    -0.508 OA
ATOM     10  H   UNL     1     -13.669   5.576  -8.609  1.00  0.00     0.293 HD
ENDBRANCH   3   9
TORSDOF 2
ENDMDL
MODEL 7
REMARK VINA RESULT:    -4.888      0.984      3.310
REMARK INTER + INTRA:          -5.367
REMARK INTER:                  -5.320
REMARK INTRA:                  -0.047
REMARK UNBOUND:                -0.051
REMARK SMILES CCc1cccc(O)c1
REMARK SMILES IDX 3 1 9 2 7 3 6 4 5 5 4 6 2 7 1 8 8 9
REMARK H PARENT 8 10
REMARK Flexibility Score: inf
ROOT
ATOM      1  C   UNL     1     -13.876  -0.703 -10.377  1.00  0.00    -0.045 A 
ATOM      2  C   UNL     1     -12.506  -1.013 -10.408  1.00  0.00     0.049 A 
ATOM      3  C   UNL     1     -11.557  -0.066  -9.999  1.00  0.00     0.115 A 
ATOM      4  C   UNL     1     -11.976   1.196  -9.565  1.00  0.00     0.046 A 
ATOM      5  C   UNL     1     -13.337   1.514  -9.543  1.00  0.00     0.004 A 
ATOM      6  C   UNL     1     -14.285   0.571  -9.952  1.00  0.00     0.004 A 
ENDROOT
BRANCH   1   7
ATOM      7  C   UNL     1     -14.893  -1.708 -10.847  1.00  0.00     0.032 C 
ATOM      8  C   UNL     1     -15.125  -2.778  -9.785  1.00  0.00     0.009 C 
ENDBRANCH   1   7
BRANCH   3   9
ATOM      9  O   UNL     1     -10.197  -0.368 -10.022  1.00  0.00    -0.508 OA
ATOM     10  H   UNL     1      -9.827  -1.186  -9.551  1.00  0.00     0.293 HD
ENDBRANCH   3   9
TORSDOF 2
ENDMDL
MODEL 8
REMARK VINA RESULT:    -4.772     16.787     17.926
REMARK INTER + INTRA:          -5.241
REMARK INTER:                  -5.169
REMARK INTRA:                  -0.071
REMARK UNBOUND:                -0.051
REMARK SMILES CCc1cccc(O)c1
REMARK SMILES IDX 3 1 9 2 7 3 6 4 5 5 4 6 2 7 1 8 8 9
REMARK H PARENT 8 10
REMARK Flexibility Score: inf
ROOT
ATOM      1  C   UNL     1     -10.057   6.265   6.748  1.00  0.00    -0.045 A 
ATOM      2  C   UNL     1     -10.560   5.123   6.103  1.00  0.00     0.049 A 
ATOM      3  C   UNL     1     -10.874   3.973   6.841  1.00  0.00     0.115 A 
ATOM      4  C   UNL     1     -10.677   3.962   8.227  1.00  0.00     0.046 A 
ATOM      5  C   UNL     1     -10.166   5.091   8.871  1.00  0.00     0.004 A 
ATOM      6  C   UNL     1      -9.851   6.238   8.136  1.00  0.00     0.004 A 
ENDROOT
BRANCH   1   7
ATOM      7  C   UNL     1      -9.689   7.488   5.950  1.00  0.00     0.032 C 
ATOM      8  C   UNL     1      -8.401   8.110   6.481  1.00  0.00     0.009 C 
ENDBRANCH   1   7
BRANCH   3   9
ATOM      9  O   UNL     1     -11.379   2.839   6.210  1.00  0.00    -0.508 OA
ATOM     10  H   UNL     1     -10.794   2.032   6.022  1.00  0.00     0.293 HD
ENDBRANCH   3   9
TORSDOF 2
ENDMDL
MODEL 9
REMARK VINA RESULT:    -4.694     16.820     18.038
REMARK INTER + INTRA:          -5.157
REMARK INTER:                  -5.107
REMARK INTRA:                  -0.049
REMARK UNBOUND:                -0.051
REMARK SMILES CCc1cccc(O)c1
REMARK SMILES IDX 3 1 9 2 7 3 6 4 5 5 4 6 2 7 1 8 8 9
REMARK H PARENT 8 10
REMARK Flexibility Score: inf
ROOT
ATOM      1  C   UNL     1     -12.135   5.489   6.800  1.00  0.00    -0.045 A 
ATOM      2  C   UNL     1     -11.080   6.356   7.130  1.00  0.00     0.049 A 
ATOM      3  C   UNL     1     -10.145   5.993   8.110  1.00  0.00     0.115 A 
ATOM      4  C   UNL     1     -10.270   4.764   8.767  1.00  0.00     0.046 A 
ATOM      5  C   UNL     1     -11.323   3.904   8.452  1.00  0.00     0.004 A 
ATOM      6  C   UNL     1     -12.257   4.264   7.475  1.00  0.00     0.004 A 
ENDROOT
BRANCH   1   7
ATOM      7  C   UNL     1     -13.157   5.892   5.771  1.00  0.00     0.032 C 
ATOM      8  C   UNL     1     -12.724   5.448   4.378  1.00  0.00     0.009 C 
ENDBRANCH   1   7
BRANCH   3   9
ATOM      9  O   UNL     1      -9.094   6.846   8.439  1.00  0.00    -0.508 OA
ATOM     10  H   UNL     1      -8.478   6.651   9.220  1.00  0.00     0.293 HD
ENDBRANCH   3   9
TORSDOF 2
ENDMDL
