MODEL 1
REMARK VINA RESULT:    -8.730      0.000      0.000
REMARK INTER + INTRA:         -10.675
REMARK INTER:                 -10.516
REMARK INTRA:                  -0.159
REMARK UNBOUND:                -0.159
REMARK SMILES O=c1c(O)c(-c2ccc(O)c(O)c2)oc2cc(O)cc(O)c12
REMARK SMILES IDX 5 1 3 2 2 3 1 4 22 5 20 6 19 7 17 8 16 9 15 10 14 11 6 12
REMARK SMILES IDX 7 13 8 14 9 15 13 16 11 17 10 18 12 20 4 22 21 24 18 26
REMARK H PARENT 10 19 12 21 4 23 21 25 18 27
REMARK Flexibility Score: inf
ROOT
ATOM      1  C   UNL     1      17.160  25.440   0.136  1.00  0.00     0.180 A 
ATOM      2  C   UNL     1      18.420  25.377  -0.484  1.00  0.00     0.208 A 
ATOM      3  C   UNL     1      19.213  26.535  -0.534  1.00  0.00     0.238 A 
ATOM      4  O   UNL     1      20.362  26.459  -1.041  1.00  0.00    -0.285 OA
ATOM      5  C   UNL     1      18.729  27.744   0.022  1.00  0.00     0.111 A 
ATOM      6  C   UNL     1      19.430  28.987  -0.009  1.00  0.00     0.134 A 
ATOM      7  C   UNL     1      18.915  30.088   0.686  1.00  0.00     0.093 A 
ATOM      8  C   UNL     1      17.690  30.009   1.355  1.00  0.00     0.123 A 
ATOM      9  C   UNL     1      16.970  28.817   1.339  1.00  0.00     0.094 A 
ATOM     10  C   UNL     1      17.476  27.691   0.686  1.00  0.00     0.146 A 
ATOM     11  O   UNL     1      16.762  26.571   0.705  1.00  0.00    -0.452 OA
ENDROOT
BRANCH   1  12
ATOM     12  C   UNL     1      16.257  24.268   0.207  1.00  0.00     0.025 A 
ATOM     13  C   UNL     1      16.610  23.117   0.930  1.00  0.00     0.016 A 
ATOM     14  C   UNL     1      15.753  22.015   0.961  1.00  0.00     0.051 A 
ATOM     15  C   UNL     1      14.538  22.033   0.268  1.00  0.00     0.157 A 
ATOM     16  C   UNL     1      15.050  24.280  -0.508  1.00  0.00     0.062 A 
ATOM     17  C   UNL     1      14.183  23.180  -0.481  1.00  0.00     0.158 A 
BRANCH  15  18
ATOM     18  O   UNL     1      13.726  20.900   0.345  1.00  0.00    -0.504 OA
ATOM     19  H   UNL     1      13.339  20.427  -0.460  1.00  0.00     0.293 HD
ENDBRANCH  15  18
BRANCH  17  20
ATOM     20  O   UNL     1      12.994  23.268  -1.207  1.00  0.00    -0.504 OA
ATOM     21  H   UNL     1      12.929  23.120  -2.204  1.00  0.00     0.293 HD
ENDBRANCH  17  20
ENDBRANCH   1  12
BRANCH   2  22
ATOM     22  O   UNL     1      18.887  24.167  -1.006  1.00  0.00    -0.502 OA
ATOM     23  H   UNL     1      19.334  23.464  -0.431  1.00  0.00     0.293 HD
ENDBRANCH   2  22
BRANCH   6  24
ATOM     24  O   UNL     1      20.613  29.199  -0.723  1.00  0.00    -0.507 OA
ATOM     25  H   UNL     1      20.698  29.137  -1.727  1.00  0.00     0.293 HD
ENDBRANCH   6  24
BRANCH   8  26
ATOM     26  O   UNL     1      17.177  31.114   2.030  1.00  0.00    -0.508 OA
ATOM     27  H   UNL     1      16.693  31.016   2.914  1.00  0.00     0.293 HD
ENDBRANCH   8  26
TORSDOF 6
ENDMDL
MODEL 2
REMARK VINA RESULT:    -8.232      1.603      7.205
REMARK INTER + INTRA:         -10.075
REMARK INTER:                 -10.004
REMARK INTRA:                  -0.071
REMARK UNBOUND:                -0.159
REMARK SMILES O=c1c(O)c(-c2ccc(O)c(O)c2)oc2cc(O)cc(O)c12
REMARK SMILES IDX 5 1 3 2 2 3 1 4 22 5 20 6 19 7 17 8 16 9 15 10 14 11 6 12
REMARK SMILES IDX 7 13 8 14 9 15 13 16 11 17 10 18 12 20 4 22 21 24 18 26
REMARK H PARENT 10 19 12 21 4 23 21 25 18 27
REMARK Flexibility Score: inf
ROOT
ATOM      1  C   UNL     1      17.135  26.176   0.634  1.00  0.00     0.180 A 
ATOM      2  C   UNL     1      15.732  26.241   0.589  1.00  0.00     0.208 A 
ATOM      3  C   UNL     1      14.997  25.048   0.496  1.00  0.00     0.238 A 
ATOM      4  O   UNL     1      13.740  25.109   0.512  1.00  0.00    -0.285 OA
ATOM      5  C   UNL     1      15.675  23.806   0.433  1.00  0.00     0.111 A 
ATOM      6  C   UNL     1      15.032  22.539   0.296  1.00  0.00     0.134 A 
ATOM      7  C   UNL     1      15.795  21.367   0.376  1.00  0.00     0.093 A 
ATOM      8  C   UNL     1      17.184  21.418   0.519  1.00  0.00     0.123 A 
ATOM      9  C   UNL     1      17.825  22.653   0.593  1.00  0.00     0.094 A 
ATOM     10  C   UNL     1      17.088  23.839   0.554  1.00  0.00     0.146 A 
ATOM     11  O   UNL     1      17.739  24.993   0.639  1.00  0.00    -0.452 OA
ENDROOT
BRANCH   1  12
ATOM     12  C   UNL     1      17.979  27.391   0.707  1.00  0.00     0.025 A 
ATOM     13  C   UNL     1      17.824  28.326   1.743  1.00  0.00     0.016 A 
ATOM     14  C   UNL     1      18.614  29.476   1.778  1.00  0.00     0.051 A 
ATOM     15  C   UNL     1      19.562  29.723   0.779  1.00  0.00     0.157 A 
ATOM     16  C   UNL     1      18.913  27.646  -0.308  1.00  0.00     0.062 A 
ATOM     17  C   UNL     1      19.711  28.798  -0.280  1.00  0.00     0.158 A 
BRANCH  15  18
ATOM     18  O   UNL     1      20.323  30.890   0.876  1.00  0.00    -0.504 OA
ATOM     19  H   UNL     1      19.985  31.752   1.279  1.00  0.00     0.293 HD
ENDBRANCH  15  18
BRANCH  17  20
ATOM     20  O   UNL     1      20.628  28.980  -1.318  1.00  0.00    -0.504 OA
ATOM     21  H   UNL     1      21.395  28.352  -1.511  1.00  0.00     0.293 HD
ENDBRANCH  17  20
ENDBRANCH   1  12
BRANCH   2  22
ATOM     22  O   UNL     1      15.082  27.476   0.675  1.00  0.00    -0.502 OA
ATOM     23  H   UNL     1      14.187  27.588   1.135  1.00  0.00     0.293 HD
ENDBRANCH   2  22
BRANCH   6  24
ATOM     24  O   UNL     1      13.665  22.378   0.057  1.00  0.00    -0.507 OA
ATOM     25  H   UNL     1      13.238  22.374  -0.857  1.00  0.00     0.293 HD
ENDBRANCH   6  24
BRANCH   8  26
ATOM     26  O   UNL     1      17.936  20.248   0.581  1.00  0.00    -0.508 OA
ATOM     27  H   UNL     1      17.575  19.367   0.235  1.00  0.00     0.293 HD
ENDBRANCH   8  26
TORSDOF 6
ENDMDL
MODEL 3
REMARK VINA RESULT:    -8.045      1.643      7.145
REMARK INTER + INTRA:          -9.850
REMARK INTER:                 -10.134
REMARK INTRA:                   0.284
REMARK UNBOUND:                -0.159
REMARK SMILES O=c1c(O)c(-c2ccc(O)c(O)c2)oc2cc(O)cc(O)c12
REMARK SMILES IDX 5 1 3 2 2 3 1 4 22 5 20 6 19 7 17 8 16 9 15 10 14 11 6 12
REMARK SMILES IDX 7 13 8 14 9 15 13 16 11 17 10 18 12 20 4 22 21 24 18 26
REMARK H PARENT 10 19 12 21 4 23 21 25 18 27
REMARK Flexibility Score: inf
ROOT
ATOM      1  C   UNL     1      16.818  27.177   0.362  1.00  0.00     0.180 A 
ATOM      2  C   UNL     1      15.517  27.277  -0.159  1.00  0.00     0.208 A 
ATOM      3  C   UNL     1      14.785  26.101  -0.394  1.00  0.00     0.238 A 
ATOM      4  O   UNL     1      13.601  26.199  -0.809  1.00  0.00    -0.285 OA
ATOM      5  C   UNL     1      15.370  24.841  -0.121  1.00  0.00     0.111 A 
ATOM      6  C   UNL     1      14.736  23.585  -0.360  1.00  0.00     0.134 A 
ATOM      7  C   UNL     1      15.357  22.405   0.069  1.00  0.00     0.093 A 
ATOM      8  C   UNL     1      16.619  22.432   0.668  1.00  0.00     0.123 A 
ATOM      9  C   UNL     1      17.272  23.648   0.850  1.00  0.00     0.094 A 
ATOM     10  C   UNL     1      16.662  24.845   0.466  1.00  0.00     0.146 A 
ATOM     11  O   UNL     1      17.315  25.984   0.669  1.00  0.00    -0.452 OA
ENDROOT
BRANCH   1  12
ATOM     12  C   UNL     1      17.660  28.369   0.614  1.00  0.00     0.025 A 
ATOM     13  C   UNL     1      19.058  28.313   0.498  1.00  0.00     0.016 A 
ATOM     14  C   UNL     1      19.832  29.444   0.764  1.00  0.00     0.051 A 
ATOM     15  C   UNL     1      19.233  30.644   1.162  1.00  0.00     0.157 A 
ATOM     16  C   UNL     1      17.058  29.564   1.035  1.00  0.00     0.062 A 
ATOM     17  C   UNL     1      17.827  30.704   1.303  1.00  0.00     0.158 A 
BRANCH  15  18
ATOM     18  O   UNL     1      20.065  31.738   1.409  1.00  0.00    -0.504 OA
ATOM     19  H   UNL     1      19.846  32.686   1.137  1.00  0.00     0.293 HD
ENDBRANCH  15  18
BRANCH  17  20
ATOM     20  O   UNL     1      17.158  31.862   1.706  1.00  0.00    -0.504 OA
ATOM     21  H   UNL     1      17.460  32.452   2.468  1.00  0.00     0.293 HD
ENDBRANCH  17  20
ENDBRANCH   1  12
BRANCH   2  22
ATOM     22  O   UNL     1      14.950  28.531  -0.399  1.00  0.00    -0.502 OA
ATOM     23  H   UNL     1      14.096  28.649  -0.931  1.00  0.00     0.293 HD
ENDBRANCH   2  22
BRANCH   6  24
ATOM     24  O   UNL     1      13.519  23.440  -1.033  1.00  0.00    -0.507 OA
ATOM     25  H   UNL     1      12.709  22.968  -0.660  1.00  0.00     0.293 HD
ENDBRANCH   6  24
BRANCH   8  26
ATOM     26  O   UNL     1      17.237  21.252   1.077  1.00  0.00    -0.508 OA
ATOM     27  H   UNL     1      18.223  21.087   0.916  1.00  0.00     0.293 HD
ENDBRANCH   8  26
TORSDOF 6
ENDMDL
MODEL 4
REMARK VINA RESULT:    -7.153      4.280      6.028
REMARK INTER + INTRA:          -8.776
REMARK INTER:                  -8.603
REMARK INTRA:                  -0.173
REMARK UNBOUND:                -0.159
REMARK SMILES O=c1c(O)c(-c2ccc(O)c(O)c2)oc2cc(O)cc(O)c12
REMARK SMILES IDX 5 1 3 2 2 3 1 4 22 5 20 6 19 7 17 8 16 9 15 10 14 11 6 12
REMARK SMILES IDX 7 13 8 14 9 15 13 16 11 17 10 18 12 20 4 22 21 24 18 26
REMARK H PARENT 10 19 12 21 4 23 21 25 18 27
REMARK Flexibility Score: inf
ROOT
ATOM      1  C   UNL     1      17.141  26.613  -2.550  1.00  0.00     0.180 A 
ATOM      2  C   UNL     1      18.374  26.670  -3.222  1.00  0.00     0.208 A 
ATOM      3  C   UNL     1      18.386  26.644  -4.626  1.00  0.00     0.238 A 
ATOM      4  O   UNL     1      19.488  26.751  -5.224  1.00  0.00    -0.285 OA
ATOM      5  C   UNL     1      17.166  26.545  -5.339  1.00  0.00     0.111 A 
ATOM      6  C   UNL     1      17.063  26.469  -6.761  1.00  0.00     0.134 A 
ATOM      7  C   UNL     1      15.800  26.505  -7.364  1.00  0.00     0.093 A 
ATOM      8  C   UNL     1      14.634  26.546  -6.594  1.00  0.00     0.123 A 
ATOM      9  C   UNL     1      14.724  26.559  -5.205  1.00  0.00     0.094 A 
ATOM     10  C   UNL     1      15.971  26.562  -4.574  1.00  0.00     0.146 A 
ATOM     11  O   UNL     1      16.011  26.586  -3.247  1.00  0.00    -0.452 OA
ENDROOT
BRANCH   1  12
ATOM     12  C   UNL     1      17.049  26.611  -1.071  1.00  0.00     0.025 A 
ATOM     13  C   UNL     1      17.602  25.572  -0.307  1.00  0.00     0.016 A 
ATOM     14  C   UNL     1      17.481  25.580   1.084  1.00  0.00     0.051 A 
ATOM     15  C   UNL     1      16.800  26.612   1.737  1.00  0.00     0.157 A 
ATOM     16  C   UNL     1      16.346  27.637  -0.421  1.00  0.00     0.062 A 
ATOM     17  C   UNL     1      16.221  27.653   0.974  1.00  0.00     0.158 A 
BRANCH  15  18
ATOM     18  O   UNL     1      16.719  26.562   3.130  1.00  0.00    -0.504 OA
ATOM     19  H   UNL     1      17.382  27.005   3.750  1.00  0.00     0.293 HD
ENDBRANCH  15  18
BRANCH  17  20
ATOM     20  O   UNL     1      15.517  28.711   1.553  1.00  0.00    -0.504 OA
ATOM     21  H   UNL     1      15.750  29.685   1.418  1.00  0.00     0.293 HD
ENDBRANCH  17  20
ENDBRANCH   1  12
BRANCH   2  22
ATOM     22  O   UNL     1      19.564  26.791  -2.499  1.00  0.00    -0.502 OA
ATOM     23  H   UNL     1      19.778  26.203  -1.703  1.00  0.00     0.293 HD
ENDBRANCH   2  22
BRANCH   6  24
ATOM     24  O   UNL     1      18.160  26.332  -7.617  1.00  0.00    -0.507 OA
ATOM     25  H   UNL     1      18.162  26.587  -8.594  1.00  0.00     0.293 HD
ENDBRANCH   6  24
BRANCH   8  26
ATOM     26  O   UNL     1      13.381  26.565  -7.203  1.00  0.00    -0.508 OA
ATOM     27  H   UNL     1      13.281  26.645  -8.207  1.00  0.00     0.293 HD
ENDBRANCH   8  26
TORSDOF 6
ENDMDL
MODEL 5
REMARK VINA RESULT:    -7.011      4.280      6.163
REMARK INTER + INTRA:          -8.604
REMARK INTER:                  -8.341
REMARK INTRA:                  -0.264
REMARK UNBOUND:                -0.159
REMARK SMILES O=c1c(O)c(-c2ccc(O)c(O)c2)oc2cc(O)cc(O)c12
REMARK SMILES IDX 5 1 3 2 2 3 1 4 22 5 20 6 19 7 17 8 16 9 15 10 14 11 6 12
REMARK SMILES IDX 7 13 8 14 9 15 13 16 11 17 10 18 12 20 4 22 21 24 18 26
REMARK H PARENT 10 19 12 21 4 23 21 25 18 27
REMARK Flexibility Score: inf
ROOT
ATOM      1  C   UNL     1      16.433  27.124  -2.794  1.00  0.00     0.180 A 
ATOM      2  C   UNL     1      16.153  28.109  -1.830  1.00  0.00     0.208 A 
ATOM      3  C   UNL     1      16.419  27.834  -0.479  1.00  0.00     0.238 A 
ATOM      4  O   UNL     1      16.217  28.738   0.373  1.00  0.00    -0.285 OA
ATOM      5  C   UNL     1      16.946  26.574  -0.107  1.00  0.00     0.111 A 
ATOM      6  C   UNL     1      17.215  26.173   1.236  1.00  0.00     0.134 A 
ATOM      7  C   UNL     1      17.858  24.952   1.477  1.00  0.00     0.093 A 
ATOM      8  C   UNL     1      18.180  24.088   0.427  1.00  0.00     0.123 A 
ATOM      9  C   UNL     1      17.867  24.445  -0.882  1.00  0.00     0.094 A 
ATOM     10  C   UNL     1      17.259  25.672  -1.157  1.00  0.00     0.146 A 
ATOM     11  O   UNL     1      16.988  25.977  -2.421  1.00  0.00    -0.452 OA
ENDROOT
BRANCH   1  12
ATOM     12  C   UNL     1      16.157  27.330  -4.235  1.00  0.00     0.025 A 
ATOM     13  C   UNL     1      16.977  28.153  -5.024  1.00  0.00     0.016 A 
ATOM     14  C   UNL     1      16.683  28.351  -6.374  1.00  0.00     0.051 A 
ATOM     15  C   UNL     1      15.565  27.747  -6.960  1.00  0.00     0.157 A 
ATOM     16  C   UNL     1      15.023  26.741  -4.813  1.00  0.00     0.062 A 
ATOM     17  C   UNL     1      14.721  26.934  -6.167  1.00  0.00     0.158 A 
BRANCH  15  18
ATOM     18  O   UNL     1      15.331  27.983  -8.316  1.00  0.00    -0.504 OA
ATOM     19  H   UNL     1      15.974  27.730  -9.052  1.00  0.00     0.293 HD
ENDBRANCH  15  18
BRANCH  17  20
ATOM     20  O   UNL     1      13.582  26.307  -6.677  1.00  0.00    -0.504 OA
ATOM     21  H   UNL     1      13.162  26.536  -7.567  1.00  0.00     0.293 HD
ENDBRANCH  17  20
ENDBRANCH   1  12
BRANCH   2  22
ATOM     22  O   UNL     1      15.654  29.354  -2.222  1.00  0.00    -0.502 OA
ATOM     23  H   UNL     1      15.353  30.054  -1.554  1.00  0.00     0.293 HD
ENDBRANCH   2  22
BRANCH   6  24
ATOM     24  O   UNL     1      16.851  26.919   2.361  1.00  0.00    -0.507 OA
ATOM     25  H   UNL     1      17.447  27.587   2.826  1.00  0.00     0.293 HD
ENDBRANCH   6  24
BRANCH   8  26
ATOM     26  O   UNL     1      18.805  22.869   0.677  1.00  0.00    -0.508 OA
ATOM     27  H   UNL     1      18.274  22.013   0.782  1.00  0.00     0.293 HD
ENDBRANCH   8  26
TORSDOF 6
ENDMDL
MODEL 6
REMARK VINA RESULT:    -7.000      3.638      5.711
REMARK INTER + INTRA:          -8.591
REMARK INTER:                  -8.292
REMARK INTRA:                  -0.299
REMARK UNBOUND:                -0.159
REMARK SMILES O=c1c(O)c(-c2ccc(O)c(O)c2)oc2cc(O)cc(O)c12
REMARK SMILES IDX 5 1 3 2 2 3 1 4 22 5 20 6 19 7 17 8 16 9 15 10 14 11 6 12
REMARK SMILES IDX 7 13 8 14 9 15 13 16 11 17 10 18 12 20 4 22 21 24 18 26
REMARK H PARENT 10 19 12 21 4 23 21 25 18 27
REMARK Flexibility Score: inf
ROOT
ATOM      1  C   UNL     1      17.868  26.140  -2.750  1.00  0.00     0.180 A 
ATOM      2  C   UNL     1      18.164  25.028  -1.943  1.00  0.00     0.208 A 
ATOM      3  C   UNL     1      17.830  25.067  -0.579  1.00  0.00     0.238 A 
ATOM      4  O   UNL     1      18.048  24.048   0.126  1.00  0.00    -0.285 OA
ATOM      5  C   UNL     1      17.220  26.224  -0.037  1.00  0.00     0.111 A 
ATOM      6  C   UNL     1      16.876  26.388   1.339  1.00  0.00     0.134 A 
ATOM      7  C   UNL     1      16.157  27.522   1.740  1.00  0.00     0.093 A 
ATOM      8  C   UNL     1      15.829  28.527   0.827  1.00  0.00     0.123 A 
ATOM      9  C   UNL     1      16.213  28.403  -0.506  1.00  0.00     0.094 A 
ATOM     10  C   UNL     1      16.898  27.267  -0.943  1.00  0.00     0.146 A 
ATOM     11  O   UNL     1      17.236  27.183  -2.225  1.00  0.00    -0.452 OA
ENDROOT
BRANCH   1  12
ATOM     12  C   UNL     1      18.211  26.183  -4.190  1.00  0.00     0.025 A 
ATOM     13  C   UNL     1      17.399  25.562  -5.152  1.00  0.00     0.016 A 
ATOM     14  C   UNL     1      17.756  25.595  -6.501  1.00  0.00     0.051 A 
ATOM     15  C   UNL     1      18.929  26.235  -6.916  1.00  0.00     0.157 A 
ATOM     16  C   UNL     1      19.399  26.806  -4.599  1.00  0.00     0.062 A 
ATOM     17  C   UNL     1      19.764  26.845  -5.951  1.00  0.00     0.158 A 
BRANCH  15  18
ATOM     18  O   UNL     1      19.225  26.235  -8.280  1.00  0.00    -0.504 OA
ATOM     19  H   UNL     1      19.831  25.560  -8.726  1.00  0.00     0.293 HD
ENDBRANCH  15  18
BRANCH  17  20
ATOM     20  O   UNL     1      20.955  27.493  -6.287  1.00  0.00    -0.504 OA
ATOM     21  H   UNL     1      21.009  28.295  -6.897  1.00  0.00     0.293 HD
ENDBRANCH  17  20
ENDBRANCH   1  12
BRANCH   2  22
ATOM     22  O   UNL     1      18.747  23.888  -2.504  1.00  0.00    -0.502 OA
ATOM     23  H   UNL     1      19.620  23.920  -3.016  1.00  0.00     0.293 HD
ENDBRANCH   2  22
BRANCH   6  24
ATOM     24  O   UNL     1      17.237  25.489   2.347  1.00  0.00    -0.507 OA
ATOM     25  H   UNL     1      18.070  24.920   2.339  1.00  0.00     0.293 HD
ENDBRANCH   6  24
BRANCH   8  26
ATOM     26  O   UNL     1      15.128  29.658   1.238  1.00  0.00    -0.508 OA
ATOM     27  H   UNL     1      14.891  30.399   0.590  1.00  0.00     0.293 HD
ENDBRANCH   8  26
TORSDOF 6
ENDMDL
MODEL 7
REMARK VINA RESULT:    -6.977      4.318      6.096
REMARK INTER + INTRA:          -8.563
REMARK INTER:                  -8.360
REMARK INTRA:                  -0.203
REMARK UNBOUND:                -0.159
REMARK SMILES O=c1c(O)c(-c2ccc(O)c(O)c2)oc2cc(O)cc(O)c12
REMARK SMILES IDX 5 1 3 2 2 3 1 4 22 5 20 6 19 7 17 8 16 9 15 10 14 11 6 12
REMARK SMILES IDX 7 13 8 14 9 15 13 16 11 17 10 18 12 20 4 22 21 24 18 26
REMARK H PARENT 10 19 12 21 4 23 21 25 18 27
REMARK Flexibility Score: inf
ROOT
ATOM      1  C   UNL     1      16.927  26.600  -2.626  1.00  0.00     0.180 A 
ATOM      2  C   UNL     1      15.776  26.481  -3.425  1.00  0.00     0.208 A 
ATOM      3  C   UNL     1      15.902  26.589  -4.819  1.00  0.00     0.238 A 
ATOM      4  O   UNL     1      14.878  26.427  -5.533  1.00  0.00    -0.285 OA
ATOM      5  C   UNL     1      17.172  26.832  -5.396  1.00  0.00     0.111 A 
ATOM      6  C   UNL     1      17.409  27.000  -6.793  1.00  0.00     0.134 A 
ATOM      7  C   UNL     1      18.725  27.106  -7.263  1.00  0.00     0.093 A 
ATOM      8  C   UNL     1      19.807  27.116  -6.379  1.00  0.00     0.123 A 
ATOM      9  C   UNL     1      19.580  27.013  -5.008  1.00  0.00     0.094 A 
ATOM     10  C   UNL     1      18.282  26.869  -4.512  1.00  0.00     0.146 A 
ATOM     11  O   UNL     1      18.113  26.762  -3.199  1.00  0.00    -0.452 OA
ENDROOT
BRANCH   1  12
ATOM     12  C   UNL     1      16.871  26.522  -1.148  1.00  0.00     0.025 A 
ATOM     13  C   UNL     1      17.399  25.420  -0.455  1.00  0.00     0.016 A 
ATOM     14  C   UNL     1      17.313  25.357   0.937  1.00  0.00     0.051 A 
ATOM     15  C   UNL     1      16.692  26.379   1.663  1.00  0.00     0.157 A 
ATOM     16  C   UNL     1      16.227  27.537  -0.425  1.00  0.00     0.062 A 
ATOM     17  C   UNL     1      16.138  27.482   0.972  1.00  0.00     0.158 A 
BRANCH  15  18
ATOM     18  O   UNL     1      16.643  26.256   3.053  1.00  0.00    -0.504 OA
ATOM     19  H   UNL     1      17.218  26.793   3.687  1.00  0.00     0.293 HD
ENDBRANCH  15  18
BRANCH  17  20
ATOM     20  O   UNL     1      15.493  28.535   1.626  1.00  0.00    -0.504 OA
ATOM     21  H   UNL     1      15.770  28.893   2.528  1.00  0.00     0.293 HD
ENDBRANCH  17  20
ENDBRANCH   1  12
BRANCH   2  22
ATOM     22  O   UNL     1      14.536  26.219  -2.837  1.00  0.00    -0.502 OA
ATOM     23  H   UNL     1      13.898  26.956  -2.563  1.00  0.00     0.293 HD
ENDBRANCH   2  22
BRANCH   6  24
ATOM     24  O   UNL     1      16.396  27.096  -7.751  1.00  0.00    -0.507 OA
ATOM     25  H   UNL     1      15.766  26.348  -7.999  1.00  0.00     0.293 HD
ENDBRANCH   6  24
BRANCH   8  26
ATOM     26  O   UNL     1      21.111  27.237  -6.853  1.00  0.00    -0.508 OA
ATOM     27  H   UNL     1      21.755  27.915  -6.465  1.00  0.00     0.293 HD
ENDBRANCH   8  26
TORSDOF 6
ENDMDL
MODEL 8
REMARK VINA RESULT:    -6.809      2.076      3.012
REMARK INTER + INTRA:          -8.361
REMARK INTER:                  -8.376
REMARK INTRA:                   0.015
REMARK UNBOUND:                -0.159
REMARK SMILES O=c1c(O)c(-c2ccc(O)c(O)c2)oc2cc(O)cc(O)c12
REMARK SMILES IDX 5 1 3 2 2 3 1 4 22 5 20 6 19 7 17 8 16 9 15 10 14 11 6 12
REMARK SMILES IDX 7 13 8 14 9 15 13 16 11 17 10 18 12 20 4 22 21 24 18 26
REMARK H PARENT 10 19 12 21 4 23 21 25 18 27
REMARK Flexibility Score: inf
ROOT
ATOM      1  C   UNL     1      16.220  26.181   0.485  1.00  0.00     0.180 A 
ATOM      2  C   UNL     1      15.501  27.078  -0.325  1.00  0.00     0.208 A 
ATOM      3  C   UNL     1      15.782  28.451  -0.236  1.00  0.00     0.238 A 
ATOM      4  O   UNL     1      15.175  29.243  -1.002  1.00  0.00    -0.285 OA
ATOM      5  C   UNL     1      16.766  28.912   0.673  1.00  0.00     0.111 A 
ATOM      6  C   UNL     1      17.103  30.284   0.874  1.00  0.00     0.134 A 
ATOM      7  C   UNL     1      18.182  30.615   1.704  1.00  0.00     0.093 A 
ATOM      8  C   UNL     1      18.893  29.627   2.390  1.00  0.00     0.123 A 
ATOM      9  C   UNL     1      18.532  28.290   2.245  1.00  0.00     0.094 A 
ATOM     10  C   UNL     1      17.484  27.925   1.397  1.00  0.00     0.146 A 
ATOM     11  O   UNL     1      17.181  26.637   1.280  1.00  0.00    -0.452 OA
ENDROOT
BRANCH   1  12
ATOM     12  C   UNL     1      15.963  24.723   0.466  1.00  0.00     0.025 A 
ATOM     13  C   UNL     1      14.658  24.210   0.529  1.00  0.00     0.016 A 
ATOM     14  C   UNL     1      14.443  22.831   0.534  1.00  0.00     0.051 A 
ATOM     15  C   UNL     1      15.519  21.938   0.488  1.00  0.00     0.157 A 
ATOM     16  C   UNL     1      17.046  23.831   0.443  1.00  0.00     0.062 A 
ATOM     17  C   UNL     1      16.839  22.445   0.446  1.00  0.00     0.158 A 
BRANCH  15  18
ATOM     18  O   UNL     1      15.234  20.572   0.492  1.00  0.00    -0.504 OA
ATOM     19  H   UNL     1      14.888  20.069   1.297  1.00  0.00     0.293 HD
ENDBRANCH  15  18
BRANCH  17  20
ATOM     20  O   UNL     1      17.964  21.618   0.409  1.00  0.00    -0.504 OA
ATOM     21  H   UNL     1      18.121  20.910  -0.293  1.00  0.00     0.293 HD
ENDBRANCH  17  20
ENDBRANCH   1  12
BRANCH   2  22
ATOM     22  O   UNL     1      14.550  26.600  -1.231  1.00  0.00    -0.502 OA
ATOM     23  H   UNL     1      14.490  25.622  -1.490  1.00  0.00     0.293 HD
ENDBRANCH   2  22
BRANCH   6  24
ATOM     24  O   UNL     1      16.399  31.352   0.311  1.00  0.00    -0.507 OA
ATOM     25  H   UNL     1      15.539  31.263  -0.211  1.00  0.00     0.293 HD
ENDBRANCH   6  24
BRANCH   8  26
ATOM     26  O   UNL     1      19.955  29.967   3.225  1.00  0.00    -0.508 OA
ATOM     27  H   UNL     1      20.776  29.379   3.303  1.00  0.00     0.293 HD
ENDBRANCH   8  26
TORSDOF 6
ENDMDL
MODEL 9
REMARK VINA RESULT:    -6.711      7.134      8.423
REMARK INTER + INTRA:          -8.243
REMARK INTER:                  -7.916
REMARK INTRA:                  -0.327
REMARK UNBOUND:                -0.159
REMARK SMILES O=c1c(O)c(-c2ccc(O)c(O)c2)oc2cc(O)cc(O)c12
REMARK SMILES IDX 5 1 3 2 2 3 1 4 22 5 20 6 19 7 17 8 16 9 15 10 14 11 6 12
REMARK SMILES IDX 7 13 8 14 9 15 13 16 11 17 10 18 12 20 4 22 21 24 18 26
REMARK H PARENT 10 19 12 21 4 23 21 25 18 27
REMARK Flexibility Score: inf
ROOT
ATOM      1  C   UNL     1      15.077  26.866  -6.805  1.00  0.00     0.180 A 
ATOM      2  C   UNL     1      15.166  26.800  -5.404  1.00  0.00     0.208 A 
ATOM      3  C   UNL     1      16.432  26.840  -4.799  1.00  0.00     0.238 A 
ATOM      4  O   UNL     1      16.502  26.836  -3.542  1.00  0.00    -0.285 OA
ATOM      5  C   UNL     1      17.594  26.929  -5.603  1.00  0.00     0.111 A 
ATOM      6  C   UNL     1      18.930  26.935  -5.098  1.00  0.00     0.134 A 
ATOM      7  C   UNL     1      19.998  27.159  -5.976  1.00  0.00     0.093 A 
ATOM      8  C   UNL     1      19.784  27.309  -7.348  1.00  0.00     0.123 A 
ATOM      9  C   UNL     1      18.489  27.244  -7.857  1.00  0.00     0.094 A 
ATOM     10  C   UNL     1      17.400  27.059  -7.002  1.00  0.00     0.146 A 
ATOM     11  O   UNL     1      16.181  27.015  -7.528  1.00  0.00    -0.452 OA
ENDROOT
BRANCH   1  12
ATOM     12  C   UNL     1      13.780  26.805  -7.517  1.00  0.00     0.025 A 
ATOM     13  C   UNL     1      13.258  25.586  -7.980  1.00  0.00     0.016 A 
ATOM     14  C   UNL     1      12.045  25.557  -8.670  1.00  0.00     0.051 A 
ATOM     15  C   UNL     1      11.336  26.737  -8.922  1.00  0.00     0.157 A 
ATOM     16  C   UNL     1      13.083  27.992  -7.787  1.00  0.00     0.062 A 
ATOM     17  C   UNL     1      11.864  27.972  -8.478  1.00  0.00     0.158 A 
BRANCH  15  18
ATOM     18  O   UNL     1      10.127  26.637  -9.613  1.00  0.00    -0.504 OA
ATOM     19  H   UNL     1       9.902  25.887 -10.251  1.00  0.00     0.293 HD
ENDBRANCH  15  18
BRANCH  17  20
ATOM     20  O   UNL     1      11.220  29.191  -8.700  1.00  0.00    -0.504 OA
ATOM     21  H   UNL     1      10.253  29.277  -8.978  1.00  0.00     0.293 HD
ENDBRANCH  17  20
ENDBRANCH   1  12
BRANCH   2  22
ATOM     22  O   UNL     1      14.005  26.735  -4.629  1.00  0.00    -0.502 OA
ATOM     23  H   UNL     1      14.029  26.658  -3.619  1.00  0.00     0.293 HD
ENDBRANCH   2  22
BRANCH   6  24
ATOM     24  O   UNL     1      19.260  26.703  -3.760  1.00  0.00    -0.507 OA
ATOM     25  H   UNL     1      19.283  25.793  -3.323  1.00  0.00     0.293 HD
ENDBRANCH   6  24
BRANCH   8  26
ATOM     26  O   UNL     1      20.854  27.515  -8.216  1.00  0.00    -0.508 OA
ATOM     27  H   UNL     1      20.883  27.085  -9.132  1.00  0.00     0.293 HD
ENDBRANCH   8  26
TORSDOF 6
ENDMDL
