MODEL 1
REMARK VINA RESULT:    -3.474      0.000      0.000
REMARK INTER + INTRA:          -9.416
REMARK INTER:                  -6.724
REMARK INTRA:                  -2.692
REMARK UNBOUND:                -2.692
REMARK SMILES CCCCCCCCCCCCCCCCCC(=O)[O-]
REMARK SMILES IDX 10 1 11 2 12 3 13 4 14 5 15 6 16 7 17 8 18 9 19 10 20 11
REMARK SMILES IDX 9 12 8 13 7 14 6 15 5 16 4 17 3 18 2 19 1 20
REMARK H PARENT
REMARK Flexibility Score: inf
ROOT
ATOM      1  C   UNL     1     -95.995  73.534  24.122  1.00  0.00     0.000 C 
ENDROOT
BRANCH   1   2
ATOM      2  C   UNL     1     -97.053  74.538  23.633  1.00  0.00     0.000 C 
BRANCH   2   3
ATOM      3  C   UNL     1     -98.482  74.119  24.012  1.00  0.00     0.000 C 
BRANCH   3   4
ATOM      4  C   UNL     1     -98.515  73.095  25.162  1.00  0.00     0.000 C 
BRANCH   4   5
ATOM      5  C   UNL     1     -99.936  72.597  25.477  1.00  0.00     0.000 C 
BRANCH   5   6
ATOM      6  C   UNL     1    -100.002  71.353  26.383  1.00  0.00     0.000 C 
BRANCH   6   7
ATOM      7  C   UNL     1     -98.613  70.855  26.818  1.00  0.00     0.006 C 
BRANCH   7   8
ATOM      8  C   UNL     1     -98.597  69.344  27.080  1.00  0.00     0.053 C 
BRANCH   8   9
ATOM      9  C   UNL     1     -99.316  68.990  28.344  1.00  0.00     0.041 C 
ATOM     10  O   UNL     1    -100.451  68.445  28.299  1.00  0.00    -0.550 OA
ATOM     11  O   UNL     1     -98.720  69.234  29.576  1.00  0.00    -0.550 OA
ENDBRANCH   8   9
ENDBRANCH   7   8
ENDBRANCH   6   7
ENDBRANCH   5   6
ENDBRANCH   4   5
ENDBRANCH   3   4
ENDBRANCH   2   3
ENDBRANCH   1   2
BRANCH   1  12
ATOM     12  C   UNL     1     -95.362  72.736  22.969  1.00  0.00     0.000 C 
BRANCH  12  13
ATOM     13  C   UNL     1     -95.261  73.548  21.669  1.00  0.00    -0.000 C 
BRANCH  13  14
ATOM     14  C   UNL     1     -95.917  72.795  20.502  1.00  0.00    -0.000 C 
BRANCH  14  15
ATOM     15  C   UNL     1     -96.886  71.694  20.969  1.00  0.00    -0.000 C 
BRANCH  15  16
ATOM     16  C   UNL     1     -98.381  72.039  20.827  1.00  0.00    -0.000 C 
BRANCH  16  17
ATOM     17  C   UNL     1     -99.314  71.325  21.826  1.00  0.00    -0.000 C 
BRANCH  17  18
ATOM     18  C   UNL     1     -98.633  70.257  22.705  1.00  0.00    -0.000 C 
BRANCH  18  19
ATOM     19  C   UNL     1     -99.600  69.332  23.464  1.00  0.00    -0.003 C 
ATOM     20  C   UNL     1     -98.967  67.997  23.852  1.00  0.00     0.004 C 
ENDBRANCH  18  19
ENDBRANCH  17  18
ENDBRANCH  16  17
ENDBRANCH  15  16
ENDBRANCH  14  15
ENDBRANCH  13  14
ENDBRANCH  12  13
ENDBRANCH   1  12
TORSDOF 16
ENDMDL
MODEL 2
REMARK VINA RESULT:    -3.229      1.538      2.047
REMARK INTER + INTRA:          -8.942
REMARK INTER:                  -6.573
REMARK INTRA:                  -2.369
REMARK UNBOUND:                -2.692
REMARK SMILES CCCCCCCCCCCCCCCCCC(=O)[O-]
REMARK SMILES IDX 10 1 11 2 12 3 13 4 14 5 15 6 16 7 17 8 18 9 19 10 20 11
REMARK SMILES IDX 9 12 8 13 7 14 6 15 5 16 4 17 3 18 2 19 1 20
REMARK H PARENT
REMARK Flexibility Score: inf
ROOT
ATOM      1  C   UNL     1     -95.693  72.895  23.275  1.00  0.00     0.000 C 
ENDROOT
BRANCH   1   2
ATOM      2  C   UNL     1     -96.197  74.018  24.197  1.00  0.00     0.000 C 
BRANCH   2   3
ATOM      3  C   UNL     1     -97.551  73.686  24.844  1.00  0.00     0.000 C 
BRANCH   3   4
ATOM      4  C   UNL     1     -97.844  72.175  24.866  1.00  0.00     0.000 C 
BRANCH   4   5
ATOM      5  C   UNL     1     -98.842  71.776  25.966  1.00  0.00     0.000 C 
BRANCH   5   6
ATOM      6  C   UNL     1     -98.549  70.428  26.652  1.00  0.00     0.000 C 
BRANCH   6   7
ATOM      7  C   UNL     1     -99.693  69.962  27.568  1.00  0.00     0.006 C 
BRANCH   7   8
ATOM      8  C   UNL     1    -100.838  69.313  26.778  1.00  0.00     0.053 C 
BRANCH   8   9
ATOM      9  C   UNL     1    -102.057  70.182  26.750  1.00  0.00     0.041 C 
ATOM     10  O   UNL     1    -102.472  70.659  25.661  1.00  0.00    -0.550 OA
ATOM     11  O   UNL     1    -102.755  70.440  27.924  1.00  0.00    -0.550 OA
ENDBRANCH   8   9
ENDBRANCH   7   8
ENDBRANCH   6   7
ENDBRANCH   5   6
ENDBRANCH   4   5
ENDBRANCH   3   4
ENDBRANCH   2   3
ENDBRANCH   1   2
BRANCH   1  12
ATOM     12  C   UNL     1     -95.267  73.415  21.892  1.00  0.00     0.000 C 
BRANCH  12  13
ATOM     13  C   UNL     1     -95.918  72.637  20.737  1.00  0.00    -0.000 C 
BRANCH  13  14
ATOM     14  C   UNL     1     -97.047  71.733  21.255  1.00  0.00    -0.000 C 
BRANCH  14  15
ATOM     15  C   UNL     1     -98.441  72.188  20.785  1.00  0.00    -0.000 C 
BRANCH  15  16
ATOM     16  C   UNL     1     -99.541  72.133  21.863  1.00  0.00    -0.000 C 
BRANCH  16  17
ATOM     17  C   UNL     1    -100.539  70.967  21.718  1.00  0.00    -0.000 C 
BRANCH  17  18
ATOM     18  C   UNL     1    -100.470  69.905  22.834  1.00  0.00    -0.000 C 
BRANCH  18  19
ATOM     19  C   UNL     1     -99.063  69.342  23.103  1.00  0.00    -0.003 C 
ATOM     20  C   UNL     1     -99.087  68.028  23.881  1.00  0.00     0.004 C 
ENDBRANCH  18  19
ENDBRANCH  17  18
ENDBRANCH  16  17
ENDBRANCH  15  16
ENDBRANCH  14  15
ENDBRANCH  13  14
ENDBRANCH  12  13
ENDBRANCH   1  12
TORSDOF 16
ENDMDL
MODEL 3
REMARK VINA RESULT:    -3.212      1.274      3.923
REMARK INTER + INTRA:          -8.909
REMARK INTER:                  -6.594
REMARK INTRA:                  -2.315
REMARK UNBOUND:                -2.692
REMARK SMILES CCCCCCCCCCCCCCCCCC(=O)[O-]
REMARK SMILES IDX 10 1 11 2 12 3 13 4 14 5 15 6 16 7 17 8 18 9 19 10 20 11
REMARK SMILES IDX 9 12 8 13 7 14 6 15 5 16 4 17 3 18 2 19 1 20
REMARK H PARENT
REMARK Flexibility Score: inf
ROOT
ATOM      1  C   UNL     1     -99.131  68.781  23.488  1.00  0.00     0.000 C 
ENDROOT
BRANCH   1   2
ATOM      2  C   UNL     1     -99.360  68.997  24.994  1.00  0.00     0.000 C 
BRANCH   2   3
ATOM      3  C   UNL     1     -98.816  70.349  25.483  1.00  0.00     0.000 C 
BRANCH   3   4
ATOM      4  C   UNL     1     -99.901  71.222  26.141  1.00  0.00     0.000 C 
BRANCH   4   5
ATOM      5  C   UNL     1    -101.325  70.694  25.892  1.00  0.00     0.000 C 
BRANCH   5   6
ATOM      6  C   UNL     1    -101.949  69.929  27.074  1.00  0.00     0.000 C 
BRANCH   6   7
ATOM      7  C   UNL     1    -101.022  69.862  28.300  1.00  0.00     0.006 C 
BRANCH   7   8
ATOM      8  C   UNL     1    -100.434  68.460  28.504  1.00  0.00     0.053 C 
BRANCH   8   9
ATOM      9  C   UNL     1     -99.060  68.514  29.098  1.00  0.00     0.041 C 
ATOM     10  O   UNL     1     -98.643  67.570  29.821  1.00  0.00    -0.550 OA
ATOM     11  O   UNL     1     -98.227  69.593  28.830  1.00  0.00    -0.550 OA
ENDBRANCH   8   9
ENDBRANCH   7   8
ENDBRANCH   6   7
ENDBRANCH   5   6
ENDBRANCH   4   5
ENDBRANCH   3   4
ENDBRANCH   2   3
ENDBRANCH   1   2
BRANCH   1  12
ATOM     12  C   UNL     1     -98.644  70.054  22.777  1.00  0.00     0.000 C 
BRANCH  12  13
ATOM     13  C   UNL     1     -99.782  70.829  22.095  1.00  0.00    -0.000 C 
BRANCH  13  14
ATOM     14  C   UNL     1     -99.230  72.012  21.285  1.00  0.00    -0.000 C 
BRANCH  14  15
ATOM     15  C   UNL     1     -99.529  73.374  21.937  1.00  0.00    -0.000 C 
BRANCH  15  16
ATOM     16  C   UNL     1     -99.014  73.530  23.382  1.00  0.00    -0.000 C 
BRANCH  16  17
ATOM     17  C   UNL     1     -97.539  73.959  23.507  1.00  0.00    -0.000 C 
BRANCH  17  18
ATOM     18  C   UNL     1     -96.535  72.801  23.679  1.00  0.00    -0.000 C 
BRANCH  18  19
ATOM     19  C   UNL     1     -95.322  72.851  22.734  1.00  0.00    -0.003 C 
ATOM     20  C   UNL     1     -95.694  73.250  21.308  1.00  0.00     0.004 C 
ENDBRANCH  18  19
ENDBRANCH  17  18
ENDBRANCH  16  17
ENDBRANCH  15  16
ENDBRANCH  14  15
ENDBRANCH  13  14
ENDBRANCH  12  13
ENDBRANCH   1  12
TORSDOF 16
ENDMDL
MODEL 4
REMARK VINA RESULT:    -3.201      3.136      6.934
REMARK INTER + INTRA:          -8.887
REMARK INTER:                  -6.347
REMARK INTRA:                  -2.540
REMARK UNBOUND:                -2.692
REMARK SMILES CCCCCCCCCCCCCCCCCC(=O)[O-]
REMARK SMILES IDX 10 1 11 2 12 3 13 4 14 5 15 6 16 7 17 8 18 9 19 10 20 11
REMARK SMILES IDX 9 12 8 13 7 14 6 15 5 16 4 17 3 18 2 19 1 20
REMARK H PARENT
REMARK Flexibility Score: inf
ROOT
ATOM      1  C   UNL     1    -100.848  71.490  25.362  1.00  0.00     0.000 C 
ENDROOT
BRANCH   1   2
ATOM      2  C   UNL     1     -99.464  72.161  25.407  1.00  0.00     0.000 C 
BRANCH   2   3
ATOM      3  C   UNL     1     -98.388  71.339  24.681  1.00  0.00     0.000 C 
BRANCH   3   4
ATOM      4  C   UNL     1     -98.969  70.118  23.944  1.00  0.00     0.000 C 
BRANCH   4   5
ATOM      5  C   UNL     1     -98.666  70.131  22.436  1.00  0.00     0.000 C 
BRANCH   5   6
ATOM      6  C   UNL     1     -98.128  71.467  21.893  1.00  0.00     0.000 C 
BRANCH   6   7
ATOM      7  C   UNL     1     -96.746  71.331  21.232  1.00  0.00     0.006 C 
BRANCH   7   8
ATOM      8  C   UNL     1     -96.058  72.691  21.044  1.00  0.00     0.053 C 
BRANCH   8   9
ATOM      9  C   UNL     1     -95.886  73.411  22.345  1.00  0.00     0.041 C 
ATOM     10  O   UNL     1     -96.288  74.598  22.472  1.00  0.00    -0.550 OA
ATOM     11  O   UNL     1     -95.308  72.762  23.429  1.00  0.00    -0.550 OA
ENDBRANCH   8   9
ENDBRANCH   7   8
ENDBRANCH   6   7
ENDBRANCH   5   6
ENDBRANCH   4   5
ENDBRANCH   3   4
ENDBRANCH   2   3
ENDBRANCH   1   2
BRANCH   1  12
ATOM     12  C   UNL     1    -101.547  71.487  26.732  1.00  0.00     0.000 C 
BRANCH  12  13
ATOM     13  C   UNL     1    -102.050  70.094  27.140  1.00  0.00    -0.000 C 
BRANCH  13  14
ATOM     14  C   UNL     1    -100.944  69.042  26.971  1.00  0.00    -0.000 C 
BRANCH  14  15
ATOM     15  C   UNL     1    -100.528  68.391  28.303  1.00  0.00    -0.000 C 
BRANCH  15  16
ATOM     16  C   UNL     1     -99.091  68.710  28.762  1.00  0.00    -0.000 C 
BRANCH  16  17
ATOM     17  C   UNL     1     -98.377  69.811  27.954  1.00  0.00    -0.000 C 
BRANCH  17  18
ATOM     18  C   UNL     1     -97.914  71.029  28.779  1.00  0.00    -0.000 C 
BRANCH  18  19
ATOM     19  C   UNL     1     -99.032  71.747  29.554  1.00  0.00    -0.003 C 
ATOM     20  C   UNL     1     -99.321  73.149  29.022  1.00  0.00     0.004 C 
ENDBRANCH  18  19
ENDBRANCH  17  18
ENDBRANCH  16  17
ENDBRANCH  15  16
ENDBRANCH  14  15
ENDBRANCH  13  14
ENDBRANCH  12  13
ENDBRANCH   1  12
TORSDOF 16
ENDMDL
MODEL 5
REMARK VINA RESULT:    -3.196      1.115      4.266
REMARK INTER + INTRA:          -8.878
REMARK INTER:                  -6.596
REMARK INTRA:                  -2.283
REMARK UNBOUND:                -2.692
REMARK SMILES CCCCCCCCCCCCCCCCCC(=O)[O-]
REMARK SMILES IDX 10 1 11 2 12 3 13 4 14 5 15 6 16 7 17 8 18 9 19 10 20 11
REMARK SMILES IDX 9 12 8 13 7 14 6 15 5 16 4 17 3 18 2 19 1 20
REMARK H PARENT
REMARK Flexibility Score: inf
ROOT
ATOM      1  C   UNL     1     -99.849  73.367  23.349  1.00  0.00     0.000 C 
ENDROOT
BRANCH   1   2
ATOM      2  C   UNL     1    -100.365  72.114  22.621  1.00  0.00     0.000 C 
BRANCH   2   3
ATOM      3  C   UNL     1     -99.258  71.391  21.837  1.00  0.00     0.000 C 
BRANCH   3   4
ATOM      4  C   UNL     1     -98.548  70.309  22.673  1.00  0.00     0.000 C 
BRANCH   4   5
ATOM      5  C   UNL     1     -99.514  69.236  23.205  1.00  0.00     0.000 C 
BRANCH   5   6
ATOM      6  C   UNL     1     -99.124  68.629  24.565  1.00  0.00     0.000 C 
BRANCH   6   7
ATOM      7  C   UNL     1     -99.796  69.339  25.752  1.00  0.00     0.006 C 
BRANCH   7   8
ATOM      8  C   UNL     1     -98.813  69.601  26.901  1.00  0.00     0.053 C 
BRANCH   8   9
ATOM      9  C   UNL     1     -99.180  68.833  28.133  1.00  0.00     0.041 C 
ATOM     10  O   UNL     1     -98.296  68.525  28.977  1.00  0.00    -0.550 OA
ATOM     11  O   UNL     1    -100.504  68.482  28.366  1.00  0.00    -0.550 OA
ENDBRANCH   8   9
ENDBRANCH   7   8
ENDBRANCH   6   7
ENDBRANCH   5   6
ENDBRANCH   4   5
ENDBRANCH   3   4
ENDBRANCH   2   3
ENDBRANCH   1   2
BRANCH   1  12
ATOM     12  C   UNL     1     -99.614  73.122  24.849  1.00  0.00     0.000 C 
BRANCH  12  13
ATOM     13  C   UNL     1     -98.127  72.956  25.199  1.00  0.00    -0.000 C 
BRANCH  13  14
ATOM     14  C   UNL     1     -97.370  74.279  25.009  1.00  0.00    -0.000 C 
BRANCH  14  15
ATOM     15  C   UNL     1     -95.975  74.086  24.386  1.00  0.00    -0.000 C 
BRANCH  15  16
ATOM     16  C   UNL     1     -95.834  72.849  23.477  1.00  0.00    -0.000 C 
BRANCH  16  17
ATOM     17  C   UNL     1     -95.404  73.149  22.028  1.00  0.00    -0.000 C 
BRANCH  17  18
ATOM     18  C   UNL     1     -96.327  74.116  21.260  1.00  0.00    -0.000 C 
BRANCH  18  19
ATOM     19  C   UNL     1     -95.828  74.512  19.859  1.00  0.00    -0.003 C 
ATOM     20  C   UNL     1     -95.170  73.353  19.113  1.00  0.00     0.004 C 
ENDBRANCH  18  19
ENDBRANCH  17  18
ENDBRANCH  16  17
ENDBRANCH  15  16
ENDBRANCH  14  15
ENDBRANCH  13  14
ENDBRANCH  12  13
ENDBRANCH   1  12
TORSDOF 16
ENDMDL
MODEL 6
REMARK VINA RESULT:    -3.191      3.334      6.590
REMARK INTER + INTRA:          -8.869
REMARK INTER:                  -6.101
REMARK INTRA:                  -2.767
REMARK UNBOUND:                -2.692
REMARK SMILES CCCCCCCCCCCCCCCCCC(=O)[O-]
REMARK SMILES IDX 10 1 11 2 12 3 13 4 14 5 15 6 16 7 17 8 18 9 19 10 20 11
REMARK SMILES IDX 9 12 8 13 7 14 6 15 5 16 4 17 3 18 2 19 1 20
REMARK H PARENT
REMARK Flexibility Score: inf
ROOT
ATOM      1  C   UNL     1     -98.481  70.764  26.687  1.00  0.00     0.000 C 
ENDROOT
BRANCH   1   2
ATOM      2  C   UNL     1     -98.999  71.590  25.497  1.00  0.00     0.000 C 
BRANCH   2   3
ATOM      3  C   UNL     1     -97.939  71.765  24.397  1.00  0.00     0.000 C 
BRANCH   3   4
ATOM      4  C   UNL     1     -98.517  71.583  22.982  1.00  0.00     0.000 C 
BRANCH   4   5
ATOM      5  C   UNL     1     -98.885  70.122  22.671  1.00  0.00     0.000 C 
BRANCH   5   6
ATOM      6  C   UNL     1    -100.383  69.871  22.413  1.00  0.00     0.000 C 
BRANCH   6   7
ATOM      7  C   UNL     1    -101.240  71.136  22.586  1.00  0.00     0.006 C 
BRANCH   7   8
ATOM      8  C   UNL     1    -102.302  70.970  23.681  1.00  0.00     0.053 C 
BRANCH   8   9
ATOM      9  C   UNL     1    -103.671  70.784  23.105  1.00  0.00     0.041 C 
ATOM     10  O   UNL     1    -103.880  69.896  22.237  1.00  0.00    -0.550 OA
ATOM     11  O   UNL     1    -104.726  71.572  23.549  1.00  0.00    -0.550 OA
ENDBRANCH   8   9
ENDBRANCH   7   8
ENDBRANCH   6   7
ENDBRANCH   5   6
ENDBRANCH   4   5
ENDBRANCH   3   4
ENDBRANCH   2   3
ENDBRANCH   1   2
BRANCH   1  12
ATOM     12  C   UNL     1     -98.772  69.262  26.535  1.00  0.00     0.000 C 
BRANCH  12  13
ATOM     13  C   UNL     1    -100.177  68.982  25.979  1.00  0.00    -0.000 C 
BRANCH  13  14
ATOM     14  C   UNL     1    -101.204  68.874  27.116  1.00  0.00    -0.000 C 
BRANCH  14  15
ATOM     15  C   UNL     1    -102.079  70.133  27.254  1.00  0.00    -0.000 C 
BRANCH  15  16
ATOM     16  C   UNL     1    -102.377  70.564  28.704  1.00  0.00    -0.000 C 
BRANCH  16  17
ATOM     17  C   UNL     1    -101.626  69.767  29.789  1.00  0.00    -0.000 C 
BRANCH  17  18
ATOM     18  C   UNL     1    -100.439  70.507  30.438  1.00  0.00    -0.000 C 
BRANCH  18  19
ATOM     19  C   UNL     1     -99.057  69.899  30.142  1.00  0.00    -0.003 C 
ATOM     20  C   UNL     1     -99.073  68.372  30.113  1.00  0.00     0.004 C 
ENDBRANCH  18  19
ENDBRANCH  17  18
ENDBRANCH  16  17
ENDBRANCH  15  16
ENDBRANCH  14  15
ENDBRANCH  13  14
ENDBRANCH  12  13
ENDBRANCH   1  12
TORSDOF 16
ENDMDL
MODEL 7
REMARK VINA RESULT:    -3.149      3.147      6.252
REMARK INTER + INTRA:          -8.787
REMARK INTER:                  -5.468
REMARK INTRA:                  -3.319
REMARK UNBOUND:                -2.692
REMARK SMILES CCCCCCCCCCCCCCCCCC(=O)[O-]
REMARK SMILES IDX 10 1 11 2 12 3 13 4 14 5 15 6 16 7 17 8 18 9 19 10 20 11
REMARK SMILES IDX 9 12 8 13 7 14 6 15 5 16 4 17 3 18 2 19 1 20
REMARK H PARENT
REMARK Flexibility Score: inf
ROOT
ATOM      1  C   UNL     1    -100.224  72.941  24.929  1.00  0.00     0.000 C 
ENDROOT
BRANCH   1   2
ATOM      2  C   UNL     1     -98.745  72.851  25.345  1.00  0.00     0.000 C 
BRANCH   2   3
ATOM      3  C   UNL     1     -98.004  71.706  24.636  1.00  0.00     0.000 C 
BRANCH   3   4
ATOM      4  C   UNL     1     -97.785  71.979  23.136  1.00  0.00     0.000 C 
BRANCH   4   5
ATOM      5  C   UNL     1     -98.328  70.853  22.239  1.00  0.00     0.000 C 
BRANCH   5   6
ATOM      6  C   UNL     1     -99.262  69.853  22.946  1.00  0.00     0.000 C 
BRANCH   6   7
ATOM      7  C   UNL     1    -100.685  69.848  22.362  1.00  0.00     0.006 C 
BRANCH   7   8
ATOM      8  C   UNL     1    -101.057  71.199  21.735  1.00  0.00     0.053 C 
BRANCH   8   9
ATOM      9  C   UNL     1    -102.515  71.502  21.892  1.00  0.00     0.041 C 
ATOM     10  O   UNL     1    -102.890  72.453  22.629  1.00  0.00    -0.550 OA
ATOM     11  O   UNL     1    -103.460  70.755  21.200  1.00  0.00    -0.550 OA
ENDBRANCH   8   9
ENDBRANCH   7   8
ENDBRANCH   6   7
ENDBRANCH   5   6
ENDBRANCH   4   5
ENDBRANCH   3   4
ENDBRANCH   2   3
ENDBRANCH   1   2
BRANCH   1  12
ATOM     12  C   UNL     1    -101.174  72.403  26.012  1.00  0.00     0.000 C 
BRANCH  12  13
ATOM     13  C   UNL     1    -101.724  71.007  25.680  1.00  0.00    -0.000 C 
BRANCH  13  14
ATOM     14  C   UNL     1    -102.088  70.244  26.963  1.00  0.00    -0.000 C 
BRANCH  14  15
ATOM     15  C   UNL     1    -101.179  69.027  27.213  1.00  0.00    -0.000 C 
BRANCH  15  16
ATOM     16  C   UNL     1     -99.951  68.930  26.287  1.00  0.00    -0.000 C 
BRANCH  16  17
ATOM     17  C   UNL     1     -98.587  68.973  27.004  1.00  0.00    -0.000 C 
BRANCH  17  18
ATOM     18  C   UNL     1     -98.615  69.575  28.423  1.00  0.00    -0.000 C 
BRANCH  18  19
ATOM     19  C   UNL     1     -98.299  71.080  28.493  1.00  0.00    -0.003 C 
ATOM     20  C   UNL     1     -99.367  71.879  29.237  1.00  0.00     0.004 C 
ENDBRANCH  18  19
ENDBRANCH  17  18
ENDBRANCH  16  17
ENDBRANCH  15  16
ENDBRANCH  14  15
ENDBRANCH  13  14
ENDBRANCH  12  13
ENDBRANCH   1  12
TORSDOF 16
ENDMDL
MODEL 8
REMARK VINA RESULT:    -3.124      2.975      6.449
REMARK INTER + INTRA:          -8.738
REMARK INTER:                  -5.753
REMARK INTRA:                  -2.985
REMARK UNBOUND:                -2.692
REMARK SMILES CCCCCCCCCCCCCCCCCC(=O)[O-]
REMARK SMILES IDX 10 1 11 2 12 3 13 4 14 5 15 6 16 7 17 8 18 9 19 10 20 11
REMARK SMILES IDX 9 12 8 13 7 14 6 15 5 16 4 17 3 18 2 19 1 20
REMARK H PARENT
REMARK Flexibility Score: inf
ROOT
ATOM      1  C   UNL     1    -101.643  72.144  25.374  1.00  0.00     0.000 C 
ENDROOT
BRANCH   1   2
ATOM      2  C   UNL     1    -102.209  71.317  24.207  1.00  0.00     0.000 C 
BRANCH   2   3
ATOM      3  C   UNL     1    -101.883  71.933  22.837  1.00  0.00     0.000 C 
BRANCH   3   4
ATOM      4  C   UNL     1    -100.893  71.080  22.023  1.00  0.00     0.000 C 
BRANCH   4   5
ATOM      5  C   UNL     1    -100.526  69.760  22.723  1.00  0.00     0.000 C 
BRANCH   5   6
ATOM      6  C   UNL     1     -99.044  69.626  23.121  1.00  0.00     0.000 C 
BRANCH   6   7
ATOM      7  C   UNL     1     -98.268  70.948  22.992  1.00  0.00     0.006 C 
BRANCH   7   8
ATOM      8  C   UNL     1     -98.049  71.624  24.352  1.00  0.00     0.053 C 
BRANCH   8   9
ATOM      9  C   UNL     1     -97.913  73.109  24.220  1.00  0.00     0.041 C 
ATOM     10  O   UNL     1     -96.814  73.671  24.472  1.00  0.00    -0.550 OA
ATOM     11  O   UNL     1     -98.992  73.871  23.789  1.00  0.00    -0.550 OA
ENDBRANCH   8   9
ENDBRANCH   7   8
ENDBRANCH   6   7
ENDBRANCH   5   6
ENDBRANCH   4   5
ENDBRANCH   3   4
ENDBRANCH   2   3
ENDBRANCH   1   2
BRANCH   1  12
ATOM     12  C   UNL     1    -101.193  71.267  26.554  1.00  0.00     0.000 C 
BRANCH  12  13
ATOM     13  C   UNL     1    -101.928  69.919  26.609  1.00  0.00    -0.000 C 
BRANCH  13  14
ATOM     14  C   UNL     1    -100.939  68.766  26.838  1.00  0.00    -0.000 C 
BRANCH  14  15
ATOM     15  C   UNL     1     -99.472  69.187  26.638  1.00  0.00    -0.000 C 
BRANCH  15  16
ATOM     16  C   UNL     1     -98.582  69.064  27.890  1.00  0.00    -0.000 C 
BRANCH  16  17
ATOM     17  C   UNL     1     -98.284  70.392  28.612  1.00  0.00    -0.000 C 
BRANCH  17  18
ATOM     18  C   UNL     1     -98.928  70.536  30.006  1.00  0.00    -0.000 C 
BRANCH  18  19
ATOM     19  C   UNL     1     -99.938  69.434  30.368  1.00  0.00    -0.003 C 
ATOM     20  C   UNL     1    -101.386  69.918  30.333  1.00  0.00     0.004 C 
ENDBRANCH  18  19
ENDBRANCH  17  18
ENDBRANCH  16  17
ENDBRANCH  15  16
ENDBRANCH  14  15
ENDBRANCH  13  14
ENDBRANCH  12  13
ENDBRANCH   1  12
TORSDOF 16
ENDMDL
MODEL 9
REMARK VINA RESULT:    -3.110      1.380      3.377
REMARK INTER + INTRA:          -8.711
REMARK INTER:                  -6.492
REMARK INTRA:                  -2.219
REMARK UNBOUND:                -2.692
REMARK SMILES CCCCCCCCCCCCCCCCCC(=O)[O-]
REMARK SMILES IDX 10 1 11 2 12 3 13 4 14 5 15 6 16 7 17 8 18 9 19 10 20 11
REMARK SMILES IDX 9 12 8 13 7 14 6 15 5 16 4 17 3 18 2 19 1 20
REMARK H PARENT
REMARK Flexibility Score: inf
ROOT
ATOM      1  C   UNL     1     -97.487  71.683  23.482  1.00  0.00     0.000 C 
ENDROOT
BRANCH   1   2
ATOM      2  C   UNL     1     -98.910  71.117  23.632  1.00  0.00     0.000 C 
BRANCH   2   3
ATOM      3  C   UNL     1     -99.097  69.789  22.882  1.00  0.00     0.000 C 
BRANCH   3   4
ATOM      4  C   UNL     1     -99.533  68.640  23.809  1.00  0.00     0.000 C 
BRANCH   4   5
ATOM      5  C   UNL     1     -98.884  68.717  25.202  1.00  0.00     0.000 C 
BRANCH   5   6
ATOM      6  C   UNL     1     -99.863  68.988  26.360  1.00  0.00     0.000 C 
BRANCH   6   7
ATOM      7  C   UNL     1     -99.428  70.167  27.247  1.00  0.00     0.006 C 
BRANCH   7   8
ATOM      8  C   UNL     1     -98.441  69.735  28.340  1.00  0.00     0.053 C 
BRANCH   8   9
ATOM      9  C   UNL     1     -99.079  68.814  29.333  1.00  0.00     0.041 C 
ATOM     10  O   UNL     1    -100.154  69.140  29.902  1.00  0.00    -0.550 OA
ATOM     11  O   UNL     1     -98.502  67.580  29.608  1.00  0.00    -0.550 OA
ENDBRANCH   8   9
ENDBRANCH   7   8
ENDBRANCH   6   7
ENDBRANCH   5   6
ENDBRANCH   4   5
ENDBRANCH   3   4
ENDBRANCH   2   3
ENDBRANCH   1   2
BRANCH   1  12
ATOM     12  C   UNL     1     -97.298  73.012  24.232  1.00  0.00     0.000 C 
BRANCH  12  13
ATOM     13  C   UNL     1     -96.001  73.737  23.842  1.00  0.00    -0.000 C 
BRANCH  13  14
ATOM     14  C   UNL     1     -95.257  72.970  22.738  1.00  0.00    -0.000 C 
BRANCH  14  15
ATOM     15  C   UNL     1     -95.280  73.699  21.382  1.00  0.00    -0.000 C 
BRANCH  15  16
ATOM     16  C   UNL     1     -95.739  72.838  20.189  1.00  0.00    -0.000 C 
BRANCH  16  17
ATOM     17  C   UNL     1     -97.266  72.744  20.000  1.00  0.00    -0.000 C 
BRANCH  17  18
ATOM     18  C   UNL     1     -98.059  73.979  20.473  1.00  0.00    -0.000 C 
BRANCH  18  19
ATOM     19  C   UNL     1     -99.476  73.677  20.991  1.00  0.00    -0.003 C 
ATOM     20  C   UNL     1     -99.894  74.585  22.146  1.00  0.00     0.004 C 
ENDBRANCH  18  19
ENDBRANCH  17  18
ENDBRANCH  16  17
ENDBRANCH  15  16
ENDBRANCH  14  15
ENDBRANCH  13  14
ENDBRANCH  12  13
ENDBRANCH   1  12
TORSDOF 16
ENDMDL
