MODEL 1
REMARK VINA RESULT:    -7.261      0.000      0.000
REMARK INTER + INTRA:         -14.706
REMARK INTER:                 -11.931
REMARK INTRA:                  -2.776
REMARK UNBOUND:                -2.776
REMARK SMILES C[C@H]1O[C@H](OC[C@H]2O[C@@H](Oc3c(-c4ccc(O)c(O)c4)oc4cc(O)cc(O)c4c3=O)[C@@H](O)[C@H](O)[C@@H]2O)[C@@H](O)[C@H](O)[C@H]1O
REMARK SMILES IDX 7 1 36 2 34 3 32 4 9 5 8 6 6 7 5 8 4 9 1 10 2 11 42 12 3 13
REMARK SMILES IDX 40 14 38 15 43 16 41 18 39 20 37 22 35 24 10 26 11 27 12 28
REMARK SMILES IDX 30 29 21 30 29 31 31 32 22 33 27 34 23 35 26 36 24 37 13 38
REMARK SMILES IDX 20 39 14 40 18 41 15 42 16 43 19 44 17 46 28 48 25 50 33 52
REMARK H PARENT 43 17 41 19 39 21 37 23 35 25 19 45 17 47 28 49 25 51 33 53
REMARK Flexibility Score: inf
ROOT
ATOM      1  C   UNL     1     116.586 129.666 131.849  1.00  0.00     0.180 C 
ATOM      2  C   UNL     1     115.143 129.141 131.607  1.00  0.00     0.177 C 
ATOM      3  C   UNL     1     115.166 127.925 130.666  1.00  0.00     0.180 C 
ATOM      4  C   UNL     1     116.185 126.888 131.182  1.00  0.00     0.214 C 
ATOM      5  C   UNL     1     117.540 127.574 131.412  1.00  0.00     0.339 C 
ATOM      6  O   UNL     1     117.416 128.629 132.351  1.00  0.00    -0.332 OA
ENDROOT
BRANCH   1   7
ATOM      7  C   UNL     1     116.557 130.821 132.879  1.00  0.00     0.198 C 
BRANCH   7   8
ATOM      8  O   UNL     1     115.269 131.003 133.443  1.00  0.00    -0.347 OA
BRANCH   8   9
ATOM      9  C   UNL     1     115.307 131.866 134.577  1.00  0.00     0.281 C 
ATOM     10  C   UNL     1     112.976 130.175 136.874  1.00  0.00     0.041 C 
ATOM     11  C   UNL     1     114.188 130.303 135.943  1.00  0.00     0.150 C 
ATOM     12  C   UNL     1     115.528 129.878 136.621  1.00  0.00     0.174 C 
ATOM     13  O   UNL     1     114.215 131.639 135.462  1.00  0.00    -0.344 OA
ATOM     14  C   UNL     1     116.499 131.069 136.696  1.00  0.00     0.179 C 
ATOM     15  C   UNL     1     116.671 131.714 135.307  1.00  0.00     0.202 C 
BRANCH  12  16
ATOM     16  O   UNL     1     115.322 129.358 137.913  1.00  0.00    -0.388 OA
ATOM     17  H   UNL     1     115.303 128.369 137.836  1.00  0.00     0.211 HD
ENDBRANCH  12  16
BRANCH  14  18
ATOM     18  O   UNL     1     117.739 130.672 137.224  1.00  0.00    -0.387 OA
ATOM     19  H   UNL     1     118.430 130.839 136.533  1.00  0.00     0.211 HD
ENDBRANCH  14  18
BRANCH  15  20
ATOM     20  O   UNL     1     117.280 132.969 135.466  1.00  0.00    -0.385 OA
ATOM     21  H   UNL     1     117.991 132.864 136.153  1.00  0.00     0.211 HD
ENDBRANCH  15  20
ENDBRANCH   8   9
ENDBRANCH   7   8
ENDBRANCH   1   7
BRANCH   2  22
ATOM     22  O   UNL     1     114.352 130.160 131.045  1.00  0.00    -0.387 OA
ATOM     23  H   UNL     1     113.414 129.843 131.077  1.00  0.00     0.211 HD
ENDBRANCH   2  22
BRANCH   3  24
ATOM     24  O   UNL     1     115.504 128.341 129.363  1.00  0.00    -0.387 OA
ATOM     25  H   UNL     1     116.363 127.900 129.135  1.00  0.00     0.211 HD
ENDBRANCH   3  24
BRANCH   5  26
ATOM     26  O   UNL     1     118.460 126.610 131.925  1.00  0.00    -0.454 OA
BRANCH  26  27
ATOM     27  C   UNL     1     119.515 126.956 132.775  1.00  0.00     0.214 A 
ATOM     28  C   UNL     1     119.410 126.734 134.157  1.00  0.00     0.180 A 
ATOM     29  C   UNL     1     120.682 127.543 132.266  1.00  0.00     0.239 A 
ATOM     30  O   UNL     1     120.375 127.144 134.968  1.00  0.00    -0.452 OA
ATOM     31  C   UNL     1     121.707 127.949 133.152  1.00  0.00     0.111 A 
ATOM     32  O   UNL     1     120.778 127.703 131.021  1.00  0.00    -0.285 OA
ATOM     33  C   UNL     1     121.479 127.741 134.540  1.00  0.00     0.146 A 
ATOM     34  C   UNL     1     122.927 128.577 132.752  1.00  0.00     0.134 A 
ATOM     35  C   UNL     1     122.414 128.167 135.484  1.00  0.00     0.094 A 
ATOM     36  C   UNL     1     123.815 129.043 133.727  1.00  0.00     0.093 A 
ATOM     37  C   UNL     1     123.574 128.824 135.084  1.00  0.00     0.123 A 
BRANCH  28  38
ATOM     38  C   UNL     1     118.223 126.085 134.746  1.00  0.00     0.025 A 
ATOM     39  C   UNL     1     118.047 124.692 134.668  1.00  0.00     0.062 A 
ATOM     40  C   UNL     1     117.279 126.861 135.432  1.00  0.00     0.016 A 
ATOM     41  C   UNL     1     116.934 124.080 135.257  1.00  0.00     0.158 A 
ATOM     42  C   UNL     1     116.160 126.255 136.011  1.00  0.00     0.051 A 
ATOM     43  C   UNL     1     115.984 124.866 135.930  1.00  0.00     0.157 A 
BRANCH  41  44
ATOM     44  O   UNL     1     116.791 122.695 135.162  1.00  0.00    -0.504 OA
ATOM     45  H   UNL     1     117.447 122.123 134.642  1.00  0.00     0.293 HD
ENDBRANCH  41  44
BRANCH  43  46
ATOM     46  O   UNL     1     114.868 124.264 136.512  1.00  0.00    -0.504 OA
ATOM     47  H   UNL     1     114.880 123.943 137.472  1.00  0.00     0.293 HD
ENDBRANCH  43  46
ENDBRANCH  28  38
BRANCH  34  48
ATOM     48  O   UNL     1     123.313 128.767 131.421  1.00  0.00    -0.507 OA
ATOM     49  H   UNL     1     122.787 128.466 130.615  1.00  0.00     0.293 HD
ENDBRANCH  34  48
BRANCH  37  50
ATOM     50  O   UNL     1     124.494 129.235 136.044  1.00  0.00    -0.508 OA
ATOM     51  H   UNL     1     124.361 130.093 136.568  1.00  0.00     0.293 HD
ENDBRANCH  37  50
ENDBRANCH  26  27
ENDBRANCH   5  26
BRANCH   4  52
ATOM     52  O   UNL     1     115.742 126.313 132.387  1.00  0.00    -0.384 OA
ATOM     53  H   UNL     1     116.401 125.608 132.626  1.00  0.00     0.211 HD
ENDBRANCH   4  52
TORSDOF 16
ENDMDL
MODEL 2
REMARK VINA RESULT:    -7.209      1.989      5.296
REMARK INTER + INTRA:         -14.620
REMARK INTER:                 -11.808
REMARK INTRA:                  -2.811
REMARK UNBOUND:                -2.776
REMARK SMILES C[C@H]1O[C@H](OC[C@H]2O[C@@H](Oc3c(-c4ccc(O)c(O)c4)oc4cc(O)cc(O)c4c3=O)[C@@H](O)[C@H](O)[C@@H]2O)[C@@H](O)[C@H](O)[C@H]1O
REMARK SMILES IDX 7 1 36 2 34 3 32 4 9 5 8 6 6 7 5 8 4 9 1 10 2 11 42 12 3 13
REMARK SMILES IDX 40 14 38 15 43 16 41 18 39 20 37 22 35 24 10 26 11 27 12 28
REMARK SMILES IDX 30 29 21 30 29 31 31 32 22 33 27 34 23 35 26 36 24 37 13 38
REMARK SMILES IDX 20 39 14 40 18 41 15 42 16 43 19 44 17 46 28 48 25 50 33 52
REMARK H PARENT 43 17 41 19 39 21 37 23 35 25 19 45 17 47 28 49 25 51 33 53
REMARK Flexibility Score: inf
ROOT
ATOM      1  C   UNL     1     115.964 128.572 133.117  1.00  0.00     0.180 C 
ATOM      2  C   UNL     1     115.545 128.992 131.680  1.00  0.00     0.177 C 
ATOM      3  C   UNL     1     116.693 128.729 130.689  1.00  0.00     0.180 C 
ATOM      4  C   UNL     1     117.198 127.281 130.851  1.00  0.00     0.214 C 
ATOM      5  C   UNL     1     117.524 127.016 132.328  1.00  0.00     0.339 C 
ATOM      6  O   UNL     1     116.378 127.214 133.139  1.00  0.00    -0.332 OA
ENDROOT
BRANCH   1   7
ATOM      7  C   UNL     1     114.766 128.742 134.082  1.00  0.00     0.198 C 
BRANCH   7   8
ATOM      8  O   UNL     1     114.910 127.962 135.257  1.00  0.00    -0.347 OA
BRANCH   8   9
ATOM      9  C   UNL     1     115.406 128.736 136.346  1.00  0.00     0.281 C 
ATOM     10  C   UNL     1     117.102 126.167 138.370  1.00  0.00     0.041 C 
ATOM     11  C   UNL     1     116.785 126.981 137.109  1.00  0.00     0.150 C 
ATOM     12  C   UNL     1     118.047 127.647 136.477  1.00  0.00     0.174 C 
ATOM     13  O   UNL     1     115.781 127.926 137.455  1.00  0.00    -0.344 OA
ATOM     14  C   UNL     1     117.922 129.180 136.500  1.00  0.00     0.179 C 
ATOM     15  C   UNL     1     116.589 129.622 135.864  1.00  0.00     0.202 C 
BRANCH  12  16
ATOM     16  O   UNL     1     119.230 127.263 137.137  1.00  0.00    -0.388 OA
ATOM     17  H   UNL     1     119.954 127.865 136.822  1.00  0.00     0.211 HD
ENDBRANCH  12  16
BRANCH  14  18
ATOM     18  O   UNL     1     119.014 129.782 135.852  1.00  0.00    -0.387 OA
ATOM     19  H   UNL     1     118.855 129.724 134.875  1.00  0.00     0.211 HD
ENDBRANCH  14  18
BRANCH  15  20
ATOM     20  O   UNL     1     116.357 130.967 136.196  1.00  0.00    -0.385 OA
ATOM     21  H   UNL     1     115.439 131.190 135.887  1.00  0.00     0.211 HD
ENDBRANCH  15  20
ENDBRANCH   8   9
ENDBRANCH   7   8
ENDBRANCH   1   7
BRANCH   2  22
ATOM     22  O   UNL     1     115.205 130.356 131.660  1.00  0.00    -0.387 OA
ATOM     23  H   UNL     1     115.924 130.837 132.144  1.00  0.00     0.211 HD
ENDBRANCH   2  22
BRANCH   3  24
ATOM     24  O   UNL     1     117.737 129.645 130.923  1.00  0.00    -0.387 OA
ATOM     25  H   UNL     1     117.904 129.645 131.901  1.00  0.00     0.211 HD
ENDBRANCH   3  24
BRANCH   5  26
ATOM     26  O   UNL     1     117.954 125.661 132.466  1.00  0.00    -0.454 OA
BRANCH  26  27
ATOM     27  C   UNL     1     118.304 125.106 133.700  1.00  0.00     0.214 A 
ATOM     28  C   UNL     1     119.592 125.303 134.223  1.00  0.00     0.180 A 
ATOM     29  C   UNL     1     117.385 124.334 134.426  1.00  0.00     0.239 A 
ATOM     30  O   UNL     1     119.948 124.702 135.350  1.00  0.00    -0.452 OA
ATOM     31  C   UNL     1     117.784 123.725 135.639  1.00  0.00     0.111 A 
ATOM     32  O   UNL     1     116.222 124.197 133.964  1.00  0.00    -0.285 OA
ATOM     33  C   UNL     1     119.130 123.929 136.051  1.00  0.00     0.146 A 
ATOM     34  C   UNL     1     116.944 122.900 136.449  1.00  0.00     0.134 A 
ATOM     35  C   UNL     1     119.619 123.315 137.204  1.00  0.00     0.094 A 
ATOM     36  C   UNL     1     117.483 122.254 137.566  1.00  0.00     0.093 A 
ATOM     37  C   UNL     1     118.805 122.472 137.956  1.00  0.00     0.123 A 
BRANCH  28  38
ATOM     38  C   UNL     1     120.589 126.137 133.525  1.00  0.00     0.025 A 
ATOM     39  C   UNL     1     121.306 125.637 132.423  1.00  0.00     0.062 A 
ATOM     40  C   UNL     1     120.793 127.462 133.936  1.00  0.00     0.016 A 
ATOM     41  C   UNL     1     122.227 126.445 131.747  1.00  0.00     0.158 A 
ATOM     42  C   UNL     1     121.721 128.267 133.270  1.00  0.00     0.051 A 
ATOM     43  C   UNL     1     122.438 127.766 132.173  1.00  0.00     0.157 A 
BRANCH  41  44
ATOM     44  O   UNL     1     122.920 125.917 130.657  1.00  0.00    -0.504 OA
ATOM     45  H   UNL     1     123.862 126.213 130.425  1.00  0.00     0.293 HD
ENDBRANCH  41  44
BRANCH  43  46
ATOM     46  O   UNL     1     123.361 128.574 131.508  1.00  0.00    -0.504 OA
ATOM     47  H   UNL     1     123.845 128.253 130.680  1.00  0.00     0.293 HD
ENDBRANCH  43  46
ENDBRANCH  28  38
BRANCH  34  48
ATOM     48  O   UNL     1     115.584 122.684 136.205  1.00  0.00    -0.507 OA
ATOM     49  H   UNL     1     115.110 122.885 135.338  1.00  0.00     0.293 HD
ENDBRANCH  34  48
BRANCH  37  50
ATOM     50  O   UNL     1     119.316 121.875 139.105  1.00  0.00    -0.508 OA
ATOM     51  H   UNL     1     119.210 120.881 139.273  1.00  0.00     0.293 HD
ENDBRANCH  37  50
ENDBRANCH  26  27
ENDBRANCH   5  26
BRANCH   4  52
ATOM     52  O   UNL     1     116.225 126.364 130.414  1.00  0.00    -0.384 OA
ATOM     53  H   UNL     1     115.459 126.899 130.075  1.00  0.00     0.211 HD
ENDBRANCH   4  52
TORSDOF 16
ENDMDL
MODEL 3
REMARK VINA RESULT:    -7.154      2.014      5.032
REMARK INTER + INTRA:         -14.531
REMARK INTER:                 -12.419
REMARK INTRA:                  -2.112
REMARK UNBOUND:                -2.776
REMARK SMILES C[C@H]1O[C@H](OC[C@H]2O[C@@H](Oc3c(-c4ccc(O)c(O)c4)oc4cc(O)cc(O)c4c3=O)[C@@H](O)[C@H](O)[C@@H]2O)[C@@H](O)[C@H](O)[C@H]1O
REMARK SMILES IDX 7 1 36 2 34 3 32 4 9 5 8 6 6 7 5 8 4 9 1 10 2 11 42 12 3 13
REMARK SMILES IDX 40 14 38 15 43 16 41 18 39 20 37 22 35 24 10 26 11 27 12 28
REMARK SMILES IDX 30 29 21 30 29 31 31 32 22 33 27 34 23 35 26 36 24 37 13 38
REMARK SMILES IDX 20 39 14 40 18 41 15 42 16 43 19 44 17 46 28 48 25 50 33 52
REMARK H PARENT 43 17 41 19 39 21 37 23 35 25 19 45 17 47 28 49 25 51 33 53
REMARK Flexibility Score: inf
ROOT
ATOM      1  C   UNL     1     118.192 128.739 135.945  1.00  0.00     0.180 C 
ATOM      2  C   UNL     1     118.378 128.988 137.468  1.00  0.00     0.177 C 
ATOM      3  C   UNL     1     119.032 127.765 138.135  1.00  0.00     0.180 C 
ATOM      4  C   UNL     1     120.301 127.365 137.355  1.00  0.00     0.214 C 
ATOM      5  C   UNL     1     119.956 127.203 135.866  1.00  0.00     0.339 C 
ATOM      6  O   UNL     1     119.433 128.411 135.338  1.00  0.00    -0.332 OA
ENDROOT
BRANCH   1   7
ATOM      7  C   UNL     1     117.633 130.015 135.271  1.00  0.00     0.198 C 
BRANCH   7   8
ATOM      8  O   UNL     1     116.537 129.733 134.417  1.00  0.00    -0.347 OA
BRANCH   8   9
ATOM      9  C   UNL     1     116.525 130.587 133.275  1.00  0.00     0.281 C 
ATOM     10  C   UNL     1     118.130 128.454 130.737  1.00  0.00     0.041 C 
ATOM     11  C   UNL     1     117.106 128.827 131.816  1.00  0.00     0.150 C 
ATOM     12  C   UNL     1     115.629 128.689 131.332  1.00  0.00     0.174 C 
ATOM     13  O   UNL     1     117.418 130.141 132.260  1.00  0.00    -0.344 OA
ATOM     14  C   UNL     1     114.920 130.055 131.354  1.00  0.00     0.179 C 
ATOM     15  C   UNL     1     115.073 130.720 132.736  1.00  0.00     0.202 C 
BRANCH  12  16
ATOM     16  O   UNL     1     115.548 128.139 130.038  1.00  0.00    -0.388 OA
ATOM     17  H   UNL     1     116.331 127.540 129.922  1.00  0.00     0.211 HD
ENDBRANCH  12  16
BRANCH  14  18
ATOM     18  O   UNL     1     113.565 129.922 131.004  1.00  0.00    -0.387 OA
ATOM     19  H   UNL     1     113.288 128.995 131.218  1.00  0.00     0.211 HD
ENDBRANCH  14  18
BRANCH  15  20
ATOM     20  O   UNL     1     114.717 132.074 132.624  1.00  0.00    -0.385 OA
ATOM     21  H   UNL     1     113.912 132.213 133.190  1.00  0.00     0.211 HD
ENDBRANCH  15  20
ENDBRANCH   8   9
ENDBRANCH   7   8
ENDBRANCH   1   7
BRANCH   2  22
ATOM     22  O   UNL     1     117.131 129.244 138.066  1.00  0.00    -0.387 OA
ATOM     23  H   UNL     1     117.273 129.212 139.047  1.00  0.00     0.211 HD
ENDBRANCH   2  22
BRANCH   3  24
ATOM     24  O   UNL     1     118.115 126.697 138.165  1.00  0.00    -0.387 OA
ATOM     25  H   UNL     1     118.627 125.886 138.421  1.00  0.00     0.211 HD
ENDBRANCH   3  24
BRANCH   5  26
ATOM     26  O   UNL     1     121.148 126.870 135.155  1.00  0.00    -0.454 OA
BRANCH  26  27
ATOM     27  C   UNL     1     121.228 126.919 133.759  1.00  0.00     0.214 A 
ATOM     28  C   UNL     1     120.406 126.094 132.976  1.00  0.00     0.180 A 
ATOM     29  C   UNL     1     122.136 127.777 133.123  1.00  0.00     0.239 A 
ATOM     30  O   UNL     1     120.548 126.079 131.658  1.00  0.00    -0.452 OA
ATOM     31  C   UNL     1     122.249 127.760 131.713  1.00  0.00     0.111 A 
ATOM     32  O   UNL     1     122.840 128.539 133.836  1.00  0.00    -0.285 OA
ATOM     33  C   UNL     1     121.420 126.841 131.012  1.00  0.00     0.146 A 
ATOM     34  C   UNL     1     123.153 128.569 130.959  1.00  0.00     0.134 A 
ATOM     35  C   UNL     1     121.512 126.718 129.625  1.00  0.00     0.094 A 
ATOM     36  C   UNL     1     123.260 128.380 129.577  1.00  0.00     0.093 A 
ATOM     37  C   UNL     1     122.433 127.476 128.908  1.00  0.00     0.123 A 
BRANCH  28  38
ATOM     38  C   UNL     1     119.405 125.199 133.586  1.00  0.00     0.025 A 
ATOM     39  C   UNL     1     118.030 125.470 133.476  1.00  0.00     0.062 A 
ATOM     40  C   UNL     1     119.827 124.037 134.248  1.00  0.00     0.016 A 
ATOM     41  C   UNL     1     117.084 124.599 134.032  1.00  0.00     0.158 A 
ATOM     42  C   UNL     1     118.886 123.172 134.815  1.00  0.00     0.051 A 
ATOM     43  C   UNL     1     117.515 123.445 134.707  1.00  0.00     0.157 A 
BRANCH  41  44
ATOM     44  O   UNL     1     115.728 124.898 133.902  1.00  0.00    -0.504 OA
ATOM     45  H   UNL     1     115.039 124.187 133.684  1.00  0.00     0.293 HD
ENDBRANCH  41  44
BRANCH  43  46
ATOM     46  O   UNL     1     116.578 122.577 135.270  1.00  0.00    -0.504 OA
ATOM     47  H   UNL     1     115.640 122.884 135.493  1.00  0.00     0.293 HD
ENDBRANCH  43  46
ENDBRANCH  28  38
BRANCH  34  48
ATOM     48  O   UNL     1     123.962 129.567 131.512  1.00  0.00    -0.507 OA
ATOM     49  H   UNL     1     124.739 129.407 132.134  1.00  0.00     0.293 HD
ENDBRANCH  34  48
BRANCH  37  50
ATOM     50  O   UNL     1     122.503 127.340 127.525  1.00  0.00    -0.508 OA
ATOM     51  H   UNL     1     123.197 126.744 127.088  1.00  0.00     0.293 HD
ENDBRANCH  37  50
ENDBRANCH  26  27
ENDBRANCH   5  26
BRANCH   4  52
ATOM     52  O   UNL     1     121.302 128.342 137.500  1.00  0.00    -0.384 OA
ATOM     53  H   UNL     1     122.109 127.995 137.033  1.00  0.00     0.211 HD
ENDBRANCH   4  52
TORSDOF 16
ENDMDL
MODEL 4
REMARK VINA RESULT:    -7.079      1.885      5.126
REMARK INTER + INTRA:         -14.407
REMARK INTER:                 -12.617
REMARK INTRA:                  -1.790
REMARK UNBOUND:                -2.776
REMARK SMILES C[C@H]1O[C@H](OC[C@H]2O[C@@H](Oc3c(-c4ccc(O)c(O)c4)oc4cc(O)cc(O)c4c3=O)[C@@H](O)[C@H](O)[C@@H]2O)[C@@H](O)[C@H](O)[C@H]1O
REMARK SMILES IDX 7 1 36 2 34 3 32 4 9 5 8 6 6 7 5 8 4 9 1 10 2 11 42 12 3 13
REMARK SMILES IDX 40 14 38 15 43 16 41 18 39 20 37 22 35 24 10 26 11 27 12 28
REMARK SMILES IDX 30 29 21 30 29 31 31 32 22 33 27 34 23 35 26 36 24 37 13 38
REMARK SMILES IDX 20 39 14 40 18 41 15 42 16 43 19 44 17 46 28 48 25 50 33 52
REMARK H PARENT 43 17 41 19 39 21 37 23 35 25 19 45 17 47 28 49 25 51 33 53
REMARK Flexibility Score: inf
ROOT
ATOM      1  C   UNL     1     115.944 128.575 133.163  1.00  0.00     0.180 C 
ATOM      2  C   UNL     1     115.556 128.996 131.718  1.00  0.00     0.177 C 
ATOM      3  C   UNL     1     116.720 128.724 130.749  1.00  0.00     0.180 C 
ATOM      4  C   UNL     1     117.211 127.272 130.922  1.00  0.00     0.214 C 
ATOM      5  C   UNL     1     117.507 127.006 132.405  1.00  0.00     0.339 C 
ATOM      6  O   UNL     1     116.347 127.213 133.194  1.00  0.00    -0.332 OA
ENDROOT
BRANCH   1   7
ATOM      7  C   UNL     1     114.729 128.754 134.105  1.00  0.00     0.198 C 
BRANCH   7   8
ATOM      8  O   UNL     1     115.088 129.371 135.330  1.00  0.00    -0.347 OA
BRANCH   8   9
ATOM      9  C   UNL     1     114.608 130.711 135.407  1.00  0.00     0.281 C 
ATOM     10  C   UNL     1     115.160 131.494 138.964  1.00  0.00     0.041 C 
ATOM     11  C   UNL     1     115.539 131.039 137.549  1.00  0.00     0.150 C 
ATOM     12  C   UNL     1     116.737 131.839 136.949  1.00  0.00     0.174 C 
ATOM     13  O   UNL     1     114.368 131.120 136.749  1.00  0.00    -0.344 OA
ATOM     14  C   UNL     1     116.297 132.612 135.692  1.00  0.00     0.179 C 
ATOM     15  C   UNL     1     115.604 131.666 134.692  1.00  0.00     0.202 C 
BRANCH  12  16
ATOM     16  O   UNL     1     117.289 132.737 137.882  1.00  0.00    -0.388 OA
ATOM     17  H   UNL     1     116.746 133.567 137.852  1.00  0.00     0.211 HD
ENDBRANCH  12  16
BRANCH  14  18
ATOM     18  O   UNL     1     117.390 133.264 135.096  1.00  0.00    -0.387 OA
ATOM     19  H   UNL     1     118.180 132.670 135.184  1.00  0.00     0.211 HD
ENDBRANCH  14  18
BRANCH  15  20
ATOM     20  O   UNL     1     114.932 132.441 133.732  1.00  0.00    -0.385 OA
ATOM     21  H   UNL     1     114.821 131.873 132.924  1.00  0.00     0.211 HD
ENDBRANCH  15  20
ENDBRANCH   8   9
ENDBRANCH   7   8
ENDBRANCH   1   7
BRANCH   2  22
ATOM     22  O   UNL     1     115.226 130.363 131.692  1.00  0.00    -0.387 OA
ATOM     23  H   UNL     1     116.017 130.854 132.030  1.00  0.00     0.211 HD
ENDBRANCH   2  22
BRANCH   3  24
ATOM     24  O   UNL     1     117.766 129.632 131.002  1.00  0.00    -0.387 OA
ATOM     25  H   UNL     1     117.731 130.316 130.284  1.00  0.00     0.211 HD
ENDBRANCH   3  24
BRANCH   5  26
ATOM     26  O   UNL     1     117.924 125.648 132.552  1.00  0.00    -0.454 OA
BRANCH  26  27
ATOM     27  C   UNL     1     118.265 125.097 133.791  1.00  0.00     0.214 A 
ATOM     28  C   UNL     1     119.543 125.309 134.330  1.00  0.00     0.180 A 
ATOM     29  C   UNL     1     117.346 124.314 134.504  1.00  0.00     0.239 A 
ATOM     30  O   UNL     1     119.892 124.711 135.461  1.00  0.00    -0.452 OA
ATOM     31  C   UNL     1     117.736 123.709 135.722  1.00  0.00     0.111 A 
ATOM     32  O   UNL     1     116.191 124.163 134.027  1.00  0.00    -0.285 OA
ATOM     33  C   UNL     1     119.074 123.929 136.152  1.00  0.00     0.146 A 
ATOM     34  C   UNL     1     116.895 122.873 136.521  1.00  0.00     0.134 A 
ATOM     35  C   UNL     1     119.556 123.320 137.311  1.00  0.00     0.094 A 
ATOM     36  C   UNL     1     117.428 122.234 137.645  1.00  0.00     0.093 A 
ATOM     37  C   UNL     1     118.742 122.468 138.052  1.00  0.00     0.123 A 
BRANCH  28  38
ATOM     38  C   UNL     1     120.539 126.155 133.645  1.00  0.00     0.025 A 
ATOM     39  C   UNL     1     121.285 125.660 132.561  1.00  0.00     0.062 A 
ATOM     40  C   UNL     1     120.714 127.485 134.052  1.00  0.00     0.016 A 
ATOM     41  C   UNL     1     122.205 126.479 131.896  1.00  0.00     0.158 A 
ATOM     42  C   UNL     1     121.641 128.302 133.398  1.00  0.00     0.051 A 
ATOM     43  C   UNL     1     122.387 127.806 132.318  1.00  0.00     0.157 A 
BRANCH  41  44
ATOM     44  O   UNL     1     122.927 125.956 130.822  1.00  0.00    -0.504 OA
ATOM     45  H   UNL     1     123.461 125.097 130.901  1.00  0.00     0.293 HD
ENDBRANCH  41  44
BRANCH  43  46
ATOM     46  O   UNL     1     123.308 128.625 131.665  1.00  0.00    -0.504 OA
ATOM     47  H   UNL     1     123.610 129.505 132.064  1.00  0.00     0.293 HD
ENDBRANCH  43  46
ENDBRANCH  28  38
BRANCH  34  48
ATOM     48  O   UNL     1     115.542 122.641 136.259  1.00  0.00    -0.507 OA
ATOM     49  H   UNL     1     115.048 122.947 135.435  1.00  0.00     0.293 HD
ENDBRANCH  34  48
BRANCH  37  50
ATOM     50  O   UNL     1     119.244 121.876 139.207  1.00  0.00    -0.508 OA
ATOM     51  H   UNL     1     119.939 122.342 139.779  1.00  0.00     0.293 HD
ENDBRANCH  37  50
ENDBRANCH  26  27
ENDBRANCH   5  26
BRANCH   4  52
ATOM     52  O   UNL     1     116.239 126.362 130.468  1.00  0.00    -0.384 OA
ATOM     53  H   UNL     1     115.654 126.157 131.245  1.00  0.00     0.211 HD
ENDBRANCH   4  52
TORSDOF 16
ENDMDL
MODEL 5
REMARK VINA RESULT:    -7.067      1.977      5.071
REMARK INTER + INTRA:         -14.387
REMARK INTER:                 -11.465
REMARK INTRA:                  -2.922
REMARK UNBOUND:                -2.776
REMARK SMILES C[C@H]1O[C@H](OC[C@H]2O[C@@H](Oc3c(-c4ccc(O)c(O)c4)oc4cc(O)cc(O)c4c3=O)[C@@H](O)[C@H](O)[C@@H]2O)[C@@H](O)[C@H](O)[C@H]1O
REMARK SMILES IDX 7 1 36 2 34 3 32 4 9 5 8 6 6 7 5 8 4 9 1 10 2 11 42 12 3 13
REMARK SMILES IDX 40 14 38 15 43 16 41 18 39 20 37 22 35 24 10 26 11 27 12 28
REMARK SMILES IDX 30 29 21 30 29 31 31 32 22 33 27 34 23 35 26 36 24 37 13 38
REMARK SMILES IDX 20 39 14 40 18 41 15 42 16 43 19 44 17 46 28 48 25 50 33 52
REMARK H PARENT 43 17 41 19 39 21 37 23 35 25 19 45 17 47 28 49 25 51 33 53
REMARK Flexibility Score: inf
ROOT
ATOM      1  C   UNL     1     117.131 128.574 137.207  1.00  0.00     0.180 C 
ATOM      2  C   UNL     1     117.479 129.466 138.431  1.00  0.00     0.177 C 
ATOM      3  C   UNL     1     118.176 128.633 139.521  1.00  0.00     0.180 C 
ATOM      4  C   UNL     1     119.350 127.848 138.901  1.00  0.00     0.214 C 
ATOM      5  C   UNL     1     118.850 127.058 137.682  1.00  0.00     0.339 C 
ATOM      6  O   UNL     1     118.297 127.931 136.711  1.00  0.00    -0.332 OA
ENDROOT
BRANCH   1   7
ATOM      7  C   UNL     1     116.528 129.444 136.079  1.00  0.00     0.198 C 
BRANCH   7   8
ATOM      8  O   UNL     1     116.444 128.744 134.848  1.00  0.00    -0.347 OA
BRANCH   8   9
ATOM      9  C   UNL     1     117.300 129.311 133.859  1.00  0.00     0.281 C 
ATOM     10  C   UNL     1     117.293 126.683 131.278  1.00  0.00     0.041 C 
ATOM     11  C   UNL     1     116.684 127.704 132.247  1.00  0.00     0.150 C 
ATOM     12  C   UNL     1     115.728 128.719 131.544  1.00  0.00     0.174 C 
ATOM     13  O   UNL     1     117.758 128.341 132.924  1.00  0.00    -0.344 OA
ATOM     14  C   UNL     1     116.271 130.154 131.673  1.00  0.00     0.179 C 
ATOM     15  C   UNL     1     116.572 130.486 133.147  1.00  0.00     0.202 C 
BRANCH  12  16
ATOM     16  O   UNL     1     115.541 128.409 130.184  1.00  0.00    -0.388 OA
ATOM     17  H   UNL     1     115.137 129.206 129.751  1.00  0.00     0.211 HD
ENDBRANCH  12  16
BRANCH  14  18
ATOM     18  O   UNL     1     115.371 131.081 131.120  1.00  0.00    -0.387 OA
ATOM     19  H   UNL     1     115.610 131.978 131.470  1.00  0.00     0.211 HD
ENDBRANCH  14  18
BRANCH  15  20
ATOM     20  O   UNL     1     117.361 131.647 133.194  1.00  0.00    -0.385 OA
ATOM     21  H   UNL     1     117.084 132.157 134.001  1.00  0.00     0.211 HD
ENDBRANCH  15  20
ENDBRANCH   8   9
ENDBRANCH   7   8
ENDBRANCH   1   7
BRANCH   2  22
ATOM     22  O   UNL     1     116.305 130.040 138.952  1.00  0.00    -0.387 OA
ATOM     23  H   UNL     1     116.411 130.062 139.937  1.00  0.00     0.211 HD
ENDBRANCH   2  22
BRANCH   3  24
ATOM     24  O   UNL     1     117.249 127.752 140.108  1.00  0.00    -0.387 OA
ATOM     25  H   UNL     1     117.487 126.839 139.800  1.00  0.00     0.211 HD
ENDBRANCH   3  24
BRANCH   5  26
ATOM     26  O   UNL     1     119.956 126.368 137.100  1.00  0.00    -0.454 OA
BRANCH  26  27
ATOM     27  C   UNL     1     120.257 126.447 135.736  1.00  0.00     0.214 A 
ATOM     28  C   UNL     1     119.539 125.677 134.808  1.00  0.00     0.180 A 
ATOM     29  C   UNL     1     121.286 127.283 135.278  1.00  0.00     0.239 A 
ATOM     30  O   UNL     1     119.887 125.689 133.529  1.00  0.00    -0.452 OA
ATOM     31  C   UNL     1     121.620 127.295 133.903  1.00  0.00     0.111 A 
ATOM     32  O   UNL     1     121.897 127.996 136.116  1.00  0.00    -0.285 OA
ATOM     33  C   UNL     1     120.879 126.429 133.052  1.00  0.00     0.146 A 
ATOM     34  C   UNL     1     122.662 128.084 133.326  1.00  0.00     0.134 A 
ATOM     35  C   UNL     1     121.184 126.337 131.694  1.00  0.00     0.094 A 
ATOM     36  C   UNL     1     122.979 127.925 131.973  1.00  0.00     0.093 A 
ATOM     37  C   UNL     1     122.236 127.074 131.155  1.00  0.00     0.123 A 
BRANCH  28  38
ATOM     38  C   UNL     1     118.421 124.810 135.226  1.00  0.00     0.025 A 
ATOM     39  C   UNL     1     117.094 125.129 134.889  1.00  0.00     0.062 A 
ATOM     40  C   UNL     1     118.688 123.628 135.931  1.00  0.00     0.016 A 
ATOM     41  C   UNL     1     116.041 124.285 135.263  1.00  0.00     0.158 A 
ATOM     42  C   UNL     1     117.638 122.789 136.315  1.00  0.00     0.051 A 
ATOM     43  C   UNL     1     116.314 123.110 135.982  1.00  0.00     0.157 A 
BRANCH  41  44
ATOM     44  O   UNL     1     114.736 124.632 134.910  1.00  0.00    -0.504 OA
ATOM     45  H   UNL     1     114.539 125.311 134.184  1.00  0.00     0.293 HD
ENDBRANCH  41  44
BRANCH  43  46
ATOM     46  O   UNL     1     115.269 122.269 136.364  1.00  0.00    -0.504 OA
ATOM     47  H   UNL     1     114.513 122.597 136.951  1.00  0.00     0.293 HD
ENDBRANCH  43  46
ENDBRANCH  28  38
BRANCH  34  48
ATOM     48  O   UNL     1     123.410 129.033 134.030  1.00  0.00    -0.507 OA
ATOM     49  H   UNL     1     124.403 128.984 134.196  1.00  0.00     0.293 HD
ENDBRANCH  34  48
BRANCH  37  50
ATOM     50  O   UNL     1     122.518 126.969 129.796  1.00  0.00    -0.508 OA
ATOM     51  H   UNL     1     122.595 127.791 129.209  1.00  0.00     0.293 HD
ENDBRANCH  37  50
ENDBRANCH  26  27
ENDBRANCH   5  26
BRANCH   4  52
ATOM     52  O   UNL     1     120.378 128.722 138.503  1.00  0.00    -0.384 OA
ATOM     53  H   UNL     1     121.035 128.748 139.249  1.00  0.00     0.211 HD
ENDBRANCH   4  52
TORSDOF 16
ENDMDL
MODEL 6
REMARK VINA RESULT:    -7.035      2.168      4.381
REMARK INTER + INTRA:         -14.335
REMARK INTER:                 -11.700
REMARK INTRA:                  -2.635
REMARK UNBOUND:                -2.776
REMARK SMILES C[C@H]1O[C@H](OC[C@H]2O[C@@H](Oc3c(-c4ccc(O)c(O)c4)oc4cc(O)cc(O)c4c3=O)[C@@H](O)[C@H](O)[C@@H]2O)[C@@H](O)[C@H](O)[C@H]1O
REMARK SMILES IDX 7 1 36 2 34 3 32 4 9 5 8 6 6 7 5 8 4 9 1 10 2 11 42 12 3 13
REMARK SMILES IDX 40 14 38 15 43 16 41 18 39 20 37 22 35 24 10 26 11 27 12 28
REMARK SMILES IDX 30 29 21 30 29 31 31 32 22 33 27 34 23 35 26 36 24 37 13 38
REMARK SMILES IDX 20 39 14 40 18 41 15 42 16 43 19 44 17 46 28 48 25 50 33 52
REMARK H PARENT 43 17 41 19 39 21 37 23 35 25 19 45 17 47 28 49 25 51 33 53
REMARK Flexibility Score: inf
ROOT
ATOM      1  C   UNL     1     116.979 125.948 133.380  1.00  0.00     0.180 C 
ATOM      2  C   UNL     1     116.011 125.301 134.410  1.00  0.00     0.177 C 
ATOM      3  C   UNL     1     116.686 124.103 135.101  1.00  0.00     0.180 C 
ATOM      4  C   UNL     1     118.066 124.527 135.643  1.00  0.00     0.214 C 
ATOM      5  C   UNL     1     118.877 125.186 134.518  1.00  0.00     0.339 C 
ATOM      6  O   UNL     1     118.197 126.321 134.007  1.00  0.00    -0.332 OA
ENDROOT
BRANCH   1   7
ATOM      7  C   UNL     1     116.327 127.213 132.772  1.00  0.00     0.198 C 
BRANCH   7   8
ATOM      8  O   UNL     1     115.238 127.681 133.550  1.00  0.00    -0.347 OA
BRANCH   8   9
ATOM      9  C   UNL     1     114.826 128.986 133.151  1.00  0.00     0.281 C 
ATOM     10  C   UNL     1     115.113 130.853 136.313  1.00  0.00     0.041 C 
ATOM     11  C   UNL     1     115.586 129.960 135.160  1.00  0.00     0.150 C 
ATOM     12  C   UNL     1     116.872 130.498 134.458  1.00  0.00     0.174 C 
ATOM     13  O   UNL     1     114.494 129.809 134.264  1.00  0.00    -0.344 OA
ATOM     14  C   UNL     1     116.585 130.838 132.985  1.00  0.00     0.179 C 
ATOM     15  C   UNL     1     115.930 129.638 132.272  1.00  0.00     0.202 C 
BRANCH  12  16
ATOM     16  O   UNL     1     117.391 131.634 135.108  1.00  0.00    -0.388 OA
ATOM     17  H   UNL     1     116.724 132.362 135.009  1.00  0.00     0.211 HD
ENDBRANCH  12  16
BRANCH  14  18
ATOM     18  O   UNL     1     117.758 131.238 132.324  1.00  0.00    -0.387 OA
ATOM     19  H   UNL     1     117.571 132.098 131.869  1.00  0.00     0.211 HD
ENDBRANCH  14  18
BRANCH  15  20
ATOM     20  O   UNL     1     115.385 130.080 131.055  1.00  0.00    -0.385 OA
ATOM     21  H   UNL     1     115.312 129.286 130.462  1.00  0.00     0.211 HD
ENDBRANCH  15  20
ENDBRANCH   8   9
ENDBRANCH   7   8
ENDBRANCH   1   7
BRANCH   2  22
ATOM     22  O   UNL     1     114.838 124.875 133.761  1.00  0.00    -0.387 OA
ATOM     23  H   UNL     1     114.434 125.678 133.345  1.00  0.00     0.211 HD
ENDBRANCH   2  22
BRANCH   3  24
ATOM     24  O   UNL     1     116.821 123.043 134.184  1.00  0.00    -0.387 OA
ATOM     25  H   UNL     1     116.732 122.202 134.703  1.00  0.00     0.211 HD
ENDBRANCH   3  24
BRANCH   5  26
ATOM     26  O   UNL     1     120.136 125.605 135.046  1.00  0.00    -0.454 OA
BRANCH  26  27
ATOM     27  C   UNL     1     120.964 126.515 134.381  1.00  0.00     0.214 A 
ATOM     28  C   UNL     1     121.269 127.752 134.969  1.00  0.00     0.180 A 
ATOM     29  C   UNL     1     121.487 126.215 133.115  1.00  0.00     0.239 A 
ATOM     30  O   UNL     1     121.981 128.646 134.298  1.00  0.00    -0.452 OA
ATOM     31  C   UNL     1     122.265 127.178 132.431  1.00  0.00     0.111 A 
ATOM     32  O   UNL     1     121.236 125.087 132.615  1.00  0.00    -0.285 OA
ATOM     33  C   UNL     1     122.463 128.427 133.082  1.00  0.00     0.146 A 
ATOM     34  C   UNL     1     122.829 126.994 131.131  1.00  0.00     0.134 A 
ATOM     35  C   UNL     1     123.168 129.452 132.451  1.00  0.00     0.094 A 
ATOM     36  C   UNL     1     123.480 128.061 130.504  1.00  0.00     0.093 A 
ATOM     37  C   UNL     1     123.668 129.277 131.163  1.00  0.00     0.123 A 
BRANCH  28  38
ATOM     38  C   UNL     1     120.780 128.108 136.315  1.00  0.00     0.025 A 
ATOM     39  C   UNL     1     121.588 127.925 137.451  1.00  0.00     0.062 A 
ATOM     40  C   UNL     1     119.508 128.680 136.460  1.00  0.00     0.016 A 
ATOM     41  C   UNL     1     121.129 128.294 138.720  1.00  0.00     0.158 A 
ATOM     42  C   UNL     1     119.041 129.039 137.728  1.00  0.00     0.051 A 
ATOM     43  C   UNL     1     119.847 128.852 138.860  1.00  0.00     0.157 A 
BRANCH  41  44
ATOM     44  O   UNL     1     121.958 128.099 139.825  1.00  0.00    -0.504 OA
ATOM     45  H   UNL     1     122.464 127.233 139.971  1.00  0.00     0.293 HD
ENDBRANCH  41  44
BRANCH  43  46
ATOM     46  O   UNL     1     119.380 129.215 140.124  1.00  0.00    -0.504 OA
ATOM     47  H   UNL     1     118.509 128.853 140.490  1.00  0.00     0.293 HD
ENDBRANCH  43  46
ENDBRANCH  28  38
BRANCH  34  48
ATOM     48  O   UNL     1     122.780 125.793 130.417  1.00  0.00    -0.507 OA
ATOM     49  H   UNL     1     122.663 125.715 129.418  1.00  0.00     0.293 HD
ENDBRANCH  34  48
BRANCH  37  50
ATOM     50  O   UNL     1     124.372 130.313 130.556  1.00  0.00    -0.508 OA
ATOM     51  H   UNL     1     123.948 131.221 130.406  1.00  0.00     0.293 HD
ENDBRANCH  37  50
ENDBRANCH  26  27
ENDBRANCH   5  26
BRANCH   4  52
ATOM     52  O   UNL     1     117.924 125.433 136.710  1.00  0.00    -0.384 OA
ATOM     53  H   UNL     1     116.953 125.486 136.913  1.00  0.00     0.211 HD
ENDBRANCH   4  52
TORSDOF 16
ENDMDL
MODEL 7
REMARK VINA RESULT:    -6.642      1.781      6.799
REMARK INTER + INTRA:         -13.690
REMARK INTER:                 -10.375
REMARK INTRA:                  -3.314
REMARK UNBOUND:                -2.776
REMARK SMILES C[C@H]1O[C@H](OC[C@H]2O[C@@H](Oc3c(-c4ccc(O)c(O)c4)oc4cc(O)cc(O)c4c3=O)[C@@H](O)[C@H](O)[C@@H]2O)[C@@H](O)[C@H](O)[C@H]1O
REMARK SMILES IDX 7 1 36 2 34 3 32 4 9 5 8 6 6 7 5 8 4 9 1 10 2 11 42 12 3 13
REMARK SMILES IDX 40 14 38 15 43 16 41 18 39 20 37 22 35 24 10 26 11 27 12 28
REMARK SMILES IDX 30 29 21 30 29 31 31 32 22 33 27 34 23 35 26 36 24 37 13 38
REMARK SMILES IDX 20 39 14 40 18 41 15 42 16 43 19 44 17 46 28 48 25 50 33 52
REMARK H PARENT 43 17 41 19 39 21 37 23 35 25 19 45 17 47 28 49 25 51 33 53
REMARK Flexibility Score: inf
ROOT
ATOM      1  C   UNL     1     117.433 124.958 134.771  1.00  0.00     0.180 C 
ATOM      2  C   UNL     1     117.107 123.869 135.831  1.00  0.00     0.177 C 
ATOM      3  C   UNL     1     118.210 123.817 136.903  1.00  0.00     0.180 C 
ATOM      4  C   UNL     1     118.470 125.236 137.448  1.00  0.00     0.214 C 
ATOM      5  C   UNL     1     118.729 126.195 136.276  1.00  0.00     0.339 C 
ATOM      6  O   UNL     1     117.619 126.220 135.394  1.00  0.00    -0.332 OA
ENDROOT
BRANCH   1   7
ATOM      7  C   UNL     1     116.265 125.071 133.761  1.00  0.00     0.198 C 
BRANCH   7   8
ATOM      8  O   UNL     1     115.818 126.407 133.607  1.00  0.00    -0.347 OA
BRANCH   8   9
ATOM      9  C   UNL     1     115.370 126.664 132.278  1.00  0.00     0.281 C 
ATOM     10  C   UNL     1     113.898 130.023 132.628  1.00  0.00     0.041 C 
ATOM     11  C   UNL     1     114.986 128.947 132.731  1.00  0.00     0.150 C 
ATOM     12  C   UNL     1     116.316 129.351 132.020  1.00  0.00     0.174 C 
ATOM     13  O   UNL     1     114.438 127.738 132.223  1.00  0.00    -0.344 OA
ATOM     14  C   UNL     1     116.628 128.386 130.863  1.00  0.00     0.179 C 
ATOM     15  C   UNL     1     116.593 126.925 131.354  1.00  0.00     0.202 C 
BRANCH  12  16
ATOM     16  O   UNL     1     116.270 130.670 131.530  1.00  0.00    -0.388 OA
ATOM     17  H   UNL     1     116.050 131.263 132.295  1.00  0.00     0.211 HD
ENDBRANCH  12  16
BRANCH  14  18
ATOM     18  O   UNL     1     117.867 128.691 130.276  1.00  0.00    -0.387 OA
ATOM     19  H   UNL     1     117.764 129.540 129.775  1.00  0.00     0.211 HD
ENDBRANCH  14  18
BRANCH  15  20
ATOM     20  O   UNL     1     116.548 126.076 130.236  1.00  0.00    -0.385 OA
ATOM     21  H   UNL     1     117.448 125.665 130.145  1.00  0.00     0.211 HD
ENDBRANCH  15  20
ENDBRANCH   8   9
ENDBRANCH   7   8
ENDBRANCH   1   7
BRANCH   2  22
ATOM     22  O   UNL     1     116.994 122.613 135.207  1.00  0.00    -0.387 OA
ATOM     23  H   UNL     1     117.899 122.372 134.884  1.00  0.00     0.211 HD
ENDBRANCH   2  22
BRANCH   3  24
ATOM     24  O   UNL     1     119.386 123.281 136.345  1.00  0.00    -0.387 OA
ATOM     25  H   UNL     1     120.040 123.191 137.087  1.00  0.00     0.211 HD
ENDBRANCH   3  24
BRANCH   5  26
ATOM     26  O   UNL     1     118.930 127.509 136.797  1.00  0.00    -0.454 OA
BRANCH  26  27
ATOM     27  C   UNL     1     118.214 128.618 136.334  1.00  0.00     0.214 A 
ATOM     28  C   UNL     1     118.601 129.264 135.149  1.00  0.00     0.180 A 
ATOM     29  C   UNL     1     117.112 129.109 137.049  1.00  0.00     0.239 A 
ATOM     30  O   UNL     1     117.975 130.367 134.762  1.00  0.00    -0.452 OA
ATOM     31  C   UNL     1     116.446 130.273 136.599  1.00  0.00     0.111 A 
ATOM     32  O   UNL     1     116.753 128.498 138.089  1.00  0.00    -0.285 OA
ATOM     33  C   UNL     1     116.955 130.894 135.425  1.00  0.00     0.146 A 
ATOM     34  C   UNL     1     115.331 130.877 137.257  1.00  0.00     0.134 A 
ATOM     35  C   UNL     1     116.393 132.079 134.949  1.00  0.00     0.094 A 
ATOM     36  C   UNL     1     114.828 132.094 136.785  1.00  0.00     0.093 A 
ATOM     37  C   UNL     1     115.339 132.685 135.628  1.00  0.00     0.123 A 
BRANCH  28  38
ATOM     38  C   UNL     1     119.727 128.771 134.334  1.00  0.00     0.025 A 
ATOM     39  C   UNL     1     119.500 128.070 133.136  1.00  0.00     0.062 A 
ATOM     40  C   UNL     1     121.043 129.042 134.735  1.00  0.00     0.016 A 
ATOM     41  C   UNL     1     120.574 127.632 132.352  1.00  0.00     0.158 A 
ATOM     42  C   UNL     1     122.118 128.596 133.960  1.00  0.00     0.051 A 
ATOM     43  C   UNL     1     121.890 127.894 132.767  1.00  0.00     0.157 A 
BRANCH  41  44
ATOM     44  O   UNL     1     120.312 126.941 131.168  1.00  0.00    -0.504 OA
ATOM     45  H   UNL     1     120.433 127.371 130.258  1.00  0.00     0.293 HD
ENDBRANCH  41  44
BRANCH  43  46
ATOM     46  O   UNL     1     122.965 127.453 131.994  1.00  0.00    -0.504 OA
ATOM     47  H   UNL     1     123.693 126.869 132.385  1.00  0.00     0.293 HD
ENDBRANCH  43  46
ENDBRANCH  28  38
BRANCH  34  48
ATOM     48  O   UNL     1     114.682 130.329 138.368  1.00  0.00    -0.507 OA
ATOM     49  H   UNL     1     114.168 130.853 139.059  1.00  0.00     0.293 HD
ENDBRANCH  34  48
BRANCH  37  50
ATOM     50  O   UNL     1     114.792 133.863 135.131  1.00  0.00    -0.508 OA
ATOM     51  H   UNL     1     114.328 133.890 134.230  1.00  0.00     0.293 HD
ENDBRANCH  37  50
ENDBRANCH  26  27
ENDBRANCH   5  26
BRANCH   4  52
ATOM     52  O   UNL     1     117.367 125.693 138.192  1.00  0.00    -0.384 OA
ATOM     53  H   UNL     1     116.666 124.991 138.124  1.00  0.00     0.211 HD
ENDBRANCH   4  52
TORSDOF 16
ENDMDL
MODEL 8
REMARK VINA RESULT:    -6.635      1.815      6.363
REMARK INTER + INTRA:         -13.677
REMARK INTER:                 -11.363
REMARK INTRA:                  -2.314
REMARK UNBOUND:                -2.776
REMARK SMILES C[C@H]1O[C@H](OC[C@H]2O[C@@H](Oc3c(-c4ccc(O)c(O)c4)oc4cc(O)cc(O)c4c3=O)[C@@H](O)[C@H](O)[C@@H]2O)[C@@H](O)[C@H](O)[C@H]1O
REMARK SMILES IDX 7 1 36 2 34 3 32 4 9 5 8 6 6 7 5 8 4 9 1 10 2 11 42 12 3 13
REMARK SMILES IDX 40 14 38 15 43 16 41 18 39 20 37 22 35 24 10 26 11 27 12 28
REMARK SMILES IDX 30 29 21 30 29 31 31 32 22 33 27 34 23 35 26 36 24 37 13 38
REMARK SMILES IDX 20 39 14 40 18 41 15 42 16 43 19 44 17 46 28 48 25 50 33 52
REMARK H PARENT 43 17 41 19 39 21 37 23 35 25 19 45 17 47 28 49 25 51 33 53
REMARK Flexibility Score: inf
ROOT
ATOM      1  C   UNL     1     116.076 127.322 136.542  1.00  0.00     0.180 C 
ATOM      2  C   UNL     1     114.762 127.992 137.033  1.00  0.00     0.177 C 
ATOM      3  C   UNL     1     114.989 129.491 137.295  1.00  0.00     0.180 C 
ATOM      4  C   UNL     1     115.657 130.136 136.064  1.00  0.00     0.214 C 
ATOM      5  C   UNL     1     116.910 129.333 135.682  1.00  0.00     0.339 C 
ATOM      6  O   UNL     1     116.573 127.987 135.389  1.00  0.00    -0.332 OA
ENDROOT
BRANCH   1   7
ATOM      7  C   UNL     1     115.806 125.841 136.182  1.00  0.00     0.198 C 
BRANCH   7   8
ATOM      8  O   UNL     1     116.225 125.526 134.865  1.00  0.00    -0.347 OA
BRANCH   8   9
ATOM      9  C   UNL     1     116.420 124.124 134.694  1.00  0.00     0.281 C 
ATOM     10  C   UNL     1     119.863 124.007 133.390  1.00  0.00     0.041 C 
ATOM     11  C   UNL     1     118.743 124.375 134.371  1.00  0.00     0.150 C 
ATOM     12  C   UNL     1     119.035 123.915 135.834  1.00  0.00     0.174 C 
ATOM     13  O   UNL     1     117.534 123.833 133.857  1.00  0.00    -0.344 OA
ATOM     14  C   UNL     1     117.985 122.892 136.301  1.00  0.00     0.179 C 
ATOM     15  C   UNL     1     116.561 123.442 136.084  1.00  0.00     0.202 C 
BRANCH  12  16
ATOM     16  O   UNL     1     120.322 123.359 135.963  1.00  0.00    -0.388 OA
ATOM     17  H   UNL     1     120.957 123.975 135.515  1.00  0.00     0.211 HD
ENDBRANCH  12  16
BRANCH  14  18
ATOM     18  O   UNL     1     118.191 122.541 137.646  1.00  0.00    -0.387 OA
ATOM     19  H   UNL     1     117.327 122.648 138.122  1.00  0.00     0.211 HD
ENDBRANCH  14  18
BRANCH  15  20
ATOM     20  O   UNL     1     115.647 122.382 136.202  1.00  0.00    -0.385 OA
ATOM     21  H   UNL     1     114.737 122.781 136.223  1.00  0.00     0.211 HD
ENDBRANCH  15  20
ENDBRANCH   8   9
ENDBRANCH   7   8
ENDBRANCH   1   7
BRANCH   2  22
ATOM     22  O   UNL     1     114.320 127.366 138.213  1.00  0.00    -0.387 OA
ATOM     23  H   UNL     1     114.828 126.519 138.295  1.00  0.00     0.211 HD
ENDBRANCH   2  22
BRANCH   3  24
ATOM     24  O   UNL     1     115.797 129.654 138.437  1.00  0.00    -0.387 OA
ATOM     25  H   UNL     1     115.902 130.632 138.575  1.00  0.00     0.211 HD
ENDBRANCH   3  24
BRANCH   5  26
ATOM     26  O   UNL     1     117.494 129.922 134.520  1.00  0.00    -0.454 OA
BRANCH  26  27
ATOM     27  C   UNL     1     118.397 129.234 133.702  1.00  0.00     0.214 A 
ATOM     28  C   UNL     1     118.008 128.808 132.423  1.00  0.00     0.180 A 
ATOM     29  C   UNL     1     119.694 128.948 134.152  1.00  0.00     0.239 A 
ATOM     30  O   UNL     1     118.838 128.080 131.688  1.00  0.00    -0.452 OA
ATOM     31  C   UNL     1     120.568 128.191 133.336  1.00  0.00     0.111 A 
ATOM     32  O   UNL     1     120.042 129.369 135.286  1.00  0.00    -0.285 OA
ATOM     33  C   UNL     1     120.059 127.747 132.084  1.00  0.00     0.146 A 
ATOM     34  C   UNL     1     121.899 127.818 133.697  1.00  0.00     0.134 A 
ATOM     35  C   UNL     1     120.834 126.946 131.246  1.00  0.00     0.094 A 
ATOM     36  C   UNL     1     122.628 126.967 132.860  1.00  0.00     0.093 A 
ATOM     37  C   UNL     1     122.111 126.547 131.633  1.00  0.00     0.123 A 
BRANCH  28  38
ATOM     38  C   UNL     1     116.671 129.114 131.881  1.00  0.00     0.025 A 
ATOM     39  C   UNL     1     116.159 130.423 131.915  1.00  0.00     0.062 A 
ATOM     40  C   UNL     1     115.917 128.094 131.283  1.00  0.00     0.016 A 
ATOM     41  C   UNL     1     114.901 130.710 131.370  1.00  0.00     0.158 A 
ATOM     42  C   UNL     1     114.656 128.376 130.749  1.00  0.00     0.051 A 
ATOM     43  C   UNL     1     114.144 129.681 130.787  1.00  0.00     0.157 A 
BRANCH  41  44
ATOM     44  O   UNL     1     114.424 132.021 131.420  1.00  0.00    -0.504 OA
ATOM     45  H   UNL     1     115.016 132.798 131.693  1.00  0.00     0.293 HD
ENDBRANCH  41  44
BRANCH  43  46
ATOM     46  O   UNL     1     112.887 129.960 130.250  1.00  0.00    -0.504 OA
ATOM     47  H   UNL     1     112.778 130.276 129.295  1.00  0.00     0.293 HD
ENDBRANCH  43  46
ENDBRANCH  28  38
BRANCH  34  48
ATOM     48  O   UNL     1     122.550 128.253 134.856  1.00  0.00    -0.507 OA
ATOM     49  H   UNL     1     123.159 127.688 135.427  1.00  0.00     0.293 HD
ENDBRANCH  34  48
BRANCH  37  50
ATOM     50  O   UNL     1     122.868 125.752 130.778  1.00  0.00    -0.508 OA
ATOM     51  H   UNL     1     122.998 124.762 130.956  1.00  0.00     0.293 HD
ENDBRANCH  37  50
ENDBRANCH  26  27
ENDBRANCH   5  26
BRANCH   4  52
ATOM     52  O   UNL     1     114.769 130.165 134.973  1.00  0.00    -0.384 OA
ATOM     53  H   UNL     1     114.896 131.043 134.525  1.00  0.00     0.211 HD
ENDBRANCH   4  52
TORSDOF 16
ENDMDL
MODEL 9
REMARK VINA RESULT:    -6.436      2.048      5.387
REMARK INTER + INTRA:         -13.351
REMARK INTER:                 -11.319
REMARK INTRA:                  -2.032
REMARK UNBOUND:                -2.776
REMARK SMILES C[C@H]1O[C@H](OC[C@H]2O[C@@H](Oc3c(-c4ccc(O)c(O)c4)oc4cc(O)cc(O)c4c3=O)[C@@H](O)[C@H](O)[C@@H]2O)[C@@H](O)[C@H](O)[C@H]1O
REMARK SMILES IDX 7 1 36 2 34 3 32 4 9 5 8 6 6 7 5 8 4 9 1 10 2 11 42 12 3 13
REMARK SMILES IDX 40 14 38 15 43 16 41 18 39 20 37 22 35 24 10 26 11 27 12 28
REMARK SMILES IDX 30 29 21 30 29 31 31 32 22 33 27 34 23 35 26 36 24 37 13 38
REMARK SMILES IDX 20 39 14 40 18 41 15 42 16 43 19 44 17 46 28 48 25 50 33 52
REMARK H PARENT 43 17 41 19 39 21 37 23 35 25 19 45 17 47 28 49 25 51 33 53
REMARK Flexibility Score: inf
ROOT
ATOM      1  C   UNL     1     116.604 129.860 134.284  1.00  0.00     0.180 C 
ATOM      2  C   UNL     1     115.502 130.305 133.282  1.00  0.00     0.177 C 
ATOM      3  C   UNL     1     115.960 130.053 131.835  1.00  0.00     0.180 C 
ATOM      4  C   UNL     1     116.455 128.599 131.694  1.00  0.00     0.214 C 
ATOM      5  C   UNL     1     117.502 128.307 132.780  1.00  0.00     0.339 C 
ATOM      6  O   UNL     1     116.950 128.499 134.072  1.00  0.00    -0.332 OA
ENDROOT
BRANCH   1   7
ATOM      7  C   UNL     1     116.089 130.021 135.734  1.00  0.00     0.198 C 
BRANCH   7   8
ATOM      8  O   UNL     1     115.620 131.334 135.994  1.00  0.00    -0.347 OA
BRANCH   8   9
ATOM      9  C   UNL     1     116.672 132.194 136.425  1.00  0.00     0.281 C 
ATOM     10  C   UNL     1     115.616 135.425 135.006  1.00  0.00     0.041 C 
ATOM     11  C   UNL     1     115.477 134.137 135.827  1.00  0.00     0.150 C 
ATOM     12  C   UNL     1     115.084 134.400 137.314  1.00  0.00     0.174 C 
ATOM     13  O   UNL     1     116.696 133.419 135.700  1.00  0.00    -0.344 OA
ATOM     14  C   UNL     1     116.191 133.908 138.263  1.00  0.00     0.179 C 
ATOM     15  C   UNL     1     116.554 132.442 137.955  1.00  0.00     0.202 C 
BRANCH  12  16
ATOM     16  O   UNL     1     114.829 135.763 137.558  1.00  0.00    -0.388 OA
ATOM     17  H   UNL     1     115.530 136.284 137.087  1.00  0.00     0.211 HD
ENDBRANCH  12  16
BRANCH  14  18
ATOM     18  O   UNL     1     115.804 134.060 139.606  1.00  0.00    -0.387 OA
ATOM     19  H   UNL     1     116.613 134.300 140.127  1.00  0.00     0.211 HD
ENDBRANCH  14  18
BRANCH  15  20
ATOM     20  O   UNL     1     117.767 132.135 138.593  1.00  0.00    -0.385 OA
ATOM     21  H   UNL     1     117.624 132.262 139.568  1.00  0.00     0.211 HD
ENDBRANCH  15  20
ENDBRANCH   8   9
ENDBRANCH   7   8
ENDBRANCH   1   7
BRANCH   2  22
ATOM     22  O   UNL     1     115.220 131.672 133.458  1.00  0.00    -0.387 OA
ATOM     23  H   UNL     1     115.668 132.154 132.716  1.00  0.00     0.211 HD
ENDBRANCH   2  22
BRANCH   3  24
ATOM     24  O   UNL     1     116.985 130.958 131.499  1.00  0.00    -0.387 OA
ATOM     25  H   UNL     1     117.808 130.639 131.952  1.00  0.00     0.211 HD
ENDBRANCH   3  24
BRANCH   5  26
ATOM     26  O   UNL     1     117.921 126.948 132.658  1.00  0.00    -0.454 OA
BRANCH  26  27
ATOM     27  C   UNL     1     118.180 126.140 133.769  1.00  0.00     0.214 A 
ATOM     28  C   UNL     1     119.467 126.096 134.326  1.00  0.00     0.180 A 
ATOM     29  C   UNL     1     117.166 125.351 134.334  1.00  0.00     0.239 A 
ATOM     30  O   UNL     1     119.729 125.262 135.323  1.00  0.00    -0.452 OA
ATOM     31  C   UNL     1     117.467 124.489 135.414  1.00  0.00     0.111 A 
ATOM     32  O   UNL     1     116.007 125.428 133.848  1.00  0.00    -0.285 OA
ATOM     33  C   UNL     1     118.816 124.466 135.864  1.00  0.00     0.146 A 
ATOM     34  C   UNL     1     116.525 123.624 136.051  1.00  0.00     0.134 A 
ATOM     35  C   UNL     1     119.209 123.600 136.884  1.00  0.00     0.094 A 
ATOM     36  C   UNL     1     116.964 122.728 137.031  1.00  0.00     0.093 A 
ATOM     37  C   UNL     1     118.292 122.726 137.462  1.00  0.00     0.123 A 
BRANCH  28  38
ATOM     38  C   UNL     1     120.564 126.931 133.801  1.00  0.00     0.025 A 
ATOM     39  C   UNL     1     121.338 126.505 132.708  1.00  0.00     0.062 A 
ATOM     40  C   UNL     1     120.809 128.189 134.370  1.00  0.00     0.016 A 
ATOM     41  C   UNL     1     122.357 127.317 132.196  1.00  0.00     0.158 A 
ATOM     42  C   UNL     1     121.833 128.998 133.869  1.00  0.00     0.051 A 
ATOM     43  C   UNL     1     122.608 128.569 132.780  1.00  0.00     0.157 A 
BRANCH  41  44
ATOM     44  O   UNL     1     123.105 126.863 131.109  1.00  0.00    -0.504 OA
ATOM     45  H   UNL     1     123.861 126.196 131.219  1.00  0.00     0.293 HD
ENDBRANCH  41  44
BRANCH  43  46
ATOM     46  O   UNL     1     123.626 129.380 132.280  1.00  0.00    -0.504 OA
ATOM     47  H   UNL     1     123.751 129.521 131.285  1.00  0.00     0.293 HD
ENDBRANCH  43  46
ENDBRANCH  28  38
BRANCH  34  48
ATOM     48  O   UNL     1     115.157 123.606 135.764  1.00  0.00    -0.507 OA
ATOM     49  H   UNL     1     114.628 122.787 135.505  1.00  0.00     0.293 HD
ENDBRANCH  34  48
BRANCH  37  50
ATOM     50  O   UNL     1     118.707 121.875 138.482  1.00  0.00    -0.508 OA
ATOM     51  H   UNL     1     118.875 120.890 138.310  1.00  0.00     0.293 HD
ENDBRANCH  37  50
ENDBRANCH  26  27
ENDBRANCH   5  26
BRANCH   4  52
ATOM     52  O   UNL     1     115.385 127.694 131.820  1.00  0.00    -0.384 OA
ATOM     53  H   UNL     1     115.567 126.948 131.189  1.00  0.00     0.211 HD
ENDBRANCH   4  52
TORSDOF 16
ENDMDL
