MODEL 1
REMARK VINA RESULT:    -4.886      0.000      0.000
REMARK INTER + INTRA:          -5.749
REMARK INTER:                  -5.601
REMARK INTRA:                  -0.148
REMARK UNBOUND:                -0.148
REMARK SMILES O=C([O-])C=Cc1ccc(O)cc1
REMARK SMILES IDX 6 1 7 2 12 3 8 4 11 5 9 6 5 7 4 8 2 9 1 10 3 11 10 12
REMARK H PARENT 10 13
REMARK Flexibility Score: inf
ROOT
ATOM      1  C   UNL     1      27.932  10.322 -32.782  1.00  0.00    -0.025 A 
ATOM      2  C   UNL     1      28.592  11.563 -32.675  1.00  0.00     0.012 A 
ATOM      3  C   UNL     1      28.541   9.291 -33.517  1.00  0.00     0.012 A 
ATOM      4  C   UNL     1      29.820  11.768 -33.313  1.00  0.00     0.047 A 
ATOM      5  C   UNL     1      29.768   9.500 -34.154  1.00  0.00     0.047 A 
ATOM      6  C   UNL     1      30.409  10.738 -34.056  1.00  0.00     0.115 A 
ENDROOT
BRANCH   1   7
ATOM      7  C   UNL     1      26.635  10.047 -32.115  1.00  0.00     0.010 C 
ATOM      8  C   UNL     1      25.773   9.103 -32.523  1.00  0.00     0.025 C 
BRANCH   8   9
ATOM      9  C   UNL     1      24.499   8.850 -31.828  1.00  0.00     0.064 C 
ATOM     10  O   UNL     1      23.433   9.411 -32.196  1.00  0.00    -0.545 OA
ATOM     11  O   UNL     1      24.472   7.978 -30.748  1.00  0.00    -0.545 OA
ENDBRANCH   8   9
ENDBRANCH   1   7
BRANCH   6  12
ATOM     12  O   UNL     1      31.631  10.933 -34.697  1.00  0.00    -0.508 OA
ATOM     13  H   UNL     1      31.856  10.460 -35.564  1.00  0.00     0.293 HD
ENDBRANCH   6  12
TORSDOF 3
ENDMDL
MODEL 2
REMARK VINA RESULT:    -4.839      0.106      1.402
REMARK INTER + INTRA:          -5.694
REMARK INTER:                  -5.556
REMARK INTRA:                  -0.138
REMARK UNBOUND:                -0.148
REMARK SMILES O=C([O-])C=Cc1ccc(O)cc1
REMARK SMILES IDX 6 1 7 2 12 3 8 4 11 5 9 6 5 7 4 8 2 9 1 10 3 11 10 12
REMARK H PARENT 10 13
REMARK Flexibility Score: inf
ROOT
ATOM      1  C   UNL     1      27.868  10.239 -32.792  1.00  0.00    -0.025 A 
ATOM      2  C   UNL     1      28.498   9.241 -33.564  1.00  0.00     0.012 A 
ATOM      3  C   UNL     1      28.498  11.488 -32.655  1.00  0.00     0.012 A 
ATOM      4  C   UNL     1      29.739   9.486 -34.162  1.00  0.00     0.047 A 
ATOM      5  C   UNL     1      29.739  11.729 -33.253  1.00  0.00     0.047 A 
ATOM      6  C   UNL     1      30.363  10.730 -34.004  1.00  0.00     0.115 A 
ENDROOT
BRANCH   1   7
ATOM      7  C   UNL     1      26.547  10.036 -32.148  1.00  0.00     0.010 C 
ATOM      8  C   UNL     1      25.703   9.047 -32.476  1.00  0.00     0.025 C 
BRANCH   8   9
ATOM      9  C   UNL     1      24.403   8.869 -31.806  1.00  0.00     0.064 C 
ATOM     10  O   UNL     1      23.383   9.506 -32.181  1.00  0.00    -0.545 OA
ATOM     11  O   UNL     1      24.300   7.983 -30.742  1.00  0.00    -0.545 OA
ENDBRANCH   8   9
ENDBRANCH   1   7
BRANCH   6  12
ATOM     12  O   UNL     1      31.600  10.984 -34.593  1.00  0.00    -0.508 OA
ATOM     13  H   UNL     1      32.299  10.257 -34.692  1.00  0.00     0.293 HD
ENDBRANCH   6  12
TORSDOF 3
ENDMDL
MODEL 3
REMARK VINA RESULT:    -4.450      1.004      2.022
REMARK INTER + INTRA:          -5.249
REMARK INTER:                  -5.114
REMARK INTRA:                  -0.135
REMARK UNBOUND:                -0.148
REMARK SMILES O=C([O-])C=Cc1ccc(O)cc1
REMARK SMILES IDX 6 1 7 2 12 3 8 4 11 5 9 6 5 7 4 8 2 9 1 10 3 11 10 12
REMARK H PARENT 10 13
REMARK Flexibility Score: inf
ROOT
ATOM      1  C   UNL     1      26.954  10.283 -32.574  1.00  0.00    -0.025 A 
ATOM      2  C   UNL     1      27.821   9.560 -33.419  1.00  0.00     0.012 A 
ATOM      3  C   UNL     1      27.391  11.509 -32.045  1.00  0.00     0.012 A 
ATOM      4  C   UNL     1      29.101  10.046 -33.702  1.00  0.00     0.047 A 
ATOM      5  C   UNL     1      28.672  11.991 -32.330  1.00  0.00     0.047 A 
ATOM      6  C   UNL     1      29.530  11.262 -33.155  1.00  0.00     0.115 A 
ENDROOT
BRANCH   1   7
ATOM      7  C   UNL     1      25.582   9.819 -32.252  1.00  0.00     0.010 C 
ATOM      8  C   UNL     1      25.264   8.536 -32.024  1.00  0.00     0.025 C 
BRANCH   8   9
ATOM      9  C   UNL     1      23.892   8.114 -31.695  1.00  0.00     0.064 C 
ATOM     10  O   UNL     1      23.646   7.443 -30.657  1.00  0.00    -0.545 OA
ATOM     11  O   UNL     1      22.849   8.461 -32.543  1.00  0.00    -0.545 OA
ENDBRANCH   8   9
ENDBRANCH   1   7
BRANCH   6  12
ATOM     12  O   UNL     1      30.805  11.755 -33.430  1.00  0.00    -0.508 OA
ATOM     13  H   UNL     1      31.091  12.680 -33.130  1.00  0.00     0.293 HD
ENDBRANCH   6  12
TORSDOF 3
ENDMDL
MODEL 4
REMARK VINA RESULT:    -4.445      1.445      5.853
REMARK INTER + INTRA:          -5.242
REMARK INTER:                  -5.106
REMARK INTRA:                  -0.136
REMARK UNBOUND:                -0.148
REMARK SMILES O=C([O-])C=Cc1ccc(O)cc1
REMARK SMILES IDX 6 1 7 2 12 3 8 4 11 5 9 6 5 7 4 8 2 9 1 10 3 11 10 12
REMARK H PARENT 10 13
REMARK Flexibility Score: inf
ROOT
ATOM      1  C   UNL     1      26.626   9.742 -31.696  1.00  0.00    -0.025 A 
ATOM      2  C   UNL     1      26.748   8.665 -30.795  1.00  0.00     0.012 A 
ATOM      3  C   UNL     1      25.386   9.969 -32.317  1.00  0.00     0.012 A 
ATOM      4  C   UNL     1      25.658   7.823 -30.546  1.00  0.00     0.047 A 
ATOM      5  C   UNL     1      24.300   9.125 -32.066  1.00  0.00     0.047 A 
ATOM      6  C   UNL     1      24.433   8.050 -31.184  1.00  0.00     0.115 A 
ENDROOT
BRANCH   1   7
ATOM      7  C   UNL     1      27.746  10.672 -31.986  1.00  0.00     0.010 C 
ATOM      8  C   UNL     1      28.582  10.529 -33.024  1.00  0.00     0.025 C 
BRANCH   8   9
ATOM      9  C   UNL     1      29.676  11.480 -33.288  1.00  0.00     0.064 C 
ATOM     10  O   UNL     1      29.721  12.599 -32.712  1.00  0.00    -0.545 OA
ATOM     11  O   UNL     1      30.677  11.136 -34.186  1.00  0.00    -0.545 OA
ENDBRANCH   8   9
ENDBRANCH   1   7
BRANCH   6  12
ATOM     12  O   UNL     1      23.342   7.218 -30.945  1.00  0.00    -0.508 OA
ATOM     13  H   UNL     1      23.461   6.231 -30.748  1.00  0.00     0.293 HD
ENDBRANCH   6  12
TORSDOF 3
ENDMDL
MODEL 5
REMARK VINA RESULT:    -4.412     10.891     11.646
REMARK INTER + INTRA:          -5.205
REMARK INTER:                  -5.054
REMARK INTRA:                  -0.150
REMARK UNBOUND:                -0.148
REMARK SMILES O=C([O-])C=Cc1ccc(O)cc1
REMARK SMILES IDX 6 1 7 2 12 3 8 4 11 5 9 6 5 7 4 8 2 9 1 10 3 11 10 12
REMARK H PARENT 10 13
REMARK Flexibility Score: inf
ROOT
ATOM      1  C   UNL     1      31.123   6.379 -23.081  1.00  0.00    -0.025 A 
ATOM      2  C   UNL     1      32.289   7.149 -22.891  1.00  0.00     0.012 A 
ATOM      3  C   UNL     1      30.146   6.370 -22.072  1.00  0.00     0.012 A 
ATOM      4  C   UNL     1      32.476   7.870 -21.707  1.00  0.00     0.047 A 
ATOM      5  C   UNL     1      30.336   7.092 -20.889  1.00  0.00     0.047 A 
ATOM      6  C   UNL     1      31.501   7.840 -20.703  1.00  0.00     0.115 A 
ENDROOT
BRANCH   1   7
ATOM      7  C   UNL     1      30.869   5.606 -24.322  1.00  0.00     0.010 C 
ATOM      8  C   UNL     1      29.983   4.602 -24.406  1.00  0.00     0.025 C 
BRANCH   8   9
ATOM      9  C   UNL     1      29.749   3.865 -25.659  1.00  0.00     0.064 C 
ATOM     10  O   UNL     1      29.556   2.620 -25.658  1.00  0.00    -0.545 OA
ATOM     11  O   UNL     1      29.742   4.553 -26.865  1.00  0.00    -0.545 OA
ENDBRANCH   8   9
ENDBRANCH   1   7
BRANCH   6  12
ATOM     12  O   UNL     1      31.678   8.554 -19.519  1.00  0.00    -0.508 OA
ATOM     13  H   UNL     1      32.012   9.511 -19.522  1.00  0.00     0.293 HD
ENDBRANCH   6  12
TORSDOF 3
ENDMDL
MODEL 6
REMARK VINA RESULT:    -4.263     12.780     13.934
REMARK INTER + INTRA:          -5.035
REMARK INTER:                  -4.900
REMARK INTRA:                  -0.134
REMARK UNBOUND:                -0.148
REMARK SMILES O=C([O-])C=Cc1ccc(O)cc1
REMARK SMILES IDX 6 1 7 2 12 3 8 4 11 5 9 6 5 7 4 8 2 9 1 10 3 11 10 12
REMARK H PARENT 10 13
REMARK Flexibility Score: inf
ROOT
ATOM      1  C   UNL     1      34.338   7.159 -22.709  1.00  0.00    -0.025 A 
ATOM      2  C   UNL     1      34.240   7.831 -21.473  1.00  0.00     0.012 A 
ATOM      3  C   UNL     1      33.168   6.939 -23.455  1.00  0.00     0.012 A 
ATOM      4  C   UNL     1      32.994   8.246 -20.990  1.00  0.00     0.047 A 
ATOM      5  C   UNL     1      31.925   7.355 -22.969  1.00  0.00     0.047 A 
ATOM      6  C   UNL     1      31.833   8.006 -21.736  1.00  0.00     0.115 A 
ENDROOT
BRANCH   1   7
ATOM      7  C   UNL     1      35.635   6.709 -23.272  1.00  0.00     0.010 C 
ATOM      8  C   UNL     1      36.470   5.870 -22.641  1.00  0.00     0.025 C 
BRANCH   8   9
ATOM      9  C   UNL     1      37.745   5.436 -23.238  1.00  0.00     0.064 C 
ATOM     10  O   UNL     1      38.489   6.247 -23.850  1.00  0.00    -0.545 OA
ATOM     11  O   UNL     1      38.134   4.108 -23.123  1.00  0.00    -0.545 OA
ENDBRANCH   8   9
ENDBRANCH   1   7
BRANCH   6  12
ATOM     12  O   UNL     1      30.588   8.414 -21.264  1.00  0.00    -0.508 OA
ATOM     13  H   UNL     1      30.380   8.443 -20.273  1.00  0.00     0.293 HD
ENDBRANCH   6  12
TORSDOF 3
ENDMDL
MODEL 7
REMARK VINA RESULT:    -4.143     11.110     11.604
REMARK INTER + INTRA:          -4.896
REMARK INTER:                  -4.757
REMARK INTRA:                  -0.139
REMARK UNBOUND:                -0.148
REMARK SMILES O=C([O-])C=Cc1ccc(O)cc1
REMARK SMILES IDX 6 1 7 2 12 3 8 4 11 5 9 6 5 7 4 8 2 9 1 10 3 11 10 12
REMARK H PARENT 10 13
REMARK Flexibility Score: inf
ROOT
ATOM      1  C   UNL     1      32.354   6.948 -23.108  1.00  0.00    -0.025 A 
ATOM      2  C   UNL     1      33.753   6.876 -22.942  1.00  0.00     0.012 A 
ATOM      3  C   UNL     1      31.602   7.706 -22.195  1.00  0.00     0.012 A 
ATOM      4  C   UNL     1      34.373   7.531 -21.872  1.00  0.00     0.047 A 
ATOM      5  C   UNL     1      32.225   8.358 -21.127  1.00  0.00     0.047 A 
ATOM      6  C   UNL     1      33.609   8.270 -20.960  1.00  0.00     0.115 A 
ENDROOT
BRANCH   1   7
ATOM      7  C   UNL     1      31.649   6.284 -24.231  1.00  0.00     0.010 C 
ATOM      8  C   UNL     1      31.982   6.447 -25.520  1.00  0.00     0.025 C 
BRANCH   8   9
ATOM      9  C   UNL     1      31.265   5.762 -26.609  1.00  0.00     0.064 C 
ATOM     10  O   UNL     1      30.411   4.868 -26.368  1.00  0.00    -0.545 OA
ATOM     11  O   UNL     1      31.535   6.107 -27.927  1.00  0.00    -0.545 OA
ENDBRANCH   8   9
ENDBRANCH   1   7
BRANCH   6  12
ATOM     12  O   UNL     1      34.217   8.924 -19.890  1.00  0.00    -0.508 OA
ATOM     13  H   UNL     1      35.208   8.828 -19.705  1.00  0.00     0.293 HD
ENDBRANCH   6  12
TORSDOF 3
ENDMDL
MODEL 8
REMARK VINA RESULT:    -4.125     12.828     14.051
REMARK INTER + INTRA:          -4.877
REMARK INTER:                  -4.741
REMARK INTRA:                  -0.136
REMARK UNBOUND:                -0.148
REMARK SMILES O=C([O-])C=Cc1ccc(O)cc1
REMARK SMILES IDX 6 1 7 2 12 3 8 4 11 5 9 6 5 7 4 8 2 9 1 10 3 11 10 12
REMARK H PARENT 10 13
REMARK Flexibility Score: inf
ROOT
ATOM      1  C   UNL     1      26.261  -3.454 -33.637  1.00  0.00    -0.025 A 
ATOM      2  C   UNL     1      26.693  -3.736 -34.949  1.00  0.00     0.012 A 
ATOM      3  C   UNL     1      25.861  -2.144 -33.323  1.00  0.00     0.012 A 
ATOM      4  C   UNL     1      26.744  -2.721 -35.911  1.00  0.00     0.047 A 
ATOM      5  C   UNL     1      25.913  -1.133 -34.287  1.00  0.00     0.047 A 
ATOM      6  C   UNL     1      26.357  -1.417 -35.580  1.00  0.00     0.115 A 
ENDROOT
BRANCH   1   7
ATOM      7  C   UNL     1      26.176  -4.494 -32.583  1.00  0.00     0.010 C 
ATOM      8  C   UNL     1      27.220  -4.886 -31.837  1.00  0.00     0.025 C 
BRANCH   8   9
ATOM      9  C   UNL     1      27.095  -5.915 -30.791  1.00  0.00     0.064 C 
ATOM     10  O   UNL     1      25.967  -6.341 -30.425  1.00  0.00    -0.545 OA
ATOM     11  O   UNL     1      28.241  -6.426 -30.196  1.00  0.00    -0.545 OA
ENDBRANCH   8   9
ENDBRANCH   1   7
BRANCH   6  12
ATOM     12  O   UNL     1      26.405  -0.398 -36.530  1.00  0.00    -0.508 OA
ATOM     13  H   UNL     1      27.270  -0.150 -36.997  1.00  0.00     0.293 HD
ENDBRANCH   6  12
TORSDOF 3
ENDMDL
MODEL 9
REMARK VINA RESULT:    -4.055     13.088     14.328
REMARK INTER + INTRA:          -4.796
REMARK INTER:                  -4.645
REMARK INTRA:                  -0.151
REMARK UNBOUND:                -0.148
REMARK SMILES O=C([O-])C=Cc1ccc(O)cc1
REMARK SMILES IDX 6 1 7 2 12 3 8 4 11 5 9 6 5 7 4 8 2 9 1 10 3 11 10 12
REMARK H PARENT 10 13
REMARK Flexibility Score: inf
ROOT
ATOM      1  C   UNL     1      33.106   7.093 -21.403  1.00  0.00    -0.025 A 
ATOM      2  C   UNL     1      32.182   8.158 -21.442  1.00  0.00     0.012 A 
ATOM      3  C   UNL     1      32.628   5.790 -21.187  1.00  0.00     0.012 A 
ATOM      4  C   UNL     1      30.818   7.919 -21.246  1.00  0.00     0.047 A 
ATOM      5  C   UNL     1      31.263   5.555 -20.990  1.00  0.00     0.047 A 
ATOM      6  C   UNL     1      30.356   6.617 -21.016  1.00  0.00     0.115 A 
ENDROOT
BRANCH   1   7
ATOM      7  C   UNL     1      34.561   7.289 -21.618  1.00  0.00     0.010 C 
ATOM      8  C   UNL     1      35.424   6.285 -21.830  1.00  0.00     0.025 C 
BRANCH   8   9
ATOM      9  C   UNL     1      36.861   6.519 -22.052  1.00  0.00     0.064 C 
ATOM     10  O   UNL     1      37.614   6.894 -21.113  1.00  0.00    -0.545 OA
ATOM     11  O   UNL     1      37.397   6.324 -23.318  1.00  0.00    -0.545 OA
ENDBRANCH   8   9
ENDBRANCH   1   7
BRANCH   6  12
ATOM     12  O   UNL     1      29.000   6.369 -20.817  1.00  0.00    -0.508 OA
ATOM     13  H   UNL     1      28.551   5.544 -21.198  1.00  0.00     0.293 HD
ENDBRANCH   6  12
TORSDOF 3
ENDMDL
