MODEL 1
REMARK VINA RESULT:    -4.647      0.000      0.000
REMARK INTER + INTRA:          -6.420
REMARK INTER:                  -6.277
REMARK INTRA:                  -0.143
REMARK UNBOUND:                -0.143
REMARK SMILES [NH3+]CCCC[C@H]([NH3+])C(=O)[O-]
REMARK SMILES IDX 4 1 3 2 2 3 1 4 5 8 6 9 7 10 8 14 9 15 10 16
REMARK H PARENT 1 5 1 6 1 7 7 11 7 12 7 13
REMARK Flexibility Score: inf
ROOT
ATOM      1  C   UNL     1     117.219 -50.455  27.870  1.00  0.00     0.012 C 
ENDROOT
BRANCH   1   2
ATOM      2  C   UNL     1     115.854 -50.053  28.449  1.00  0.00     0.061 C 
BRANCH   2   3
ATOM      3  C   UNL     1     114.680 -50.522  27.573  1.00  0.00     0.258 C 
BRANCH   3   4
ATOM      4  N   UNL     1     113.465 -50.755  28.355  1.00  0.00    -0.358 N 
ATOM      5  H   UNL     1     113.185 -51.760  28.304  1.00  0.00     0.344 HD
ATOM      6  H   UNL     1     113.612 -50.474  29.352  1.00  0.00     0.344 HD
ATOM      7  H   UNL     1     112.689 -50.178  27.956  1.00  0.00     0.344 HD
ENDBRANCH   3   4
ENDBRANCH   2   3
ENDBRANCH   1   2
BRANCH   1   8
ATOM      8  C   UNL     1     118.365 -49.857  28.700  1.00  0.00     0.072 C 
BRANCH   8   9
ATOM      9  C   UNL     1     118.690 -48.399  28.305  1.00  0.00     0.227 C 
BRANCH   9  10
ATOM     10  N   UNL     1     120.062 -48.264  27.796  1.00  0.00    -0.350 N 
ATOM     11  H   UNL     1     120.332 -47.256  27.714  1.00  0.00     0.345 HD
ATOM     12  H   UNL     1     120.733 -48.751  28.432  1.00  0.00     0.345 HD
ATOM     13  H   UNL     1     120.138 -48.715  26.855  1.00  0.00     0.345 HD
ENDBRANCH   9  10
BRANCH   9  14
ATOM     14  C   UNL     1     118.488 -47.496  29.493  1.00  0.00     0.099 C 
ATOM     15  O   UNL     1     118.315 -47.982  30.643  1.00  0.00    -0.544 OA
ATOM     16  O   UNL     1     118.469 -46.117  29.322  1.00  0.00    -0.544 OA
ENDBRANCH   9  14
ENDBRANCH   8   9
ENDBRANCH   1   8
TORSDOF 7
ENDMDL
MODEL 2
REMARK VINA RESULT:    -4.424      2.727      4.833
REMARK INTER + INTRA:          -6.119
REMARK INTER:                  -6.031
REMARK INTRA:                  -0.088
REMARK UNBOUND:                -0.143
REMARK SMILES [NH3+]CCCC[C@H]([NH3+])C(=O)[O-]
REMARK SMILES IDX 4 1 3 2 2 3 1 4 5 8 6 9 7 10 8 14 9 15 10 16
REMARK H PARENT 1 5 1 6 1 7 7 11 7 12 7 13
REMARK Flexibility Score: inf
ROOT
ATOM      1  C   UNL     1     116.883 -50.139  28.282  1.00  0.00     0.012 C 
ENDROOT
BRANCH   1   2
ATOM      2  C   UNL     1     118.351 -49.959  28.695  1.00  0.00     0.061 C 
BRANCH   2   3
ATOM      3  C   UNL     1     118.818 -48.497  28.595  1.00  0.00     0.258 C 
BRANCH   3   4
ATOM      4  N   UNL     1     119.913 -48.330  27.637  1.00  0.00    -0.358 N 
ATOM      5  H   UNL     1     120.818 -48.192  28.140  1.00  0.00     0.344 HD
ATOM      6  H   UNL     1     119.976 -49.162  27.006  1.00  0.00     0.344 HD
ATOM      7  H   UNL     1     119.728 -47.482  27.055  1.00  0.00     0.344 HD
ENDBRANCH   3   4
ENDBRANCH   2   3
ENDBRANCH   1   2
BRANCH   1   8
ATOM      8  C   UNL     1     115.959 -49.264  29.143  1.00  0.00     0.072 C 
BRANCH   8   9
ATOM      9  C   UNL     1     114.493 -49.755  29.134  1.00  0.00     0.227 C 
BRANCH   9  10
ATOM     10  N   UNL     1     114.315 -50.924  28.261  1.00  0.00    -0.350 N 
ATOM     11  H   UNL     1     114.966 -50.882  27.443  1.00  0.00     0.345 HD
ATOM     12  H   UNL     1     114.490 -51.804  28.797  1.00  0.00     0.345 HD
ATOM     13  H   UNL     1     113.330 -50.961  27.911  1.00  0.00     0.345 HD
ENDBRANCH   9  10
BRANCH   9  14
ATOM     14  C   UNL     1     113.587 -48.637  28.692  1.00  0.00     0.099 C 
ATOM     15  O   UNL     1     112.660 -48.853  27.867  1.00  0.00    -0.544 OA
ATOM     16  O   UNL     1     113.785 -47.350  29.179  1.00  0.00    -0.544 OA
ENDBRANCH   9  14
ENDBRANCH   8   9
ENDBRANCH   1   8
TORSDOF 7
ENDMDL
MODEL 3
REMARK VINA RESULT:    -4.327      1.433      1.645
REMARK INTER + INTRA:          -5.988
REMARK INTER:                  -5.544
REMARK INTRA:                  -0.444
REMARK UNBOUND:                -0.143
REMARK SMILES [NH3+]CCCC[C@H]([NH3+])C(=O)[O-]
REMARK SMILES IDX 4 1 3 2 2 3 1 4 5 8 6 9 7 10 8 14 9 15 10 16
REMARK H PARENT 1 5 1 6 1 7 7 11 7 12 7 13
REMARK Flexibility Score: inf
ROOT
ATOM      1  C   UNL     1     117.664 -50.421  27.950  1.00  0.00     0.012 C 
ENDROOT
BRANCH   1   2
ATOM      2  C   UNL     1     116.192 -50.106  28.256  1.00  0.00     0.061 C 
BRANCH   2   3
ATOM      3  C   UNL     1     115.988 -49.565  29.682  1.00  0.00     0.258 C 
BRANCH   3   4
ATOM      4  N   UNL     1     115.432 -48.211  29.685  1.00  0.00    -0.358 N 
ATOM      5  H   UNL     1     114.650 -48.136  28.996  1.00  0.00     0.344 HD
ATOM      6  H   UNL     1     115.091 -47.958  30.642  1.00  0.00     0.344 HD
ATOM      7  H   UNL     1     116.180 -47.536  29.408  1.00  0.00     0.344 HD
ENDBRANCH   3   4
ENDBRANCH   2   3
ENDBRANCH   1   2
BRANCH   1   8
ATOM      8  C   UNL     1     118.598 -49.447  28.684  1.00  0.00     0.072 C 
BRANCH   8   9
ATOM      9  C   UNL     1     118.831 -48.137  27.898  1.00  0.00     0.227 C 
BRANCH   9  10
ATOM     10  N   UNL     1     120.002 -48.232  27.014  1.00  0.00    -0.350 N 
ATOM     11  H   UNL     1     120.834 -47.768  27.446  1.00  0.00     0.345 HD
ATOM     12  H   UNL     1     120.227 -49.234  26.820  1.00  0.00     0.345 HD
ATOM     13  H   UNL     1     119.794 -47.774  26.097  1.00  0.00     0.345 HD
ENDBRANCH   9  10
BRANCH   9  14
ATOM     14  C   UNL     1     119.001 -46.992  28.860  1.00  0.00     0.099 C 
ATOM     15  O   UNL     1     118.110 -46.737  29.714  1.00  0.00    -0.544 OA
ATOM     16  O   UNL     1     120.137 -46.194  28.797  1.00  0.00    -0.544 OA
ENDBRANCH   9  14
ENDBRANCH   8   9
ENDBRANCH   1   8
TORSDOF 7
ENDMDL
MODEL 4
REMARK VINA RESULT:    -4.228      1.950      2.168
REMARK INTER + INTRA:          -5.854
REMARK INTER:                  -5.714
REMARK INTRA:                  -0.139
REMARK UNBOUND:                -0.143
REMARK SMILES [NH3+]CCCC[C@H]([NH3+])C(=O)[O-]
REMARK SMILES IDX 4 1 3 2 2 3 1 4 5 8 6 9 7 10 8 14 9 15 10 16
REMARK H PARENT 1 5 1 6 1 7 7 11 7 12 7 13
REMARK Flexibility Score: inf
ROOT
ATOM      1  C   UNL     1     117.707 -49.999  28.790  1.00  0.00     0.012 C 
ENDROOT
BRANCH   1   2
ATOM      2  C   UNL     1     116.497 -50.460  27.965  1.00  0.00     0.061 C 
BRANCH   2   3
ATOM      3  C   UNL     1     116.876 -51.488  26.885  1.00  0.00     0.258 C 
BRANCH   3   4
ATOM      4  N   UNL     1     118.223 -52.027  27.083  1.00  0.00    -0.358 N 
ATOM      5  H   UNL     1     118.516 -52.590  26.252  1.00  0.00     0.344 HD
ATOM      6  H   UNL     1     118.906 -51.253  27.251  1.00  0.00     0.344 HD
ATOM      7  H   UNL     1     118.217 -52.655  27.919  1.00  0.00     0.344 HD
ENDBRANCH   3   4
ENDBRANCH   2   3
ENDBRANCH   1   2
BRANCH   1   8
ATOM      8  C   UNL     1     117.615 -48.499  29.110  1.00  0.00     0.072 C 
BRANCH   8   9
ATOM      9  C   UNL     1     118.676 -47.663  28.360  1.00  0.00     0.227 C 
BRANCH   9  10
ATOM     10  N   UNL     1     119.831 -48.478  27.961  1.00  0.00    -0.350 N 
ATOM     11  H   UNL     1     120.348 -48.830  28.800  1.00  0.00     0.345 HD
ATOM     12  H   UNL     1     119.517 -49.291  27.383  1.00  0.00     0.345 HD
ATOM     13  H   UNL     1     120.483 -47.909  27.373  1.00  0.00     0.345 HD
ENDBRANCH   9  10
BRANCH   9  14
ATOM     14  C   UNL     1     119.125 -46.518  29.229  1.00  0.00     0.099 C 
ATOM     15  O   UNL     1     118.334 -45.998  30.060  1.00  0.00    -0.544 OA
ATOM     16  O   UNL     1     120.414 -46.015  29.102  1.00  0.00    -0.544 OA
ENDBRANCH   9  14
ENDBRANCH   8   9
ENDBRANCH   1   8
TORSDOF 7
ENDMDL
MODEL 5
REMARK VINA RESULT:    -4.086      3.001      4.699
REMARK INTER + INTRA:          -5.662
REMARK INTER:                  -5.528
REMARK INTRA:                  -0.134
REMARK UNBOUND:                -0.143
REMARK SMILES [NH3+]CCCC[C@H]([NH3+])C(=O)[O-]
REMARK SMILES IDX 4 1 3 2 2 3 1 4 5 8 6 9 7 10 8 14 9 15 10 16
REMARK H PARENT 1 5 1 6 1 7 7 11 7 12 7 13
REMARK Flexibility Score: inf
ROOT
ATOM      1  C   UNL     1     114.769 -50.680  27.968  1.00  0.00     0.012 C 
ENDROOT
BRANCH   1   2
ATOM      2  C   UNL     1     116.046 -50.918  27.148  1.00  0.00     0.061 C 
BRANCH   2   3
ATOM      3  C   UNL     1     117.242 -50.101  27.667  1.00  0.00     0.258 C 
BRANCH   3   4
ATOM      4  N   UNL     1     118.383 -50.950  28.014  1.00  0.00    -0.358 N 
ATOM      5  H   UNL     1     118.270 -51.337  28.977  1.00  0.00     0.344 HD
ATOM      6  H   UNL     1     118.482 -51.730  27.323  1.00  0.00     0.344 HD
ATOM      7  H   UNL     1     119.254 -50.372  27.992  1.00  0.00     0.344 HD
ENDBRANCH   3   4
ENDBRANCH   2   3
ENDBRANCH   1   2
BRANCH   1   8
ATOM      8  C   UNL     1     115.061 -49.806  29.197  1.00  0.00     0.072 C 
BRANCH   8   9
ATOM      9  C   UNL     1     113.774 -49.288  29.879  1.00  0.00     0.227 C 
BRANCH   9  10
ATOM     10  N   UNL     1     112.614 -50.137  29.573  1.00  0.00    -0.350 N 
ATOM     11  H   UNL     1     112.108 -49.786  28.727  1.00  0.00     0.345 HD
ATOM     12  H   UNL     1     112.922 -51.122  29.407  1.00  0.00     0.345 HD
ATOM     13  H   UNL     1     111.955 -50.147  30.385  1.00  0.00     0.345 HD
ENDBRANCH   9  10
BRANCH   9  14
ATOM     14  C   UNL     1     113.507 -47.871  29.445  1.00  0.00     0.099 C 
ATOM     15  O   UNL     1     113.554 -46.928  30.278  1.00  0.00    -0.544 OA
ATOM     16  O   UNL     1     113.185 -47.600  28.120  1.00  0.00    -0.544 OA
ENDBRANCH   9  14
ENDBRANCH   8   9
ENDBRANCH   1   8
TORSDOF 7
ENDMDL
MODEL 6
REMARK VINA RESULT:    -4.083      2.745      5.009
REMARK INTER + INTRA:          -5.658
REMARK INTER:                  -5.504
REMARK INTRA:                  -0.154
REMARK UNBOUND:                -0.143
REMARK SMILES [NH3+]CCCC[C@H]([NH3+])C(=O)[O-]
REMARK SMILES IDX 4 1 3 2 2 3 1 4 5 8 6 9 7 10 8 14 9 15 10 16
REMARK H PARENT 1 5 1 6 1 7 7 11 7 12 7 13
REMARK Flexibility Score: inf
ROOT
ATOM      1  C   UNL     1     117.670 -48.621  29.360  1.00  0.00     0.012 C 
ENDROOT
BRANCH   1   2
ATOM      2  C   UNL     1     118.832 -48.972  28.420  1.00  0.00     0.061 C 
BRANCH   2   3
ATOM      3  C   UNL     1     119.264 -47.783  27.545  1.00  0.00     0.258 C 
BRANCH   3   4
ATOM      4  N   UNL     1     119.798 -46.676  28.341  1.00  0.00    -0.358 N 
ATOM      5  H   UNL     1     120.570 -46.196  27.826  1.00  0.00     0.344 HD
ATOM      6  H   UNL     1     119.040 -45.992  28.569  1.00  0.00     0.344 HD
ATOM      7  H   UNL     1     120.185 -47.056  29.235  1.00  0.00     0.344 HD
ENDBRANCH   3   4
ENDBRANCH   2   3
ENDBRANCH   1   2
BRANCH   1   8
ATOM      8  C   UNL     1     116.775 -49.845  29.610  1.00  0.00     0.072 C 
BRANCH   8   9
ATOM      9  C   UNL     1     115.315 -49.619  29.157  1.00  0.00     0.227 C 
BRANCH   9  10
ATOM     10  N   UNL     1     114.352 -50.129  30.143  1.00  0.00    -0.350 N 
ATOM     11  H   UNL     1     113.634 -50.735  29.684  1.00  0.00     0.345 HD
ATOM     12  H   UNL     1     114.848 -50.680  30.880  1.00  0.00     0.345 HD
ATOM     13  H   UNL     1     113.872 -49.331  30.618  1.00  0.00     0.345 HD
ENDBRANCH   9  10
BRANCH   9  14
ATOM     14  C   UNL     1     115.092 -50.282  27.824  1.00  0.00     0.099 C 
ATOM     15  O   UNL     1     113.977 -50.189  27.242  1.00  0.00    -0.544 OA
ATOM     16  O   UNL     1     116.111 -51.022  27.236  1.00  0.00    -0.544 OA
ENDBRANCH   9  14
ENDBRANCH   8   9
ENDBRANCH   1   8
TORSDOF 7
ENDMDL
MODEL 7
REMARK VINA RESULT:    -3.903      1.695      2.166
REMARK INTER + INTRA:          -5.415
REMARK INTER:                  -5.306
REMARK INTRA:                  -0.109
REMARK UNBOUND:                -0.143
REMARK SMILES [NH3+]CCCC[C@H]([NH3+])C(=O)[O-]
REMARK SMILES IDX 4 1 3 2 2 3 1 4 5 8 6 9 7 10 8 14 9 15 10 16
REMARK H PARENT 1 5 1 6 1 7 7 11 7 12 7 13
REMARK Flexibility Score: inf
ROOT
ATOM      1  C   UNL     1     115.333 -50.746  27.454  1.00  0.00     0.012 C 
ENDROOT
BRANCH   1   2
ATOM      2  C   UNL     1     113.862 -50.438  27.769  1.00  0.00     0.061 C 
BRANCH   2   3
ATOM      3  C   UNL     1     113.687 -49.705  29.110  1.00  0.00     0.258 C 
BRANCH   3   4
ATOM      4  N   UNL     1     112.622 -50.292  29.926  1.00  0.00    -0.358 N 
ATOM      5  H   UNL     1     112.189 -49.565  30.538  1.00  0.00     0.344 HD
ATOM      6  H   UNL     1     111.893 -50.728  29.316  1.00  0.00     0.344 HD
ATOM      7  H   UNL     1     113.034 -51.034  30.538  1.00  0.00     0.344 HD
ENDBRANCH   3   4
ENDBRANCH   2   3
ENDBRANCH   1   2
BRANCH   1   8
ATOM      8  C   UNL     1     116.269 -50.005  28.421  1.00  0.00     0.072 C 
BRANCH   8   9
ATOM      9  C   UNL     1     117.690 -49.811  27.844  1.00  0.00     0.227 C 
BRANCH   9  10
ATOM     10  N   UNL     1     118.495 -51.036  27.951  1.00  0.00    -0.350 N 
ATOM     11  H   UNL     1     118.922 -51.119  28.903  1.00  0.00     0.345 HD
ATOM     12  H   UNL     1     117.902 -51.875  27.764  1.00  0.00     0.345 HD
ATOM     13  H   UNL     1     119.258 -51.025  27.235  1.00  0.00     0.345 HD
ENDBRANCH   9  10
BRANCH   9  14
ATOM     14  C   UNL     1     118.375 -48.677  28.558  1.00  0.00     0.099 C 
ATOM     15  O   UNL     1     119.592 -48.428  28.345  1.00  0.00    -0.544 OA
ATOM     16  O   UNL     1     117.670 -47.908  29.478  1.00  0.00    -0.544 OA
ENDBRANCH   9  14
ENDBRANCH   8   9
ENDBRANCH   1   8
TORSDOF 7
ENDMDL
MODEL 8
REMARK VINA RESULT:    -3.902      2.650      4.501
REMARK INTER + INTRA:          -5.414
REMARK INTER:                  -4.892
REMARK INTRA:                  -0.522
REMARK UNBOUND:                -0.143
REMARK SMILES [NH3+]CCCC[C@H]([NH3+])C(=O)[O-]
REMARK SMILES IDX 4 1 3 2 2 3 1 4 5 8 6 9 7 10 8 14 9 15 10 16
REMARK H PARENT 1 5 1 6 1 7 7 11 7 12 7 13
REMARK Flexibility Score: inf
ROOT
ATOM      1  C   UNL     1     118.135 -47.372  30.334  1.00  0.00     0.012 C 
ENDROOT
BRANCH   1   2
ATOM      2  C   UNL     1     119.041 -46.623  29.346  1.00  0.00     0.061 C 
BRANCH   2   3
ATOM      3  C   UNL     1     119.100 -47.302  27.967  1.00  0.00     0.258 C 
BRANCH   3   4
ATOM      4  N   UNL     1     119.961 -48.486  27.970  1.00  0.00    -0.358 N 
ATOM      5  H   UNL     1     120.877 -48.269  28.424  1.00  0.00     0.344 HD
ATOM      6  H   UNL     1     119.492 -49.278  28.466  1.00  0.00     0.344 HD
ATOM      7  H   UNL     1     120.145 -48.773  26.981  1.00  0.00     0.344 HD
ENDBRANCH   3   4
ENDBRANCH   2   3
ENDBRANCH   1   2
BRANCH   1   8
ATOM      8  C   UNL     1     116.831 -47.818  29.654  1.00  0.00     0.072 C 
BRANCH   8   9
ATOM      9  C   UNL     1     116.554 -49.328  29.830  1.00  0.00     0.227 C 
BRANCH   9  10
ATOM     10  N   UNL     1     117.591 -49.983  30.639  1.00  0.00    -0.350 N 
ATOM     11  H   UNL     1     118.369 -50.334  30.035  1.00  0.00     0.345 HD
ATOM     12  H   UNL     1     117.975 -49.314  31.344  1.00  0.00     0.345 HD
ATOM     13  H   UNL     1     117.178 -50.788  31.164  1.00  0.00     0.345 HD
ENDBRANCH   9  10
BRANCH   9  14
ATOM     14  C   UNL     1     116.459 -49.986  28.479  1.00  0.00     0.099 C 
ATOM     15  O   UNL     1     115.335 -50.199  27.949  1.00  0.00    -0.544 OA
ATOM     16  O   UNL     1     117.615 -50.383  27.817  1.00  0.00    -0.544 OA
ENDBRANCH   9  14
ENDBRANCH   8   9
ENDBRANCH   1   8
TORSDOF 7
ENDMDL
MODEL 9
REMARK VINA RESULT:    -3.783      3.445      4.905
REMARK INTER + INTRA:          -5.253
REMARK INTER:                  -4.699
REMARK INTRA:                  -0.555
REMARK UNBOUND:                -0.143
REMARK SMILES [NH3+]CCCC[C@H]([NH3+])C(=O)[O-]
REMARK SMILES IDX 4 1 3 2 2 3 1 4 5 8 6 9 7 10 8 14 9 15 10 16
REMARK H PARENT 1 5 1 6 1 7 7 11 7 12 7 13
REMARK Flexibility Score: inf
ROOT
ATOM      1  C   UNL     1     112.024 -48.725  29.181  1.00  0.00     0.012 C 
ENDROOT
BRANCH   1   2
ATOM      2  C   UNL     1     111.711 -48.626  30.681  1.00  0.00     0.061 C 
BRANCH   2   3
ATOM      3  C   UNL     1     111.548 -50.005  31.342  1.00  0.00     0.258 C 
BRANCH   3   4
ATOM      4  N   UNL     1     112.796 -50.483  31.941  1.00  0.00    -0.358 N 
ATOM      5  H   UNL     1     113.392 -49.676  32.234  1.00  0.00     0.344 HD
ATOM      6  H   UNL     1     112.595 -51.097  32.763  1.00  0.00     0.344 HD
ATOM      7  H   UNL     1     113.323 -51.038  31.229  1.00  0.00     0.344 HD
ENDBRANCH   3   4
ENDBRANCH   2   3
ENDBRANCH   1   2
BRANCH   1   8
ATOM      8  C   UNL     1     113.494 -48.376  28.903  1.00  0.00     0.072 C 
BRANCH   8   9
ATOM      9  C   UNL     1     114.311 -49.588  28.401  1.00  0.00     0.227 C 
BRANCH   9  10
ATOM     10  N   UNL     1     113.499 -50.813  28.360  1.00  0.00    -0.350 N 
ATOM     11  H   UNL     1     114.074 -51.650  28.613  1.00  0.00     0.345 HD
ATOM     12  H   UNL     1     112.694 -50.735  29.022  1.00  0.00     0.345 HD
ATOM     13  H   UNL     1     113.105 -50.948  27.401  1.00  0.00     0.345 HD
ENDBRANCH   9  10
BRANCH   9  14
ATOM     14  C   UNL     1     115.511 -49.792  29.287  1.00  0.00     0.099 C 
ATOM     15  O   UNL     1     116.676 -49.690  28.818  1.00  0.00    -0.544 OA
ATOM     16  O   UNL     1     115.338 -50.115  30.627  1.00  0.00    -0.544 OA
ENDBRANCH   9  14
ENDBRANCH   8   9
ENDBRANCH   1   8
TORSDOF 7
ENDMDL
