MODEL 1
REMARK VINA RESULT:    -5.809      0.000      0.000
REMARK INTER + INTRA:          -6.794
REMARK INTER:                  -6.658
REMARK INTRA:                  -0.136
REMARK UNBOUND:                -0.136
REMARK SMILES O=C([O-])C=Cc1ccc(O)cc1
REMARK SMILES IDX 6 1 7 2 12 3 8 4 11 5 9 6 5 7 4 8 2 9 1 10 3 11 10 12
REMARK H PARENT 10 13
REMARK Flexibility Score: inf
ROOT
ATOM      1  C   UNL     1     -12.872  62.278  39.005  1.00  0.00    -0.025 A 
ATOM      2  C   UNL     1     -12.744  60.874  38.950  1.00  0.00     0.012 A 
ATOM      3  C   UNL     1     -14.124  62.856  38.733  1.00  0.00     0.012 A 
ATOM      4  C   UNL     1     -13.854  60.074  38.655  1.00  0.00     0.047 A 
ATOM      5  C   UNL     1     -15.229  62.053  38.440  1.00  0.00     0.047 A 
ATOM      6  C   UNL     1     -15.099  60.662  38.401  1.00  0.00     0.115 A 
ENDROOT
BRANCH   1   7
ATOM      7  C   UNL     1     -11.726  63.172  39.302  1.00  0.00     0.010 C 
ATOM      8  C   UNL     1     -10.562  63.140  38.636  1.00  0.00     0.025 C 
BRANCH   8   9
ATOM      9  C   UNL     1      -9.448  64.040  38.975  1.00  0.00     0.064 C 
ATOM     10  O   UNL     1      -9.222  65.046  38.253  1.00  0.00    -0.545 OA
ATOM     11  O   UNL     1      -8.641  63.799  40.080  1.00  0.00    -0.545 OA
ENDBRANCH   8   9
ENDBRANCH   1   7
BRANCH   6  12
ATOM     12  O   UNL     1     -16.210  59.875  38.108  1.00  0.00    -0.508 OA
ATOM     13  H   UNL     1     -17.153  60.243  38.175  1.00  0.00     0.293 HD
ENDBRANCH   6  12
TORSDOF 3
ENDMDL
MODEL 2
REMARK VINA RESULT:    -5.772      0.267      1.419
REMARK INTER + INTRA:          -6.751
REMARK INTER:                  -6.612
REMARK INTRA:                  -0.139
REMARK UNBOUND:                -0.136
REMARK SMILES O=C([O-])C=Cc1ccc(O)cc1
REMARK SMILES IDX 6 1 7 2 12 3 8 4 11 5 9 6 5 7 4 8 2 9 1 10 3 11 10 12
REMARK H PARENT 10 13
REMARK Flexibility Score: inf
ROOT
ATOM      1  C   UNL     1     -13.102  62.235  38.971  1.00  0.00    -0.025 A 
ATOM      2  C   UNL     1     -14.355  62.770  38.606  1.00  0.00     0.012 A 
ATOM      3  C   UNL     1     -12.974  60.842  39.106  1.00  0.00     0.012 A 
ATOM      4  C   UNL     1     -15.441  61.924  38.359  1.00  0.00     0.047 A 
ATOM      5  C   UNL     1     -14.062  60.000  38.856  1.00  0.00     0.047 A 
ATOM      6  C   UNL     1     -15.296  60.536  38.481  1.00  0.00     0.115 A 
ENDROOT
BRANCH   1   7
ATOM      7  C   UNL     1     -11.921  63.087  39.256  1.00  0.00     0.010 C 
ATOM      8  C   UNL     1     -10.742  62.961  38.632  1.00  0.00     0.025 C 
BRANCH   8   9
ATOM      9  C   UNL     1      -9.594  63.823  38.956  1.00  0.00     0.064 C 
ATOM     10  O   UNL     1      -9.277  64.756  38.172  1.00  0.00    -0.545 OA
ATOM     11  O   UNL     1      -8.855  63.627  40.116  1.00  0.00    -0.545 OA
ENDBRANCH   8   9
ENDBRANCH   1   7
BRANCH   6  12
ATOM     12  O   UNL     1     -16.370  59.685  38.236  1.00  0.00    -0.508 OA
ATOM     13  H   UNL     1     -16.721  59.056  38.950  1.00  0.00     0.293 HD
ENDBRANCH   6  12
TORSDOF 3
ENDMDL
MODEL 3
REMARK VINA RESULT:    -5.715     15.573     17.062
REMARK INTER + INTRA:          -6.686
REMARK INTER:                  -6.547
REMARK INTRA:                  -0.139
REMARK UNBOUND:                -0.136
REMARK SMILES O=C([O-])C=Cc1ccc(O)cc1
REMARK SMILES IDX 6 1 7 2 12 3 8 4 11 5 9 6 5 7 4 8 2 9 1 10 3 11 10 12
REMARK H PARENT 10 13
REMARK Flexibility Score: inf
ROOT
ATOM      1  C   UNL     1      -6.821  62.148  53.758  1.00  0.00    -0.025 A 
ATOM      2  C   UNL     1      -6.018  62.680  52.727  1.00  0.00     0.012 A 
ATOM      3  C   UNL     1      -7.891  62.916  54.248  1.00  0.00     0.012 A 
ATOM      4  C   UNL     1      -6.303  63.938  52.187  1.00  0.00     0.047 A 
ATOM      5  C   UNL     1      -8.172  64.173  53.705  1.00  0.00     0.047 A 
ATOM      6  C   UNL     1      -7.382  64.687  52.674  1.00  0.00     0.115 A 
ENDROOT
BRANCH   1   7
ATOM      7  C   UNL     1      -6.556  60.824  54.373  1.00  0.00     0.010 C 
ATOM      8  C   UNL     1      -6.099  60.659  55.622  1.00  0.00     0.025 C 
BRANCH   8   9
ATOM      9  C   UNL     1      -5.840  59.325  56.186  1.00  0.00     0.064 C 
ATOM     10  O   UNL     1      -6.716  58.426  56.081  1.00  0.00    -0.545 OA
ATOM     11  O   UNL     1      -4.644  59.039  56.832  1.00  0.00    -0.545 OA
ENDBRANCH   8   9
ENDBRANCH   1   7
BRANCH   6  12
ATOM     12  O   UNL     1      -7.674  65.941  52.143  1.00  0.00    -0.508 OA
ATOM     13  H   UNL     1      -8.626  66.286  52.094  1.00  0.00     0.293 HD
ENDBRANCH   6  12
TORSDOF 3
ENDMDL
MODEL 4
REMARK VINA RESULT:    -5.666     16.351     17.714
REMARK INTER + INTRA:          -6.630
REMARK INTER:                  -6.484
REMARK INTRA:                  -0.146
REMARK UNBOUND:                -0.136
REMARK SMILES O=C([O-])C=Cc1ccc(O)cc1
REMARK SMILES IDX 6 1 7 2 12 3 8 4 11 5 9 6 5 7 4 8 2 9 1 10 3 11 10 12
REMARK H PARENT 10 13
REMARK Flexibility Score: inf
ROOT
ATOM      1  C   UNL     1      -6.156  61.530  54.348  1.00  0.00    -0.025 A 
ATOM      2  C   UNL     1      -5.725  62.223  53.198  1.00  0.00     0.012 A 
ATOM      3  C   UNL     1      -7.360  61.917  54.961  1.00  0.00     0.012 A 
ATOM      4  C   UNL     1      -6.498  63.260  52.666  1.00  0.00     0.047 A 
ATOM      5  C   UNL     1      -8.130  62.953  54.425  1.00  0.00     0.047 A 
ATOM      6  C   UNL     1      -7.704  63.626  53.278  1.00  0.00     0.115 A 
ENDROOT
BRANCH   1   7
ATOM      7  C   UNL     1      -5.369  60.431  54.960  1.00  0.00     0.010 C 
ATOM      8  C   UNL     1      -5.041  60.381  56.258  1.00  0.00     0.025 C 
BRANCH   8   9
ATOM      9  C   UNL     1      -4.248  59.275  56.818  1.00  0.00     0.064 C 
ATOM     10  O   UNL     1      -4.001  58.266  56.107  1.00  0.00    -0.545 OA
ATOM     11  O   UNL     1      -3.764  59.326  58.120  1.00  0.00    -0.545 OA
ENDBRANCH   8   9
ENDBRANCH   1   7
BRANCH   6  12
ATOM     12  O   UNL     1      -8.482  64.656  52.755  1.00  0.00    -0.508 OA
ATOM     13  H   UNL     1      -8.799  65.426  53.335  1.00  0.00     0.293 HD
ENDBRANCH   6  12
TORSDOF 3
ENDMDL
MODEL 5
REMARK VINA RESULT:    -5.527      1.363      5.967
REMARK INTER + INTRA:          -6.471
REMARK INTER:                  -6.329
REMARK INTRA:                  -0.142
REMARK UNBOUND:                -0.136
REMARK SMILES O=C([O-])C=Cc1ccc(O)cc1
REMARK SMILES IDX 6 1 7 2 12 3 8 4 11 5 9 6 5 7 4 8 2 9 1 10 3 11 10 12
REMARK H PARENT 10 13
REMARK Flexibility Score: inf
ROOT
ATOM      1  C   UNL     1     -12.841  61.357  39.496  1.00  0.00    -0.025 A 
ATOM      2  C   UNL     1     -12.494  62.629  38.994  1.00  0.00     0.012 A 
ATOM      3  C   UNL     1     -11.864  60.604  40.169  1.00  0.00     0.012 A 
ATOM      4  C   UNL     1     -11.206  63.138  39.189  1.00  0.00     0.047 A 
ATOM      5  C   UNL     1     -10.578  61.118  40.362  1.00  0.00     0.047 A 
ATOM      6  C   UNL     1     -10.246  62.384  39.875  1.00  0.00     0.115 A 
ENDROOT
BRANCH   1   7
ATOM      7  C   UNL     1     -14.189  60.765  39.307  1.00  0.00     0.010 C 
ATOM      8  C   UNL     1     -15.203  61.398  38.701  1.00  0.00     0.025 C 
BRANCH   8   9
ATOM      9  C   UNL     1     -16.528  60.775  38.548  1.00  0.00     0.064 C 
ATOM     10  O   UNL     1     -16.737  59.633  39.035  1.00  0.00    -0.545 OA
ATOM     11  O   UNL     1     -17.554  61.428  37.875  1.00  0.00    -0.545 OA
ENDBRANCH   8   9
ENDBRANCH   1   7
BRANCH   6  12
ATOM     12  O   UNL     1      -8.961  62.882  40.075  1.00  0.00    -0.508 OA
ATOM     13  H   UNL     1      -8.358  63.121  39.295  1.00  0.00     0.293 HD
ENDBRANCH   6  12
TORSDOF 3
ENDMDL
MODEL 6
REMARK VINA RESULT:    -5.509     19.242     20.794
REMARK INTER + INTRA:          -6.450
REMARK INTER:                  -6.299
REMARK INTRA:                  -0.151
REMARK UNBOUND:                -0.136
REMARK SMILES O=C([O-])C=Cc1ccc(O)cc1
REMARK SMILES IDX 6 1 7 2 12 3 8 4 11 5 9 6 5 7 4 8 2 9 1 10 3 11 10 12
REMARK H PARENT 10 13
REMARK Flexibility Score: inf
ROOT
ATOM      1  C   UNL     1     -12.213  49.718  54.006  1.00  0.00    -0.025 A 
ATOM      2  C   UNL     1     -11.492  50.869  53.625  1.00  0.00     0.012 A 
ATOM      3  C   UNL     1     -11.557  48.724  54.751  1.00  0.00     0.012 A 
ATOM      4  C   UNL     1     -10.156  51.025  54.008  1.00  0.00     0.047 A 
ATOM      5  C   UNL     1     -10.222  48.884  55.132  1.00  0.00     0.047 A 
ATOM      6  C   UNL     1      -9.518  50.034  54.764  1.00  0.00     0.115 A 
ENDROOT
BRANCH   1   7
ATOM      7  C   UNL     1     -13.628  49.498  53.618  1.00  0.00     0.010 C 
ATOM      8  C   UNL     1     -14.164  48.288  53.407  1.00  0.00     0.025 C 
BRANCH   8   9
ATOM      9  C   UNL     1     -15.572  48.119  53.011  1.00  0.00     0.064 C 
ATOM     10  O   UNL     1     -16.339  49.117  53.006  1.00  0.00    -0.545 OA
ATOM     11  O   UNL     1     -16.069  46.875  52.641  1.00  0.00    -0.545 OA
ENDBRANCH   8   9
ENDBRANCH   1   7
BRANCH   6  12
ATOM     12  O   UNL     1      -8.188  50.180  55.150  1.00  0.00    -0.508 OA
ATOM     13  H   UNL     1      -7.797  49.641  55.915  1.00  0.00     0.293 HD
ENDBRANCH   6  12
TORSDOF 3
ENDMDL
MODEL 7
REMARK VINA RESULT:    -5.471      2.383      6.095
REMARK INTER + INTRA:          -6.407
REMARK INTER:                  -6.269
REMARK INTRA:                  -0.138
REMARK UNBOUND:                -0.136
REMARK SMILES O=C([O-])C=Cc1ccc(O)cc1
REMARK SMILES IDX 6 1 7 2 12 3 8 4 11 5 9 6 5 7 4 8 2 9 1 10 3 11 10 12
REMARK H PARENT 10 13
REMARK Flexibility Score: inf
ROOT
ATOM      1  C   UNL     1     -10.206  63.057  39.189  1.00  0.00    -0.025 A 
ATOM      2  C   UNL     1      -9.293  63.240  40.249  1.00  0.00     0.012 A 
ATOM      3  C   UNL     1     -10.031  63.798  38.008  1.00  0.00     0.012 A 
ATOM      4  C   UNL     1      -8.219  64.126  40.112  1.00  0.00     0.047 A 
ATOM      5  C   UNL     1      -8.956  64.681  37.875  1.00  0.00     0.047 A 
ATOM      6  C   UNL     1      -8.047  64.847  38.924  1.00  0.00     0.115 A 
ENDROOT
BRANCH   1   7
ATOM      7  C   UNL     1     -11.368  62.139  39.286  1.00  0.00     0.010 C 
ATOM      8  C   UNL     1     -11.412  61.075  40.101  1.00  0.00     0.025 C 
BRANCH   8   9
ATOM      9  C   UNL     1     -12.583  60.185  40.155  1.00  0.00     0.064 C 
ATOM     10  O   UNL     1     -12.971  59.607  39.106  1.00  0.00    -0.545 OA
ATOM     11  O   UNL     1     -13.267  59.970  41.345  1.00  0.00    -0.545 OA
ENDBRANCH   8   9
ENDBRANCH   1   7
BRANCH   6  12
ATOM     12  O   UNL     1      -6.981  65.731  38.777  1.00  0.00    -0.508 OA
ATOM     13  H   UNL     1      -6.035  65.398  38.621  1.00  0.00     0.293 HD
ENDBRANCH   6  12
TORSDOF 3
ENDMDL
MODEL 8
REMARK VINA RESULT:    -5.382     19.824     20.699
REMARK INTER + INTRA:          -6.304
REMARK INTER:                  -6.171
REMARK INTRA:                  -0.133
REMARK UNBOUND:                -0.136
REMARK SMILES O=C([O-])C=Cc1ccc(O)cc1
REMARK SMILES IDX 6 1 7 2 12 3 8 4 11 5 9 6 5 7 4 8 2 9 1 10 3 11 10 12
REMARK H PARENT 10 13
REMARK Flexibility Score: inf
ROOT
ATOM      1  C   UNL     1      -9.620  49.671  54.758  1.00  0.00    -0.025 A 
ATOM      2  C   UNL     1     -10.037  50.790  54.007  1.00  0.00     0.012 A 
ATOM      3  C   UNL     1     -10.574  48.705  55.121  1.00  0.00     0.012 A 
ATOM      4  C   UNL     1     -11.372  50.917  53.610  1.00  0.00     0.047 A 
ATOM      5  C   UNL     1     -11.907  48.836  54.721  1.00  0.00     0.047 A 
ATOM      6  C   UNL     1     -12.310  49.939  53.965  1.00  0.00     0.115 A 
ENDROOT
BRANCH   1   7
ATOM      7  C   UNL     1      -8.219  49.493  55.214  1.00  0.00     0.010 C 
ATOM      8  C   UNL     1      -7.222  49.085  54.418  1.00  0.00     0.025 C 
BRANCH   8   9
ATOM      9  C   UNL     1      -5.849  48.911  54.918  1.00  0.00     0.064 C 
ATOM     10  O   UNL     1      -4.889  49.432  54.290  1.00  0.00    -0.545 OA
ATOM     11  O   UNL     1      -5.592  48.183  56.073  1.00  0.00    -0.545 OA
ENDBRANCH   8   9
ENDBRANCH   1   7
BRANCH   6  12
ATOM     12  O   UNL     1     -13.641  50.056  53.574  1.00  0.00    -0.508 OA
ATOM     13  H   UNL     1     -14.370  49.495  54.002  1.00  0.00     0.293 HD
ENDBRANCH   6  12
TORSDOF 3
ENDMDL
MODEL 9
REMARK VINA RESULT:    -5.356      1.751      2.113
REMARK INTER + INTRA:          -6.274
REMARK INTER:                  -6.135
REMARK INTRA:                  -0.140
REMARK UNBOUND:                -0.136
REMARK SMILES O=C([O-])C=Cc1ccc(O)cc1
REMARK SMILES IDX 6 1 7 2 12 3 8 4 11 5 9 6 5 7 4 8 2 9 1 10 3 11 10 12
REMARK H PARENT 10 13
REMARK Flexibility Score: inf
ROOT
ATOM      1  C   UNL     1     -14.245  61.980  38.921  1.00  0.00    -0.025 A 
ATOM      2  C   UNL     1     -14.783  60.736  39.310  1.00  0.00     0.012 A 
ATOM      3  C   UNL     1     -15.079  62.904  38.269  1.00  0.00     0.012 A 
ATOM      4  C   UNL     1     -16.129  60.442  39.073  1.00  0.00     0.047 A 
ATOM      5  C   UNL     1     -16.424  62.607  38.035  1.00  0.00     0.047 A 
ATOM      6  C   UNL     1     -16.954  61.378  38.436  1.00  0.00     0.115 A 
ENDROOT
BRANCH   1   7
ATOM      7  C   UNL     1     -12.821  62.338  39.140  1.00  0.00     0.010 C 
ATOM      8  C   UNL     1     -11.921  61.512  39.690  1.00  0.00     0.025 C 
BRANCH   8   9
ATOM      9  C   UNL     1     -10.521  61.915  39.898  1.00  0.00     0.064 C 
ATOM     10  O   UNL     1      -9.829  62.287  38.914  1.00  0.00    -0.545 OA
ATOM     11  O   UNL     1      -9.948  61.894  41.164  1.00  0.00    -0.545 OA
ENDBRANCH   8   9
ENDBRANCH   1   7
BRANCH   6  12
ATOM     12  O   UNL     1     -18.296  61.096  38.195  1.00  0.00    -0.508 OA
ATOM     13  H   UNL     1     -18.851  60.562  38.855  1.00  0.00     0.293 HD
ENDBRANCH   6  12
TORSDOF 3
ENDMDL
