MODEL 1
REMARK VINA RESULT:    -7.335      0.000      0.000
REMARK INTER + INTRA:          -9.160
REMARK INTER:                  -8.835
REMARK INTRA:                  -0.325
REMARK UNBOUND:                -0.325
REMARK SMILES O=c1c(O)c(-c2ccc(O)c(O)c2)oc2cc(O)cc(O)c12
REMARK SMILES IDX 5 1 3 2 2 3 1 4 22 5 20 6 19 7 17 8 16 9 15 10 14 11 6 12
REMARK SMILES IDX 7 13 8 14 9 15 13 16 11 17 10 18 12 20 4 22 21 24 18 26
REMARK H PARENT 10 19 12 21 4 23 21 25 18 27
REMARK Flexibility Score: inf
ROOT
ATOM      1  C   UNL     1      -5.178  -6.416   6.696  1.00  0.00     0.180 A 
ATOM      2  C   UNL     1      -6.235  -7.185   6.180  1.00  0.00     0.208 A 
ATOM      3  C   UNL     1      -5.951  -8.192   5.243  1.00  0.00     0.238 A 
ATOM      4  O   UNL     1      -6.894  -8.913   4.826  1.00  0.00    -0.285 OA
ATOM      5  C   UNL     1      -4.615  -8.407   4.823  1.00  0.00     0.111 A 
ATOM      6  C   UNL     1      -4.218  -9.372   3.851  1.00  0.00     0.134 A 
ATOM      7  C   UNL     1      -2.855  -9.588   3.608  1.00  0.00     0.093 A 
ATOM      8  C   UNL     1      -1.880  -8.829   4.255  1.00  0.00     0.123 A 
ATOM      9  C   UNL     1      -2.261  -7.841   5.165  1.00  0.00     0.094 A 
ATOM     10  C   UNL     1      -3.610  -7.628   5.454  1.00  0.00     0.146 A 
ATOM     11  O   UNL     1      -3.930  -6.686   6.332  1.00  0.00    -0.452 OA
ENDROOT
BRANCH   1  12
ATOM     12  C   UNL     1      -5.401  -5.321   7.668  1.00  0.00     0.025 A 
ATOM     13  C   UNL     1      -5.393  -5.604   9.042  1.00  0.00     0.016 A 
ATOM     14  C   UNL     1      -5.581  -4.582   9.976  1.00  0.00     0.051 A 
ATOM     15  C   UNL     1      -5.764  -3.262   9.553  1.00  0.00     0.157 A 
ATOM     16  C   UNL     1      -5.565  -3.989   7.244  1.00  0.00     0.062 A 
ATOM     17  C   UNL     1      -5.752  -2.962   8.181  1.00  0.00     0.158 A 
BRANCH  15  18
ATOM     18  O   UNL     1      -5.951  -2.264  10.509  1.00  0.00    -0.504 OA
ATOM     19  H   UNL     1      -6.836  -2.134  10.985  1.00  0.00     0.293 HD
ENDBRANCH  15  18
BRANCH  17  20
ATOM     20  O   UNL     1      -5.920  -1.646   7.753  1.00  0.00    -0.504 OA
ATOM     21  H   UNL     1      -6.062  -1.420   6.776  1.00  0.00     0.293 HD
ENDBRANCH  17  20
ENDBRANCH   1  12
BRANCH   2  22
ATOM     22  O   UNL     1      -7.542  -6.971   6.624  1.00  0.00    -0.502 OA
ATOM     23  H   UNL     1      -8.134  -6.243   6.243  1.00  0.00     0.293 HD
ENDBRANCH   2  22
BRANCH   6  24
ATOM     24  O   UNL     1      -5.114 -10.120   3.081  1.00  0.00    -0.507 OA
ATOM     25  H   UNL     1      -4.847 -10.818   2.403  1.00  0.00     0.293 HD
ENDBRANCH   6  24
BRANCH   8  26
ATOM     26  O   UNL     1      -0.535  -9.059   3.977  1.00  0.00    -0.508 OA
ATOM     27  H   UNL     1      -0.191  -9.108   3.025  1.00  0.00     0.293 HD
ENDBRANCH   8  26
TORSDOF 6
ENDMDL
MODEL 2
REMARK VINA RESULT:    -6.994      2.409      3.170
REMARK INTER + INTRA:          -8.750
REMARK INTER:                  -8.508
REMARK INTRA:                  -0.242
REMARK UNBOUND:                -0.325
REMARK SMILES O=c1c(O)c(-c2ccc(O)c(O)c2)oc2cc(O)cc(O)c12
REMARK SMILES IDX 5 1 3 2 2 3 1 4 22 5 20 6 19 7 17 8 16 9 15 10 14 11 6 12
REMARK SMILES IDX 7 13 8 14 9 15 13 16 11 17 10 18 12 20 4 22 21 24 18 26
REMARK H PARENT 10 19 12 21 4 23 21 25 18 27
REMARK Flexibility Score: inf
ROOT
ATOM      1  C   UNL     1      -6.722  -4.751   6.021  1.00  0.00     0.180 A 
ATOM      2  C   UNL     1      -7.636  -5.815   6.086  1.00  0.00     0.208 A 
ATOM      3  C   UNL     1      -7.155  -7.132   6.012  1.00  0.00     0.238 A 
ATOM      4  O   UNL     1      -7.973  -8.082   6.126  1.00  0.00    -0.285 OA
ATOM      5  C   UNL     1      -5.766  -7.367   5.859  1.00  0.00     0.111 A 
ATOM      6  C   UNL     1      -5.173  -8.659   5.733  1.00  0.00     0.134 A 
ATOM      7  C   UNL     1      -3.777  -8.778   5.717  1.00  0.00     0.093 A 
ATOM      8  C   UNL     1      -2.957  -7.651   5.757  1.00  0.00     0.123 A 
ATOM      9  C   UNL     1      -3.529  -6.380   5.820  1.00  0.00     0.094 A 
ATOM     10  C   UNL     1      -4.917  -6.231   5.874  1.00  0.00     0.146 A 
ATOM     11  O   UNL     1      -5.421  -5.004   5.943  1.00  0.00    -0.452 OA
ENDROOT
BRANCH   1  12
ATOM     12  C   UNL     1      -7.156  -3.335   6.067  1.00  0.00     0.025 A 
ATOM     13  C   UNL     1      -6.816  -2.544   7.176  1.00  0.00     0.016 A 
ATOM     14  C   UNL     1      -7.198  -1.201   7.230  1.00  0.00     0.051 A 
ATOM     15  C   UNL     1      -7.909  -0.625   6.173  1.00  0.00     0.157 A 
ATOM     16  C   UNL     1      -7.854  -2.748   4.996  1.00  0.00     0.062 A 
ATOM     17  C   UNL     1      -8.236  -1.400   5.048  1.00  0.00     0.158 A 
BRANCH  15  18
ATOM     18  O   UNL     1      -8.278   0.717   6.257  1.00  0.00    -0.504 OA
ATOM     19  H   UNL     1      -8.660   1.118   7.105  1.00  0.00     0.293 HD
ENDBRANCH  15  18
BRANCH  17  20
ATOM     20  O   UNL     1      -8.933  -0.827   3.985  1.00  0.00    -0.504 OA
ATOM     21  H   UNL     1      -8.933  -1.247   3.063  1.00  0.00     0.293 HD
ENDBRANCH  17  20
ENDBRANCH   1  12
BRANCH   2  22
ATOM     22  O   UNL     1      -9.000  -5.562   6.260  1.00  0.00    -0.502 OA
ATOM     23  H   UNL     1      -9.711  -6.256   6.067  1.00  0.00     0.293 HD
ENDBRANCH   2  22
BRANCH   6  24
ATOM     24  O   UNL     1      -5.902  -9.843   5.593  1.00  0.00    -0.507 OA
ATOM     25  H   UNL     1      -5.750 -10.679   6.136  1.00  0.00     0.293 HD
ENDBRANCH   6  24
BRANCH   8  26
ATOM     26  O   UNL     1      -1.573  -7.807   5.723  1.00  0.00    -0.508 OA
ATOM     27  H   UNL     1      -1.146  -8.690   5.468  1.00  0.00     0.293 HD
ENDBRANCH   8  26
TORSDOF 6
ENDMDL
MODEL 3
REMARK VINA RESULT:    -6.886      2.035      7.013
REMARK INTER + INTRA:          -8.619
REMARK INTER:                  -8.490
REMARK INTRA:                  -0.129
REMARK UNBOUND:                -0.325
REMARK SMILES O=c1c(O)c(-c2ccc(O)c(O)c2)oc2cc(O)cc(O)c12
REMARK SMILES IDX 5 1 3 2 2 3 1 4 22 5 20 6 19 7 17 8 16 9 15 10 14 11 6 12
REMARK SMILES IDX 7 13 8 14 9 15 13 16 11 17 10 18 12 20 4 22 21 24 18 26
REMARK H PARENT 10 19 12 21 4 23 21 25 18 27
REMARK Flexibility Score: inf
ROOT
ATOM      1  C   UNL     1      -5.773  -5.433   6.246  1.00  0.00     0.180 A 
ATOM      2  C   UNL     1      -6.529  -4.713   5.305  1.00  0.00     0.208 A 
ATOM      3  C   UNL     1      -7.247  -3.583   5.730  1.00  0.00     0.238 A 
ATOM      4  O   UNL     1      -7.878  -2.911   4.873  1.00  0.00    -0.285 OA
ATOM      5  C   UNL     1      -7.212  -3.197   7.092  1.00  0.00     0.111 A 
ATOM      6  C   UNL     1      -7.932  -2.094   7.640  1.00  0.00     0.134 A 
ATOM      7  C   UNL     1      -7.720  -1.725   8.975  1.00  0.00     0.093 A 
ATOM      8  C   UNL     1      -6.865  -2.459   9.797  1.00  0.00     0.123 A 
ATOM      9  C   UNL     1      -6.201  -3.575   9.287  1.00  0.00     0.094 A 
ATOM     10  C   UNL     1      -6.364  -3.945   7.950  1.00  0.00     0.146 A 
ATOM     11  O   UNL     1      -5.707  -5.008   7.501  1.00  0.00    -0.452 OA
ENDROOT
BRANCH   1  12
ATOM     12  C   UNL     1      -5.010  -6.649   5.878  1.00  0.00     0.025 A 
ATOM     13  C   UNL     1      -5.692  -7.766   5.372  1.00  0.00     0.016 A 
ATOM     14  C   UNL     1      -4.990  -8.915   5.001  1.00  0.00     0.051 A 
ATOM     15  C   UNL     1      -3.597  -8.960   5.114  1.00  0.00     0.157 A 
ATOM     16  C   UNL     1      -3.607  -6.688   5.972  1.00  0.00     0.062 A 
ATOM     17  C   UNL     1      -2.900  -7.840   5.598  1.00  0.00     0.158 A 
BRANCH  15  18
ATOM     18  O   UNL     1      -2.923 -10.121   4.736  1.00  0.00    -0.504 OA
ATOM     19  H   UNL     1      -1.928 -10.239   4.886  1.00  0.00     0.293 HD
ENDBRANCH  15  18
BRANCH  17  20
ATOM     20  O   UNL     1      -1.510  -7.873   5.699  1.00  0.00    -0.504 OA
ATOM     21  H   UNL     1      -0.952  -8.502   5.134  1.00  0.00     0.293 HD
ENDBRANCH  17  20
ENDBRANCH   1  12
BRANCH   2  22
ATOM     22  O   UNL     1      -6.532  -5.098   3.962  1.00  0.00    -0.502 OA
ATOM     23  H   UNL     1      -5.682  -5.305   3.453  1.00  0.00     0.293 HD
ENDBRANCH   2  22
BRANCH   6  24
ATOM     24  O   UNL     1      -8.880  -1.351   6.931  1.00  0.00    -0.507 OA
ATOM     25  H   UNL     1      -9.218  -1.581   6.009  1.00  0.00     0.293 HD
ENDBRANCH   6  24
BRANCH   8  26
ATOM     26  O   UNL     1      -6.691  -2.073  11.124  1.00  0.00    -0.508 OA
ATOM     27  H   UNL     1      -7.037  -2.639  11.890  1.00  0.00     0.293 HD
ENDBRANCH   8  26
TORSDOF 6
ENDMDL
MODEL 4
REMARK VINA RESULT:    -6.866      3.705      5.400
REMARK INTER + INTRA:          -8.596
REMARK INTER:                  -8.753
REMARK INTRA:                   0.158
REMARK UNBOUND:                -0.325
REMARK SMILES O=c1c(O)c(-c2ccc(O)c(O)c2)oc2cc(O)cc(O)c12
REMARK SMILES IDX 5 1 3 2 2 3 1 4 22 5 20 6 19 7 17 8 16 9 15 10 14 11 6 12
REMARK SMILES IDX 7 13 8 14 9 15 13 16 11 17 10 18 12 20 4 22 21 24 18 26
REMARK H PARENT 10 19 12 21 4 23 21 25 18 27
REMARK Flexibility Score: inf
ROOT
ATOM      1  C   UNL     1      -7.537  -1.903   6.125  1.00  0.00     0.180 A 
ATOM      2  C   UNL     1      -8.185  -2.543   5.056  1.00  0.00     0.208 A 
ATOM      3  C   UNL     1      -7.808  -3.853   4.717  1.00  0.00     0.238 A 
ATOM      4  O   UNL     1      -8.429  -4.441   3.793  1.00  0.00    -0.285 OA
ATOM      5  C   UNL     1      -6.778  -4.499   5.443  1.00  0.00     0.111 A 
ATOM      6  C   UNL     1      -6.288  -5.810   5.161  1.00  0.00     0.134 A 
ATOM      7  C   UNL     1      -5.357  -6.400   6.025  1.00  0.00     0.093 A 
ATOM      8  C   UNL     1      -4.851  -5.704   7.122  1.00  0.00     0.123 A 
ATOM      9  C   UNL     1      -5.279  -4.399   7.373  1.00  0.00     0.094 A 
ATOM     10  C   UNL     1      -6.234  -3.798   6.549  1.00  0.00     0.146 A 
ATOM     11  O   UNL     1      -6.622  -2.559   6.828  1.00  0.00    -0.452 OA
ENDROOT
BRANCH   1  12
ATOM     12  C   UNL     1      -7.863  -0.514   6.526  1.00  0.00     0.025 A 
ATOM     13  C   UNL     1      -7.798  -0.153   7.881  1.00  0.00     0.016 A 
ATOM     14  C   UNL     1      -8.080   1.156   8.277  1.00  0.00     0.051 A 
ATOM     15  C   UNL     1      -8.416   2.127   7.328  1.00  0.00     0.157 A 
ATOM     16  C   UNL     1      -8.180   0.468   5.570  1.00  0.00     0.062 A 
ATOM     17  C   UNL     1      -8.462   1.783   5.966  1.00  0.00     0.158 A 
BRANCH  15  18
ATOM     18  O   UNL     1      -8.695   3.425   7.755  1.00  0.00    -0.504 OA
ATOM     19  H   UNL     1      -9.017   4.143   7.117  1.00  0.00     0.293 HD
ENDBRANCH  15  18
BRANCH  17  20
ATOM     20  O   UNL     1      -8.782   2.749   5.014  1.00  0.00    -0.504 OA
ATOM     21  H   UNL     1      -8.103   3.069   4.334  1.00  0.00     0.293 HD
ENDBRANCH  17  20
ENDBRANCH   1  12
BRANCH   2  22
ATOM     22  O   UNL     1      -9.214  -1.895   4.367  1.00  0.00    -0.502 OA
ATOM     23  H   UNL     1      -9.256  -1.863   3.356  1.00  0.00     0.293 HD
ENDBRANCH   2  22
BRANCH   6  24
ATOM     24  O   UNL     1      -6.659  -6.557   4.039  1.00  0.00    -0.507 OA
ATOM     25  H   UNL     1      -6.753  -6.186   3.106  1.00  0.00     0.293 HD
ENDBRANCH   6  24
BRANCH   8  26
ATOM     26  O   UNL     1      -3.914  -6.316   7.951  1.00  0.00    -0.508 OA
ATOM     27  H   UNL     1      -2.919  -6.170   7.825  1.00  0.00     0.293 HD
ENDBRANCH   8  26
TORSDOF 6
ENDMDL
MODEL 5
REMARK VINA RESULT:    -6.823      3.801      6.094
REMARK INTER + INTRA:          -8.544
REMARK INTER:                  -8.481
REMARK INTRA:                  -0.063
REMARK UNBOUND:                -0.325
REMARK SMILES O=c1c(O)c(-c2ccc(O)c(O)c2)oc2cc(O)cc(O)c12
REMARK SMILES IDX 5 1 3 2 2 3 1 4 22 5 20 6 19 7 17 8 16 9 15 10 14 11 6 12
REMARK SMILES IDX 7 13 8 14 9 15 13 16 11 17 10 18 12 20 4 22 21 24 18 26
REMARK H PARENT 10 19 12 21 4 23 21 25 18 27
REMARK Flexibility Score: inf
ROOT
ATOM      1  C   UNL     1      -7.563  -1.927   6.348  1.00  0.00     0.180 A 
ATOM      2  C   UNL     1      -6.350  -2.532   6.718  1.00  0.00     0.208 A 
ATOM      3  C   UNL     1      -6.129  -3.877   6.381  1.00  0.00     0.238 A 
ATOM      4  O   UNL     1      -5.019  -4.398   6.667  1.00  0.00    -0.285 OA
ATOM      5  C   UNL     1      -7.130  -4.604   5.691  1.00  0.00     0.111 A 
ATOM      6  C   UNL     1      -7.029  -5.983   5.335  1.00  0.00     0.134 A 
ATOM      7  C   UNL     1      -8.025  -6.565   4.539  1.00  0.00     0.093 A 
ATOM      8  C   UNL     1      -9.147  -5.837   4.144  1.00  0.00     0.123 A 
ATOM      9  C   UNL     1      -9.284  -4.505   4.537  1.00  0.00     0.094 A 
ATOM     10  C   UNL     1      -8.290  -3.887   5.299  1.00  0.00     0.146 A 
ATOM     11  O   UNL     1      -8.454  -2.616   5.644  1.00  0.00    -0.452 OA
ENDROOT
BRANCH   1  12
ATOM     12  C   UNL     1      -7.878  -0.521   6.689  1.00  0.00     0.025 A 
ATOM     13  C   UNL     1      -7.831  -0.108   8.030  1.00  0.00     0.016 A 
ATOM     14  C   UNL     1      -8.105   1.218   8.372  1.00  0.00     0.051 A 
ATOM     15  C   UNL     1      -8.414   2.155   7.380  1.00  0.00     0.157 A 
ATOM     16  C   UNL     1      -8.169   0.427   5.691  1.00  0.00     0.062 A 
ATOM     17  C   UNL     1      -8.442   1.760   6.032  1.00  0.00     0.158 A 
BRANCH  15  18
ATOM     18  O   UNL     1      -8.684   3.471   7.753  1.00  0.00    -0.504 OA
ATOM     19  H   UNL     1      -7.958   4.100   8.073  1.00  0.00     0.293 HD
ENDBRANCH  15  18
BRANCH  17  20
ATOM     20  O   UNL     1      -8.736   2.692   5.039  1.00  0.00    -0.504 OA
ATOM     21  H   UNL     1      -8.011   3.090   4.453  1.00  0.00     0.293 HD
ENDBRANCH  17  20
ENDBRANCH   1  12
BRANCH   2  22
ATOM     22  O   UNL     1      -5.367  -1.791   7.379  1.00  0.00    -0.502 OA
ATOM     23  H   UNL     1      -5.066  -0.878   7.059  1.00  0.00     0.293 HD
ENDBRANCH   2  22
BRANCH   6  24
ATOM     24  O   UNL     1      -5.995  -6.824   5.756  1.00  0.00    -0.507 OA
ATOM     25  H   UNL     1      -6.097  -7.811   5.940  1.00  0.00     0.293 HD
ENDBRANCH   6  24
BRANCH   8  26
ATOM     26  O   UNL     1     -10.125  -6.453   3.366  1.00  0.00    -0.508 OA
ATOM     27  H   UNL     1     -11.027  -6.706   3.752  1.00  0.00     0.293 HD
ENDBRANCH   8  26
TORSDOF 6
ENDMDL
MODEL 6
REMARK VINA RESULT:    -6.758      3.163      8.247
REMARK INTER + INTRA:          -8.466
REMARK INTER:                  -8.218
REMARK INTRA:                  -0.248
REMARK UNBOUND:                -0.325
REMARK SMILES O=c1c(O)c(-c2ccc(O)c(O)c2)oc2cc(O)cc(O)c12
REMARK SMILES IDX 5 1 3 2 2 3 1 4 22 5 20 6 19 7 17 8 16 9 15 10 14 11 6 12
REMARK SMILES IDX 7 13 8 14 9 15 13 16 11 17 10 18 12 20 4 22 21 24 18 26
REMARK H PARENT 10 19 12 21 4 23 21 25 18 27
REMARK Flexibility Score: inf
ROOT
ATOM      1  C   UNL     1      -6.983  -3.172   6.600  1.00  0.00     0.180 A 
ATOM      2  C   UNL     1      -7.136  -3.121   7.996  1.00  0.00     0.208 A 
ATOM      3  C   UNL     1      -7.566  -1.924   8.590  1.00  0.00     0.238 A 
ATOM      4  O   UNL     1      -7.753  -1.900   9.835  1.00  0.00    -0.285 OA
ATOM      5  C   UNL     1      -7.822  -0.789   7.782  1.00  0.00     0.111 A 
ATOM      6  C   UNL     1      -8.223   0.487   8.282  1.00  0.00     0.134 A 
ATOM      7  C   UNL     1      -8.575   1.501   7.382  1.00  0.00     0.093 A 
ATOM      8  C   UNL     1      -8.478   1.307   6.004  1.00  0.00     0.123 A 
ATOM      9  C   UNL     1      -8.030   0.082   5.507  1.00  0.00     0.094 A 
ATOM     10  C   UNL     1      -7.707  -0.960   6.379  1.00  0.00     0.146 A 
ATOM     11  O   UNL     1      -7.294  -2.112   5.864  1.00  0.00    -0.452 OA
ENDROOT
BRANCH   1  12
ATOM     12  C   UNL     1      -6.510  -4.391   5.904  1.00  0.00     0.025 A 
ATOM     13  C   UNL     1      -7.392  -5.098   5.071  1.00  0.00     0.016 A 
ATOM     14  C   UNL     1      -6.960  -6.238   4.389  1.00  0.00     0.051 A 
ATOM     15  C   UNL     1      -5.640  -6.680   4.515  1.00  0.00     0.157 A 
ATOM     16  C   UNL     1      -5.176  -4.826   6.013  1.00  0.00     0.062 A 
ATOM     17  C   UNL     1      -4.740  -5.969   5.327  1.00  0.00     0.158 A 
BRANCH  15  18
ATOM     18  O   UNL     1      -5.239  -7.823   3.823  1.00  0.00    -0.504 OA
ATOM     19  H   UNL     1      -4.436  -7.824   3.206  1.00  0.00     0.293 HD
ENDBRANCH  15  18
BRANCH  17  20
ATOM     20  O   UNL     1      -3.420  -6.397   5.445  1.00  0.00    -0.504 OA
ATOM     21  H   UNL     1      -2.953  -6.437   6.344  1.00  0.00     0.293 HD
ENDBRANCH  17  20
ENDBRANCH   1  12
BRANCH   2  22
ATOM     22  O   UNL     1      -6.899  -4.259   8.772  1.00  0.00    -0.502 OA
ATOM     23  H   UNL     1      -5.997  -4.718   8.803  1.00  0.00     0.293 HD
ENDBRANCH   2  22
BRANCH   6  24
ATOM     24  O   UNL     1      -8.265   0.815   9.640  1.00  0.00    -0.507 OA
ATOM     25  H   UNL     1      -7.466   0.822  10.255  1.00  0.00     0.293 HD
ENDBRANCH   6  24
BRANCH   8  26
ATOM     26  O   UNL     1      -8.822   2.343   5.139  1.00  0.00    -0.508 OA
ATOM     27  H   UNL     1      -8.218   2.614   4.372  1.00  0.00     0.293 HD
ENDBRANCH   8  26
TORSDOF 6
ENDMDL
MODEL 7
REMARK VINA RESULT:    -6.666     11.394     14.461
REMARK INTER + INTRA:          -8.354
REMARK INTER:                  -8.202
REMARK INTRA:                  -0.152
REMARK UNBOUND:                -0.325
REMARK SMILES O=c1c(O)c(-c2ccc(O)c(O)c2)oc2cc(O)cc(O)c12
REMARK SMILES IDX 5 1 3 2 2 3 1 4 22 5 20 6 19 7 17 8 16 9 15 10 14 11 6 12
REMARK SMILES IDX 7 13 8 14 9 15 13 16 11 17 10 18 12 20 4 22 21 24 18 26
REMARK H PARENT 10 19 12 21 4 23 21 25 18 27
REMARK Flexibility Score: inf
ROOT
ATOM      1  C   UNL     1      -1.251  -4.906  -6.435  1.00  0.00     0.180 A 
ATOM      2  C   UNL     1      -1.862  -3.982  -7.299  1.00  0.00     0.208 A 
ATOM      3  C   UNL     1      -3.259  -3.845  -7.272  1.00  0.00     0.238 A 
ATOM      4  O   UNL     1      -3.796  -2.977  -8.009  1.00  0.00    -0.285 OA
ATOM      5  C   UNL     1      -4.028  -4.646  -6.392  1.00  0.00     0.111 A 
ATOM      6  C   UNL     1      -5.453  -4.619  -6.310  1.00  0.00     0.134 A 
ATOM      7  C   UNL     1      -6.101  -5.359  -5.313  1.00  0.00     0.093 A 
ATOM      8  C   UNL     1      -5.381  -6.174  -4.439  1.00  0.00     0.123 A 
ATOM      9  C   UNL     1      -3.992  -6.253  -4.550  1.00  0.00     0.094 A 
ATOM     10  C   UNL     1      -3.315  -5.499  -5.511  1.00  0.00     0.146 A 
ATOM     11  O   UNL     1      -1.993  -5.594  -5.576  1.00  0.00    -0.452 OA
ENDROOT
BRANCH   1  12
ATOM     12  C   UNL     1       0.215  -5.124  -6.424  1.00  0.00     0.025 A 
ATOM     13  C   UNL     1       0.933  -4.926  -5.234  1.00  0.00     0.016 A 
ATOM     14  C   UNL     1       2.312  -5.146  -5.196  1.00  0.00     0.051 A 
ATOM     15  C   UNL     1       2.991  -5.582  -6.339  1.00  0.00     0.157 A 
ATOM     16  C   UNL     1       0.896  -5.582  -7.567  1.00  0.00     0.062 A 
ATOM     17  C   UNL     1       2.280  -5.806  -7.530  1.00  0.00     0.158 A 
BRANCH  15  18
ATOM     18  O   UNL     1       4.368  -5.791  -6.270  1.00  0.00    -0.504 OA
ATOM     19  H   UNL     1       4.810  -6.203  -5.457  1.00  0.00     0.293 HD
ENDBRANCH  15  18
BRANCH  17  20
ATOM     20  O   UNL     1       2.948  -6.253  -8.668  1.00  0.00    -0.504 OA
ATOM     21  H   UNL     1       2.447  -6.516  -9.508  1.00  0.00     0.293 HD
ENDBRANCH  17  20
ENDBRANCH   1  12
BRANCH   2  22
ATOM     22  O   UNL     1      -1.083  -3.186  -8.143  1.00  0.00    -0.502 OA
ATOM     23  H   UNL     1      -1.179  -3.205  -9.151  1.00  0.00     0.293 HD
ENDBRANCH   2  22
BRANCH   6  24
ATOM     24  O   UNL     1      -6.273  -3.911  -7.193  1.00  0.00    -0.507 OA
ATOM     25  H   UNL     1      -6.414  -4.149  -8.163  1.00  0.00     0.293 HD
ENDBRANCH   6  24
BRANCH   8  26
ATOM     26  O   UNL     1      -6.060  -6.909  -3.470  1.00  0.00    -0.508 OA
ATOM     27  H   UNL     1      -6.658  -7.688  -3.718  1.00  0.00     0.293 HD
ENDBRANCH   8  26
TORSDOF 6
ENDMDL
MODEL 8
REMARK VINA RESULT:    -6.569      2.906      4.763
REMARK INTER + INTRA:          -8.238
REMARK INTER:                  -8.337
REMARK INTRA:                   0.099
REMARK UNBOUND:                -0.325
REMARK SMILES O=c1c(O)c(-c2ccc(O)c(O)c2)oc2cc(O)cc(O)c12
REMARK SMILES IDX 5 1 3 2 2 3 1 4 22 5 20 6 19 7 17 8 16 9 15 10 14 11 6 12
REMARK SMILES IDX 7 13 8 14 9 15 13 16 11 17 10 18 12 20 4 22 21 24 18 26
REMARK H PARENT 10 19 12 21 4 23 21 25 18 27
REMARK Flexibility Score: inf
ROOT
ATOM      1  C   UNL     1      -6.897  -3.654   6.227  1.00  0.00     0.180 A 
ATOM      2  C   UNL     1      -5.699  -3.675   6.959  1.00  0.00     0.208 A 
ATOM      3  C   UNL     1      -4.947  -4.860   7.002  1.00  0.00     0.238 A 
ATOM      4  O   UNL     1      -3.847  -4.857   7.614  1.00  0.00    -0.285 OA
ATOM      5  C   UNL     1      -5.411  -6.014   6.322  1.00  0.00     0.111 A 
ATOM      6  C   UNL     1      -4.750  -7.278   6.330  1.00  0.00     0.134 A 
ATOM      7  C   UNL     1      -5.231  -8.313   5.517  1.00  0.00     0.093 A 
ATOM      8  C   UNL     1      -6.383  -8.149   4.749  1.00  0.00     0.123 A 
ATOM      9  C   UNL     1      -7.070  -6.935   4.780  1.00  0.00     0.094 A 
ATOM     10  C   UNL     1      -6.595  -5.873   5.553  1.00  0.00     0.146 A 
ATOM     11  O   UNL     1      -7.272  -4.731   5.547  1.00  0.00    -0.452 OA
ENDROOT
BRANCH   1  12
ATOM     12  C   UNL     1      -7.757  -2.450   6.156  1.00  0.00     0.025 A 
ATOM     13  C   UNL     1      -8.019  -1.719   7.325  1.00  0.00     0.016 A 
ATOM     14  C   UNL     1      -8.810  -0.568   7.277  1.00  0.00     0.051 A 
ATOM     15  C   UNL     1      -9.336  -0.122   6.061  1.00  0.00     0.157 A 
ATOM     16  C   UNL     1      -8.270  -1.988   4.930  1.00  0.00     0.062 A 
ATOM     17  C   UNL     1      -9.063  -0.832   4.880  1.00  0.00     0.158 A 
BRANCH  15  18
ATOM     18  O   UNL     1     -10.124   1.029   6.045  1.00  0.00    -0.504 OA
ATOM     19  H   UNL     1      -9.741   1.940   5.820  1.00  0.00     0.293 HD
ENDBRANCH  15  18
BRANCH  17  20
ATOM     20  O   UNL     1      -9.573  -0.385   3.663  1.00  0.00    -0.504 OA
ATOM     21  H   UNL     1      -9.822   0.587   3.516  1.00  0.00     0.293 HD
ENDBRANCH  17  20
ENDBRANCH   1  12
BRANCH   2  22
ATOM     22  O   UNL     1      -5.248  -2.520   7.604  1.00  0.00    -0.502 OA
ATOM     23  H   UNL     1      -4.678  -2.551   8.441  1.00  0.00     0.293 HD
ENDBRANCH   2  22
BRANCH   6  24
ATOM     24  O   UNL     1      -3.645  -7.577   7.133  1.00  0.00    -0.507 OA
ATOM     25  H   UNL     1      -3.384  -7.069   7.964  1.00  0.00     0.293 HD
ENDBRANCH   6  24
BRANCH   8  26
ATOM     26  O   UNL     1      -6.841  -9.205   3.964  1.00  0.00    -0.508 OA
ATOM     27  H   UNL     1      -6.207  -9.906   3.598  1.00  0.00     0.293 HD
ENDBRANCH   8  26
TORSDOF 6
ENDMDL
