MODEL 1
REMARK VINA RESULT:    -6.982      0.000      0.000
REMARK INTER + INTRA:          -8.733
REMARK INTER:                  -8.411
REMARK INTRA:                  -0.322
REMARK UNBOUND:                -0.322
REMARK SMILES O=c1c(O)c(-c2ccc(O)c(O)c2)oc2cc(O)cc(O)c12
REMARK SMILES IDX 5 1 3 2 2 3 1 4 22 5 20 6 19 7 17 8 16 9 15 10 14 11 6 12
REMARK SMILES IDX 7 13 8 14 9 15 13 16 11 17 10 18 12 20 4 22 21 24 18 26
REMARK H PARENT 10 19 12 21 4 23 21 25 18 27
REMARK Flexibility Score: inf
ROOT
ATOM      1  C   UNL     1      14.388   2.275  14.620  1.00  0.00     0.180 A 
ATOM      2  C   UNL     1      13.348   2.517  15.535  1.00  0.00     0.208 A 
ATOM      3  C   UNL     1      12.379   1.524  15.743  1.00  0.00     0.238 A 
ATOM      4  O   UNL     1      11.482   1.725  16.602  1.00  0.00    -0.285 OA
ATOM      5  C   UNL     1      12.452   0.307  15.023  1.00  0.00     0.111 A 
ATOM      6  C   UNL     1      11.502  -0.754  15.126  1.00  0.00     0.134 A 
ATOM      7  C   UNL     1      11.744  -1.965  14.465  1.00  0.00     0.093 A 
ATOM      8  C   UNL     1      12.867  -2.131  13.656  1.00  0.00     0.123 A 
ATOM      9  C   UNL     1      13.771  -1.080  13.501  1.00  0.00     0.094 A 
ATOM     10  C   UNL     1      13.576   0.127  14.175  1.00  0.00     0.146 A 
ATOM     11  O   UNL     1      14.466   1.098  14.010  1.00  0.00    -0.452 OA
ENDROOT
BRANCH   1  12
ATOM     12  C   UNL     1      15.432   3.284  14.329  1.00  0.00     0.025 A 
ATOM     13  C   UNL     1      15.194   4.264  13.353  1.00  0.00     0.016 A 
ATOM     14  C   UNL     1      16.157   5.237  13.077  1.00  0.00     0.051 A 
ATOM     15  C   UNL     1      17.367   5.255  13.785  1.00  0.00     0.157 A 
ATOM     16  C   UNL     1      16.639   3.318  15.051  1.00  0.00     0.062 A 
ATOM     17  C   UNL     1      17.605   4.293  14.779  1.00  0.00     0.158 A 
BRANCH  15  18
ATOM     18  O   UNL     1      18.326   6.227  13.506  1.00  0.00    -0.504 OA
ATOM     19  H   UNL     1      18.208   6.888  12.748  1.00  0.00     0.293 HD
ENDBRANCH  15  18
BRANCH  17  20
ATOM     20  O   UNL     1      18.792   4.293  15.511  1.00  0.00    -0.504 OA
ATOM     21  H   UNL     1      19.445   5.067  15.479  1.00  0.00     0.293 HD
ENDBRANCH  17  20
ENDBRANCH   1  12
BRANCH   2  22
ATOM     22  O   UNL     1      13.308   3.717  16.250  1.00  0.00    -0.502 OA
ATOM     23  H   UNL     1      12.929   4.571  15.858  1.00  0.00     0.293 HD
ENDBRANCH   2  22
BRANCH   6  24
ATOM     24  O   UNL     1      10.300  -0.660  15.835  1.00  0.00    -0.507 OA
ATOM     25  H   UNL     1       9.421  -0.361  15.439  1.00  0.00     0.293 HD
ENDBRANCH   6  24
BRANCH   8  26
ATOM     26  O   UNL     1      13.068  -3.345  13.000  1.00  0.00    -0.508 OA
ATOM     27  H   UNL     1      12.291  -3.936  12.733  1.00  0.00     0.293 HD
ENDBRANCH   8  26
TORSDOF 6
ENDMDL
MODEL 2
REMARK VINA RESULT:    -6.920      2.663      4.247
REMARK INTER + INTRA:          -8.658
REMARK INTER:                  -8.363
REMARK INTRA:                  -0.296
REMARK UNBOUND:                -0.322
REMARK SMILES O=c1c(O)c(-c2ccc(O)c(O)c2)oc2cc(O)cc(O)c12
REMARK SMILES IDX 5 1 3 2 2 3 1 4 22 5 20 6 19 7 17 8 16 9 15 10 14 11 6 12
REMARK SMILES IDX 7 13 8 14 9 15 13 16 11 17 10 18 12 20 4 22 21 24 18 26
REMARK H PARENT 10 19 12 21 4 23 21 25 18 27
REMARK Flexibility Score: inf
ROOT
ATOM      1  C   UNL     1      13.170  -0.039  14.208  1.00  0.00     0.180 A 
ATOM      2  C   UNL     1      12.499  -0.987  15.000  1.00  0.00     0.208 A 
ATOM      3  C   UNL     1      12.531  -2.337  14.620  1.00  0.00     0.238 A 
ATOM      4  O   UNL     1      11.974  -3.187  15.363  1.00  0.00    -0.285 OA
ATOM      5  C   UNL     1      13.220  -2.723  13.446  1.00  0.00     0.111 A 
ATOM      6  C   UNL     1      13.285  -4.058  12.945  1.00  0.00     0.134 A 
ATOM      7  C   UNL     1      14.104  -4.344  11.845  1.00  0.00     0.093 A 
ATOM      8  C   UNL     1      14.808  -3.335  11.190  1.00  0.00     0.123 A 
ATOM      9  C   UNL     1      14.705  -2.017  11.635  1.00  0.00     0.094 A 
ATOM     10  C   UNL     1      13.925  -1.705  12.751  1.00  0.00     0.146 A 
ATOM     11  O   UNL     1      13.863  -0.441  13.149  1.00  0.00    -0.452 OA
ENDROOT
BRANCH   1  12
ATOM     12  C   UNL     1      13.160   1.406  14.530  1.00  0.00     0.025 A 
ATOM     13  C   UNL     1      14.053   1.906  15.491  1.00  0.00     0.016 A 
ATOM     14  C   UNL     1      14.075   3.270  15.795  1.00  0.00     0.051 A 
ATOM     15  C   UNL     1      13.217   4.156  15.130  1.00  0.00     0.157 A 
ATOM     16  C   UNL     1      12.316   2.302  13.849  1.00  0.00     0.062 A 
ATOM     17  C   UNL     1      12.337   3.669  14.150  1.00  0.00     0.158 A 
BRANCH  15  18
ATOM     18  O   UNL     1      13.241   5.516  15.436  1.00  0.00    -0.504 OA
ATOM     19  H   UNL     1      14.039   5.944  15.891  1.00  0.00     0.293 HD
ENDBRANCH  15  18
BRANCH  17  20
ATOM     20  O   UNL     1      11.482   4.528  13.460  1.00  0.00    -0.504 OA
ATOM     21  H   UNL     1      11.737   5.484  13.244  1.00  0.00     0.293 HD
ENDBRANCH  17  20
ENDBRANCH   1  12
BRANCH   2  22
ATOM     22  O   UNL     1      11.843  -0.587  16.168  1.00  0.00    -0.502 OA
ATOM     23  H   UNL     1      10.833  -0.577  16.247  1.00  0.00     0.293 HD
ENDBRANCH   2  22
BRANCH   6  24
ATOM     24  O   UNL     1      12.549  -5.125  13.469  1.00  0.00    -0.507 OA
ATOM     25  H   UNL     1      12.749  -5.586  14.344  1.00  0.00     0.293 HD
ENDBRANCH   6  24
BRANCH   8  26
ATOM     26  O   UNL     1      15.601  -3.654  10.089  1.00  0.00    -0.508 OA
ATOM     27  H   UNL     1      15.202  -4.055   9.248  1.00  0.00     0.293 HD
ENDBRANCH   8  26
TORSDOF 6
ENDMDL
MODEL 3
REMARK VINA RESULT:    -6.905      0.839      1.528
REMARK INTER + INTRA:          -8.639
REMARK INTER:                  -8.342
REMARK INTRA:                  -0.298
REMARK UNBOUND:                -0.322
REMARK SMILES O=c1c(O)c(-c2ccc(O)c(O)c2)oc2cc(O)cc(O)c12
REMARK SMILES IDX 5 1 3 2 2 3 1 4 22 5 20 6 19 7 17 8 16 9 15 10 14 11 6 12
REMARK SMILES IDX 7 13 8 14 9 15 13 16 11 17 10 18 12 20 4 22 21 24 18 26
REMARK H PARENT 10 19 12 21 4 23 21 25 18 27
REMARK Flexibility Score: inf
ROOT
ATOM      1  C   UNL     1      14.536   2.533  14.768  1.00  0.00     0.180 A 
ATOM      2  C   UNL     1      13.593   2.687  15.799  1.00  0.00     0.208 A 
ATOM      3  C   UNL     1      12.514   1.792  15.874  1.00  0.00     0.238 A 
ATOM      4  O   UNL     1      11.703   1.901  16.830  1.00  0.00    -0.285 OA
ATOM      5  C   UNL     1      12.382   0.765  14.908  1.00  0.00     0.111 A 
ATOM      6  C   UNL     1      11.307  -0.173  14.864  1.00  0.00     0.134 A 
ATOM      7  C   UNL     1      11.347  -1.227  13.943  1.00  0.00     0.093 A 
ATOM      8  C   UNL     1      12.388  -1.340  13.024  1.00  0.00     0.123 A 
ATOM      9  C   UNL     1      13.414  -0.395  13.018  1.00  0.00     0.094 A 
ATOM     10  C   UNL     1      13.420   0.647  13.948  1.00  0.00     0.146 A 
ATOM     11  O   UNL     1      14.420   1.520  13.917  1.00  0.00    -0.452 OA
ENDROOT
BRANCH   1  12
ATOM     12  C   UNL     1      15.686   3.452  14.609  1.00  0.00     0.025 A 
ATOM     13  C   UNL     1      16.839   3.257  15.386  1.00  0.00     0.016 A 
ATOM     14  C   UNL     1      17.944   4.099  15.237  1.00  0.00     0.051 A 
ATOM     15  C   UNL     1      17.919   5.138  14.297  1.00  0.00     0.157 A 
ATOM     16  C   UNL     1      15.673   4.482  13.651  1.00  0.00     0.062 A 
ATOM     17  C   UNL     1      16.779   5.326  13.498  1.00  0.00     0.158 A 
BRANCH  15  18
ATOM     18  O   UNL     1      19.022   5.977  14.152  1.00  0.00    -0.504 OA
ATOM     19  H   UNL     1      18.940   6.983  14.242  1.00  0.00     0.293 HD
ENDBRANCH  15  18
BRANCH  17  20
ATOM     20  O   UNL     1      16.729   6.342  12.543  1.00  0.00    -0.504 OA
ATOM     21  H   UNL     1      15.859   6.639  12.119  1.00  0.00     0.293 HD
ENDBRANCH  17  20
ENDBRANCH   1  12
BRANCH   2  22
ATOM     22  O   UNL     1      13.754   3.694  16.754  1.00  0.00    -0.502 OA
ATOM     23  H   UNL     1      14.279   4.540  16.568  1.00  0.00     0.293 HD
ENDBRANCH   2  22
BRANCH   6  24
ATOM     24  O   UNL     1      10.172  -0.098  15.678  1.00  0.00    -0.507 OA
ATOM     25  H   UNL     1      10.163   0.263  16.620  1.00  0.00     0.293 HD
ENDBRANCH   6  24
BRANCH   8  26
ATOM     26  O   UNL     1      12.388  -2.394  12.110  1.00  0.00    -0.508 OA
ATOM     27  H   UNL     1      11.524  -2.771  11.739  1.00  0.00     0.293 HD
ENDBRANCH   8  26
TORSDOF 6
ENDMDL
MODEL 4
REMARK VINA RESULT:    -6.836      2.590      6.831
REMARK INTER + INTRA:          -8.557
REMARK INTER:                  -8.547
REMARK INTRA:                  -0.010
REMARK UNBOUND:                -0.322
REMARK SMILES O=c1c(O)c(-c2ccc(O)c(O)c2)oc2cc(O)cc(O)c12
REMARK SMILES IDX 5 1 3 2 2 3 1 4 22 5 20 6 19 7 17 8 16 9 15 10 14 11 6 12
REMARK SMILES IDX 7 13 8 14 9 15 13 16 11 17 10 18 12 20 4 22 21 24 18 26
REMARK H PARENT 10 19 12 21 4 23 21 25 18 27
REMARK Flexibility Score: inf
ROOT
ATOM      1  C   UNL     1      12.516  -1.232  12.901  1.00  0.00     0.180 A 
ATOM      2  C   UNL     1      11.786  -1.542  14.062  1.00  0.00     0.208 A 
ATOM      3  C   UNL     1      11.654  -0.567  15.063  1.00  0.00     0.238 A 
ATOM      4  O   UNL     1      10.955  -0.831  16.075  1.00  0.00    -0.285 OA
ATOM      5  C   UNL     1      12.266   0.699  14.899  1.00  0.00     0.111 A 
ATOM      6  C   UNL     1      12.230   1.749  15.866  1.00  0.00     0.134 A 
ATOM      7  C   UNL     1      12.758   3.005  15.542  1.00  0.00     0.093 A 
ATOM      8  C   UNL     1      13.377   3.231  14.314  1.00  0.00     0.123 A 
ATOM      9  C   UNL     1      13.470   2.195  13.384  1.00  0.00     0.094 A 
ATOM     10  C   UNL     1      12.921   0.941  13.663  1.00  0.00     0.146 A 
ATOM     11  O   UNL     1      13.021  -0.014  12.747  1.00  0.00    -0.452 OA
ENDROOT
BRANCH   1  12
ATOM     12  C   UNL     1      12.719  -2.216  11.813  1.00  0.00     0.025 A 
ATOM     13  C   UNL     1      11.606  -2.835  11.222  1.00  0.00     0.016 A 
ATOM     14  C   UNL     1      11.775  -3.750  10.180  1.00  0.00     0.051 A 
ATOM     15  C   UNL     1      13.058  -4.047   9.701  1.00  0.00     0.157 A 
ATOM     16  C   UNL     1      14.004  -2.501  11.315  1.00  0.00     0.062 A 
ATOM     17  C   UNL     1      14.176  -3.416  10.270  1.00  0.00     0.158 A 
BRANCH  15  18
ATOM     18  O   UNL     1      13.223  -4.962   8.663  1.00  0.00    -0.504 OA
ATOM     19  H   UNL     1      12.498  -5.627   8.421  1.00  0.00     0.293 HD
ENDBRANCH  15  18
BRANCH  17  20
ATOM     20  O   UNL     1      15.465  -3.679   9.806  1.00  0.00    -0.504 OA
ATOM     21  H   UNL     1      15.757  -3.445   8.865  1.00  0.00     0.293 HD
ENDBRANCH  17  20
ENDBRANCH   1  12
BRANCH   2  22
ATOM     22  O   UNL     1      11.173  -2.791  14.194  1.00  0.00    -0.502 OA
ATOM     23  H   UNL     1      11.656  -3.595  14.574  1.00  0.00     0.293 HD
ENDBRANCH   2  22
BRANCH   6  24
ATOM     24  O   UNL     1      11.717   1.602  17.158  1.00  0.00    -0.507 OA
ATOM     25  H   UNL     1      11.512   2.366  17.785  1.00  0.00     0.293 HD
ENDBRANCH   6  24
BRANCH   8  26
ATOM     26  O   UNL     1      13.906   4.489  14.032  1.00  0.00    -0.508 OA
ATOM     27  H   UNL     1      14.672   4.607  13.380  1.00  0.00     0.293 HD
ENDBRANCH   8  26
TORSDOF 6
ENDMDL
MODEL 5
REMARK VINA RESULT:    -6.815      1.738      2.646
REMARK INTER + INTRA:          -8.531
REMARK INTER:                  -8.232
REMARK INTRA:                  -0.299
REMARK UNBOUND:                -0.322
REMARK SMILES O=c1c(O)c(-c2ccc(O)c(O)c2)oc2cc(O)cc(O)c12
REMARK SMILES IDX 5 1 3 2 2 3 1 4 22 5 20 6 19 7 17 8 16 9 15 10 14 11 6 12
REMARK SMILES IDX 7 13 8 14 9 15 13 16 11 17 10 18 12 20 4 22 21 24 18 26
REMARK H PARENT 10 19 12 21 4 23 21 25 18 27
REMARK Flexibility Score: inf
ROOT
ATOM      1  C   UNL     1      13.783   0.211  14.071  1.00  0.00     0.180 A 
ATOM      2  C   UNL     1      12.912  -0.128  15.120  1.00  0.00     0.208 A 
ATOM      3  C   UNL     1      12.425  -1.442  15.203  1.00  0.00     0.238 A 
ATOM      4  O   UNL     1      11.689  -1.753  16.175  1.00  0.00    -0.285 OA
ATOM      5  C   UNL     1      12.802  -2.396  14.228  1.00  0.00     0.111 A 
ATOM      6  C   UNL     1      12.338  -3.745  14.191  1.00  0.00     0.134 A 
ATOM      7  C   UNL     1      12.879  -4.637  13.257  1.00  0.00     0.093 A 
ATOM      8  C   UNL     1      13.817  -4.213  12.317  1.00  0.00     0.123 A 
ATOM      9  C   UNL     1      14.234  -2.882  12.305  1.00  0.00     0.094 A 
ATOM     10  C   UNL     1      13.740  -1.978  13.248  1.00  0.00     0.146 A 
ATOM     11  O   UNL     1      14.171  -0.723  13.210  1.00  0.00    -0.452 OA
ENDROOT
BRANCH   1  12
ATOM     12  C   UNL     1      14.319   1.582  13.903  1.00  0.00     0.025 A 
ATOM     13  C   UNL     1      13.517   2.570  13.310  1.00  0.00     0.016 A 
ATOM     14  C   UNL     1      13.994   3.874  13.160  1.00  0.00     0.051 A 
ATOM     15  C   UNL     1      15.275   4.214  13.617  1.00  0.00     0.157 A 
ATOM     16  C   UNL     1      15.596   1.932  14.378  1.00  0.00     0.062 A 
ATOM     17  C   UNL     1      16.076   3.239  14.232  1.00  0.00     0.158 A 
BRANCH  15  18
ATOM     18  O   UNL     1      15.749   5.516  13.465  1.00  0.00    -0.504 OA
ATOM     19  H   UNL     1      16.654   5.797  13.825  1.00  0.00     0.293 HD
ENDBRANCH  15  18
BRANCH  17  20
ATOM     20  O   UNL     1      17.349   3.549  14.710  1.00  0.00    -0.504 OA
ATOM     21  H   UNL     1      18.161   3.572  14.104  1.00  0.00     0.293 HD
ENDBRANCH  17  20
ENDBRANCH   1  12
BRANCH   2  22
ATOM     22  O   UNL     1      12.570   0.824  16.085  1.00  0.00    -0.502 OA
ATOM     23  H   UNL     1      12.207   1.737  15.841  1.00  0.00     0.293 HD
ENDBRANCH   2  22
BRANCH   6  24
ATOM     24  O   UNL     1      11.335  -4.248  15.026  1.00  0.00    -0.507 OA
ATOM     25  H   UNL     1      10.373  -3.944  15.016  1.00  0.00     0.293 HD
ENDBRANCH   6  24
BRANCH   8  26
ATOM     26  O   UNL     1      14.322  -5.125  11.391  1.00  0.00    -0.508 OA
ATOM     27  H   UNL     1      13.814  -5.357  10.546  1.00  0.00     0.293 HD
ENDBRANCH   8  26
TORSDOF 6
ENDMDL
MODEL 6
REMARK VINA RESULT:    -6.746      3.631      6.463
REMARK INTER + INTRA:          -8.447
REMARK INTER:                  -8.285
REMARK INTRA:                  -0.163
REMARK UNBOUND:                -0.322
REMARK SMILES O=c1c(O)c(-c2ccc(O)c(O)c2)oc2cc(O)cc(O)c12
REMARK SMILES IDX 5 1 3 2 2 3 1 4 22 5 20 6 19 7 17 8 16 9 15 10 14 11 6 12
REMARK SMILES IDX 7 13 8 14 9 15 13 16 11 17 10 18 12 20 4 22 21 24 18 26
REMARK H PARENT 10 19 12 21 4 23 21 25 18 27
REMARK Flexibility Score: inf
ROOT
ATOM      1  C   UNL     1      14.138  -2.027  12.774  1.00  0.00     0.180 A 
ATOM      2  C   UNL     1      13.244  -2.827  13.506  1.00  0.00     0.208 A 
ATOM      3  C   UNL     1      12.207  -2.210  14.222  1.00  0.00     0.238 A 
ATOM      4  O   UNL     1      11.378  -2.935  14.831  1.00  0.00    -0.285 OA
ATOM      5  C   UNL     1      12.085  -0.800  14.212  1.00  0.00     0.111 A 
ATOM      6  C   UNL     1      11.097  -0.066  14.934  1.00  0.00     0.134 A 
ATOM      7  C   UNL     1      10.989   1.318  14.745  1.00  0.00     0.093 A 
ATOM      8  C   UNL     1      11.874   2.002  13.913  1.00  0.00     0.123 A 
ATOM      9  C   UNL     1      12.882   1.303  13.249  1.00  0.00     0.094 A 
ATOM     10  C   UNL     1      12.992  -0.082  13.388  1.00  0.00     0.146 A 
ATOM     11  O   UNL     1      13.957  -0.712  12.730  1.00  0.00    -0.452 OA
ENDROOT
BRANCH   1  12
ATOM     12  C   UNL     1      15.271  -2.603  12.014  1.00  0.00     0.025 A 
ATOM     13  C   UNL     1      16.585  -2.350  12.435  1.00  0.00     0.016 A 
ATOM     14  C   UNL     1      17.668  -2.901  11.745  1.00  0.00     0.051 A 
ATOM     15  C   UNL     1      17.452  -3.726  10.632  1.00  0.00     0.157 A 
ATOM     16  C   UNL     1      15.057  -3.448  10.909  1.00  0.00     0.062 A 
ATOM     17  C   UNL     1      16.139  -4.003  10.217  1.00  0.00     0.158 A 
BRANCH  15  18
ATOM     18  O   UNL     1      18.534  -4.272   9.945  1.00  0.00    -0.504 OA
ATOM     19  H   UNL     1      19.459  -3.863  10.000  1.00  0.00     0.293 HD
ENDBRANCH  15  18
BRANCH  17  20
ATOM     20  O   UNL     1      15.890  -4.831   9.123  1.00  0.00    -0.504 OA
ATOM     21  H   UNL     1      14.953  -5.116   8.866  1.00  0.00     0.293 HD
ENDBRANCH  17  20
ENDBRANCH   1  12
BRANCH   2  22
ATOM     22  O   UNL     1      13.369  -4.219  13.485  1.00  0.00    -0.502 OA
ATOM     23  H   UNL     1      13.792  -4.715  12.710  1.00  0.00     0.293 HD
ENDBRANCH   2  22
BRANCH   6  24
ATOM     24  O   UNL     1      10.222  -0.639  15.861  1.00  0.00    -0.507 OA
ATOM     25  H   UNL     1       9.570  -0.121  16.432  1.00  0.00     0.293 HD
ENDBRANCH   6  24
BRANCH   8  26
ATOM     26  O   UNL     1      11.747   3.382  13.762  1.00  0.00    -0.508 OA
ATOM     27  H   UNL     1      12.361   3.906  13.149  1.00  0.00     0.293 HD
ENDBRANCH   8  26
TORSDOF 6
ENDMDL
MODEL 7
REMARK VINA RESULT:    -6.670      1.638      6.668
REMARK INTER + INTRA:          -8.356
REMARK INTER:                  -8.152
REMARK INTRA:                  -0.204
REMARK UNBOUND:                -0.322
REMARK SMILES O=c1c(O)c(-c2ccc(O)c(O)c2)oc2cc(O)cc(O)c12
REMARK SMILES IDX 5 1 3 2 2 3 1 4 22 5 20 6 19 7 17 8 16 9 15 10 14 11 6 12
REMARK SMILES IDX 7 13 8 14 9 15 13 16 11 17 10 18 12 20 4 22 21 24 18 26
REMARK H PARENT 10 19 12 21 4 23 21 25 18 27
REMARK Flexibility Score: inf
ROOT
ATOM      1  C   UNL     1      13.434   0.685  14.278  1.00  0.00     0.180 A 
ATOM      2  C   UNL     1      12.859   0.914  15.540  1.00  0.00     0.208 A 
ATOM      3  C   UNL     1      13.128   2.123  16.202  1.00  0.00     0.238 A 
ATOM      4  O   UNL     1      12.567   2.344  17.306  1.00  0.00    -0.285 OA
ATOM      5  C   UNL     1      13.981   3.080  15.601  1.00  0.00     0.111 A 
ATOM      6  C   UNL     1      14.354   4.321  16.199  1.00  0.00     0.134 A 
ATOM      7  C   UNL     1      15.098   5.249  15.459  1.00  0.00     0.093 A 
ATOM      8  C   UNL     1      15.536   4.954  14.169  1.00  0.00     0.123 A 
ATOM      9  C   UNL     1      15.228   3.720  13.597  1.00  0.00     0.094 A 
ATOM     10  C   UNL     1      14.457   2.789  14.296  1.00  0.00     0.146 A 
ATOM     11  O   UNL     1      14.176   1.630  13.712  1.00  0.00    -0.452 OA
ENDROOT
BRANCH   1  12
ATOM     12  C   UNL     1      13.217  -0.574  13.530  1.00  0.00     0.025 A 
ATOM     13  C   UNL     1      14.270  -1.494  13.403  1.00  0.00     0.016 A 
ATOM     14  C   UNL     1      14.082  -2.697  12.719  1.00  0.00     0.051 A 
ATOM     15  C   UNL     1      12.831  -3.007  12.166  1.00  0.00     0.157 A 
ATOM     16  C   UNL     1      11.959  -0.898  12.991  1.00  0.00     0.062 A 
ATOM     17  C   UNL     1      11.765  -2.104  12.307  1.00  0.00     0.158 A 
BRANCH  15  18
ATOM     18  O   UNL     1      12.647  -4.208  11.483  1.00  0.00    -0.504 OA
ATOM     19  H   UNL     1      11.826  -4.374  10.913  1.00  0.00     0.293 HD
ENDBRANCH  15  18
BRANCH  17  20
ATOM     20  O   UNL     1      10.506  -2.389  11.781  1.00  0.00    -0.504 OA
ATOM     21  H   UNL     1      10.323  -2.375  10.784  1.00  0.00     0.293 HD
ENDBRANCH  17  20
ENDBRANCH   1  12
BRANCH   2  22
ATOM     22  O   UNL     1      12.003  -0.036  16.104  1.00  0.00    -0.502 OA
ATOM     23  H   UNL     1      12.159  -0.429  17.024  1.00  0.00     0.293 HD
ENDBRANCH   2  22
BRANCH   6  24
ATOM     24  O   UNL     1      14.046   4.677  17.516  1.00  0.00    -0.507 OA
ATOM     25  H   UNL     1      13.618   4.062  18.193  1.00  0.00     0.293 HD
ENDBRANCH   6  24
BRANCH   8  26
ATOM     26  O   UNL     1      16.288   5.895  13.468  1.00  0.00    -0.508 OA
ATOM     27  H   UNL     1      15.847   6.607  12.898  1.00  0.00     0.293 HD
ENDBRANCH   8  26
TORSDOF 6
ENDMDL
MODEL 8
REMARK VINA RESULT:    -6.607      2.660      4.405
REMARK INTER + INTRA:          -8.281
REMARK INTER:                  -7.958
REMARK INTRA:                  -0.323
REMARK UNBOUND:                -0.322
REMARK SMILES O=c1c(O)c(-c2ccc(O)c(O)c2)oc2cc(O)cc(O)c12
REMARK SMILES IDX 5 1 3 2 2 3 1 4 22 5 20 6 19 7 17 8 16 9 15 10 14 11 6 12
REMARK SMILES IDX 7 13 8 14 9 15 13 16 11 17 10 18 12 20 4 22 21 24 18 26
REMARK H PARENT 10 19 12 21 4 23 21 25 18 27
REMARK Flexibility Score: inf
ROOT
ATOM      1  C   UNL     1      13.615  -0.077  14.256  1.00  0.00     0.180 A 
ATOM      2  C   UNL     1      14.383  -0.514  13.163  1.00  0.00     0.208 A 
ATOM      3  C   UNL     1      14.295  -1.856  12.762  1.00  0.00     0.238 A 
ATOM      4  O   UNL     1      14.942  -2.228  11.750  1.00  0.00    -0.285 OA
ATOM      5  C   UNL     1      13.454  -2.749  13.469  1.00  0.00     0.111 A 
ATOM      6  C   UNL     1      13.318  -4.139  13.176  1.00  0.00     0.134 A 
ATOM      7  C   UNL     1      12.358  -4.898  13.857  1.00  0.00     0.093 A 
ATOM      8  C   UNL     1      11.577  -4.335  14.864  1.00  0.00     0.123 A 
ATOM      9  C   UNL     1      11.743  -2.991  15.201  1.00  0.00     0.094 A 
ATOM     10  C   UNL     1      12.666  -2.199  14.514  1.00  0.00     0.146 A 
ATOM     11  O   UNL     1      12.786  -0.922  14.857  1.00  0.00    -0.452 OA
ENDROOT
BRANCH   1  12
ATOM     12  C   UNL     1      13.673   1.317  14.753  1.00  0.00     0.025 A 
ATOM     13  C   UNL     1      14.621   1.665  15.728  1.00  0.00     0.016 A 
ATOM     14  C   UNL     1      14.706   2.979  16.196  1.00  0.00     0.051 A 
ATOM     15  C   UNL     1      13.856   3.968  15.682  1.00  0.00     0.157 A 
ATOM     16  C   UNL     1      12.836   2.317  14.226  1.00  0.00     0.062 A 
ATOM     17  C   UNL     1      12.920   3.635  14.690  1.00  0.00     0.158 A 
BRANCH  15  18
ATOM     18  O   UNL     1      13.943   5.278  16.152  1.00  0.00    -0.504 OA
ATOM     19  H   UNL     1      13.116   5.813  16.389  1.00  0.00     0.293 HD
ENDBRANCH  15  18
BRANCH  17  20
ATOM     20  O   UNL     1      12.071   4.599  14.149  1.00  0.00    -0.504 OA
ATOM     21  H   UNL     1      11.962   5.516  14.565  1.00  0.00     0.293 HD
ENDBRANCH  17  20
ENDBRANCH   1  12
BRANCH   2  22
ATOM     22  O   UNL     1      15.190   0.390  12.466  1.00  0.00    -0.502 OA
ATOM     23  H   UNL     1      14.947   1.367  12.362  1.00  0.00     0.293 HD
ENDBRANCH   2  22
BRANCH   6  24
ATOM     24  O   UNL     1      14.113  -4.823  12.251  1.00  0.00    -0.507 OA
ATOM     25  H   UNL     1      13.776  -5.530  11.615  1.00  0.00     0.293 HD
ENDBRANCH   6  24
BRANCH   8  26
ATOM     26  O   UNL     1      10.643  -5.125  15.533  1.00  0.00    -0.508 OA
ATOM     27  H   UNL     1       9.955  -5.672  15.029  1.00  0.00     0.293 HD
ENDBRANCH   8  26
TORSDOF 6
ENDMDL
MODEL 9
REMARK VINA RESULT:    -6.541      1.913      2.765
REMARK INTER + INTRA:          -8.201
REMARK INTER:                  -7.954
REMARK INTRA:                  -0.248
REMARK UNBOUND:                -0.322
REMARK SMILES O=c1c(O)c(-c2ccc(O)c(O)c2)oc2cc(O)cc(O)c12
REMARK SMILES IDX 5 1 3 2 2 3 1 4 22 5 20 6 19 7 17 8 16 9 15 10 14 11 6 12
REMARK SMILES IDX 7 13 8 14 9 15 13 16 11 17 10 18 12 20 4 22 21 24 18 26
REMARK H PARENT 10 19 12 21 4 23 21 25 18 27
REMARK Flexibility Score: inf
ROOT
ATOM      1  C   UNL     1      13.641   1.287  14.854  1.00  0.00     0.180 A 
ATOM      2  C   UNL     1      12.586   0.692  15.567  1.00  0.00     0.208 A 
ATOM      3  C   UNL     1      11.959  -0.445  15.034  1.00  0.00     0.238 A 
ATOM      4  O   UNL     1      11.052  -1.004  15.703  1.00  0.00    -0.285 OA
ATOM      5  C   UNL     1      12.383  -0.964  13.787  1.00  0.00     0.111 A 
ATOM      6  C   UNL     1      11.794  -2.087  13.133  1.00  0.00     0.134 A 
ATOM      7  C   UNL     1      12.379  -2.593  11.966  1.00  0.00     0.093 A 
ATOM      8  C   UNL     1      13.492  -1.979  11.394  1.00  0.00     0.123 A 
ATOM      9  C   UNL     1      14.040  -0.844  11.992  1.00  0.00     0.094 A 
ATOM     10  C   UNL     1      13.501  -0.337  13.176  1.00  0.00     0.146 A 
ATOM     11  O   UNL     1      14.059   0.737  13.720  1.00  0.00    -0.452 OA
ENDROOT
BRANCH   1  12
ATOM     12  C   UNL     1      14.335   2.502  15.339  1.00  0.00     0.025 A 
ATOM     13  C   UNL     1      15.674   2.415  15.750  1.00  0.00     0.016 A 
ATOM     14  C   UNL     1      16.354   3.553  16.193  1.00  0.00     0.051 A 
ATOM     15  C   UNL     1      15.709   4.798  16.214  1.00  0.00     0.157 A 
ATOM     16  C   UNL     1      13.698   3.756  15.343  1.00  0.00     0.062 A 
ATOM     17  C   UNL     1      14.377   4.899  15.783  1.00  0.00     0.158 A 
BRANCH  15  18
ATOM     18  O   UNL     1      16.390   5.931  16.657  1.00  0.00    -0.504 OA
ATOM     19  H   UNL     1      16.081   6.865  16.414  1.00  0.00     0.293 HD
ENDBRANCH  15  18
BRANCH  17  20
ATOM     20  O   UNL     1      13.712   6.125  15.778  1.00  0.00    -0.504 OA
ATOM     21  H   UNL     1      14.141   6.968  15.416  1.00  0.00     0.293 HD
ENDBRANCH  17  20
ENDBRANCH   1  12
BRANCH   2  22
ATOM     22  O   UNL     1      12.197   1.208  16.807  1.00  0.00    -0.502 OA
ATOM     23  H   UNL     1      11.804   2.135  16.909  1.00  0.00     0.293 HD
ENDBRANCH   2  22
BRANCH   6  24
ATOM     24  O   UNL     1      10.626  -2.720  13.570  1.00  0.00    -0.507 OA
ATOM     25  H   UNL     1       9.941  -2.303  14.183  1.00  0.00     0.293 HD
ENDBRANCH   6  24
BRANCH   8  26
ATOM     26  O   UNL     1      14.038  -2.500  10.222  1.00  0.00    -0.508 OA
ATOM     27  H   UNL     1      14.954  -2.933  10.213  1.00  0.00     0.293 HD
ENDBRANCH   8  26
TORSDOF 6
ENDMDL
