MODEL 1
REMARK VINA RESULT:    -4.356      0.000      0.000
REMARK INTER + INTRA:          -7.434
REMARK INTER:                  -6.648
REMARK INTRA:                  -0.786
REMARK UNBOUND:                -0.786
REMARK SMILES O=C([O-])CCCCCCCCC(=O)[O-]
REMARK SMILES IDX 7 1 6 2 5 3 4 4 2 5 1 6 3 7 8 8 9 9 10 10 11 11 12 12 13 13
REMARK SMILES IDX 14 14
REMARK H PARENT
REMARK Flexibility Score: inf
ROOT
ATOM      1  C   UNL     1     -44.458  27.967 -15.119  1.00  0.00     0.000 C 
ENDROOT
BRANCH   1   2
ATOM      2  C   UNL     1     -45.022  28.700 -16.341  1.00  0.00     0.000 C 
BRANCH   2   3
ATOM      3  C   UNL     1     -44.625  27.989 -17.641  1.00  0.00     0.006 C 
BRANCH   3   4
ATOM      4  C   UNL     1     -45.006  26.507 -17.595  1.00  0.00     0.053 C 
BRANCH   4   5
ATOM      5  C   UNL     1     -44.765  25.862 -18.923  1.00  0.00     0.041 C 
ATOM      6  O   UNL     1     -44.095  26.460 -19.805  1.00  0.00    -0.550 OA
ATOM      7  O   UNL     1     -45.323  24.621 -19.205  1.00  0.00    -0.550 OA
ENDBRANCH   4   5
ENDBRANCH   3   4
ENDBRANCH   2   3
ENDBRANCH   1   2
BRANCH   1   8
ATOM      8  C   UNL     1     -45.579  27.594 -14.136  1.00  0.00     0.000 C 
BRANCH   8   9
ATOM      9  C   UNL     1     -45.752  26.074 -13.985  1.00  0.00     0.000 C 
BRANCH   9  10
ATOM     10  C   UNL     1     -47.227  25.647 -13.951  1.00  0.00     0.006 C 
BRANCH  10  11
ATOM     11  C   UNL     1     -47.963  26.120 -15.209  1.00  0.00     0.053 C 
BRANCH  11  12
ATOM     12  C   UNL     1     -48.464  24.950 -15.994  1.00  0.00     0.041 C 
ATOM     13  O   UNL     1     -48.017  24.722 -17.148  1.00  0.00    -0.550 OA
ATOM     14  O   UNL     1     -49.391  24.081 -15.432  1.00  0.00    -0.550 OA
ENDBRANCH  11  12
ENDBRANCH  10  11
ENDBRANCH   9  10
ENDBRANCH   8   9
ENDBRANCH   1   8
TORSDOF 9
ENDMDL
MODEL 2
REMARK VINA RESULT:    -4.335      1.010      1.450
REMARK INTER + INTRA:          -7.402
REMARK INTER:                  -6.454
REMARK INTRA:                  -0.948
REMARK UNBOUND:                -0.786
REMARK SMILES O=C([O-])CCCCCCCCC(=O)[O-]
REMARK SMILES IDX 7 1 6 2 5 3 4 4 2 5 1 6 3 7 8 8 9 9 10 10 11 11 12 12 13 13
REMARK SMILES IDX 14 14
REMARK H PARENT
REMARK Flexibility Score: inf
ROOT
ATOM      1  C   UNL     1     -45.173  26.877 -15.095  1.00  0.00     0.000 C 
ENDROOT
BRANCH   1   2
ATOM      2  C   UNL     1     -45.690  28.030 -15.964  1.00  0.00     0.000 C 
BRANCH   2   3
ATOM      3  C   UNL     1     -45.464  27.741 -17.453  1.00  0.00     0.006 C 
BRANCH   3   4
ATOM      4  C   UNL     1     -44.640  26.464 -17.646  1.00  0.00     0.053 C 
BRANCH   4   5
ATOM      5  C   UNL     1     -44.845  25.911 -19.021  1.00  0.00     0.041 C 
ATOM      6  O   UNL     1     -45.273  24.737 -19.174  1.00  0.00    -0.550 OA
ATOM      7  O   UNL     1     -44.518  26.675 -20.134  1.00  0.00    -0.550 OA
ENDBRANCH   4   5
ENDBRANCH   3   4
ENDBRANCH   2   3
ENDBRANCH   1   2
BRANCH   1   8
ATOM      8  C   UNL     1     -45.737  26.969 -13.669  1.00  0.00     0.000 C 
BRANCH   8   9
ATOM      9  C   UNL     1     -47.203  26.514 -13.581  1.00  0.00     0.000 C 
BRANCH   9  10
ATOM     10  C   UNL     1     -47.418  25.101 -14.142  1.00  0.00     0.006 C 
BRANCH  10  11
ATOM     11  C   UNL     1     -48.714  25.028 -14.957  1.00  0.00     0.053 C 
BRANCH  11  12
ATOM     12  C   UNL     1     -48.504  25.593 -16.326  1.00  0.00     0.041 C 
ATOM     13  O   UNL     1     -47.954  24.899 -17.220  1.00  0.00    -0.550 OA
ATOM     14  O   UNL     1     -48.960  26.870 -16.629  1.00  0.00    -0.550 OA
ENDBRANCH  11  12
ENDBRANCH  10  11
ENDBRANCH   9  10
ENDBRANCH   8   9
ENDBRANCH   1   8
TORSDOF 9
ENDMDL
MODEL 3
REMARK VINA RESULT:    -4.330      1.540      5.131
REMARK INTER + INTRA:          -7.394
REMARK INTER:                  -6.553
REMARK INTRA:                  -0.841
REMARK UNBOUND:                -0.786
REMARK SMILES O=C([O-])CCCCCCCCC(=O)[O-]
REMARK SMILES IDX 7 1 6 2 5 3 4 4 2 5 1 6 3 7 8 8 9 9 10 10 11 11 12 12 13 13
REMARK SMILES IDX 14 14
REMARK H PARENT
REMARK Flexibility Score: inf
ROOT
ATOM      1  C   UNL     1     -47.242  25.485 -14.005  1.00  0.00     0.000 C 
ENDROOT
BRANCH   1   2
ATOM      2  C   UNL     1     -48.291  26.538 -14.381  1.00  0.00     0.000 C 
BRANCH   2   3
ATOM      3  C   UNL     1     -49.238  26.008 -15.465  1.00  0.00     0.006 C 
BRANCH   3   4
ATOM      4  C   UNL     1     -49.474  24.504 -15.301  1.00  0.00     0.053 C 
BRANCH   4   5
ATOM      5  C   UNL     1     -50.892  24.236 -14.909  1.00  0.00     0.041 C 
ATOM      6  O   UNL     1     -51.299  23.052 -14.773  1.00  0.00    -0.550 OA
ATOM      7  O   UNL     1     -51.779  25.292 -14.742  1.00  0.00    -0.550 OA
ENDBRANCH   4   5
ENDBRANCH   3   4
ENDBRANCH   2   3
ENDBRANCH   1   2
BRANCH   1   8
ATOM      8  C   UNL     1     -45.854  26.126 -13.843  1.00  0.00     0.000 C 
BRANCH   8   9
ATOM      9  C   UNL     1     -45.605  27.261 -14.849  1.00  0.00     0.000 C 
BRANCH   9  10
ATOM     10  C   UNL     1     -45.032  26.755 -16.182  1.00  0.00     0.006 C 
BRANCH  10  11
ATOM     11  C   UNL     1     -46.033  26.967 -17.322  1.00  0.00     0.053 C 
BRANCH  11  12
ATOM     12  C   UNL     1     -46.194  25.711 -18.118  1.00  0.00     0.041 C 
ATOM     13  O   UNL     1     -47.279  25.074 -18.084  1.00  0.00    -0.550 OA
ATOM     14  O   UNL     1     -45.162  25.268 -18.936  1.00  0.00    -0.550 OA
ENDBRANCH  11  12
ENDBRANCH  10  11
ENDBRANCH   9  10
ENDBRANCH   8   9
ENDBRANCH   1   8
TORSDOF 9
ENDMDL
MODEL 4
REMARK VINA RESULT:    -4.294      0.943      4.312
REMARK INTER + INTRA:          -7.339
REMARK INTER:                  -6.453
REMARK INTRA:                  -0.886
REMARK UNBOUND:                -0.786
REMARK SMILES O=C([O-])CCCCCCCCC(=O)[O-]
REMARK SMILES IDX 7 1 6 2 5 3 4 4 2 5 1 6 3 7 8 8 9 9 10 10 11 11 12 12 13 13
REMARK SMILES IDX 14 14
REMARK H PARENT
REMARK Flexibility Score: inf
ROOT
ATOM      1  C   UNL     1     -45.642  26.120 -14.204  1.00  0.00     0.000 C 
ENDROOT
BRANCH   1   2
ATOM      2  C   UNL     1     -47.024  25.845 -13.599  1.00  0.00     0.000 C 
BRANCH   2   3
ATOM      3  C   UNL     1     -47.960  25.202 -14.631  1.00  0.00     0.006 C 
BRANCH   3   4
ATOM      4  C   UNL     1     -48.512  26.251 -15.600  1.00  0.00     0.053 C 
BRANCH   4   5
ATOM      5  C   UNL     1     -48.285  25.827 -17.016  1.00  0.00     0.041 C 
ATOM      6  O   UNL     1     -48.074  24.616 -17.289  1.00  0.00    -0.550 OA
ATOM      7  O   UNL     1     -48.256  26.776 -18.030  1.00  0.00    -0.550 OA
ENDBRANCH   4   5
ENDBRANCH   3   4
ENDBRANCH   2   3
ENDBRANCH   1   2
BRANCH   1   8
ATOM      8  C   UNL     1     -45.355  27.629 -14.254  1.00  0.00     0.000 C 
BRANCH   8   9
ATOM      9  C   UNL     1     -45.100  28.136 -15.682  1.00  0.00     0.000 C 
BRANCH   9  10
ATOM     10  C   UNL     1     -44.885  26.994 -16.687  1.00  0.00     0.006 C 
BRANCH  10  11
ATOM     11  C   UNL     1     -44.452  27.541 -18.051  1.00  0.00     0.053 C 
BRANCH  11  12
ATOM     12  C   UNL     1     -44.432  26.447 -19.071  1.00  0.00     0.041 C 
ATOM     13  O   UNL     1     -43.752  26.574 -20.123  1.00  0.00    -0.550 OA
ATOM     14  O   UNL     1     -45.125  25.265 -18.838  1.00  0.00    -0.550 OA
ENDBRANCH  11  12
ENDBRANCH  10  11
ENDBRANCH   9  10
ENDBRANCH   8   9
ENDBRANCH   1   8
TORSDOF 9
ENDMDL
MODEL 5
REMARK VINA RESULT:    -4.284      1.280      1.858
REMARK INTER + INTRA:          -7.324
REMARK INTER:                  -6.541
REMARK INTRA:                  -0.784
REMARK UNBOUND:                -0.786
REMARK SMILES O=C([O-])CCCCCCCCC(=O)[O-]
REMARK SMILES IDX 7 1 6 2 5 3 4 4 2 5 1 6 3 7 8 8 9 9 10 10 11 11 12 12 13 13
REMARK SMILES IDX 14 14
REMARK H PARENT
REMARK Flexibility Score: inf
ROOT
ATOM      1  C   UNL     1     -45.022  26.484 -14.645  1.00  0.00     0.000 C 
ENDROOT
BRANCH   1   2
ATOM      2  C   UNL     1     -44.885  27.928 -15.142  1.00  0.00     0.000 C 
BRANCH   2   3
ATOM      3  C   UNL     1     -45.230  28.032 -16.633  1.00  0.00     0.006 C 
BRANCH   3   4
ATOM      4  C   UNL     1     -44.726  26.806 -17.400  1.00  0.00     0.053 C 
BRANCH   4   5
ATOM      5  C   UNL     1     -45.814  26.241 -18.257  1.00  0.00     0.041 C 
ATOM      6  O   UNL     1     -46.898  26.865 -18.398  1.00  0.00    -0.550 OA
ATOM      7  O   UNL     1     -45.650  25.001 -18.862  1.00  0.00    -0.550 OA
ENDBRANCH   4   5
ENDBRANCH   3   4
ENDBRANCH   2   3
ENDBRANCH   1   2
BRANCH   1   8
ATOM      8  C   UNL     1     -46.108  26.376 -13.563  1.00  0.00     0.000 C 
BRANCH   8   9
ATOM      9  C   UNL     1     -47.218  25.381 -13.935  1.00  0.00     0.000 C 
BRANCH   9  10
ATOM     10  C   UNL     1     -48.004  25.810 -15.184  1.00  0.00     0.006 C 
BRANCH  10  11
ATOM     11  C   UNL     1     -48.792  24.632 -15.765  1.00  0.00     0.053 C 
BRANCH  11  12
ATOM     12  C   UNL     1     -50.170  24.588 -15.186  1.00  0.00     0.041 C 
ATOM     13  O   UNL     1     -50.795  25.656 -14.953  1.00  0.00    -0.550 OA
ATOM     14  O   UNL     1     -50.787  23.365 -14.949  1.00  0.00    -0.550 OA
ENDBRANCH  11  12
ENDBRANCH  10  11
ENDBRANCH   9  10
ENDBRANCH   8   9
ENDBRANCH   1   8
TORSDOF 9
ENDMDL
MODEL 6
REMARK VINA RESULT:    -4.262      1.026      4.701
REMARK INTER + INTRA:          -7.291
REMARK INTER:                  -6.470
REMARK INTRA:                  -0.821
REMARK UNBOUND:                -0.786
REMARK SMILES O=C([O-])CCCCCCCCC(=O)[O-]
REMARK SMILES IDX 7 1 6 2 5 3 4 4 2 5 1 6 3 7 8 8 9 9 10 10 11 11 12 12 13 13
REMARK SMILES IDX 14 14
REMARK H PARENT
REMARK Flexibility Score: inf
ROOT
ATOM      1  C   UNL     1     -45.587  27.558 -13.930  1.00  0.00     0.000 C 
ENDROOT
BRANCH   1   2
ATOM      2  C   UNL     1     -46.781  26.845 -13.284  1.00  0.00     0.000 C 
BRANCH   2   3
ATOM      3  C   UNL     1     -47.334  25.750 -14.205  1.00  0.00     0.006 C 
BRANCH   3   4
ATOM      4  C   UNL     1     -48.647  26.192 -14.857  1.00  0.00     0.053 C 
BRANCH   4   5
ATOM      5  C   UNL     1     -49.448  25.002 -15.280  1.00  0.00     0.041 C 
ATOM      6  O   UNL     1     -48.892  24.045 -15.880  1.00  0.00    -0.550 OA
ATOM      7  O   UNL     1     -50.819  24.971 -15.056  1.00  0.00    -0.550 OA
ENDBRANCH   4   5
ENDBRANCH   3   4
ENDBRANCH   2   3
ENDBRANCH   1   2
BRANCH   1   8
ATOM      8  C   UNL     1     -45.038  26.746 -15.114  1.00  0.00     0.000 C 
BRANCH   8   9
ATOM      9  C   UNL     1     -44.665  27.628 -16.315  1.00  0.00     0.000 C 
BRANCH   9  10
ATOM     10  C   UNL     1     -45.778  27.690 -17.373  1.00  0.00     0.006 C 
BRANCH  10  11
ATOM     11  C   UNL     1     -46.193  26.282 -17.811  1.00  0.00     0.053 C 
BRANCH  11  12
ATOM     12  C   UNL     1     -45.349  25.819 -18.955  1.00  0.00     0.041 C 
ATOM     13  O   UNL     1     -45.191  24.588 -19.169  1.00  0.00    -0.550 OA
ATOM     14  O   UNL     1     -44.774  26.746 -19.816  1.00  0.00    -0.550 OA
ENDBRANCH  11  12
ENDBRANCH  10  11
ENDBRANCH   9  10
ENDBRANCH   8   9
ENDBRANCH   1   8
TORSDOF 9
ENDMDL
MODEL 7
REMARK VINA RESULT:    -4.260      2.369      4.035
REMARK INTER + INTRA:          -7.288
REMARK INTER:                  -6.227
REMARK INTRA:                  -1.061
REMARK UNBOUND:                -0.786
REMARK SMILES O=C([O-])CCCCCCCCC(=O)[O-]
REMARK SMILES IDX 7 1 6 2 5 3 4 4 2 5 1 6 3 7 8 8 9 9 10 10 11 11 12 12 13 13
REMARK SMILES IDX 14 14
REMARK H PARENT
REMARK Flexibility Score: inf
ROOT
ATOM      1  C   UNL     1     -44.403  26.639 -18.217  1.00  0.00     0.000 C 
ENDROOT
BRANCH   1   2
ATOM      2  C   UNL     1     -45.605  25.734 -18.511  1.00  0.00     0.000 C 
BRANCH   2   3
ATOM      3  C   UNL     1     -46.919  26.415 -18.106  1.00  0.00     0.006 C 
BRANCH   3   4
ATOM      4  C   UNL     1     -47.876  25.415 -17.450  1.00  0.00     0.053 C 
BRANCH   4   5
ATOM      5  C   UNL     1     -48.711  26.095 -16.412  1.00  0.00     0.041 C 
ATOM      6  O   UNL     1     -49.479  25.421 -15.676  1.00  0.00    -0.550 OA
ATOM      7  O   UNL     1     -48.680  27.478 -16.290  1.00  0.00    -0.550 OA
ENDBRANCH   4   5
ENDBRANCH   3   4
ENDBRANCH   2   3
ENDBRANCH   1   2
BRANCH   1   8
ATOM      8  C   UNL     1     -44.858  27.976 -17.609  1.00  0.00     0.000 C 
BRANCH   8   9
ATOM      9  C   UNL     1     -44.296  28.206 -16.197  1.00  0.00     0.000 C 
BRANCH   9  10
ATOM     10  C   UNL     1     -45.343  27.971 -15.098  1.00  0.00     0.006 C 
BRANCH  10  11
ATOM     11  C   UNL     1     -45.337  26.507 -14.643  1.00  0.00     0.053 C 
BRANCH  11  12
ATOM     12  C   UNL     1     -46.490  26.239 -13.728  1.00  0.00     0.041 C 
ATOM     13  O   UNL     1     -46.848  25.056 -13.490  1.00  0.00    -0.550 OA
ATOM     14  O   UNL     1     -47.139  27.294 -13.098  1.00  0.00    -0.550 OA
ENDBRANCH  11  12
ENDBRANCH  10  11
ENDBRANCH   9  10
ENDBRANCH   8   9
ENDBRANCH   1   8
TORSDOF 9
ENDMDL
MODEL 8
REMARK VINA RESULT:    -4.194      1.583      2.156
REMARK INTER + INTRA:          -7.186
REMARK INTER:                  -6.491
REMARK INTRA:                  -0.695
REMARK UNBOUND:                -0.786
REMARK SMILES O=C([O-])CCCCCCCCC(=O)[O-]
REMARK SMILES IDX 7 1 6 2 5 3 4 4 2 5 1 6 3 7 8 8 9 9 10 10 11 11 12 12 13 13
REMARK SMILES IDX 14 14
REMARK H PARENT
REMARK Flexibility Score: inf
ROOT
ATOM      1  C   UNL     1     -45.426  28.000 -16.718  1.00  0.00     0.000 C 
ENDROOT
BRANCH   1   2
ATOM      2  C   UNL     1     -45.323  26.589 -17.309  1.00  0.00     0.000 C 
BRANCH   2   3
ATOM      3  C   UNL     1     -44.255  26.529 -18.408  1.00  0.00     0.006 C 
BRANCH   3   4
ATOM      4  C   UNL     1     -43.748  27.931 -18.758  1.00  0.00     0.053 C 
BRANCH   4   5
ATOM      5  C   UNL     1     -43.020  27.914 -20.065  1.00  0.00     0.041 C 
ATOM      6  O   UNL     1     -42.012  28.648 -20.238  1.00  0.00    -0.550 OA
ATOM      7  O   UNL     1     -43.484  27.124 -21.109  1.00  0.00    -0.550 OA
ENDBRANCH   4   5
ENDBRANCH   3   4
ENDBRANCH   2   3
ENDBRANCH   1   2
BRANCH   1   8
ATOM      8  C   UNL     1     -45.192  27.978 -15.199  1.00  0.00     0.000 C 
BRANCH   8   9
ATOM      9  C   UNL     1     -45.244  26.558 -14.613  1.00  0.00     0.000 C 
BRANCH   9  10
ATOM     10  C   UNL     1     -46.375  26.382 -13.588  1.00  0.00     0.006 C 
BRANCH  10  11
ATOM     11  C   UNL     1     -47.206  25.133 -13.901  1.00  0.00     0.053 C 
BRANCH  11  12
ATOM     12  C   UNL     1     -48.184  25.416 -14.996  1.00  0.00     0.041 C 
ATOM     13  O   UNL     1     -48.650  26.576 -15.146  1.00  0.00    -0.550 OA
ATOM     14  O   UNL     1     -48.546  24.410 -15.883  1.00  0.00    -0.550 OA
ENDBRANCH  11  12
ENDBRANCH  10  11
ENDBRANCH   9  10
ENDBRANCH   8   9
ENDBRANCH   1   8
TORSDOF 9
ENDMDL
MODEL 9
REMARK VINA RESULT:    -4.178      2.811      5.406
REMARK INTER + INTRA:          -7.162
REMARK INTER:                  -6.100
REMARK INTRA:                  -1.062
REMARK UNBOUND:                -0.786
REMARK SMILES O=C([O-])CCCCCCCCC(=O)[O-]
REMARK SMILES IDX 7 1 6 2 5 3 4 4 2 5 1 6 3 7 8 8 9 9 10 10 11 11 12 12 13 13
REMARK SMILES IDX 14 14
REMARK H PARENT
REMARK Flexibility Score: inf
ROOT
ATOM      1  C   UNL     1     -48.381  26.374 -17.752  1.00  0.00     0.000 C 
ENDROOT
BRANCH   1   2
ATOM      2  C   UNL     1     -48.018  25.010 -17.153  1.00  0.00     0.000 C 
BRANCH   2   3
ATOM      3  C   UNL     1     -48.745  24.782 -15.822  1.00  0.00     0.006 C 
BRANCH   3   4
ATOM      4  C   UNL     1     -49.636  25.978 -15.471  1.00  0.00     0.053 C 
BRANCH   4   5
ATOM      5  C   UNL     1     -50.990  25.512 -15.038  1.00  0.00     0.041 C 
ATOM      6  O   UNL     1     -51.253  24.282 -14.995  1.00  0.00    -0.550 OA
ATOM      7  O   UNL     1     -51.977  26.439 -14.727  1.00  0.00    -0.550 OA
ENDBRANCH   4   5
ENDBRANCH   3   4
ENDBRANCH   2   3
ENDBRANCH   1   2
BRANCH   1   8
ATOM      8  C   UNL     1     -47.116  27.194 -18.056  1.00  0.00     0.000 C 
BRANCH   8   9
ATOM      9  C   UNL     1     -45.834  26.513 -17.551  1.00  0.00     0.000 C 
BRANCH   9  10
ATOM     10  C   UNL     1     -45.083  27.360 -16.513  1.00  0.00     0.006 C 
BRANCH  10  11
ATOM     11  C   UNL     1     -45.090  26.676 -15.142  1.00  0.00     0.053 C 
BRANCH  11  12
ATOM     12  C   UNL     1     -46.245  27.158 -14.323  1.00  0.00     0.041 C 
ATOM     13  O   UNL     1     -46.863  28.204 -14.652  1.00  0.00    -0.550 OA
ATOM     14  O   UNL     1     -46.672  26.423 -13.223  1.00  0.00    -0.550 OA
ENDBRANCH  11  12
ENDBRANCH  10  11
ENDBRANCH   9  10
ENDBRANCH   8   9
ENDBRANCH   1   8
TORSDOF 9
ENDMDL
