MODEL 1
REMARK VINA RESULT:    -3.882      0.000      0.000
REMARK INTER + INTRA:          -4.501
REMARK INTER:                  -4.449
REMARK INTRA:                  -0.052
REMARK UNBOUND:                -0.052
REMARK SMILES O=C([O-])c1cc(O)c(O)c(O)c1
REMARK SMILES IDX 4 1 5 2 12 3 6 4 10 5 8 6 2 7 1 8 3 9 7 10 11 12 9 14
REMARK H PARENT 7 11 11 13 9 15
REMARK Flexibility Score: inf
ROOT
ATOM      1  C   UNL     1    -117.040  12.310  21.300  1.00  0.00     0.005 A 
ATOM      2  C   UNL     1    -116.347  11.936  22.464  1.00  0.00     0.060 A 
ATOM      3  C   UNL     1    -117.886  13.432  21.341  1.00  0.00     0.060 A 
ATOM      4  C   UNL     1    -116.494  12.669  23.649  1.00  0.00     0.162 A 
ATOM      5  C   UNL     1    -118.036  14.168  22.524  1.00  0.00     0.162 A 
ATOM      6  C   UNL     1    -117.341  13.789  23.680  1.00  0.00     0.200 A 
ENDROOT
BRANCH   1   7
ATOM      7  C   UNL     1    -116.880  11.531  20.053  1.00  0.00     0.072 C 
ATOM      8  O   UNL     1    -115.870  10.797  19.880  1.00  0.00    -0.545 OA
ATOM      9  O   UNL     1    -117.842  11.596  19.051  1.00  0.00    -0.545 OA
ENDBRANCH   1   7
BRANCH   4  10
ATOM     10  O   UNL     1    -115.802  12.288  24.798  1.00  0.00    -0.504 OA
ATOM     11  H   UNL     1    -114.838  12.562  24.953  1.00  0.00     0.293 HD
ENDBRANCH   4  10
BRANCH   5  12
ATOM     12  O   UNL     1    -118.875  15.280  22.559  1.00  0.00    -0.504 OA
ATOM     13  H   UNL     1    -119.674  15.363  21.939  1.00  0.00     0.293 HD
ENDBRANCH   5  12
BRANCH   6  14
ATOM     14  O   UNL     1    -117.505  14.534  24.848  1.00  0.00    -0.502 OA
ATOM     15  H   UNL     1    -116.899  15.312  25.079  1.00  0.00     0.293 HD
ENDBRANCH   6  14
TORSDOF 4
ENDMDL
MODEL 2
REMARK VINA RESULT:    -3.877      0.052      2.422
REMARK INTER + INTRA:          -4.495
REMARK INTER:                  -4.443
REMARK INTRA:                  -0.052
REMARK UNBOUND:                -0.052
REMARK SMILES O=C([O-])c1cc(O)c(O)c(O)c1
REMARK SMILES IDX 4 1 5 2 12 3 6 4 10 5 8 6 2 7 1 8 3 9 7 10 11 12 9 14
REMARK H PARENT 7 11 11 13 9 15
REMARK Flexibility Score: inf
ROOT
ATOM      1  C   UNL     1    -117.025  12.304  21.302  1.00  0.00     0.005 A 
ATOM      2  C   UNL     1    -117.861  13.433  21.320  1.00  0.00     0.060 A 
ATOM      3  C   UNL     1    -116.333  11.948  22.473  1.00  0.00     0.060 A 
ATOM      4  C   UNL     1    -118.007  14.195  22.488  1.00  0.00     0.162 A 
ATOM      5  C   UNL     1    -116.476  12.707  23.642  1.00  0.00     0.162 A 
ATOM      6  C   UNL     1    -117.312  13.831  23.652  1.00  0.00     0.200 A 
ENDROOT
BRANCH   1   7
ATOM      7  C   UNL     1    -116.877  11.505  20.065  1.00  0.00     0.072 C 
ATOM      8  O   UNL     1    -115.885  10.744  19.909  1.00  0.00    -0.545 OA
ATOM      9  O   UNL     1    -117.832  11.581  19.058  1.00  0.00    -0.545 OA
ENDBRANCH   1   7
BRANCH   4  10
ATOM     10  O   UNL     1    -118.839  15.314  22.493  1.00  0.00    -0.504 OA
ATOM     11  H   UNL     1    -118.468  16.253  22.391  1.00  0.00     0.293 HD
ENDBRANCH   4  10
BRANCH   5  12
ATOM     12  O   UNL     1    -115.789  12.350  24.801  1.00  0.00    -0.504 OA
ATOM     13  H   UNL     1    -115.423  11.414  24.934  1.00  0.00     0.293 HD
ENDBRANCH   5  12
BRANCH   6  14
ATOM     14  O   UNL     1    -117.439  14.575  24.826  1.00  0.00    -0.502 OA
ATOM     15  H   UNL     1    -116.749  14.535  25.567  1.00  0.00     0.293 HD
ENDBRANCH   6  14
TORSDOF 4
ENDMDL
MODEL 3
REMARK VINA RESULT:    -3.781      1.263      2.537
REMARK INTER + INTRA:          -4.385
REMARK INTER:                  -4.333
REMARK INTRA:                  -0.052
REMARK UNBOUND:                -0.052
REMARK SMILES O=C([O-])c1cc(O)c(O)c(O)c1
REMARK SMILES IDX 4 1 5 2 12 3 6 4 10 5 8 6 2 7 1 8 3 9 7 10 11 12 9 14
REMARK H PARENT 7 11 11 13 9 15
REMARK Flexibility Score: inf
ROOT
ATOM      1  C   UNL     1    -116.501  12.147  22.610  1.00  0.00     0.005 A 
ATOM      2  C   UNL     1    -116.650  12.954  23.751  1.00  0.00     0.060 A 
ATOM      3  C   UNL     1    -117.212  12.478  21.443  1.00  0.00     0.060 A 
ATOM      4  C   UNL     1    -117.493  14.073  23.729  1.00  0.00     0.162 A 
ATOM      5  C   UNL     1    -118.057  13.595  21.417  1.00  0.00     0.162 A 
ATOM      6  C   UNL     1    -118.199  14.395  22.559  1.00  0.00     0.200 A 
ENDROOT
BRANCH   1   7
ATOM      7  C   UNL     1    -115.608  10.967  22.641  1.00  0.00     0.072 C 
ATOM      8  O   UNL     1    -115.175  10.520  23.736  1.00  0.00    -0.545 OA
ATOM      9  O   UNL     1    -115.234  10.335  21.460  1.00  0.00    -0.545 OA
ENDBRANCH   1   7
BRANCH   4  10
ATOM     10  O   UNL     1    -117.634  14.866  24.868  1.00  0.00    -0.504 OA
ATOM     11  H   UNL     1    -117.746  15.871  24.805  1.00  0.00     0.293 HD
ENDBRANCH   4  10
BRANCH   5  12
ATOM     12  O   UNL     1    -118.759  13.919  20.258  1.00  0.00    -0.504 OA
ATOM     13  H   UNL     1    -118.605  13.424  19.387  1.00  0.00     0.293 HD
ENDBRANCH   5  12
BRANCH   6  14
ATOM     14  O   UNL     1    -119.046  15.503  22.513  1.00  0.00    -0.502 OA
ATOM     15  H   UNL     1    -118.992  16.251  23.194  1.00  0.00     0.293 HD
ENDBRANCH   6  14
TORSDOF 4
ENDMDL
MODEL 4
REMARK VINA RESULT:    -3.734      1.331      3.130
REMARK INTER + INTRA:          -4.331
REMARK INTER:                  -4.281
REMARK INTRA:                  -0.050
REMARK UNBOUND:                -0.052
REMARK SMILES O=C([O-])c1cc(O)c(O)c(O)c1
REMARK SMILES IDX 4 1 5 2 12 3 6 4 10 5 8 6 2 7 1 8 3 9 7 10 11 12 9 14
REMARK H PARENT 7 11 11 13 9 15
REMARK Flexibility Score: inf
ROOT
ATOM      1  C   UNL     1    -116.398  12.010  22.659  1.00  0.00     0.005 A 
ATOM      2  C   UNL     1    -117.115  12.303  21.487  1.00  0.00     0.060 A 
ATOM      3  C   UNL     1    -116.540  12.854  23.774  1.00  0.00     0.060 A 
ATOM      4  C   UNL     1    -117.960  13.420  21.427  1.00  0.00     0.162 A 
ATOM      5  C   UNL     1    -117.383  13.971  23.719  1.00  0.00     0.162 A 
ATOM      6  C   UNL     1    -118.095  14.257  22.547  1.00  0.00     0.200 A 
ENDROOT
BRANCH   1   7
ATOM      7  C   UNL     1    -115.508  10.829  22.714  1.00  0.00     0.072 C 
ATOM      8  O   UNL     1    -115.786   9.786  22.065  1.00  0.00    -0.545 OA
ATOM      9  O   UNL     1    -114.350  10.854  23.482  1.00  0.00    -0.545 OA
ENDBRANCH   1   7
BRANCH   4  10
ATOM     10  O   UNL     1    -118.666  13.702  20.258  1.00  0.00    -0.504 OA
ATOM     11  H   UNL     1    -119.273  14.511  20.185  1.00  0.00     0.293 HD
ENDBRANCH   4  10
BRANCH   5  12
ATOM     12  O   UNL     1    -117.521  14.804  24.828  1.00  0.00    -0.504 OA
ATOM     13  H   UNL     1    -117.269  15.786  24.789  1.00  0.00     0.293 HD
ENDBRANCH   5  12
BRANCH   6  14
ATOM     14  O   UNL     1    -118.930  15.375  22.511  1.00  0.00    -0.502 OA
ATOM     15  H   UNL     1    -119.165  15.898  23.346  1.00  0.00     0.293 HD
ENDBRANCH   6  14
TORSDOF 4
ENDMDL
MODEL 5
REMARK VINA RESULT:    -3.709      1.128      3.689
REMARK INTER + INTRA:          -4.303
REMARK INTER:                  -4.258
REMARK INTRA:                  -0.045
REMARK UNBOUND:                -0.052
REMARK SMILES O=C([O-])c1cc(O)c(O)c(O)c1
REMARK SMILES IDX 4 1 5 2 12 3 6 4 10 5 8 6 2 7 1 8 3 9 7 10 11 12 9 14
REMARK H PARENT 7 11 11 13 9 15
REMARK Flexibility Score: inf
ROOT
ATOM      1  C   UNL     1    -116.346  12.359  23.443  1.00  0.00     0.005 A 
ATOM      2  C   UNL     1    -116.382  11.815  22.149  1.00  0.00     0.060 A 
ATOM      3  C   UNL     1    -117.100  13.513  23.720  1.00  0.00     0.060 A 
ATOM      4  C   UNL     1    -117.159  12.410  21.145  1.00  0.00     0.162 A 
ATOM      5  C   UNL     1    -117.878  14.111  22.720  1.00  0.00     0.162 A 
ATOM      6  C   UNL     1    -117.909  13.562  21.431  1.00  0.00     0.200 A 
ENDROOT
BRANCH   1   7
ATOM      7  C   UNL     1    -115.523  11.725  24.497  1.00  0.00     0.072 C 
ATOM      8  O   UNL     1    -114.439  12.250  24.868  1.00  0.00    -0.545 OA
ATOM      9  O   UNL     1    -115.934  10.539  25.095  1.00  0.00    -0.545 OA
ENDBRANCH   1   7
BRANCH   4  10
ATOM     10  O   UNL     1    -117.187  11.861  19.864  1.00  0.00    -0.504 OA
ATOM     11  H   UNL     1    -116.480  11.204  19.552  1.00  0.00     0.293 HD
ENDBRANCH   4  10
BRANCH   5  12
ATOM     12  O   UNL     1    -118.624  15.254  22.999  1.00  0.00    -0.504 OA
ATOM     13  H   UNL     1    -119.523  15.422  22.560  1.00  0.00     0.293 HD
ENDBRANCH   5  12
BRANCH   6  14
ATOM     14  O   UNL     1    -118.689  14.173  20.449  1.00  0.00    -0.502 OA
ATOM     15  H   UNL     1    -119.555  13.765  20.118  1.00  0.00     0.293 HD
ENDBRANCH   6  14
TORSDOF 4
ENDMDL
MODEL 6
REMARK VINA RESULT:    -3.648     18.810     19.331
REMARK INTER + INTRA:          -4.233
REMARK INTER:                  -4.180
REMARK INTRA:                  -0.053
REMARK UNBOUND:                -0.052
REMARK SMILES O=C([O-])c1cc(O)c(O)c(O)c1
REMARK SMILES IDX 4 1 5 2 12 3 6 4 10 5 8 6 2 7 1 8 3 9 7 10 11 12 9 14
REMARK H PARENT 7 11 11 13 9 15
REMARK Flexibility Score: inf
ROOT
ATOM      1  C   UNL     1    -101.909  24.365  18.629  1.00  0.00     0.005 A 
ATOM      2  C   UNL     1    -102.972  23.550  19.051  1.00  0.00     0.060 A 
ATOM      3  C   UNL     1    -101.099  23.933  17.564  1.00  0.00     0.060 A 
ATOM      4  C   UNL     1    -103.226  22.324  18.420  1.00  0.00     0.162 A 
ATOM      5  C   UNL     1    -101.349  22.709  16.931  1.00  0.00     0.162 A 
ATOM      6  C   UNL     1    -102.412  21.902  17.357  1.00  0.00     0.200 A 
ENDROOT
BRANCH   1   7
ATOM      7  C   UNL     1    -101.647  25.658  19.300  1.00  0.00     0.072 C 
ATOM      8  O   UNL     1    -100.686  26.387  18.935  1.00  0.00    -0.545 OA
ATOM      9  O   UNL     1    -102.459  26.088  20.344  1.00  0.00    -0.545 OA
ENDBRANCH   1   7
BRANCH   4  10
ATOM     10  O   UNL     1    -104.285  21.523  18.848  1.00  0.00    -0.504 OA
ATOM     11  H   UNL     1    -105.110  21.384  18.276  1.00  0.00     0.293 HD
ENDBRANCH   4  10
BRANCH   5  12
ATOM     12  O   UNL     1    -100.544  22.285  15.875  1.00  0.00    -0.504 OA
ATOM     13  H   UNL     1    -100.817  21.515  15.275  1.00  0.00     0.293 HD
ENDBRANCH   5  12
BRANCH   6  14
ATOM     14  O   UNL     1    -102.644  20.685  16.714  1.00  0.00    -0.502 OA
ATOM     15  H   UNL     1    -102.077  19.865  16.892  1.00  0.00     0.293 HD
ENDBRANCH   6  14
TORSDOF 4
ENDMDL
MODEL 7
REMARK VINA RESULT:    -3.612      1.483      3.036
REMARK INTER + INTRA:          -4.192
REMARK INTER:                  -4.147
REMARK INTRA:                  -0.045
REMARK UNBOUND:                -0.052
REMARK SMILES O=C([O-])c1cc(O)c(O)c(O)c1
REMARK SMILES IDX 4 1 5 2 12 3 6 4 10 5 8 6 2 7 1 8 3 9 7 10 11 12 9 14
REMARK H PARENT 7 11 11 13 9 15
REMARK Flexibility Score: inf
ROOT
ATOM      1  C   UNL     1    -117.861  13.418  21.344  1.00  0.00     0.005 A 
ATOM      2  C   UNL     1    -117.988  14.159  22.531  1.00  0.00     0.060 A 
ATOM      3  C   UNL     1    -117.026  12.288  21.332  1.00  0.00     0.060 A 
ATOM      4  C   UNL     1    -117.296  13.778  23.688  1.00  0.00     0.162 A 
ATOM      5  C   UNL     1    -116.331  11.903  22.486  1.00  0.00     0.162 A 
ATOM      6  C   UNL     1    -116.464  12.647  23.666  1.00  0.00     0.200 A 
ENDROOT
BRANCH   1   7
ATOM      7  C   UNL     1    -118.596  13.827  20.126  1.00  0.00     0.072 C 
ATOM      8  O   UNL     1    -119.680  13.267  19.813  1.00  0.00    -0.545 OA
ATOM      9  O   UNL     1    -118.100  14.837  19.309  1.00  0.00    -0.545 OA
ENDBRANCH   1   7
BRANCH   4  10
ATOM     10  O   UNL     1    -117.430  14.522  24.861  1.00  0.00    -0.504 OA
ATOM     11  H   UNL     1    -118.046  15.325  24.913  1.00  0.00     0.293 HD
ENDBRANCH   4  10
BRANCH   5  12
ATOM     12  O   UNL     1    -115.506  10.781  22.470  1.00  0.00    -0.504 OA
ATOM     13  H   UNL     1    -115.658  10.018  21.819  1.00  0.00     0.293 HD
ENDBRANCH   5  12
BRANCH   6  14
ATOM     14  O   UNL     1    -115.764  12.248  24.806  1.00  0.00    -0.502 OA
ATOM     15  H   UNL     1    -115.480  11.287  24.954  1.00  0.00     0.293 HD
ENDBRANCH   6  14
TORSDOF 4
ENDMDL
