MODEL 1
REMARK VINA RESULT:    10.435      0.000      0.000
REMARK INTER + INTRA:          14.858
REMARK INTER:                  15.316
REMARK INTRA:                  -0.458
REMARK UNBOUND:                -0.458
REMARK SMILES CCCOC(=O)c1ccccc1C(=O)OCCC
REMARK SMILES IDX 7 1 8 2 9 3 10 4 11 5 12 6 5 7 6 8 4 9 3 10 2 11 1 12 13 13
REMARK SMILES IDX 14 14 15 15 16 16 17 17 18 18
REMARK H PARENT
REMARK Flexibility Score: inf
ROOT
ATOM      1  C   UNL     1      90.658   7.586 108.089  1.00  0.00     0.074 A 
ATOM      2  C   UNL     1      91.633   6.922 108.855  1.00  0.00     0.016 A 
ATOM      3  C   UNL     1      92.963   6.876 108.434  1.00  0.00     0.001 A 
ATOM      4  C   UNL     1      93.339   7.491 107.243  1.00  0.00     0.001 A 
ATOM      5  C   UNL     1      92.393   8.176 106.478  1.00  0.00     0.016 A 
ATOM      6  C   UNL     1      91.051   8.254 106.896  1.00  0.00     0.074 A 
ENDROOT
BRANCH   1   7
ATOM      7  C   UNL     1      89.251   7.503 108.537  1.00  0.00     0.339 C 
ATOM      8  O   UNL     1      88.397   6.888 107.841  1.00  0.00    -0.246 OA
BRANCH   7   9
ATOM      9  O   UNL     1      88.887   8.061 109.769  1.00  0.00    -0.462 OA
BRANCH   9  10
ATOM     10  C   UNL     1      87.645   7.791 110.418  1.00  0.00     0.233 C 
BRANCH  10  11
ATOM     11  C   UNL     1      87.850   6.950 111.682  1.00  0.00     0.038 C 
ATOM     12  C   UNL     1      86.843   7.308 112.773  1.00  0.00     0.007 C 
ENDBRANCH  10  11
ENDBRANCH   9  10
ENDBRANCH   7   9
ENDBRANCH   1   7
BRANCH   6  13
ATOM     13  C   UNL     1      90.126   9.092 106.099  1.00  0.00     0.339 C 
ATOM     14  O   UNL     1      89.528   8.609 105.098  1.00  0.00    -0.246 OA
BRANCH  13  15
ATOM     15  O   UNL     1      89.873  10.408 106.499  1.00  0.00    -0.462 OA
BRANCH  15  16
ATOM     16  C   UNL     1      89.066  11.303 105.739  1.00  0.00     0.233 C 
BRANCH  16  17
ATOM     17  C   UNL     1      88.952  12.645 106.460  1.00  0.00     0.038 C 
ATOM     18  C   UNL     1      89.152  13.820 105.505  1.00  0.00     0.007 C 
ENDBRANCH  16  17
ENDBRANCH  15  16
ENDBRANCH  13  15
ENDBRANCH   6  13
TORSDOF 8
ENDMDL
MODEL 2
REMARK VINA RESULT:    13.032      0.739      5.227
REMARK INTER + INTRA:          18.668
REMARK INTER:                  18.643
REMARK INTRA:                   0.026
REMARK UNBOUND:                -0.458
REMARK SMILES CCCOC(=O)c1ccccc1C(=O)OCCC
REMARK SMILES IDX 7 1 8 2 9 3 10 4 11 5 12 6 5 7 6 8 4 9 3 10 2 11 1 12 13 13
REMARK SMILES IDX 14 14 15 15 16 16 17 17 18 18
REMARK H PARENT
REMARK Flexibility Score: inf
ROOT
ATOM      1  C   UNL     1      91.048   8.328 106.695  1.00  0.00     0.074 A 
ATOM      2  C   UNL     1      92.205   8.019 105.958  1.00  0.00     0.016 A 
ATOM      3  C   UNL     1      93.250   7.298 106.538  1.00  0.00     0.001 A 
ATOM      4  C   UNL     1      93.156   6.876 107.861  1.00  0.00     0.001 A 
ATOM      5  C   UNL     1      92.007   7.151 108.605  1.00  0.00     0.016 A 
ATOM      6  C   UNL     1      90.932   7.857 108.033  1.00  0.00     0.074 A 
ENDROOT
BRANCH   1   7
ATOM      7  C   UNL     1      90.028   9.186 106.055  1.00  0.00     0.339 C 
ATOM      8  O   UNL     1      89.300   8.727 105.131  1.00  0.00    -0.246 OA
BRANCH   7   9
ATOM      9  O   UNL     1      89.835  10.492 106.521  1.00  0.00    -0.462 OA
BRANCH   9  10
ATOM     10  C   UNL     1      88.783  11.342 106.066  1.00  0.00     0.233 C 
BRANCH  10  11
ATOM     11  C   UNL     1      89.338  12.628 105.443  1.00  0.00     0.038 C 
ATOM     12  C   UNL     1      88.728  13.876 106.076  1.00  0.00     0.007 C 
ENDBRANCH  10  11
ENDBRANCH   9  10
ENDBRANCH   7   9
ENDBRANCH   1   7
BRANCH   6  13
ATOM     13  C   UNL     1      89.700   8.013 108.839  1.00  0.00     0.339 C 
ATOM     14  O   UNL     1      89.265   9.163 109.126  1.00  0.00    -0.246 OA
BRANCH  13  15
ATOM     15  O   UNL     1      88.986   6.876 109.231  1.00  0.00    -0.462 OA
BRANCH  15  16
ATOM     16  C   UNL     1      87.752   6.947 109.940  1.00  0.00     0.233 C 
BRANCH  16  17
ATOM     17  C   UNL     1      87.992   7.470 111.356  1.00  0.00     0.038 C 
ATOM     18  C   UNL     1      86.791   7.217 112.264  1.00  0.00     0.007 C 
ENDBRANCH  16  17
ENDBRANCH  15  16
ENDBRANCH  13  15
ENDBRANCH   6  13
TORSDOF 8
ENDMDL
