MODEL 1
REMARK VINA RESULT:    -4.394      0.000      0.000
REMARK INTER + INTRA:          -7.621
REMARK INTER:                  -6.705
REMARK INTRA:                  -0.916
REMARK UNBOUND:                -0.916
REMARK SMILES CCCCCCCCCCC(=O)[O-]
REMARK SMILES IDX 7 1 8 2 9 3 10 4 11 5 12 6 13 7 6 8 5 9 4 10 3 11 2 12 1 13
REMARK H PARENT
REMARK Flexibility Score: inf
ROOT
ATOM      1  C   UNL     1       7.534  -5.465  30.340  1.00  0.00     0.000 C 
ENDROOT
BRANCH   1   2
ATOM      2  C   UNL     1       8.366  -6.368  29.417  1.00  0.00     0.000 C 
BRANCH   2   3
ATOM      3  C   UNL     1       7.993  -6.206  27.933  1.00  0.00     0.006 C 
BRANCH   3   4
ATOM      4  C   UNL     1       6.675  -5.444  27.747  1.00  0.00     0.053 C 
BRANCH   4   5
ATOM      5  C   UNL     1       6.832  -4.283  26.812  1.00  0.00     0.041 C 
ATOM      6  O   UNL     1       7.146  -3.148  27.257  1.00  0.00    -0.550 OA
ATOM      7  O   UNL     1       6.667  -4.466  25.446  1.00  0.00    -0.550 OA
ENDBRANCH   4   5
ENDBRANCH   3   4
ENDBRANCH   2   3
ENDBRANCH   1   2
BRANCH   1   8
ATOM      8  C   UNL     1       7.597  -5.905  31.810  1.00  0.00     0.000 C 
BRANCH   8   9
ATOM      9  C   UNL     1       6.261  -5.640  32.520  1.00  0.00    -0.000 C 
BRANCH   9  10
ATOM     10  C   UNL     1       5.198  -6.710  32.214  1.00  0.00    -0.000 C 
BRANCH  10  11
ATOM     11  C   UNL     1       5.731  -7.983  31.526  1.00  0.00    -0.000 C 
BRANCH  11  12
ATOM     12  C   UNL     1       5.078  -8.311  30.172  1.00  0.00    -0.003 C 
ATOM     13  C   UNL     1       5.864  -9.344  29.366  1.00  0.00     0.004 C 
ENDBRANCH  11  12
ENDBRANCH  10  11
ENDBRANCH   9  10
ENDBRANCH   8   9
ENDBRANCH   1   8
TORSDOF 9
ENDMDL
MODEL 2
REMARK VINA RESULT:    -4.361      2.775      5.208
REMARK INTER + INTRA:          -7.571
REMARK INTER:                  -6.566
REMARK INTRA:                  -1.005
REMARK UNBOUND:                -0.916
REMARK SMILES CCCCCCCCCCC(=O)[O-]
REMARK SMILES IDX 7 1 8 2 9 3 10 4 11 5 12 6 13 7 6 8 5 9 4 10 3 11 2 12 1 13
REMARK H PARENT
REMARK Flexibility Score: inf
ROOT
ATOM      1  C   UNL     1       5.812  -9.368  29.302  1.00  0.00     0.000 C 
ENDROOT
BRANCH   1   2
ATOM      2  C   UNL     1       5.244  -8.050  29.850  1.00  0.00     0.000 C 
BRANCH   2   3
ATOM      3  C   UNL     1       5.549  -7.848  31.345  1.00  0.00     0.006 C 
BRANCH   3   4
ATOM      4  C   UNL     1       6.767  -6.943  31.570  1.00  0.00     0.053 C 
BRANCH   4   5
ATOM      5  C   UNL     1       6.414  -5.726  32.371  1.00  0.00     0.041 C 
ATOM      6  O   UNL     1       5.220  -5.513  32.707  1.00  0.00    -0.550 OA
ATOM      7  O   UNL     1       7.411  -4.848  32.775  1.00  0.00    -0.550 OA
ENDBRANCH   4   5
ENDBRANCH   3   4
ENDBRANCH   2   3
ENDBRANCH   1   2
BRANCH   1   8
ATOM      8  C   UNL     1       6.889  -9.147  28.230  1.00  0.00     0.000 C 
BRANCH   8   9
ATOM      9  C   UNL     1       7.027  -7.655  27.892  1.00  0.00    -0.000 C 
BRANCH   9  10
ATOM     10  C   UNL     1       8.485  -7.163  27.936  1.00  0.00    -0.000 C 
BRANCH  10  11
ATOM     11  C   UNL     1       8.684  -5.760  28.543  1.00  0.00    -0.000 C 
BRANCH  11  12
ATOM     12  C   UNL     1       7.411  -4.902  28.628  1.00  0.00    -0.003 C 
ATOM     13  C   UNL     1       7.311  -3.871  27.505  1.00  0.00     0.004 C 
ENDBRANCH  11  12
ENDBRANCH  10  11
ENDBRANCH   9  10
ENDBRANCH   8   9
ENDBRANCH   1   8
TORSDOF 9
ENDMDL
MODEL 3
REMARK VINA RESULT:    -4.359      0.815      2.667
REMARK INTER + INTRA:          -7.568
REMARK INTER:                  -6.469
REMARK INTRA:                  -1.099
REMARK UNBOUND:                -0.916
REMARK SMILES CCCCCCCCCCC(=O)[O-]
REMARK SMILES IDX 7 1 8 2 9 3 10 4 11 5 12 6 13 7 6 8 5 9 4 10 3 11 2 12 1 13
REMARK H PARENT
REMARK Flexibility Score: inf
ROOT
ATOM      1  C   UNL     1       6.870  -7.726  27.951  1.00  0.00     0.000 C 
ENDROOT
BRANCH   1   2
ATOM      2  C   UNL     1       8.250  -7.099  28.204  1.00  0.00     0.000 C 
BRANCH   2   3
ATOM      3  C   UNL     1       8.158  -5.675  28.781  1.00  0.00     0.006 C 
BRANCH   3   4
ATOM      4  C   UNL     1       6.811  -5.011  28.473  1.00  0.00     0.053 C 
BRANCH   4   5
ATOM      5  C   UNL     1       6.892  -4.123  27.268  1.00  0.00     0.041 C 
ATOM      6  O   UNL     1       7.243  -2.921  27.388  1.00  0.00    -0.550 OA
ATOM      7  O   UNL     1       6.614  -4.637  26.008  1.00  0.00    -0.550 OA
ENDBRANCH   4   5
ENDBRANCH   3   4
ENDBRANCH   2   3
ENDBRANCH   1   2
BRANCH   1   8
ATOM      8  C   UNL     1       6.537  -8.843  28.951  1.00  0.00     0.000 C 
BRANCH   8   9
ATOM      9  C   UNL     1       5.505  -8.365  29.983  1.00  0.00    -0.000 C 
BRANCH   9  10
ATOM     10  C   UNL     1       6.153  -7.806  31.263  1.00  0.00    -0.000 C 
BRANCH  10  11
ATOM     11  C   UNL     1       5.294  -6.789  32.040  1.00  0.00    -0.000 C 
BRANCH  11  12
ATOM     12  C   UNL     1       6.051  -5.546  32.538  1.00  0.00    -0.003 C 
ATOM     13  C   UNL     1       7.560  -5.639  32.320  1.00  0.00     0.004 C 
ENDBRANCH  11  12
ENDBRANCH  10  11
ENDBRANCH   9  10
ENDBRANCH   8   9
ENDBRANCH   1   8
TORSDOF 9
ENDMDL
MODEL 4
REMARK VINA RESULT:    -4.348      2.032      3.542
REMARK INTER + INTRA:          -7.551
REMARK INTER:                  -6.460
REMARK INTRA:                  -1.091
REMARK UNBOUND:                -0.916
REMARK SMILES CCCCCCCCCCC(=O)[O-]
REMARK SMILES IDX 7 1 8 2 9 3 10 4 11 5 12 6 13 7 6 8 5 9 4 10 3 11 2 12 1 13
REMARK H PARENT
REMARK Flexibility Score: inf
ROOT
ATOM      1  C   UNL     1       4.754  -7.125  28.167  1.00  0.00     0.000 C 
ENDROOT
BRANCH   1   2
ATOM      2  C   UNL     1       5.681  -6.022  27.632  1.00  0.00     0.000 C 
BRANCH   2   3
ATOM      3  C   UNL     1       6.412  -5.265  28.754  1.00  0.00     0.006 C 
BRANCH   3   4
ATOM      4  C   UNL     1       7.909  -5.104  28.465  1.00  0.00     0.053 C 
BRANCH   4   5
ATOM      5  C   UNL     1       8.666  -6.370  28.730  1.00  0.00     0.041 C 
ATOM      6  O   UNL     1       9.155  -6.590  29.868  1.00  0.00    -0.550 OA
ATOM      7  O   UNL     1       8.797  -7.323  27.728  1.00  0.00    -0.550 OA
ENDBRANCH   4   5
ENDBRANCH   3   4
ENDBRANCH   2   3
ENDBRANCH   1   2
BRANCH   1   8
ATOM      8  C   UNL     1       5.527  -8.294  28.793  1.00  0.00     0.000 C 
BRANCH   8   9
ATOM      9  C   UNL     1       5.062  -8.551  30.233  1.00  0.00    -0.000 C 
BRANCH   9  10
ATOM     10  C   UNL     1       5.935  -7.838  31.281  1.00  0.00    -0.000 C 
BRANCH  10  11
ATOM     11  C   UNL     1       5.164  -6.957  32.285  1.00  0.00    -0.000 C 
BRANCH  11  12
ATOM     12  C   UNL     1       5.686  -5.517  32.420  1.00  0.00    -0.003 C 
ATOM     13  C   UNL     1       7.208  -5.442  32.527  1.00  0.00     0.004 C 
ENDBRANCH  11  12
ENDBRANCH  10  11
ENDBRANCH   9  10
ENDBRANCH   8   9
ENDBRANCH   1   8
TORSDOF 9
ENDMDL
MODEL 5
REMARK VINA RESULT:    -4.297     13.631     16.202
REMARK INTER + INTRA:          -7.473
REMARK INTER:                  -6.447
REMARK INTRA:                  -1.026
REMARK UNBOUND:                -0.916
REMARK SMILES CCCCCCCCCCC(=O)[O-]
REMARK SMILES IDX 7 1 8 2 9 3 10 4 11 5 12 6 13 7 6 8 5 9 4 10 3 11 2 12 1 13
REMARK H PARENT
REMARK Flexibility Score: inf
ROOT
ATOM      1  C   UNL     1      14.728  -9.232  17.042  1.00  0.00     0.000 C 
ENDROOT
BRANCH   1   2
ATOM      2  C   UNL     1      15.358  -7.831  17.001  1.00  0.00     0.000 C 
BRANCH   2   3
ATOM      3  C   UNL     1      14.307  -6.710  16.910  1.00  0.00     0.006 C 
BRANCH   3   4
ATOM      4  C   UNL     1      13.580  -6.488  18.242  1.00  0.00     0.053 C 
BRANCH   4   5
ATOM      5  C   UNL     1      14.222  -5.402  19.051  1.00  0.00     0.041 C 
ATOM      6  O   UNL     1      14.685  -4.378  18.484  1.00  0.00    -0.550 OA
ATOM      7  O   UNL     1      14.276  -5.508  20.435  1.00  0.00    -0.550 OA
ENDBRANCH   4   5
ENDBRANCH   3   4
ENDBRANCH   2   3
ENDBRANCH   1   2
BRANCH   1   8
ATOM      8  C   UNL     1      14.477  -9.807  15.640  1.00  0.00     0.000 C 
BRANCH   8   9
ATOM      9  C   UNL     1      15.702  -9.604  14.737  1.00  0.00    -0.000 C 
BRANCH   9  10
ATOM     10  C   UNL     1      15.348  -8.964  13.382  1.00  0.00    -0.000 C 
BRANCH  10  11
ATOM     11  C   UNL     1      15.561  -7.439  13.304  1.00  0.00    -0.000 C 
BRANCH  11  12
ATOM     12  C   UNL     1      14.318  -6.628  12.901  1.00  0.00    -0.003 C 
ATOM     13  C   UNL     1      13.045  -7.102  13.602  1.00  0.00     0.004 C 
ENDBRANCH  11  12
ENDBRANCH  10  11
ENDBRANCH   9  10
ENDBRANCH   8   9
ENDBRANCH   1   8
TORSDOF 9
ENDMDL
MODEL 6
REMARK VINA RESULT:    -4.243     13.132     15.472
REMARK INTER + INTRA:          -7.391
REMARK INTER:                  -6.300
REMARK INTRA:                  -1.091
REMARK UNBOUND:                -0.916
REMARK SMILES CCCCCCCCCCC(=O)[O-]
REMARK SMILES IDX 7 1 8 2 9 3 10 4 11 5 12 6 13 7 6 8 5 9 4 10 3 11 2 12 1 13
REMARK H PARENT
REMARK Flexibility Score: inf
ROOT
ATOM      1  C   UNL     1      13.667  -9.784  16.764  1.00  0.00     0.000 C 
ENDROOT
BRANCH   1   2
ATOM      2  C   UNL     1      14.929  -9.608  15.905  1.00  0.00     0.000 C 
BRANCH   2   3
ATOM      3  C   UNL     1      14.607  -9.322  14.428  1.00  0.00     0.006 C 
BRANCH   3   4
ATOM      4  C   UNL     1      14.987  -7.893  14.018  1.00  0.00     0.053 C 
BRANCH   4   5
ATOM      5  C   UNL     1      13.783  -7.087  13.638  1.00  0.00     0.041 C 
ATOM      6  O   UNL     1      12.638  -7.430  14.033  1.00  0.00    -0.550 OA
ATOM      7  O   UNL     1      13.931  -5.935  12.876  1.00  0.00    -0.550 OA
ENDBRANCH   4   5
ENDBRANCH   3   4
ENDBRANCH   2   3
ENDBRANCH   1   2
BRANCH   1   8
ATOM      8  C   UNL     1      13.497  -8.663  17.799  1.00  0.00     0.000 C 
BRANCH   8   9
ATOM      9  C   UNL     1      12.247  -7.823  17.498  1.00  0.00    -0.000 C 
BRANCH   9  10
ATOM     10  C   UNL     1      12.561  -6.328  17.306  1.00  0.00    -0.000 C 
BRANCH  10  11
ATOM     11  C   UNL     1      14.061  -5.972  17.289  1.00  0.00    -0.000 C 
BRANCH  11  12
ATOM     12  C   UNL     1      14.507  -4.985  18.381  1.00  0.00    -0.003 C 
ATOM     13  C   UNL     1      13.813  -5.225  19.721  1.00  0.00     0.004 C 
ENDBRANCH  11  12
ENDBRANCH  10  11
ENDBRANCH   9  10
ENDBRANCH   8   9
ENDBRANCH   1   8
TORSDOF 9
ENDMDL
MODEL 7
REMARK VINA RESULT:    -4.239      1.334      2.718
REMARK INTER + INTRA:          -7.385
REMARK INTER:                  -6.267
REMARK INTRA:                  -1.118
REMARK UNBOUND:                -0.916
REMARK SMILES CCCCCCCCCCC(=O)[O-]
REMARK SMILES IDX 7 1 8 2 9 3 10 4 11 5 12 6 13 7 6 8 5 9 4 10 3 11 2 12 1 13
REMARK H PARENT
REMARK Flexibility Score: inf
ROOT
ATOM      1  C   UNL     1       5.918  -6.497  31.879  1.00  0.00     0.000 C 
ENDROOT
BRANCH   1   2
ATOM      2  C   UNL     1       7.240  -5.779  31.562  1.00  0.00     0.000 C 
BRANCH   2   3
ATOM      3  C   UNL     1       7.705  -6.004  30.112  1.00  0.00     0.006 C 
BRANCH   3   4
ATOM      4  C   UNL     1       6.844  -5.235  29.102  1.00  0.00     0.053 C 
BRANCH   4   5
ATOM      5  C   UNL     1       7.685  -4.521  28.087  1.00  0.00     0.041 C 
ATOM      6  O   UNL     1       8.861  -4.905  27.854  1.00  0.00    -0.550 OA
ATOM      7  O   UNL     1       7.154  -3.454  27.374  1.00  0.00    -0.550 OA
ENDBRANCH   4   5
ENDBRANCH   3   4
ENDBRANCH   2   3
ENDBRANCH   1   2
BRANCH   1   8
ATOM      8  C   UNL     1       5.889  -7.940  31.353  1.00  0.00     0.000 C 
BRANCH   8   9
ATOM      9  C   UNL     1       4.635  -8.188  30.502  1.00  0.00    -0.000 C 
BRANCH   9  10
ATOM     10  C   UNL     1       4.870  -9.207  29.372  1.00  0.00    -0.000 C 
BRANCH  10  11
ATOM     11  C   UNL     1       6.338  -9.363  28.927  1.00  0.00    -0.000 C 
BRANCH  11  12
ATOM     12  C   UNL     1       6.694  -8.667  27.603  1.00  0.00    -0.003 C 
ATOM     13  C   UNL     1       8.198  -8.470  27.418  1.00  0.00     0.004 C 
ENDBRANCH  11  12
ENDBRANCH  10  11
ENDBRANCH   9  10
ENDBRANCH   8   9
ENDBRANCH   1   8
TORSDOF 9
ENDMDL
MODEL 8
REMARK VINA RESULT:    -4.239      2.299      4.126
REMARK INTER + INTRA:          -7.384
REMARK INTER:                  -5.955
REMARK INTRA:                  -1.429
REMARK UNBOUND:                -0.916
REMARK SMILES CCCCCCCCCCC(=O)[O-]
REMARK SMILES IDX 7 1 8 2 9 3 10 4 11 5 12 6 13 7 6 8 5 9 4 10 3 11 2 12 1 13
REMARK H PARENT
REMARK Flexibility Score: inf
ROOT
ATOM      1  C   UNL     1       5.999  -7.911  31.252  1.00  0.00     0.000 C 
ENDROOT
BRANCH   1   2
ATOM      2  C   UNL     1       4.672  -8.132  30.509  1.00  0.00     0.000 C 
BRANCH   2   3
ATOM      3  C   UNL     1       4.820  -9.064  29.294  1.00  0.00     0.006 C 
BRANCH   3   4
ATOM      4  C   UNL     1       6.265  -9.539  29.100  1.00  0.00     0.053 C 
BRANCH   4   5
ATOM      5  C   UNL     1       6.780  -9.208  27.733  1.00  0.00     0.041 C 
ATOM      6  O   UNL     1       5.977  -8.974  26.792  1.00  0.00    -0.550 OA
ATOM      7  O   UNL     1       8.148  -9.121  27.508  1.00  0.00    -0.550 OA
ENDBRANCH   4   5
ENDBRANCH   3   4
ENDBRANCH   2   3
ENDBRANCH   1   2
BRANCH   1   8
ATOM      8  C   UNL     1       6.059  -6.551  31.961  1.00  0.00     0.000 C 
BRANCH   8   9
ATOM      9  C   UNL     1       7.116  -5.643  31.317  1.00  0.00    -0.000 C 
BRANCH   9  10
ATOM     10  C   UNL     1       8.012  -6.387  30.311  1.00  0.00    -0.000 C 
BRANCH  10  11
ATOM     11  C   UNL     1       7.973  -5.841  28.870  1.00  0.00    -0.000 C 
BRANCH  11  12
ATOM     12  C   UNL     1       6.796  -4.898  28.564  1.00  0.00    -0.003 C 
ATOM     13  C   UNL     1       5.615  -5.612  27.909  1.00  0.00     0.004 C 
ENDBRANCH  11  12
ENDBRANCH  10  11
ENDBRANCH   9  10
ENDBRANCH   8   9
ENDBRANCH   1   8
TORSDOF 9
ENDMDL
MODEL 9
REMARK VINA RESULT:    -4.200     12.473     14.987
REMARK INTER + INTRA:          -7.325
REMARK INTER:                  -6.107
REMARK INTRA:                  -1.218
REMARK UNBOUND:                -0.916
REMARK SMILES CCCCCCCCCCC(=O)[O-]
REMARK SMILES IDX 7 1 8 2 9 3 10 4 11 5 12 6 13 7 6 8 5 9 4 10 3 11 2 12 1 13
REMARK H PARENT
REMARK Flexibility Score: inf
ROOT
ATOM      1  C   UNL     1      12.474  -7.925  17.609  1.00  0.00     0.000 C 
ENDROOT
BRANCH   1   2
ATOM      2  C   UNL     1      12.739  -6.440  17.317  1.00  0.00     0.000 C 
BRANCH   2   3
ATOM      3  C   UNL     1      14.224  -6.062  17.462  1.00  0.00     0.006 C 
BRANCH   3   4
ATOM      4  C   UNL     1      14.428  -4.861  18.394  1.00  0.00     0.053 C 
BRANCH   4   5
ATOM      5  C   UNL     1      14.173  -5.221  19.826  1.00  0.00     0.041 C 
ATOM      6  O   UNL     1      13.493  -4.457  20.560  1.00  0.00    -0.550 OA
ATOM      7  O   UNL     1      14.656  -6.417  20.338  1.00  0.00    -0.550 OA
ENDBRANCH   4   5
ENDBRANCH   3   4
ENDBRANCH   2   3
ENDBRANCH   1   2
BRANCH   1   8
ATOM      8  C   UNL     1      13.768  -8.738  17.756  1.00  0.00     0.000 C 
BRANCH   8   9
ATOM      9  C   UNL     1      13.825  -9.871  16.721  1.00  0.00    -0.000 C 
BRANCH   9  10
ATOM     10  C   UNL     1      14.942  -9.676  15.680  1.00  0.00    -0.000 C 
BRANCH  10  11
ATOM     11  C   UNL     1      14.477  -9.133  14.314  1.00  0.00    -0.000 C 
BRANCH  11  12
ATOM     12  C   UNL     1      14.689  -7.623  14.109  1.00  0.00    -0.003 C 
ATOM     13  C   UNL     1      13.428  -6.903  13.633  1.00  0.00     0.004 C 
ENDBRANCH  11  12
ENDBRANCH  10  11
ENDBRANCH   9  10
ENDBRANCH   8   9
ENDBRANCH   1   8
TORSDOF 9
ENDMDL
