MODEL 1
REMARK VINA RESULT:    -6.855      0.000      0.000
REMARK INTER + INTRA:          -6.317
REMARK INTER:                  -7.857
REMARK INTRA:                   1.540
REMARK UNBOUND:                 1.540
REMARK SMILES O=C([O-])C=Cc1ccc(O)cc1
REMARK SMILES IDX 6 1 7 2 12 3 8 4 11 5 9 6 5 7 4 8 2 9 1 10 3 11 10 12
REMARK H PARENT 10 13
REMARK Flexibility Score: inf
ROOT
ATOM      1  C   UNL     1     -35.872  71.273 -18.722  1.00  0.00    -0.025 A 
ATOM      2  C   UNL     1     -34.583  71.059 -19.243  1.00  0.00     0.012 A 
ATOM      3  C   UNL     1     -36.591  70.186 -18.205  1.00  0.00     0.012 A 
ATOM      4  C   UNL     1     -34.048  69.769 -19.294  1.00  0.00     0.047 A 
ATOM      5  C   UNL     1     -36.054  68.896 -18.256  1.00  0.00     0.047 A 
ATOM      6  C   UNL     1     -34.785  68.682 -18.803  1.00  0.00     0.115 A 
ENDROOT
BRANCH   1   7
ATOM      7  C   UNL     1     -36.436  72.633 -18.608  1.00  0.00     0.010 C 
ATOM      8  C   UNL     1     -37.611  73.032 -19.119  1.00  0.00     0.025 C 
BRANCH   8   9
ATOM      9  C   UNL     1     -38.630  72.146 -19.714  1.00  0.00     0.064 C 
ATOM     10  O   UNL     1     -39.518  72.640 -20.456  1.00  0.00    -0.545 OA
ATOM     11  O   UNL     1     -38.676  70.789 -19.416  1.00  0.00    -0.545 OA
ENDBRANCH   8   9
ENDBRANCH   1   7
BRANCH   6  12
ATOM     12  O   UNL     1     -34.263  67.391 -18.849  1.00  0.00    -0.508 OA
ATOM     13  H   UNL     1     -34.744  66.643 -19.332  1.00  0.00     0.293 HD
ENDBRANCH   6  12
TORSDOF 3
ENDMDL
MODEL 2
REMARK VINA RESULT:    -6.433      9.711     10.661
REMARK INTER + INTRA:          -5.833
REMARK INTER:                  -5.704
REMARK INTRA:                  -0.128
REMARK UNBOUND:                 1.540
REMARK SMILES O=C([O-])C=Cc1ccc(O)cc1
REMARK SMILES IDX 6 1 7 2 12 3 8 4 11 5 9 6 5 7 4 8 2 9 1 10 3 11 10 12
REMARK H PARENT 10 13
REMARK Flexibility Score: inf
ROOT
ATOM      1  C   UNL     1     -39.389  72.601  -9.135  1.00  0.00    -0.025 A 
ATOM      2  C   UNL     1     -40.660  73.144  -8.875  1.00  0.00     0.012 A 
ATOM      3  C   UNL     1     -39.293  71.334  -9.728  1.00  0.00     0.012 A 
ATOM      4  C   UNL     1     -41.813  72.406  -9.156  1.00  0.00     0.047 A 
ATOM      5  C   UNL     1     -40.448  70.597 -10.009  1.00  0.00     0.047 A 
ATOM      6  C   UNL     1     -41.710  71.127  -9.722  1.00  0.00     0.115 A 
ENDROOT
BRANCH   1   7
ATOM      7  C   UNL     1     -38.159  73.383  -8.897  1.00  0.00     0.010 C 
ATOM      8  C   UNL     1     -37.752  74.433  -9.627  1.00  0.00     0.025 C 
BRANCH   8   9
ATOM      9  C   UNL     1     -38.547  75.109 -10.670  1.00  0.00     0.064 C 
ATOM     10  O   UNL     1     -38.295  74.880 -11.882  1.00  0.00    -0.545 OA
ATOM     11  O   UNL     1     -39.520  76.048 -10.348  1.00  0.00    -0.545 OA
ENDBRANCH   8   9
ENDBRANCH   1   7
BRANCH   6  12
ATOM     12  O   UNL     1     -42.851  70.381 -10.005  1.00  0.00    -0.508 OA
ATOM     13  H   UNL     1     -43.074  70.092 -10.950  1.00  0.00     0.293 HD
ENDBRANCH   6  12
TORSDOF 3
ENDMDL
MODEL 3
REMARK VINA RESULT:    -6.255      9.072      9.991
REMARK INTER + INTRA:          -5.629
REMARK INTER:                  -5.360
REMARK INTRA:                  -0.269
REMARK UNBOUND:                 1.540
REMARK SMILES O=C([O-])C=Cc1ccc(O)cc1
REMARK SMILES IDX 6 1 7 2 12 3 8 4 11 5 9 6 5 7 4 8 2 9 1 10 3 11 10 12
REMARK H PARENT 10 13
REMARK Flexibility Score: inf
ROOT
ATOM      1  C   UNL     1     -35.269  74.426 -28.142  1.00  0.00    -0.025 A 
ATOM      2  C   UNL     1     -34.809  75.428 -29.016  1.00  0.00     0.012 A 
ATOM      3  C   UNL     1     -34.487  74.071 -27.033  1.00  0.00     0.012 A 
ATOM      4  C   UNL     1     -33.562  76.025 -28.810  1.00  0.00     0.047 A 
ATOM      5  C   UNL     1     -33.240  74.671 -26.828  1.00  0.00     0.047 A 
ATOM      6  C   UNL     1     -32.772  75.645 -27.715  1.00  0.00     0.115 A 
ENDROOT
BRANCH   1   7
ATOM      7  C   UNL     1     -36.605  73.819 -28.309  1.00  0.00     0.010 C 
ATOM      8  C   UNL     1     -37.709  74.175 -27.635  1.00  0.00     0.025 C 
BRANCH   8   9
ATOM      9  C   UNL     1     -37.832  75.352 -26.754  1.00  0.00     0.064 C 
ATOM     10  O   UNL     1     -37.967  76.493 -27.268  1.00  0.00    -0.545 OA
ATOM     11  O   UNL     1     -37.731  75.239 -25.373  1.00  0.00    -0.545 OA
ENDBRANCH   8   9
ENDBRANCH   1   7
BRANCH   6  12
ATOM     12  O   UNL     1     -31.528  76.233 -27.500  1.00  0.00    -0.508 OA
ATOM     13  H   UNL     1     -30.918  76.479 -28.271  1.00  0.00     0.293 HD
ENDBRANCH   6  12
TORSDOF 3
ENDMDL
MODEL 4
REMARK VINA RESULT:    -6.230      1.521      4.984
REMARK INTER + INTRA:          -5.600
REMARK INTER:                  -6.842
REMARK INTRA:                   1.242
REMARK UNBOUND:                 1.540
REMARK SMILES O=C([O-])C=Cc1ccc(O)cc1
REMARK SMILES IDX 6 1 7 2 12 3 8 4 11 5 9 6 5 7 4 8 2 9 1 10 3 11 10 12
REMARK H PARENT 10 13
REMARK Flexibility Score: inf
ROOT
ATOM      1  C   UNL     1     -37.359  70.797 -18.700  1.00  0.00    -0.025 A 
ATOM      2  C   UNL     1     -38.506  70.865 -19.511  1.00  0.00     0.012 A 
ATOM      3  C   UNL     1     -36.662  71.976 -18.397  1.00  0.00     0.012 A 
ATOM      4  C   UNL     1     -38.915  72.087 -20.052  1.00  0.00     0.047 A 
ATOM      5  C   UNL     1     -37.072  73.197 -18.940  1.00  0.00     0.047 A 
ATOM      6  C   UNL     1     -38.196  73.258 -19.770  1.00  0.00     0.115 A 
ENDROOT
BRANCH   1   7
ATOM      7  C   UNL     1     -36.939  69.527 -18.073  1.00  0.00     0.010 C 
ATOM      8  C   UNL     1     -35.776  68.896 -18.300  1.00  0.00     0.025 C 
BRANCH   8   9
ATOM      9  C   UNL     1     -34.639  69.447 -19.061  1.00  0.00     0.064 C 
ATOM     10  O   UNL     1     -33.718  68.675 -19.436  1.00  0.00    -0.545 OA
ATOM     11  O   UNL     1     -34.524  70.809 -19.311  1.00  0.00    -0.545 OA
ENDBRANCH   8   9
ENDBRANCH   1   7
BRANCH   6  12
ATOM     12  O   UNL     1     -38.593  74.481 -20.305  1.00  0.00    -0.508 OA
ATOM     13  H   UNL     1     -39.172  75.125 -19.780  1.00  0.00     0.293 HD
ENDBRANCH   6  12
TORSDOF 3
ENDMDL
MODEL 5
REMARK VINA RESULT:    -6.182      8.834     10.513
REMARK INTER + INTRA:          -5.545
REMARK INTER:                  -5.275
REMARK INTRA:                  -0.270
REMARK UNBOUND:                 1.540
REMARK SMILES O=C([O-])C=Cc1ccc(O)cc1
REMARK SMILES IDX 6 1 7 2 12 3 8 4 11 5 9 6 5 7 4 8 2 9 1 10 3 11 10 12
REMARK H PARENT 10 13
REMARK Flexibility Score: inf
ROOT
ATOM      1  C   UNL     1     -36.733  74.290 -27.613  1.00  0.00    -0.025 A 
ATOM      2  C   UNL     1     -37.030  75.088 -28.732  1.00  0.00     0.012 A 
ATOM      3  C   UNL     1     -37.561  74.358 -26.482  1.00  0.00     0.012 A 
ATOM      4  C   UNL     1     -38.106  75.980 -28.697  1.00  0.00     0.047 A 
ATOM      5  C   UNL     1     -38.637  75.250 -26.449  1.00  0.00     0.047 A 
ATOM      6  C   UNL     1     -38.912  76.065 -27.552  1.00  0.00     0.115 A 
ENDROOT
BRANCH   1   7
ATOM      7  C   UNL     1     -35.635  73.303 -27.647  1.00  0.00     0.010 C 
ATOM      8  C   UNL     1     -34.340  73.573 -27.417  1.00  0.00     0.025 C 
BRANCH   8   9
ATOM      9  C   UNL     1     -33.811  74.852 -26.907  1.00  0.00     0.064 C 
ATOM     10  O   UNL     1     -33.989  75.153 -25.697  1.00  0.00    -0.545 OA
ATOM     11  O   UNL     1     -33.184  75.765 -27.746  1.00  0.00    -0.545 OA
ENDBRANCH   8   9
ENDBRANCH   1   7
BRANCH   6  12
ATOM     12  O   UNL     1     -39.986  76.950 -27.504  1.00  0.00    -0.508 OA
ATOM     13  H   UNL     1     -40.676  76.986 -28.246  1.00  0.00     0.293 HD
ENDBRANCH   6  12
TORSDOF 3
ENDMDL
MODEL 6
REMARK VINA RESULT:    -6.100      8.781     10.112
REMARK INTER + INTRA:          -5.451
REMARK INTER:                  -5.288
REMARK INTRA:                  -0.163
REMARK UNBOUND:                 1.540
REMARK SMILES O=C([O-])C=Cc1ccc(O)cc1
REMARK SMILES IDX 6 1 7 2 12 3 8 4 11 5 9 6 5 7 4 8 2 9 1 10 3 11 10 12
REMARK H PARENT 10 13
REMARK Flexibility Score: inf
ROOT
ATOM      1  C   UNL     1     -39.064  74.091 -10.089  1.00  0.00    -0.025 A 
ATOM      2  C   UNL     1     -40.010  74.324 -11.103  1.00  0.00     0.012 A 
ATOM      3  C   UNL     1     -37.824  74.746 -10.143  1.00  0.00     0.012 A 
ATOM      4  C   UNL     1     -39.697  75.157 -12.181  1.00  0.00     0.047 A 
ATOM      5  C   UNL     1     -37.514  75.580 -11.222  1.00  0.00     0.047 A 
ATOM      6  C   UNL     1     -38.445  75.786 -12.245  1.00  0.00     0.115 A 
ENDROOT
BRANCH   1   7
ATOM      7  C   UNL     1     -39.390  73.258  -8.914  1.00  0.00     0.010 C 
ATOM      8  C   UNL     1     -39.436  71.917  -8.901  1.00  0.00     0.025 C 
BRANCH   8   9
ATOM      9  C   UNL     1     -38.986  71.035  -9.995  1.00  0.00     0.064 C 
ATOM     10  O   UNL     1     -39.750  70.122 -10.403  1.00  0.00    -0.545 OA
ATOM     11  O   UNL     1     -37.711  71.144 -10.537  1.00  0.00    -0.545 OA
ENDBRANCH   8   9
ENDBRANCH   1   7
BRANCH   6  12
ATOM     12  O   UNL     1     -38.122  76.618 -13.314  1.00  0.00    -0.508 OA
ATOM     13  H   UNL     1     -38.820  77.200 -13.762  1.00  0.00     0.293 HD
ENDBRANCH   6  12
TORSDOF 3
ENDMDL
MODEL 7
REMARK VINA RESULT:    -6.092      9.228      9.749
REMARK INTER + INTRA:          -5.442
REMARK INTER:                  -5.144
REMARK INTRA:                  -0.298
REMARK UNBOUND:                 1.540
REMARK SMILES O=C([O-])C=Cc1ccc(O)cc1
REMARK SMILES IDX 6 1 7 2 12 3 8 4 11 5 9 6 5 7 4 8 2 9 1 10 3 11 10 12
REMARK H PARENT 10 13
REMARK Flexibility Score: inf
ROOT
ATOM      1  C   UNL     1     -39.959  72.367  -9.508  1.00  0.00    -0.025 A 
ATOM      2  C   UNL     1     -38.857  73.238  -9.435  1.00  0.00     0.012 A 
ATOM      3  C   UNL     1     -39.799  71.106 -10.103  1.00  0.00     0.012 A 
ATOM      4  C   UNL     1     -37.631  72.872  -9.997  1.00  0.00     0.047 A 
ATOM      5  C   UNL     1     -38.571  70.742 -10.665  1.00  0.00     0.047 A 
ATOM      6  C   UNL     1     -37.485  71.622 -10.617  1.00  0.00     0.115 A 
ENDROOT
BRANCH   1   7
ATOM      7  C   UNL     1     -41.249  72.709  -8.875  1.00  0.00     0.010 C 
ATOM      8  C   UNL     1     -42.252  73.375  -9.467  1.00  0.00     0.025 C 
BRANCH   8   9
ATOM      9  C   UNL     1     -42.325  73.715 -10.901  1.00  0.00     0.064 C 
ATOM     10  O   UNL     1     -42.882  72.914 -11.696  1.00  0.00    -0.545 OA
ATOM     11  O   UNL     1     -41.729  74.865 -11.405  1.00  0.00    -0.545 OA
ENDBRANCH   8   9
ENDBRANCH   1   7
BRANCH   6  12
ATOM     12  O   UNL     1     -36.268  71.247 -11.181  1.00  0.00    -0.508 OA
ATOM     13  H   UNL     1     -36.226  70.702 -12.034  1.00  0.00     0.293 HD
ENDBRANCH   6  12
TORSDOF 3
ENDMDL
MODEL 8
REMARK VINA RESULT:    -5.851      9.466     10.220
REMARK INTER + INTRA:          -5.166
REMARK INTER:                  -4.879
REMARK INTRA:                  -0.287
REMARK UNBOUND:                 1.540
REMARK SMILES O=C([O-])C=Cc1ccc(O)cc1
REMARK SMILES IDX 6 1 7 2 12 3 8 4 11 5 9 6 5 7 4 8 2 9 1 10 3 11 10 12
REMARK H PARENT 10 13
REMARK Flexibility Score: inf
ROOT
ATOM      1  C   UNL     1     -39.155  73.941  -9.215  1.00  0.00    -0.025 A 
ATOM      2  C   UNL     1     -40.456  73.412  -9.138  1.00  0.00     0.012 A 
ATOM      3  C   UNL     1     -38.119  73.143  -9.723  1.00  0.00     0.012 A 
ATOM      4  C   UNL     1     -40.703  72.088  -9.513  1.00  0.00     0.047 A 
ATOM      5  C   UNL     1     -38.368  71.819 -10.099  1.00  0.00     0.047 A 
ATOM      6  C   UNL     1     -39.657  71.286  -9.992  1.00  0.00     0.115 A 
ENDROOT
BRANCH   1   7
ATOM      7  C   UNL     1     -38.881  75.352  -8.875  1.00  0.00     0.010 C 
ATOM      8  C   UNL     1     -38.868  76.372  -9.747  1.00  0.00     0.025 C 
BRANCH   8   9
ATOM      9  C   UNL     1     -39.308  76.302 -11.153  1.00  0.00     0.064 C 
ATOM     10  O   UNL     1     -40.490  76.624 -11.444  1.00  0.00    -0.545 OA
ATOM     11  O   UNL     1     -38.471  75.822 -12.153  1.00  0.00    -0.545 OA
ENDBRANCH   8   9
ENDBRANCH   1   7
BRANCH   6  12
ATOM     12  O   UNL     1     -39.890  69.966 -10.368  1.00  0.00    -0.508 OA
ATOM     13  H   UNL     1     -40.176  69.726 -11.310  1.00  0.00     0.293 HD
ENDBRANCH   6  12
TORSDOF 3
ENDMDL
MODEL 9
REMARK VINA RESULT:    -5.662      9.044     10.640
REMARK INTER + INTRA:          -4.949
REMARK INTER:                  -4.661
REMARK INTRA:                  -0.288
REMARK UNBOUND:                 1.540
REMARK SMILES O=C([O-])C=Cc1ccc(O)cc1
REMARK SMILES IDX 6 1 7 2 12 3 8 4 11 5 9 6 5 7 4 8 2 9 1 10 3 11 10 12
REMARK H PARENT 10 13
REMARK Flexibility Score: inf
ROOT
ATOM      1  C   UNL     1     -40.100  73.853  -9.897  1.00  0.00    -0.025 A 
ATOM      2  C   UNL     1     -41.236  73.834 -10.726  1.00  0.00     0.012 A 
ATOM      3  C   UNL     1     -39.214  74.938  -9.971  1.00  0.00     0.012 A 
ATOM      4  C   UNL     1     -41.450  74.859 -11.652  1.00  0.00     0.047 A 
ATOM      5  C   UNL     1     -39.430  75.963 -10.898  1.00  0.00     0.047 A 
ATOM      6  C   UNL     1     -40.545  75.926 -11.742  1.00  0.00     0.115 A 
ENDROOT
BRANCH   1   7
ATOM      7  C   UNL     1     -39.881  72.809  -8.875  1.00  0.00     0.010 C 
ATOM      8  C   UNL     1     -39.314  71.613  -9.096  1.00  0.00     0.025 C 
BRANCH   8   9
ATOM      9  C   UNL     1     -38.640  71.202 -10.343  1.00  0.00     0.064 C 
ATOM     10  O   UNL     1     -39.207  70.377 -11.105  1.00  0.00    -0.545 OA
ATOM     11  O   UNL     1     -37.363  71.650 -10.660  1.00  0.00    -0.545 OA
ENDBRANCH   8   9
ENDBRANCH   1   7
BRANCH   6  12
ATOM     12  O   UNL     1     -40.747  76.953 -12.661  1.00  0.00    -0.508 OA
ATOM     13  H   UNL     1     -40.919  76.761 -13.641  1.00  0.00     0.293 HD
ENDBRANCH   6  12
TORSDOF 3
ENDMDL
