MODEL 1
REMARK VINA RESULT:    -3.850      0.000      0.000
REMARK INTER + INTRA:          -6.568
REMARK INTER:                  -5.876
REMARK INTRA:                  -0.692
REMARK UNBOUND:                -0.692
REMARK SMILES CCCCCCCCCCC(=O)[O-]
REMARK SMILES IDX 7 1 8 2 9 3 10 4 11 5 12 6 13 7 6 8 5 9 4 10 3 11 2 12 1 13
REMARK H PARENT
REMARK Flexibility Score: inf
ROOT
ATOM      1  C   UNL     1      26.429  11.814  21.671  1.00  0.00     0.000 C 
ENDROOT
BRANCH   1   2
ATOM      2  C   UNL     1      25.651  11.521  20.376  1.00  0.00     0.000 C 
BRANCH   2   3
ATOM      3  C   UNL     1      24.540  12.552  20.103  1.00  0.00     0.006 C 
BRANCH   3   4
ATOM      4  C   UNL     1      23.124  11.956  20.031  1.00  0.00     0.053 C 
BRANCH   4   5
ATOM      5  C   UNL     1      22.727  11.294  21.315  1.00  0.00     0.041 C 
ATOM      6  O   UNL     1      22.435  11.990  22.324  1.00  0.00    -0.550 OA
ATOM      7  O   UNL     1      22.712   9.909  21.407  1.00  0.00    -0.550 OA
ENDBRANCH   4   5
ENDBRANCH   3   4
ENDBRANCH   2   3
ENDBRANCH   1   2
BRANCH   1   8
ATOM      8  C   UNL     1      26.584  10.568  22.558  1.00  0.00     0.000 C 
BRANCH   8   9
ATOM      9  C   UNL     1      28.044  10.096  22.671  1.00  0.00    -0.000 C 
BRANCH   9  10
ATOM     10  C   UNL     1      28.439   9.108  21.559  1.00  0.00    -0.000 C 
BRANCH  10  11
ATOM     11  C   UNL     1      29.666   9.527  20.727  1.00  0.00    -0.000 C 
BRANCH  11  12
ATOM     12  C   UNL     1      29.694   8.880  19.335  1.00  0.00    -0.003 C 
ATOM     13  C   UNL     1      28.620   9.476  18.430  1.00  0.00     0.004 C 
ENDBRANCH  11  12
ENDBRANCH  10  11
ENDBRANCH   9  10
ENDBRANCH   8   9
ENDBRANCH   1   8
TORSDOF 9
ENDMDL
MODEL 2
REMARK VINA RESULT:    -3.792      1.636      2.180
REMARK INTER + INTRA:          -6.479
REMARK INTER:                  -6.012
REMARK INTRA:                  -0.467
REMARK UNBOUND:                -0.692
REMARK SMILES CCCCCCCCCCC(=O)[O-]
REMARK SMILES IDX 7 1 8 2 9 3 10 4 11 5 12 6 13 7 6 8 5 9 4 10 3 11 2 12 1 13
REMARK H PARENT
REMARK Flexibility Score: inf
ROOT
ATOM      1  C   UNL     1      26.928  10.277  22.732  1.00  0.00     0.000 C 
ENDROOT
BRANCH   1   2
ATOM      2  C   UNL     1      25.842  11.355  22.568  1.00  0.00     0.000 C 
BRANCH   2   3
ATOM      3  C   UNL     1      25.054  11.210  21.253  1.00  0.00     0.006 C 
BRANCH   3   4
ATOM      4  C   UNL     1      25.186  12.407  20.297  1.00  0.00     0.053 C 
BRANCH   4   5
ATOM      5  C   UNL     1      23.871  13.085  20.060  1.00  0.00     0.041 C 
ATOM      6  O   UNL     1      23.034  12.583  19.264  1.00  0.00    -0.550 OA
ATOM      7  O   UNL     1      23.584  14.287  20.693  1.00  0.00    -0.550 OA
ENDBRANCH   4   5
ENDBRANCH   3   4
ENDBRANCH   2   3
ENDBRANCH   1   2
BRANCH   1   8
ATOM      8  C   UNL     1      28.326  10.787  22.344  1.00  0.00     0.000 C 
BRANCH   8   9
ATOM      9  C   UNL     1      29.365   9.658  22.243  1.00  0.00    -0.000 C 
BRANCH   9  10
ATOM     10  C   UNL     1      29.270   8.875  20.921  1.00  0.00    -0.000 C 
BRANCH  10  11
ATOM     11  C   UNL     1      30.420   9.136  19.931  1.00  0.00    -0.000 C 
BRANCH  11  12
ATOM     12  C   UNL     1      30.015   8.905  18.468  1.00  0.00    -0.003 C 
ATOM     13  C   UNL     1      28.649   9.516  18.173  1.00  0.00     0.004 C 
ENDBRANCH  11  12
ENDBRANCH  10  11
ENDBRANCH   9  10
ENDBRANCH   8   9
ENDBRANCH   1   8
TORSDOF 9
ENDMDL
MODEL 3
REMARK VINA RESULT:    -3.667      2.917      5.491
REMARK INTER + INTRA:          -6.288
REMARK INTER:                  -5.127
REMARK INTRA:                  -1.161
REMARK UNBOUND:                -0.692
REMARK SMILES CCCCCCCCCCC(=O)[O-]
REMARK SMILES IDX 7 1 8 2 9 3 10 4 11 5 12 6 13 7 6 8 5 9 4 10 3 11 2 12 1 13
REMARK H PARENT
REMARK Flexibility Score: inf
ROOT
ATOM      1  C   UNL     1      25.417  12.412  23.403  1.00  0.00     0.000 C 
ENDROOT
BRANCH   1   2
ATOM      2  C   UNL     1      26.720  12.205  22.610  1.00  0.00     0.000 C 
BRANCH   2   3
ATOM      3  C   UNL     1      26.893  10.756  22.116  1.00  0.00     0.006 C 
BRANCH   3   4
ATOM      4  C   UNL     1      28.328  10.216  22.218  1.00  0.00     0.053 C 
BRANCH   4   5
ATOM      5  C   UNL     1      28.610   9.621  23.564  1.00  0.00     0.041 C 
ATOM      6  O   UNL     1      29.797   9.402  23.924  1.00  0.00    -0.550 OA
ATOM      7  O   UNL     1      27.561   9.277  24.406  1.00  0.00    -0.550 OA
ENDBRANCH   4   5
ENDBRANCH   3   4
ENDBRANCH   2   3
ENDBRANCH   1   2
BRANCH   1   8
ATOM      8  C   UNL     1      24.598  11.117  23.535  1.00  0.00     0.000 C 
BRANCH   8   9
ATOM      9  C   UNL     1      23.101  11.329  23.257  1.00  0.00    -0.000 C 
BRANCH   9  10
ATOM     10  C   UNL     1      22.588  10.493  22.071  1.00  0.00    -0.000 C 
BRANCH  10  11
ATOM     11  C   UNL     1      23.371  10.685  20.759  1.00  0.00    -0.000 C 
BRANCH  11  12
ATOM     12  C   UNL     1      23.074  12.028  20.075  1.00  0.00    -0.003 C 
ATOM     13  C   UNL     1      24.357  12.819  19.837  1.00  0.00     0.004 C 
ENDBRANCH  11  12
ENDBRANCH  10  11
ENDBRANCH   9  10
ENDBRANCH   8   9
ENDBRANCH   1   8
TORSDOF 9
ENDMDL
MODEL 4
REMARK VINA RESULT:    -3.625     15.591     17.249
REMARK INTER + INTRA:          -6.224
REMARK INTER:                  -5.080
REMARK INTRA:                  -1.144
REMARK UNBOUND:                -0.692
REMARK SMILES CCCCCCCCCCC(=O)[O-]
REMARK SMILES IDX 7 1 8 2 9 3 10 4 11 5 12 6 13 7 6 8 5 9 4 10 3 11 2 12 1 13
REMARK H PARENT
REMARK Flexibility Score: inf
ROOT
ATOM      1  C   UNL     1      25.493  26.366  24.103  1.00  0.00     0.000 C 
ENDROOT
BRANCH   1   2
ATOM      2  C   UNL     1      26.024  25.261  23.172  1.00  0.00     0.000 C 
BRANCH   2   3
ATOM      3  C   UNL     1      26.626  25.819  21.869  1.00  0.00     0.006 C 
BRANCH   3   4
ATOM      4  C   UNL     1      26.823  27.344  21.862  1.00  0.00     0.053 C 
BRANCH   4   5
ATOM      5  C   UNL     1      28.271  27.724  21.914  1.00  0.00     0.041 C 
ATOM      6  O   UNL     1      28.921  27.599  22.986  1.00  0.00    -0.550 OA
ATOM      7  O   UNL     1      28.893  28.247  20.789  1.00  0.00    -0.550 OA
ENDBRANCH   4   5
ENDBRANCH   3   4
ENDBRANCH   2   3
ENDBRANCH   1   2
BRANCH   1   8
ATOM      8  C   UNL     1      24.654  25.804  25.263  1.00  0.00     0.000 C 
BRANCH   8   9
ATOM      9  C   UNL     1      23.206  26.321  25.254  1.00  0.00    -0.000 C 
BRANCH   9  10
ATOM     10  C   UNL     1      23.055  27.666  24.520  1.00  0.00    -0.000 C 
BRANCH  10  11
ATOM     11  C   UNL     1      22.022  27.668  23.379  1.00  0.00    -0.000 C 
BRANCH  11  12
ATOM     12  C   UNL     1      22.666  27.760  21.988  1.00  0.00    -0.003 C 
ATOM     13  C   UNL     1      22.881  26.373  21.389  1.00  0.00     0.004 C 
ENDBRANCH  11  12
ENDBRANCH  10  11
ENDBRANCH   9  10
ENDBRANCH   8   9
ENDBRANCH   1   8
TORSDOF 9
ENDMDL
MODEL 5
REMARK VINA RESULT:    -3.610      3.158      5.982
REMARK INTER + INTRA:          -6.201
REMARK INTER:                  -5.303
REMARK INTRA:                  -0.898
REMARK UNBOUND:                -0.692
REMARK SMILES CCCCCCCCCCC(=O)[O-]
REMARK SMILES IDX 7 1 8 2 9 3 10 4 11 5 12 6 13 7 6 8 5 9 4 10 3 11 2 12 1 13
REMARK H PARENT
REMARK Flexibility Score: inf
ROOT
ATOM      1  C   UNL     1      26.328  12.300  22.564  1.00  0.00     0.000 C 
ENDROOT
BRANCH   1   2
ATOM      2  C   UNL     1      26.484  10.770  22.514  1.00  0.00     0.000 C 
BRANCH   2   3
ATOM      3  C   UNL     1      27.921  10.329  22.177  1.00  0.00     0.006 C 
BRANCH   3   4
ATOM      4  C   UNL     1      28.314   8.955  22.744  1.00  0.00     0.053 C 
BRANCH   4   5
ATOM      5  C   UNL     1      28.778   9.046  24.165  1.00  0.00     0.041 C 
ATOM      6  O   UNL     1      29.994   9.248  24.424  1.00  0.00    -0.550 OA
ATOM      7  O   UNL     1      27.872   8.875  25.204  1.00  0.00    -0.550 OA
ENDBRANCH   4   5
ENDBRANCH   3   4
ENDBRANCH   2   3
ENDBRANCH   1   2
BRANCH   1   8
ATOM      8  C   UNL     1      25.348  12.825  21.502  1.00  0.00     0.000 C 
BRANCH   8   9
ATOM      9  C   UNL     1      25.023  11.778  20.423  1.00  0.00    -0.000 C 
BRANCH   9  10
ATOM     10  C   UNL     1      23.513  11.506  20.290  1.00  0.00    -0.000 C 
BRANCH  10  11
ATOM     11  C   UNL     1      22.979  10.375  21.187  1.00  0.00    -0.000 C 
BRANCH  11  12
ATOM     12  C   UNL     1      22.196  10.894  22.402  1.00  0.00    -0.003 C 
ATOM     13  C   UNL     1      22.891  10.515  23.707  1.00  0.00     0.004 C 
ENDBRANCH  11  12
ENDBRANCH  10  11
ENDBRANCH   9  10
ENDBRANCH   8   9
ENDBRANCH   1   8
TORSDOF 9
ENDMDL
MODEL 6
REMARK VINA RESULT:    -3.585      2.190      3.299
REMARK INTER + INTRA:          -6.162
REMARK INTER:                  -5.216
REMARK INTRA:                  -0.946
REMARK UNBOUND:                -0.692
REMARK SMILES CCCCCCCCCCC(=O)[O-]
REMARK SMILES IDX 7 1 8 2 9 3 10 4 11 5 12 6 13 7 6 8 5 9 4 10 3 11 2 12 1 13
REMARK H PARENT
REMARK Flexibility Score: inf
ROOT
ATOM      1  C   UNL     1      22.960  11.349  22.878  1.00  0.00     0.000 C 
ENDROOT
BRANCH   1   2
ATOM      2  C   UNL     1      22.818  10.355  21.711  1.00  0.00     0.000 C 
BRANCH   2   3
ATOM      3  C   UNL     1      23.328  10.929  20.376  1.00  0.00     0.006 C 
BRANCH   3   4
ATOM      4  C   UNL     1      22.900  12.380  20.103  1.00  0.00     0.053 C 
BRANCH   4   5
ATOM      5  C   UNL     1      24.046  13.226  19.638  1.00  0.00     0.041 C 
ATOM      6  O   UNL     1      23.848  14.414  19.269  1.00  0.00    -0.550 OA
ATOM      7  O   UNL     1      25.326  12.691  19.580  1.00  0.00    -0.550 OA
ENDBRANCH   4   5
ENDBRANCH   3   4
ENDBRANCH   2   3
ENDBRANCH   1   2
BRANCH   1   8
ATOM      8  C   UNL     1      24.344  11.279  23.544  1.00  0.00     0.000 C 
BRANCH   8   9
ATOM      9  C   UNL     1      25.265  12.438  23.127  1.00  0.00    -0.000 C 
BRANCH   9  10
ATOM     10  C   UNL     1      26.693  11.975  22.786  1.00  0.00    -0.000 C 
BRANCH  10  11
ATOM     11  C   UNL     1      26.771  10.690  21.941  1.00  0.00    -0.000 C 
BRANCH  11  12
ATOM     12  C   UNL     1      27.796   9.681  22.479  1.00  0.00    -0.003 C 
ATOM     13  C   UNL     1      29.089   9.727  21.671  1.00  0.00     0.004 C 
ENDBRANCH  11  12
ENDBRANCH  10  11
ENDBRANCH   9  10
ENDBRANCH   8   9
ENDBRANCH   1   8
TORSDOF 9
ENDMDL
MODEL 7
REMARK VINA RESULT:    -3.567      1.659      3.399
REMARK INTER + INTRA:          -6.135
REMARK INTER:                  -5.012
REMARK INTRA:                  -1.123
REMARK UNBOUND:                -0.692
REMARK SMILES CCCCCCCCCCC(=O)[O-]
REMARK SMILES IDX 7 1 8 2 9 3 10 4 11 5 12 6 13 7 6 8 5 9 4 10 3 11 2 12 1 13
REMARK H PARENT
REMARK Flexibility Score: inf
ROOT
ATOM      1  C   UNL     1      23.624  11.646  20.386  1.00  0.00     0.000 C 
ENDROOT
BRANCH   1   2
ATOM      2  C   UNL     1      23.067  10.361  21.025  1.00  0.00     0.000 C 
BRANCH   2   3
ATOM      3  C   UNL     1      22.276  10.634  22.317  1.00  0.00     0.006 C 
BRANCH   3   4
ATOM      4  C   UNL     1      23.132  10.655  23.594  1.00  0.00     0.053 C 
BRANCH   4   5
ATOM      5  C   UNL     1      23.126  12.000  24.253  1.00  0.00     0.041 C 
ATOM      6  O   UNL     1      23.334  12.100  25.491  1.00  0.00    -0.550 OA
ATOM      7  O   UNL     1      22.857  13.139  23.506  1.00  0.00    -0.550 OA
ENDBRANCH   4   5
ENDBRANCH   3   4
ENDBRANCH   2   3
ENDBRANCH   1   2
BRANCH   1   8
ATOM      8  C   UNL     1      25.160  11.700  20.417  1.00  0.00     0.000 C 
BRANCH   8   9
ATOM      9  C   UNL     1      25.700  12.708  21.445  1.00  0.00    -0.000 C 
BRANCH   9  10
ATOM     10  C   UNL     1      26.622  12.057  22.493  1.00  0.00    -0.000 C 
BRANCH  10  11
ATOM     11  C   UNL     1      26.655  10.518  22.458  1.00  0.00    -0.000 C 
BRANCH  11  12
ATOM     12  C   UNL     1      28.079   9.949  22.534  1.00  0.00    -0.003 C 
ATOM     13  C   UNL     1      28.562   9.489  21.162  1.00  0.00     0.004 C 
ENDBRANCH  11  12
ENDBRANCH  10  11
ENDBRANCH   9  10
ENDBRANCH   8   9
ENDBRANCH   1   8
TORSDOF 9
ENDMDL
MODEL 8
REMARK VINA RESULT:    -3.561      2.783      4.606
REMARK INTER + INTRA:          -6.126
REMARK INTER:                  -4.929
REMARK INTRA:                  -1.197
REMARK UNBOUND:                -0.692
REMARK SMILES CCCCCCCCCCC(=O)[O-]
REMARK SMILES IDX 7 1 8 2 9 3 10 4 11 5 12 6 13 7 6 8 5 9 4 10 3 11 2 12 1 13
REMARK H PARENT
REMARK Flexibility Score: inf
ROOT
ATOM      1  C   UNL     1      23.080  10.461  20.895  1.00  0.00     0.000 C 
ENDROOT
BRANCH   1   2
ATOM      2  C   UNL     1      22.389  10.066  22.213  1.00  0.00     0.000 C 
BRANCH   2   3
ATOM      3  C   UNL     1      22.815  10.954  23.397  1.00  0.00     0.006 C 
BRANCH   3   4
ATOM      4  C   UNL     1      23.182  10.178  24.673  1.00  0.00     0.053 C 
BRANCH   4   5
ATOM      5  C   UNL     1      24.476  10.648  25.263  1.00  0.00     0.041 C 
ATOM      6  O   UNL     1      24.639  11.864  25.546  1.00  0.00    -0.550 OA
ATOM      7  O   UNL     1      25.513   9.748  25.471  1.00  0.00    -0.550 OA
ENDBRANCH   4   5
ENDBRANCH   3   4
ENDBRANCH   2   3
ENDBRANCH   1   2
BRANCH   1   8
ATOM      8  C   UNL     1      22.838  11.933  20.523  1.00  0.00     0.000 C 
BRANCH   8   9
ATOM      9  C   UNL     1      24.059  12.585  19.852  1.00  0.00    -0.000 C 
BRANCH   9  10
ATOM     10  C   UNL     1      25.393  12.150  20.485  1.00  0.00    -0.000 C 
BRANCH  10  11
ATOM     11  C   UNL     1      25.717  12.820  21.833  1.00  0.00    -0.000 C 
BRANCH  11  12
ATOM     12  C   UNL     1      26.729  12.024  22.669  1.00  0.00    -0.003 C 
ATOM     13  C   UNL     1      26.780  10.564  22.226  1.00  0.00     0.004 C 
ENDBRANCH  11  12
ENDBRANCH  10  11
ENDBRANCH   9  10
ENDBRANCH   8   9
ENDBRANCH   1   8
TORSDOF 9
ENDMDL
