MODEL 1
REMARK VINA RESULT:    -8.136      0.000      0.000
REMARK INTER + INTRA:          -9.843
REMARK INTER:                  -9.563
REMARK INTRA:                  -0.280
REMARK UNBOUND:                -0.280
REMARK SMILES O=c1c(O)c(-c2ccc(O)cc2)oc2cc(O)cc(O)c12
REMARK SMILES IDX 5 1 3 2 2 3 1 4 21 5 19 6 18 7 16 8 15 9 14 10 13 11 6 12
REMARK SMILES IDX 7 13 8 14 9 15 12 16 11 17 10 18 4 20 20 22 17 24
REMARK H PARENT 10 19 4 21 20 23 17 25
REMARK Flexibility Score: inf
ROOT
ATOM      1  C   UNL     1      -2.689   0.236  10.214  1.00  0.00     0.180 A 
ATOM      2  C   UNL     1      -2.046  -0.198  11.386  1.00  0.00     0.208 A 
ATOM      3  C   UNL     1      -2.739  -1.036  12.273  1.00  0.00     0.238 A 
ATOM      4  O   UNL     1      -2.133  -1.481  13.282  1.00  0.00    -0.285 OA
ATOM      5  C   UNL     1      -4.086  -1.386  12.007  1.00  0.00     0.111 A 
ATOM      6  C   UNL     1      -4.899  -2.193  12.859  1.00  0.00     0.134 A 
ATOM      7  C   UNL     1      -6.184  -2.561  12.441  1.00  0.00     0.093 A 
ATOM      8  C   UNL     1      -6.708  -2.099  11.231  1.00  0.00     0.123 A 
ATOM      9  C   UNL     1      -5.943  -1.266  10.418  1.00  0.00     0.094 A 
ATOM     10  C   UNL     1      -4.643  -0.913  10.789  1.00  0.00     0.146 A 
ATOM     11  O   UNL     1      -3.942  -0.135   9.975  1.00  0.00    -0.452 OA
ENDROOT
BRANCH   1  12
ATOM     12  C   UNL     1      -2.019   1.108   9.223  1.00  0.00     0.021 A 
ATOM     13  C   UNL     1      -2.023   2.500   9.414  1.00  0.00     0.016 A 
ATOM     14  C   UNL     1      -1.416   3.345   8.480  1.00  0.00     0.047 A 
ATOM     15  C   UNL     1      -0.811   2.812   7.337  1.00  0.00     0.115 A 
ATOM     16  C   UNL     1      -1.427   0.579   8.062  1.00  0.00     0.016 A 
ATOM     17  C   UNL     1      -0.822   1.426   7.128  1.00  0.00     0.047 A 
BRANCH  15  18
ATOM     18  O   UNL     1      -0.210   3.665   6.415  1.00  0.00    -0.508 OA
ATOM     19  H   UNL     1      -0.321   3.529   5.416  1.00  0.00     0.293 HD
ENDBRANCH  15  18
ENDBRANCH   1  12
BRANCH   2  20
ATOM     20  O   UNL     1      -0.743   0.220  11.669  1.00  0.00    -0.502 OA
ATOM     21  H   UNL     1      -0.542   1.098  12.134  1.00  0.00     0.293 HD
ENDBRANCH   2  20
BRANCH   6  22
ATOM     22  O   UNL     1      -4.508  -2.635  14.127  1.00  0.00    -0.507 OA
ATOM     23  H   UNL     1      -4.834  -3.481  14.568  1.00  0.00     0.293 HD
ENDBRANCH   6  22
BRANCH   8  24
ATOM     24  O   UNL     1      -7.994  -2.456  10.830  1.00  0.00    -0.508 OA
ATOM     25  H   UNL     1      -8.612  -2.980  11.439  1.00  0.00     0.293 HD
ENDBRANCH   8  24
TORSDOF 5
ENDMDL
MODEL 2
REMARK VINA RESULT:    -8.016      1.850      2.822
REMARK INTER + INTRA:          -9.702
REMARK INTER:                  -9.447
REMARK INTRA:                  -0.255
REMARK UNBOUND:                -0.280
REMARK SMILES O=c1c(O)c(-c2ccc(O)cc2)oc2cc(O)cc(O)c12
REMARK SMILES IDX 5 1 3 2 2 3 1 4 21 5 19 6 18 7 16 8 15 9 14 10 13 11 6 12
REMARK SMILES IDX 7 13 8 14 9 15 12 16 11 17 10 18 4 20 20 22 17 24
REMARK H PARENT 10 19 4 21 20 23 17 25
REMARK Flexibility Score: inf
ROOT
ATOM      1  C   UNL     1      -2.816  -0.046   9.524  1.00  0.00     0.180 A 
ATOM      2  C   UNL     1      -3.184  -1.351   9.156  1.00  0.00     0.208 A 
ATOM      3  C   UNL     1      -3.708  -2.213  10.133  1.00  0.00     0.238 A 
ATOM      4  O   UNL     1      -4.105  -3.353   9.782  1.00  0.00    -0.285 OA
ATOM      5  C   UNL     1      -3.805  -1.777  11.478  1.00  0.00     0.111 A 
ATOM      6  C   UNL     1      -4.278  -2.581  12.560  1.00  0.00     0.134 A 
ATOM      7  C   UNL     1      -4.430  -2.010  13.829  1.00  0.00     0.093 A 
ATOM      8  C   UNL     1      -4.065  -0.683  14.070  1.00  0.00     0.123 A 
ATOM      9  C   UNL     1      -3.550   0.093  13.035  1.00  0.00     0.094 A 
ATOM     10  C   UNL     1      -3.423  -0.437  11.748  1.00  0.00     0.146 A 
ATOM     11  O   UNL     1      -2.948   0.344  10.786  1.00  0.00    -0.452 OA
ENDROOT
BRANCH   1  12
ATOM     12  C   UNL     1      -2.271   0.925   8.548  1.00  0.00     0.021 A 
ATOM     13  C   UNL     1      -0.917   0.850   8.181  1.00  0.00     0.016 A 
ATOM     14  C   UNL     1      -0.375   1.769   7.278  1.00  0.00     0.047 A 
ATOM     15  C   UNL     1      -1.174   2.783   6.742  1.00  0.00     0.115 A 
ATOM     16  C   UNL     1      -3.065   1.959   8.021  1.00  0.00     0.016 A 
ATOM     17  C   UNL     1      -2.521   2.879   7.119  1.00  0.00     0.047 A 
BRANCH  15  18
ATOM     18  O   UNL     1      -0.621   3.693   5.844  1.00  0.00    -0.508 OA
ATOM     19  H   UNL     1       0.253   3.502   5.367  1.00  0.00     0.293 HD
ENDBRANCH  15  18
ENDBRANCH   1  12
BRANCH   2  20
ATOM     20  O   UNL     1      -3.009  -1.787   7.840  1.00  0.00    -0.502 OA
ATOM     21  H   UNL     1      -2.974  -1.148   7.055  1.00  0.00     0.293 HD
ENDBRANCH   2  20
BRANCH   6  22
ATOM     22  O   UNL     1      -4.587  -3.940  12.449  1.00  0.00    -0.507 OA
ATOM     23  H   UNL     1      -4.185  -4.570  11.773  1.00  0.00     0.293 HD
ENDBRANCH   6  22
BRANCH   8  24
ATOM     24  O   UNL     1      -4.203  -0.127  15.341  1.00  0.00    -0.508 OA
ATOM     25  H   UNL     1      -3.432   0.344  15.800  1.00  0.00     0.293 HD
ENDBRANCH   8  24
TORSDOF 5
ENDMDL
MODEL 3
REMARK VINA RESULT:    -7.968      1.803      2.934
REMARK INTER + INTRA:          -9.646
REMARK INTER:                  -9.401
REMARK INTRA:                  -0.245
REMARK UNBOUND:                -0.280
REMARK SMILES O=c1c(O)c(-c2ccc(O)cc2)oc2cc(O)cc(O)c12
REMARK SMILES IDX 5 1 3 2 2 3 1 4 21 5 19 6 18 7 16 8 15 9 14 10 13 11 6 12
REMARK SMILES IDX 7 13 8 14 9 15 12 16 11 17 10 18 4 20 20 22 17 24
REMARK H PARENT 10 19 4 21 20 23 17 25
REMARK Flexibility Score: inf
ROOT
ATOM      1  C   UNL     1      -3.566   0.354   9.991  1.00  0.00     0.180 A 
ATOM      2  C   UNL     1      -4.812   0.565  10.603  1.00  0.00     0.208 A 
ATOM      3  C   UNL     1      -5.320  -0.415  11.471  1.00  0.00     0.238 A 
ATOM      4  O   UNL     1      -6.401  -0.187  12.074  1.00  0.00    -0.285 OA
ATOM      5  C   UNL     1      -4.600  -1.618  11.674  1.00  0.00     0.111 A 
ATOM      6  C   UNL     1      -5.041  -2.699  12.496  1.00  0.00     0.134 A 
ATOM      7  C   UNL     1      -4.196  -3.796  12.706  1.00  0.00     0.093 A 
ATOM      8  C   UNL     1      -2.954  -3.881  12.071  1.00  0.00     0.123 A 
ATOM      9  C   UNL     1      -2.539  -2.857  11.223  1.00  0.00     0.094 A 
ATOM     10  C   UNL     1      -3.343  -1.732  11.025  1.00  0.00     0.146 A 
ATOM     11  O   UNL     1      -2.899  -0.770  10.225  1.00  0.00    -0.452 OA
ENDROOT
BRANCH   1  12
ATOM     12  C   UNL     1      -2.958   1.347   9.075  1.00  0.00     0.021 A 
ATOM     13  C   UNL     1      -3.410   1.430   7.748  1.00  0.00     0.016 A 
ATOM     14  C   UNL     1      -2.837   2.345   6.860  1.00  0.00     0.047 A 
ATOM     15  C   UNL     1      -1.794   3.176   7.282  1.00  0.00     0.115 A 
ATOM     16  C   UNL     1      -1.896   2.172   9.489  1.00  0.00     0.016 A 
ATOM     17  C   UNL     1      -1.322   3.085   8.598  1.00  0.00     0.047 A 
BRANCH  15  18
ATOM     18  O   UNL     1      -1.232   4.082   6.386  1.00  0.00    -0.508 OA
ATOM     19  H   UNL     1      -1.231   5.079   6.572  1.00  0.00     0.293 HD
ENDBRANCH  15  18
ENDBRANCH   1  12
BRANCH   2  20
ATOM     20  O   UNL     1      -5.543   1.725  10.331  1.00  0.00    -0.502 OA
ATOM     21  H   UNL     1      -5.457   2.566  10.889  1.00  0.00     0.293 HD
ENDBRANCH   2  20
BRANCH   6  22
ATOM     22  O   UNL     1      -6.298  -2.758  13.107  1.00  0.00    -0.507 OA
ATOM     23  H   UNL     1      -6.458  -2.727  14.102  1.00  0.00     0.293 HD
ENDBRANCH   6  22
BRANCH   8  24
ATOM     24  O   UNL     1      -2.127  -4.984  12.272  1.00  0.00    -0.508 OA
ATOM     25  H   UNL     1      -1.981  -5.375  13.195  1.00  0.00     0.293 HD
ENDBRANCH   8  24
TORSDOF 5
ENDMDL
MODEL 4
REMARK VINA RESULT:    -7.697      2.327      6.516
REMARK INTER + INTRA:          -9.327
REMARK INTER:                  -9.039
REMARK INTRA:                  -0.288
REMARK UNBOUND:                -0.280
REMARK SMILES O=c1c(O)c(-c2ccc(O)cc2)oc2cc(O)cc(O)c12
REMARK SMILES IDX 5 1 3 2 2 3 1 4 21 5 19 6 18 7 16 8 15 9 14 10 13 11 6 12
REMARK SMILES IDX 7 13 8 14 9 15 12 16 11 17 10 18 4 20 20 22 17 24
REMARK H PARENT 10 19 4 21 20 23 17 25
REMARK Flexibility Score: inf
ROOT
ATOM      1  C   UNL     1      -2.127  -0.136  10.985  1.00  0.00     0.180 A 
ATOM      2  C   UNL     1      -2.207   1.003  11.803  1.00  0.00     0.208 A 
ATOM      3  C   UNL     1      -2.121   2.274  11.214  1.00  0.00     0.238 A 
ATOM      4  O   UNL     1      -2.267   3.289  11.942  1.00  0.00    -0.285 OA
ATOM      5  C   UNL     1      -1.900   2.390   9.819  1.00  0.00     0.111 A 
ATOM      6  C   UNL     1      -1.751   3.627   9.120  1.00  0.00     0.134 A 
ATOM      7  C   UNL     1      -1.643   3.622   7.724  1.00  0.00     0.093 A 
ATOM      8  C   UNL     1      -1.613   2.423   7.008  1.00  0.00     0.123 A 
ATOM      9  C   UNL     1      -1.702   1.209   7.685  1.00  0.00     0.094 A 
ATOM     10  C   UNL     1      -1.850   1.182   9.074  1.00  0.00     0.146 A 
ATOM     11  O   UNL     1      -1.952   0.004   9.676  1.00  0.00    -0.452 OA
ENDROOT
BRANCH   1  12
ATOM     12  C   UNL     1      -2.225  -1.509  11.531  1.00  0.00     0.021 A 
ATOM     13  C   UNL     1      -3.490  -2.097  11.700  1.00  0.00     0.016 A 
ATOM     14  C   UNL     1      -3.607  -3.384  12.234  1.00  0.00     0.047 A 
ATOM     15  C   UNL     1      -2.465  -4.093  12.619  1.00  0.00     0.115 A 
ATOM     16  C   UNL     1      -1.081  -2.219  11.939  1.00  0.00     0.016 A 
ATOM     17  C   UNL     1      -1.201  -3.506  12.474  1.00  0.00     0.047 A 
BRANCH  15  18
ATOM     18  O   UNL     1      -2.597  -5.374  13.150  1.00  0.00    -0.508 OA
ATOM     19  H   UNL     1      -1.796  -5.985  13.264  1.00  0.00     0.293 HD
ENDBRANCH  15  18
ENDBRANCH   1  12
BRANCH   2  20
ATOM     20  O   UNL     1      -2.348   0.866  13.187  1.00  0.00    -0.502 OA
ATOM     21  H   UNL     1      -1.999   0.061  13.693  1.00  0.00     0.293 HD
ENDBRANCH   2  20
BRANCH   6  22
ATOM     22  O   UNL     1      -1.678   4.876   9.745  1.00  0.00    -0.507 OA
ATOM     23  H   UNL     1      -0.906   5.195  10.309  1.00  0.00     0.293 HD
ENDBRANCH   6  22
BRANCH   8  24
ATOM     24  O   UNL     1      -1.488   2.428   5.620  1.00  0.00    -0.508 OA
ATOM     25  H   UNL     1      -2.223   2.070   5.021  1.00  0.00     0.293 HD
ENDBRANCH   8  24
TORSDOF 5
ENDMDL
MODEL 5
REMARK VINA RESULT:    -7.646      1.774      6.693
REMARK INTER + INTRA:          -9.267
REMARK INTER:                  -9.015
REMARK INTRA:                  -0.252
REMARK UNBOUND:                -0.280
REMARK SMILES O=c1c(O)c(-c2ccc(O)cc2)oc2cc(O)cc(O)c12
REMARK SMILES IDX 5 1 3 2 2 3 1 4 21 5 19 6 18 7 16 8 15 9 14 10 13 11 6 12
REMARK SMILES IDX 7 13 8 14 9 15 12 16 11 17 10 18 4 20 20 22 17 24
REMARK H PARENT 10 19 4 21 20 23 17 25
REMARK Flexibility Score: inf
ROOT
ATOM      1  C   UNL     1      -3.062  -1.003  10.328  1.00  0.00     0.180 A 
ATOM      2  C   UNL     1      -1.946  -1.686   9.816  1.00  0.00     0.208 A 
ATOM      3  C   UNL     1      -1.056  -1.001   8.973  1.00  0.00     0.238 A 
ATOM      4  O   UNL     1      -0.020  -1.596   8.578  1.00  0.00    -0.285 OA
ATOM      5  C   UNL     1      -1.323   0.342   8.607  1.00  0.00     0.111 A 
ATOM      6  C   UNL     1      -0.514   1.118   7.724  1.00  0.00     0.134 A 
ATOM      7  C   UNL     1      -0.817   2.470   7.518  1.00  0.00     0.093 A 
ATOM      8  C   UNL     1      -1.937   3.055   8.114  1.00  0.00     0.123 A 
ATOM      9  C   UNL     1      -2.764   2.291   8.934  1.00  0.00     0.094 A 
ATOM     10  C   UNL     1      -2.466   0.950   9.189  1.00  0.00     0.146 A 
ATOM     11  O   UNL     1      -3.269   0.265   9.993  1.00  0.00    -0.452 OA
ENDROOT
BRANCH   1  12
ATOM     12  C   UNL     1      -4.037  -1.652  11.234  1.00  0.00     0.021 A 
ATOM     13  C   UNL     1      -3.713  -1.821  12.590  1.00  0.00     0.016 A 
ATOM     14  C   UNL     1      -4.609  -2.451  13.460  1.00  0.00     0.047 A 
ATOM     15  C   UNL     1      -5.832  -2.932  12.982  1.00  0.00     0.115 A 
ATOM     16  C   UNL     1      -5.260  -2.156  10.755  1.00  0.00     0.016 A 
ATOM     17  C   UNL     1      -6.154  -2.787  11.626  1.00  0.00     0.047 A 
BRANCH  15  18
ATOM     18  O   UNL     1      -6.715  -3.557  13.860  1.00  0.00    -0.508 OA
ATOM     19  H   UNL     1      -7.383  -4.248  13.536  1.00  0.00     0.293 HD
ENDBRANCH  15  18
ENDBRANCH   1  12
BRANCH   2  20
ATOM     20  O   UNL     1      -1.742  -3.033  10.126  1.00  0.00    -0.502 OA
ATOM     21  H   UNL     1      -2.136  -3.467  10.952  1.00  0.00     0.293 HD
ENDBRANCH   2  20
BRANCH   6  22
ATOM     22  O   UNL     1       0.575   0.611   7.008  1.00  0.00    -0.507 OA
ATOM     23  H   UNL     1       0.622  -0.312   6.606  1.00  0.00     0.293 HD
ENDBRANCH   6  22
BRANCH   8  24
ATOM     24  O   UNL     1      -2.242   4.397   7.891  1.00  0.00    -0.508 OA
ATOM     25  H   UNL     1      -1.621   5.138   8.195  1.00  0.00     0.293 HD
ENDBRANCH   8  24
TORSDOF 5
ENDMDL
MODEL 6
REMARK VINA RESULT:    -7.598      1.878      7.078
REMARK INTER + INTRA:          -9.211
REMARK INTER:                  -8.944
REMARK INTRA:                  -0.267
REMARK UNBOUND:                -0.280
REMARK SMILES O=c1c(O)c(-c2ccc(O)cc2)oc2cc(O)cc(O)c12
REMARK SMILES IDX 5 1 3 2 2 3 1 4 21 5 19 6 18 7 16 8 15 9 14 10 13 11 6 12
REMARK SMILES IDX 7 13 8 14 9 15 12 16 11 17 10 18 4 20 20 22 17 24
REMARK H PARENT 10 19 4 21 20 23 17 25
REMARK Flexibility Score: inf
ROOT
ATOM      1  C   UNL     1      -4.112  -0.139  10.274  1.00  0.00     0.180 A 
ATOM      2  C   UNL     1      -5.100   0.067   9.297  1.00  0.00     0.208 A 
ATOM      3  C   UNL     1      -4.754   0.725   8.106  1.00  0.00     0.238 A 
ATOM      4  O   UNL     1      -5.624   0.839   7.204  1.00  0.00    -0.285 OA
ATOM      5  C   UNL     1      -3.438   1.219   7.930  1.00  0.00     0.111 A 
ATOM      6  C   UNL     1      -2.988   1.941   6.784  1.00  0.00     0.134 A 
ATOM      7  C   UNL     1      -1.636   2.289   6.673  1.00  0.00     0.093 A 
ATOM      8  C   UNL     1      -0.731   1.997   7.697  1.00  0.00     0.123 A 
ATOM      9  C   UNL     1      -1.172   1.342   8.845  1.00  0.00     0.094 A 
ATOM     10  C   UNL     1      -2.506   0.948   8.967  1.00  0.00     0.146 A 
ATOM     11  O   UNL     1      -2.879   0.307  10.068  1.00  0.00    -0.452 OA
ENDROOT
BRANCH   1  12
ATOM     12  C   UNL     1      -4.396  -0.838  11.549  1.00  0.00     0.021 A 
ATOM     13  C   UNL     1      -4.428  -2.242  11.574  1.00  0.00     0.016 A 
ATOM     14  C   UNL     1      -4.715  -2.923  12.761  1.00  0.00     0.047 A 
ATOM     15  C   UNL     1      -4.988  -2.210  13.933  1.00  0.00     0.115 A 
ATOM     16  C   UNL     1      -4.691  -0.125  12.726  1.00  0.00     0.016 A 
ATOM     17  C   UNL     1      -4.980  -0.809  13.911  1.00  0.00     0.047 A 
BRANCH  15  18
ATOM     18  O   UNL     1      -5.273  -2.901  15.108  1.00  0.00    -0.508 OA
ATOM     19  H   UNL     1      -5.742  -2.451  15.887  1.00  0.00     0.293 HD
ENDBRANCH  15  18
ENDBRANCH   1  12
BRANCH   2  20
ATOM     20  O   UNL     1      -6.411  -0.361   9.521  1.00  0.00    -0.502 OA
ATOM     21  H   UNL     1      -7.027   0.097  10.182  1.00  0.00     0.293 HD
ENDBRANCH   2  20
BRANCH   6  22
ATOM     22  O   UNL     1      -3.824   2.361   5.744  1.00  0.00    -0.507 OA
ATOM     23  H   UNL     1      -3.681   3.190   5.187  1.00  0.00     0.293 HD
ENDBRANCH   6  22
BRANCH   8  24
ATOM     24  O   UNL     1       0.609   2.361   7.587  1.00  0.00    -0.508 OA
ATOM     25  H   UNL     1       0.885   3.320   7.406  1.00  0.00     0.293 HD
ENDBRANCH   8  24
TORSDOF 5
ENDMDL
MODEL 7
REMARK VINA RESULT:    -7.597      1.935      6.513
REMARK INTER + INTRA:          -9.209
REMARK INTER:                  -9.001
REMARK INTRA:                  -0.208
REMARK UNBOUND:                -0.280
REMARK SMILES O=c1c(O)c(-c2ccc(O)cc2)oc2cc(O)cc(O)c12
REMARK SMILES IDX 5 1 3 2 2 3 1 4 21 5 19 6 18 7 16 8 15 9 14 10 13 11 6 12
REMARK SMILES IDX 7 13 8 14 9 15 12 16 11 17 10 18 4 20 20 22 17 24
REMARK H PARENT 10 19 4 21 20 23 17 25
REMARK Flexibility Score: inf
ROOT
ATOM      1  C   UNL     1      -3.049  -0.147  11.220  1.00  0.00     0.180 A 
ATOM      2  C   UNL     1      -2.748   1.015  11.949  1.00  0.00     0.208 A 
ATOM      3  C   UNL     1      -2.357   2.172  11.257  1.00  0.00     0.238 A 
ATOM      4  O   UNL     1      -2.162   3.230  11.909  1.00  0.00    -0.285 OA
ATOM      5  C   UNL     1      -2.219   2.137   9.847  1.00  0.00     0.111 A 
ATOM      6  C   UNL     1      -1.786   3.237   9.046  1.00  0.00     0.134 A 
ATOM      7  C   UNL     1      -1.788   3.118   7.650  1.00  0.00     0.093 A 
ATOM      8  C   UNL     1      -2.146   1.918   7.031  1.00  0.00     0.123 A 
ATOM      9  C   UNL     1      -2.517   0.822   7.806  1.00  0.00     0.094 A 
ATOM     10  C   UNL     1      -2.562   0.922   9.198  1.00  0.00     0.146 A 
ATOM     11  O   UNL     1      -2.941  -0.141   9.897  1.00  0.00    -0.452 OA
ENDROOT
BRANCH   1  12
ATOM     12  C   UNL     1      -3.482  -1.401  11.878  1.00  0.00     0.021 A 
ATOM     13  C   UNL     1      -4.767  -1.479  12.440  1.00  0.00     0.016 A 
ATOM     14  C   UNL     1      -5.190  -2.645  13.085  1.00  0.00     0.047 A 
ATOM     15  C   UNL     1      -4.329  -3.742  13.189  1.00  0.00     0.115 A 
ATOM     16  C   UNL     1      -2.614  -2.501  12.003  1.00  0.00     0.016 A 
ATOM     17  C   UNL     1      -3.038  -3.667  12.650  1.00  0.00     0.047 A 
BRANCH  15  18
ATOM     18  O   UNL     1      -4.764  -4.898  13.834  1.00  0.00    -0.508 OA
ATOM     19  H   UNL     1      -4.937  -5.757  13.323  1.00  0.00     0.293 HD
ENDBRANCH  15  18
ENDBRANCH   1  12
BRANCH   2  20
ATOM     20  O   UNL     1      -2.817   1.008  13.345  1.00  0.00    -0.502 OA
ATOM     21  H   UNL     1      -3.696   0.969  13.847  1.00  0.00     0.293 HD
ENDBRANCH   2  20
BRANCH   6  22
ATOM     22  O   UNL     1      -1.323   4.450   9.565  1.00  0.00    -0.507 OA
ATOM     23  H   UNL     1      -1.454   4.759  10.515  1.00  0.00     0.293 HD
ENDBRANCH   6  22
BRANCH   8  24
ATOM     24  O   UNL     1      -2.130   1.803   5.642  1.00  0.00    -0.508 OA
ATOM     25  H   UNL     1      -2.975   1.905   5.092  1.00  0.00     0.293 HD
ENDBRANCH   8  24
TORSDOF 5
ENDMDL
MODEL 8
REMARK VINA RESULT:    -7.381      1.618      3.149
REMARK INTER + INTRA:          -8.956
REMARK INTER:                  -8.829
REMARK INTRA:                  -0.126
REMARK UNBOUND:                -0.280
REMARK SMILES O=c1c(O)c(-c2ccc(O)cc2)oc2cc(O)cc(O)c12
REMARK SMILES IDX 5 1 3 2 2 3 1 4 21 5 19 6 18 7 16 8 15 9 14 10 13 11 6 12
REMARK SMILES IDX 7 13 8 14 9 15 12 16 11 17 10 18 4 20 20 22 17 24
REMARK H PARENT 10 19 4 21 20 23 17 25
REMARK Flexibility Score: inf
ROOT
ATOM      1  C   UNL     1      -4.014  -0.316   9.251  1.00  0.00     0.180 A 
ATOM      2  C   UNL     1      -5.060  -1.085   8.716  1.00  0.00     0.208 A 
ATOM      3  C   UNL     1      -5.830  -1.883   9.577  1.00  0.00     0.238 A 
ATOM      4  O   UNL     1      -6.812  -2.510   9.103  1.00  0.00    -0.285 OA
ATOM      5  C   UNL     1      -5.508  -1.945  10.956  1.00  0.00     0.111 A 
ATOM      6  C   UNL     1      -6.191  -2.755  11.913  1.00  0.00     0.134 A 
ATOM      7  C   UNL     1      -5.853  -2.655  13.269  1.00  0.00     0.093 A 
ATOM      8  C   UNL     1      -4.814  -1.822  13.692  1.00  0.00     0.123 A 
ATOM      9  C   UNL     1      -4.105  -1.070  12.759  1.00  0.00     0.094 A 
ATOM     10  C   UNL     1      -4.444  -1.119  11.405  1.00  0.00     0.146 A 
ATOM     11  O   UNL     1      -3.756  -0.370  10.553  1.00  0.00    -0.452 OA
ENDROOT
BRANCH   1  12
ATOM     12  C   UNL     1      -3.168   0.561   8.410  1.00  0.00     0.021 A 
ATOM     13  C   UNL     1      -3.750   1.657   7.751  1.00  0.00     0.016 A 
ATOM     14  C   UNL     1      -2.976   2.486   6.934  1.00  0.00     0.047 A 
ATOM     15  C   UNL     1      -1.614   2.222   6.753  1.00  0.00     0.115 A 
ATOM     16  C   UNL     1      -1.803   0.289   8.208  1.00  0.00     0.016 A 
ATOM     17  C   UNL     1      -1.030   1.119   7.389  1.00  0.00     0.047 A 
BRANCH  15  18
ATOM     18  O   UNL     1      -0.855   3.056   5.936  1.00  0.00    -0.508 OA
ATOM     19  H   UNL     1       0.159   3.036   5.954  1.00  0.00     0.293 HD
ENDBRANCH  15  18
ENDBRANCH   1  12
BRANCH   2  20
ATOM     20  O   UNL     1      -5.313  -1.069   7.342  1.00  0.00    -0.502 OA
ATOM     21  H   UNL     1      -6.071  -1.594   6.921  1.00  0.00     0.293 HD
ENDBRANCH   2  20
BRANCH   6  22
ATOM     22  O   UNL     1      -7.184  -3.685  11.588  1.00  0.00    -0.507 OA
ATOM     23  H   UNL     1      -7.016  -4.584  11.164  1.00  0.00     0.293 HD
ENDBRANCH   6  22
BRANCH   8  24
ATOM     24  O   UNL     1      -4.473  -1.741  15.041  1.00  0.00    -0.508 OA
ATOM     25  H   UNL     1      -3.508  -1.661  15.340  1.00  0.00     0.293 HD
ENDBRANCH   8  24
TORSDOF 5
ENDMDL
MODEL 9
REMARK VINA RESULT:    -6.948      1.657      2.070
REMARK INTER + INTRA:          -8.446
REMARK INTER:                  -8.191
REMARK INTRA:                  -0.255
REMARK UNBOUND:                -0.280
REMARK SMILES O=c1c(O)c(-c2ccc(O)cc2)oc2cc(O)cc(O)c12
REMARK SMILES IDX 5 1 3 2 2 3 1 4 21 5 19 6 18 7 16 8 15 9 14 10 13 11 6 12
REMARK SMILES IDX 7 13 8 14 9 15 12 16 11 17 10 18 4 20 20 22 17 24
REMARK H PARENT 10 19 4 21 20 23 17 25
REMARK Flexibility Score: inf
ROOT
ATOM      1  C   UNL     1      -2.202  -0.479  10.143  1.00  0.00     0.180 A 
ATOM      2  C   UNL     1      -1.169  -1.380  10.451  1.00  0.00     0.208 A 
ATOM      3  C   UNL     1      -1.447  -2.478  11.279  1.00  0.00     0.238 A 
ATOM      4  O   UNL     1      -0.538  -3.321  11.491  1.00  0.00    -0.285 OA
ATOM      5  C   UNL     1      -2.742  -2.633  11.835  1.00  0.00     0.111 A 
ATOM      6  C   UNL     1      -3.125  -3.683  12.723  1.00  0.00     0.134 A 
ATOM      7  C   UNL     1      -4.461  -3.794  13.125  1.00  0.00     0.093 A 
ATOM      8  C   UNL     1      -5.415  -2.857  12.722  1.00  0.00     0.123 A 
ATOM      9  C   UNL     1      -5.040  -1.797  11.900  1.00  0.00     0.094 A 
ATOM     10  C   UNL     1      -3.723  -1.680  11.451  1.00  0.00     0.146 A 
ATOM     11  O   UNL     1      -3.414  -0.667  10.652  1.00  0.00    -0.452 OA
ENDROOT
BRANCH   1  12
ATOM     12  C   UNL     1      -1.990   0.695   9.265  1.00  0.00     0.021 A 
ATOM     13  C   UNL     1      -1.954   0.518   7.872  1.00  0.00     0.016 A 
ATOM     14  C   UNL     1      -1.734   1.608   7.024  1.00  0.00     0.047 A 
ATOM     15  C   UNL     1      -1.531   2.884   7.558  1.00  0.00     0.115 A 
ATOM     16  C   UNL     1      -1.765   1.978   9.797  1.00  0.00     0.016 A 
ATOM     17  C   UNL     1      -1.543   3.066   8.947  1.00  0.00     0.047 A 
BRANCH  15  18
ATOM     18  O   UNL     1      -1.313   3.961   6.702  1.00  0.00    -0.508 OA
ATOM     19  H   UNL     1      -0.376   4.283   6.484  1.00  0.00     0.293 HD
ENDBRANCH  15  18
ENDBRANCH   1  12
BRANCH   2  20
ATOM     20  O   UNL     1       0.120  -1.168   9.956  1.00  0.00    -0.502 OA
ATOM     21  H   UNL     1       0.910  -0.972  10.559  1.00  0.00     0.293 HD
ENDBRANCH   2  20
BRANCH   6  22
ATOM     22  O   UNL     1      -2.235  -4.621  13.257  1.00  0.00    -0.507 OA
ATOM     23  H   UNL     1      -1.393  -4.395  13.763  1.00  0.00     0.293 HD
ENDBRANCH   6  22
BRANCH   8  24
ATOM     24  O   UNL     1      -6.740  -2.966  13.140  1.00  0.00    -0.508 OA
ATOM     25  H   UNL     1      -7.432  -3.457  12.586  1.00  0.00     0.293 HD
ENDBRANCH   8  24
TORSDOF 5
ENDMDL
