MODEL 1
REMARK VINA RESULT:    -4.215      0.000      0.000
REMARK INTER + INTRA:          -7.002
REMARK INTER:                  -6.679
REMARK INTRA:                  -0.323
REMARK UNBOUND:                -0.323
REMARK SMILES CCCCCCCCCCCC(=O)[O-]
REMARK SMILES IDX 7 1 8 2 9 3 10 4 11 5 12 6 13 7 14 8 6 9 5 10 4 11 3 12 2 13
REMARK SMILES IDX 1 14
REMARK H PARENT
REMARK Flexibility Score: inf
ROOT
ATOM      1  C   UNL     1      43.264  11.986 -35.358  1.00  0.00     0.000 C 
ENDROOT
BRANCH   1   2
ATOM      2  C   UNL     1      41.793  12.137 -35.763  1.00  0.00     0.000 C 
BRANCH   2   3
ATOM      3  C   UNL     1      41.536  13.514 -36.394  1.00  0.00     0.000 C 
BRANCH   3   4
ATOM      4  C   UNL     1      40.405  14.284 -35.693  1.00  0.00     0.006 C 
BRANCH   4   5
ATOM      5  C   UNL     1      39.012  13.832 -36.151  1.00  0.00     0.053 C 
BRANCH   5   6
ATOM      6  C   UNL     1      37.988  14.164 -35.112  1.00  0.00     0.041 C 
ATOM      7  O   UNL     1      37.276  13.255 -34.611  1.00  0.00    -0.550 OA
ATOM      8  O   UNL     1      37.783  15.484 -34.735  1.00  0.00    -0.550 OA
ENDBRANCH   5   6
ENDBRANCH   4   5
ENDBRANCH   3   4
ENDBRANCH   2   3
ENDBRANCH   1   2
BRANCH   1   9
ATOM      9  C   UNL     1      43.430  12.090 -33.837  1.00  0.00     0.000 C 
BRANCH   9  10
ATOM     10  C   UNL     1      44.828  12.600 -33.469  1.00  0.00    -0.000 C 
BRANCH  10  11
ATOM     11  C   UNL     1      45.129  12.364 -31.984  1.00  0.00    -0.000 C 
BRANCH  11  12
ATOM     12  C   UNL     1      46.599  11.973 -31.776  1.00  0.00    -0.000 C 
BRANCH  12  13
ATOM     13  C   UNL     1      46.777  10.904 -30.688  1.00  0.00    -0.003 C 
ATOM     14  C   UNL     1      46.226  11.343 -29.332  1.00  0.00     0.004 C 
ENDBRANCH  12  13
ENDBRANCH  11  12
ENDBRANCH  10  11
ENDBRANCH   9  10
ENDBRANCH   1   9
TORSDOF 10
ENDMDL
MODEL 2
REMARK VINA RESULT:    -4.122      1.007      1.131
REMARK INTER + INTRA:          -6.855
REMARK INTER:                  -6.516
REMARK INTRA:                  -0.339
REMARK UNBOUND:                -0.323
REMARK SMILES CCCCCCCCCCCC(=O)[O-]
REMARK SMILES IDX 7 1 8 2 9 3 10 4 11 5 12 6 13 7 14 8 6 9 5 10 4 11 3 12 2 13
REMARK SMILES IDX 1 14
REMARK H PARENT
REMARK Flexibility Score: inf
ROOT
ATOM      1  C   UNL     1      43.928  11.966 -35.046  1.00  0.00     0.000 C 
ENDROOT
BRANCH   1   2
ATOM      2  C   UNL     1      42.437  11.943 -35.402  1.00  0.00     0.000 C 
BRANCH   2   3
ATOM      3  C   UNL     1      41.943  13.345 -35.788  1.00  0.00     0.000 C 
BRANCH   3   4
ATOM      4  C   UNL     1      40.519  13.332 -36.367  1.00  0.00     0.006 C 
BRANCH   4   5
ATOM      5  C   UNL     1      39.615  14.396 -35.732  1.00  0.00     0.053 C 
BRANCH   5   6
ATOM      6  C   UNL     1      38.198  13.916 -35.684  1.00  0.00     0.041 C 
ATOM      7  O   UNL     1      37.619  13.544 -36.739  1.00  0.00    -0.550 OA
ATOM      8  O   UNL     1      37.499  13.928 -34.485  1.00  0.00    -0.550 OA
ENDBRANCH   5   6
ENDBRANCH   4   5
ENDBRANCH   3   4
ENDBRANCH   2   3
ENDBRANCH   1   2
BRANCH   1   9
ATOM      9  C   UNL     1      44.142  12.430 -33.599  1.00  0.00     0.000 C 
BRANCH   9  10
ATOM     10  C   UNL     1      45.635  12.512 -33.261  1.00  0.00    -0.000 C 
BRANCH  10  11
ATOM     11  C   UNL     1      45.863  13.281 -31.954  1.00  0.00    -0.000 C 
BRANCH  11  12
ATOM     12  C   UNL     1      45.441  12.441 -30.740  1.00  0.00    -0.000 C 
BRANCH  12  13
ATOM     13  C   UNL     1      46.274  11.159 -30.590  1.00  0.00    -0.003 C 
ATOM     14  C   UNL     1      46.867  11.000 -29.191  1.00  0.00     0.004 C 
ENDBRANCH  12  13
ENDBRANCH  11  12
ENDBRANCH  10  11
ENDBRANCH   9  10
ENDBRANCH   1   9
TORSDOF 10
ENDMDL
MODEL 3
REMARK VINA RESULT:    -3.802      3.905      7.832
REMARK INTER + INTRA:          -6.347
REMARK INTER:                  -6.000
REMARK INTRA:                  -0.347
REMARK UNBOUND:                -0.323
REMARK SMILES CCCCCCCCCCCC(=O)[O-]
REMARK SMILES IDX 7 1 8 2 9 3 10 4 11 5 12 6 13 7 14 8 6 9 5 10 4 11 3 12 2 13
REMARK SMILES IDX 1 14
REMARK H PARENT
REMARK Flexibility Score: inf
ROOT
ATOM      1  C   UNL     1      42.664  11.805 -35.312  1.00  0.00     0.000 C 
ENDROOT
BRANCH   1   2
ATOM      2  C   UNL     1      44.101  12.076 -34.852  1.00  0.00     0.000 C 
BRANCH   2   3
ATOM      3  C   UNL     1      44.165  12.261 -33.329  1.00  0.00     0.000 C 
BRANCH   3   4
ATOM      4  C   UNL     1      45.461  12.948 -32.870  1.00  0.00     0.006 C 
BRANCH   4   5
ATOM      5  C   UNL     1      46.375  12.012 -32.070  1.00  0.00     0.053 C 
BRANCH   5   6
ATOM      6  C   UNL     1      46.029  12.060 -30.616  1.00  0.00     0.041 C 
ATOM      7  O   UNL     1      45.284  12.973 -30.172  1.00  0.00    -0.550 OA
ATOM      8  O   UNL     1      46.570  11.128 -29.741  1.00  0.00    -0.550 OA
ENDBRANCH   5   6
ENDBRANCH   4   5
ENDBRANCH   3   4
ENDBRANCH   2   3
ENDBRANCH   1   2
BRANCH   1   9
ATOM      9  C   UNL     1      42.092  13.010 -36.069  1.00  0.00     0.000 C 
BRANCH   9  10
ATOM     10  C   UNL     1      40.559  12.972 -36.087  1.00  0.00    -0.000 C 
BRANCH  10  11
ATOM     11  C   UNL     1      39.969  14.331 -35.692  1.00  0.00    -0.000 C 
BRANCH  11  12
ATOM     12  C   UNL     1      38.437  14.266 -35.618  1.00  0.00    -0.000 C 
BRANCH  12  13
ATOM     13  C   UNL     1      37.811  13.634 -36.870  1.00  0.00    -0.003 C 
ATOM     14  C   UNL     1      36.875  12.472 -36.540  1.00  0.00     0.004 C 
ENDBRANCH  12  13
ENDBRANCH  11  12
ENDBRANCH  10  11
ENDBRANCH   9  10
ENDBRANCH   1   9
TORSDOF 10
ENDMDL
MODEL 4
REMARK VINA RESULT:    -3.735     20.246     21.671
REMARK INTER + INTRA:          -6.241
REMARK INTER:                  -5.157
REMARK INTRA:                  -1.084
REMARK UNBOUND:                -0.323
REMARK SMILES CCCCCCCCCCCC(=O)[O-]
REMARK SMILES IDX 7 1 8 2 9 3 10 4 11 5 12 6 13 7 14 8 6 9 5 10 4 11 3 12 2 13
REMARK SMILES IDX 1 14
REMARK H PARENT
REMARK Flexibility Score: inf
ROOT
ATOM      1  C   UNL     1      55.789  30.822 -32.856  1.00  0.00     0.000 C 
ENDROOT
BRANCH   1   2
ATOM      2  C   UNL     1      57.125  30.812 -33.607  1.00  0.00     0.000 C 
BRANCH   2   3
ATOM      3  C   UNL     1      56.916  31.090 -35.103  1.00  0.00     0.000 C 
BRANCH   3   4
ATOM      4  C   UNL     1      55.695  30.354 -35.677  1.00  0.00     0.006 C 
BRANCH   4   5
ATOM      5  C   UNL     1      56.084  29.242 -36.658  1.00  0.00     0.053 C 
BRANCH   5   6
ATOM      6  C   UNL     1      55.171  29.247 -37.844  1.00  0.00     0.041 C 
ATOM      7  O   UNL     1      54.538  28.206 -38.161  1.00  0.00    -0.550 OA
ATOM      8  O   UNL     1      55.058  30.386 -38.629  1.00  0.00    -0.550 OA
ENDBRANCH   5   6
ENDBRANCH   4   5
ENDBRANCH   3   4
ENDBRANCH   2   3
ENDBRANCH   1   2
BRANCH   1   9
ATOM      9  C   UNL     1      55.938  30.212 -31.457  1.00  0.00     0.000 C 
BRANCH   9  10
ATOM     10  C   UNL     1      56.992  29.100 -31.451  1.00  0.00    -0.000 C 
BRANCH  10  11
ATOM     11  C   UNL     1      56.355  27.733 -31.728  1.00  0.00    -0.000 C 
BRANCH  11  12
ATOM     12  C   UNL     1      56.774  27.198 -33.105  1.00  0.00    -0.000 C 
BRANCH  12  13
ATOM     13  C   UNL     1      55.588  27.058 -34.070  1.00  0.00    -0.003 C 
ATOM     14  C   UNL     1      55.765  25.908 -35.061  1.00  0.00     0.004 C 
ENDBRANCH  12  13
ENDBRANCH  11  12
ENDBRANCH  10  11
ENDBRANCH   9  10
ENDBRANCH   1   9
TORSDOF 10
ENDMDL
MODEL 5
REMARK VINA RESULT:    -3.457     19.942     21.262
REMARK INTER + INTRA:          -5.800
REMARK INTER:                  -5.140
REMARK INTRA:                  -0.660
REMARK UNBOUND:                -0.323
REMARK SMILES CCCCCCCCCCCC(=O)[O-]
REMARK SMILES IDX 7 1 8 2 9 3 10 4 11 5 12 6 13 7 14 8 6 9 5 10 4 11 3 12 2 13
REMARK SMILES IDX 1 14
REMARK H PARENT
REMARK Flexibility Score: inf
ROOT
ATOM      1  C   UNL     1      56.104  26.458 -34.168  1.00  0.00     0.000 C 
ENDROOT
BRANCH   1   2
ATOM      2  C   UNL     1      55.687  27.319 -35.366  1.00  0.00     0.000 C 
BRANCH   2   3
ATOM      3  C   UNL     1      56.719  28.425 -35.633  1.00  0.00     0.000 C 
BRANCH   3   4
ATOM      4  C   UNL     1      56.085  29.697 -36.217  1.00  0.00     0.006 C 
BRANCH   4   5
ATOM      5  C   UNL     1      55.841  29.596 -37.727  1.00  0.00     0.053 C 
BRANCH   5   6
ATOM      6  C   UNL     1      54.374  29.592 -38.020  1.00  0.00     0.041 C 
ATOM      7  O   UNL     1      53.675  30.610 -37.773  1.00  0.00    -0.550 OA
ATOM      8  O   UNL     1      53.767  28.447 -38.517  1.00  0.00    -0.550 OA
ENDBRANCH   5   6
ENDBRANCH   4   5
ENDBRANCH   3   4
ENDBRANCH   2   3
ENDBRANCH   1   2
BRANCH   1   9
ATOM      9  C   UNL     1      57.058  27.225 -33.243  1.00  0.00     0.000 C 
BRANCH   9  10
ATOM     10  C   UNL     1      56.296  27.878 -32.084  1.00  0.00    -0.000 C 
BRANCH  10  11
ATOM     11  C   UNL     1      56.241  29.401 -32.249  1.00  0.00    -0.000 C 
BRANCH  11  12
ATOM     12  C   UNL     1      55.648  30.070 -31.001  1.00  0.00    -0.000 C 
BRANCH  12  13
ATOM     13  C   UNL     1      56.717  30.431 -29.959  1.00  0.00    -0.003 C 
ATOM     14  C   UNL     1      56.778  29.433 -28.804  1.00  0.00     0.004 C 
ENDBRANCH  12  13
ENDBRANCH  11  12
ENDBRANCH  10  11
ENDBRANCH   9  10
ENDBRANCH   1   9
TORSDOF 10
ENDMDL
MODEL 6
REMARK VINA RESULT:    -3.240     19.756     20.887
REMARK INTER + INTRA:          -5.458
REMARK INTER:                  -5.084
REMARK INTRA:                  -0.374
REMARK UNBOUND:                -0.323
REMARK SMILES CCCCCCCCCCCC(=O)[O-]
REMARK SMILES IDX 7 1 8 2 9 3 10 4 11 5 12 6 13 7 14 8 6 9 5 10 4 11 3 12 2 13
REMARK SMILES IDX 1 14
REMARK H PARENT
REMARK Flexibility Score: inf
ROOT
ATOM      1  C   UNL     1      55.460  26.429 -35.853  1.00  0.00     0.000 C 
ENDROOT
BRANCH   1   2
ATOM      2  C   UNL     1      55.420  27.633 -36.801  1.00  0.00     0.000 C 
BRANCH   2   3
ATOM      3  C   UNL     1      54.584  27.320 -38.051  1.00  0.00     0.000 C 
BRANCH   3   4
ATOM      4  C   UNL     1      54.148  28.587 -38.804  1.00  0.00     0.006 C 
BRANCH   4   5
ATOM      5  C   UNL     1      55.112  29.761 -38.591  1.00  0.00     0.053 C 
BRANCH   5   6
ATOM      6  C   UNL     1      54.579  30.693 -37.549  1.00  0.00     0.041 C 
ATOM      7  O   UNL     1      53.399  31.125 -37.629  1.00  0.00    -0.550 OA
ATOM      8  O   UNL     1      55.400  31.125 -36.516  1.00  0.00    -0.550 OA
ENDBRANCH   5   6
ENDBRANCH   4   5
ENDBRANCH   3   4
ENDBRANCH   2   3
ENDBRANCH   1   2
BRANCH   1   9
ATOM      9  C   UNL     1      55.722  26.873 -34.409  1.00  0.00     0.000 C 
BRANCH   9  10
ATOM     10  C   UNL     1      56.452  28.220 -34.370  1.00  0.00    -0.000 C 
BRANCH  10  11
ATOM     11  C   UNL     1      57.003  28.510 -32.969  1.00  0.00    -0.000 C 
BRANCH  11  12
ATOM     12  C   UNL     1      56.133  27.852 -31.888  1.00  0.00    -0.000 C 
BRANCH  12  13
ATOM     13  C   UNL     1      56.525  28.285 -30.468  1.00  0.00    -0.003 C 
ATOM     14  C   UNL     1      56.362  29.788 -30.243  1.00  0.00     0.004 C 
ENDBRANCH  12  13
ENDBRANCH  11  12
ENDBRANCH  10  11
ENDBRANCH   9  10
ENDBRANCH   1   9
TORSDOF 10
ENDMDL
MODEL 7
REMARK VINA RESULT:    -3.148     19.267     20.998
REMARK INTER + INTRA:          -5.312
REMARK INTER:                  -4.472
REMARK INTRA:                  -0.840
REMARK UNBOUND:                -0.323
REMARK SMILES CCCCCCCCCCCC(=O)[O-]
REMARK SMILES IDX 7 1 8 2 9 3 10 4 11 5 12 6 13 7 14 8 6 9 5 10 4 11 3 12 2 13
REMARK SMILES IDX 1 14
REMARK H PARENT
REMARK Flexibility Score: inf
ROOT
ATOM      1  C   UNL     1      55.241  26.371 -35.078  1.00  0.00     0.000 C 
ENDROOT
BRANCH   1   2
ATOM      2  C   UNL     1      56.622  26.574 -34.443  1.00  0.00     0.000 C 
BRANCH   2   3
ATOM      3  C   UNL     1      57.125  28.008 -34.670  1.00  0.00     0.000 C 
BRANCH   3   4
ATOM      4  C   UNL     1      56.762  28.952 -33.513  1.00  0.00     0.006 C 
BRANCH   4   5
ATOM      5  C   UNL     1      56.650  28.222 -32.169  1.00  0.00     0.053 C 
BRANCH   5   6
ATOM      6  C   UNL     1      55.992  29.100 -31.151  1.00  0.00     0.041 C 
ATOM      7  O   UNL     1      55.993  28.771 -29.936  1.00  0.00    -0.550 OA
ATOM      8  O   UNL     1      55.333  30.255 -31.550  1.00  0.00    -0.550 OA
ENDBRANCH   5   6
ENDBRANCH   4   5
ENDBRANCH   3   4
ENDBRANCH   2   3
ENDBRANCH   1   2
BRANCH   1   9
ATOM      9  C   UNL     1      55.202  25.084 -35.912  1.00  0.00     0.000 C 
BRANCH   9  10
ATOM     10  C   UNL     1      54.868  25.387 -37.377  1.00  0.00    -0.000 C 
BRANCH  10  11
ATOM     11  C   UNL     1      55.237  26.831 -37.740  1.00  0.00    -0.000 C 
BRANCH  11  12
ATOM     12  C   UNL     1      54.196  27.444 -38.688  1.00  0.00    -0.000 C 
BRANCH  12  13
ATOM     13  C   UNL     1      54.214  28.979 -38.673  1.00  0.00    -0.003 C 
ATOM     14  C   UNL     1      55.027  29.549 -37.511  1.00  0.00     0.004 C 
ENDBRANCH  12  13
ENDBRANCH  11  12
ENDBRANCH  10  11
ENDBRANCH   9  10
ENDBRANCH   1   9
TORSDOF 10
ENDMDL
MODEL 8
REMARK VINA RESULT:    -3.059     19.947     21.415
REMARK INTER + INTRA:          -5.170
REMARK INTER:                  -4.330
REMARK INTRA:                  -0.840
REMARK UNBOUND:                -0.323
REMARK SMILES CCCCCCCCCCCC(=O)[O-]
REMARK SMILES IDX 7 1 8 2 9 3 10 4 11 5 12 6 13 7 14 8 6 9 5 10 4 11 3 12 2 13
REMARK SMILES IDX 1 14
REMARK H PARENT
REMARK Flexibility Score: inf
ROOT
ATOM      1  C   UNL     1      54.921  30.611 -37.300  1.00  0.00     0.000 C 
ENDROOT
BRANCH   1   2
ATOM      2  C   UNL     1      55.578  31.007 -35.973  1.00  0.00     0.000 C 
BRANCH   2   3
ATOM      3  C   UNL     1      56.804  30.127 -35.683  1.00  0.00     0.000 C 
BRANCH   3   4
ATOM      4  C   UNL     1      57.010  29.876 -34.181  1.00  0.00     0.006 C 
BRANCH   4   5
ATOM      5  C   UNL     1      56.510  28.494 -33.740  1.00  0.00     0.053 C 
BRANCH   5   6
ATOM      6  C   UNL     1      56.230  28.485 -32.270  1.00  0.00     0.041 C 
ATOM      7  O   UNL     1      55.762  29.510 -31.707  1.00  0.00    -0.550 OA
ATOM      8  O   UNL     1      56.535  27.363 -31.511  1.00  0.00    -0.550 OA
ENDBRANCH   5   6
ENDBRANCH   4   5
ENDBRANCH   3   4
ENDBRANCH   2   3
ENDBRANCH   1   2
BRANCH   1   9
ATOM      9  C   UNL     1      55.652  29.427 -37.946  1.00  0.00     0.000 C 
BRANCH   9  10
ATOM     10  C   UNL     1      54.788  28.771 -39.029  1.00  0.00    -0.000 C 
BRANCH  10  11
ATOM     11  C   UNL     1      54.393  27.344 -38.631  1.00  0.00    -0.000 C 
BRANCH  11  12
ATOM     12  C   UNL     1      54.952  26.984 -37.247  1.00  0.00    -0.000 C 
BRANCH  12  13
ATOM     13  C   UNL     1      55.002  25.468 -37.007  1.00  0.00    -0.003 C 
ATOM     14  C   UNL     1      55.235  25.110 -35.540  1.00  0.00     0.004 C 
ENDBRANCH  12  13
ENDBRANCH  11  12
ENDBRANCH  10  11
ENDBRANCH   9  10
ENDBRANCH   1   9
TORSDOF 10
ENDMDL
