MODEL 1
REMARK VINA RESULT:    -3.877      0.000      0.000
REMARK INTER + INTRA:          -4.865
REMARK INTER:                  -4.671
REMARK INTRA:                  -0.194
REMARK UNBOUND:                -0.194
REMARK SMILES OCC(O)CO
REMARK SMILES IDX 3 1 5 2 6 3 2 5 1 6 4 8
REMARK H PARENT 6 4 1 7 4 9
REMARK Flexibility Score: inf
ROOT
ATOM      1  C   UNL     1      -9.963   3.404  18.219  1.00  0.00     0.165 C 
ENDROOT
BRANCH   1   2
ATOM      2  C   UNL     1     -10.568   2.361  19.177  1.00  0.00     0.190 C 
BRANCH   2   3
ATOM      3  O   UNL     1      -9.575   1.749  19.955  1.00  0.00    -0.394 OA
ATOM      4  H   UNL     1     -10.043   1.151  20.595  1.00  0.00     0.210 HD
ENDBRANCH   2   3
ENDBRANCH   1   2
BRANCH   1   5
ATOM      5  C   UNL     1      -8.429   3.304  18.163  1.00  0.00     0.190 C 
BRANCH   5   6
ATOM      6  O   UNL     1      -8.018   2.280  17.298  1.00  0.00    -0.394 OA
ATOM      7  H   UNL     1      -7.025   2.275  17.315  1.00  0.00     0.210 HD
ENDBRANCH   5   6
ENDBRANCH   1   5
BRANCH   1   8
ATOM      8  O   UNL     1     -10.471   3.200  16.927  1.00  0.00    -0.388 OA
ATOM      9  H   UNL     1     -10.486   4.086  16.480  1.00  0.00     0.211 HD
ENDBRANCH   1   8
TORSDOF 5
ENDMDL
MODEL 2
REMARK VINA RESULT:    -3.814      0.713      2.744
REMARK INTER + INTRA:          -4.788
REMARK INTER:                  -4.565
REMARK INTRA:                  -0.223
REMARK UNBOUND:                -0.194
REMARK SMILES OCC(O)CO
REMARK SMILES IDX 3 1 5 2 6 3 2 5 1 6 4 8
REMARK H PARENT 6 4 1 7 4 9
REMARK Flexibility Score: inf
ROOT
ATOM      1  C   UNL     1     -10.166   2.814  19.159  1.00  0.00     0.165 C 
ENDROOT
BRANCH   1   2
ATOM      2  C   UNL     1      -8.955   3.413  18.419  1.00  0.00     0.190 C 
BRANCH   2   3
ATOM      3  O   UNL     1      -8.384   2.480  17.542  1.00  0.00    -0.394 OA
ATOM      4  H   UNL     1      -7.404   2.642  17.553  1.00  0.00     0.210 HD
ENDBRANCH   2   3
ENDBRANCH   1   2
BRANCH   1   5
ATOM      5  C   UNL     1     -11.233   2.295  18.181  1.00  0.00     0.190 C 
BRANCH   5   6
ATOM      6  O   UNL     1     -11.246   3.047  16.998  1.00  0.00    -0.394 OA
ATOM      7  H   UNL     1     -12.169   3.399  16.894  1.00  0.00     0.210 HD
ENDBRANCH   5   6
ENDBRANCH   1   5
BRANCH   1   8
ATOM      8  O   UNL     1      -9.738   1.746  19.962  1.00  0.00    -0.388 OA
ATOM      9  H   UNL     1      -9.519   2.124  20.853  1.00  0.00     0.211 HD
ENDBRANCH   1   8
TORSDOF 5
ENDMDL
MODEL 3
REMARK VINA RESULT:    -3.721      1.891      2.375
REMARK INTER + INTRA:          -4.676
REMARK INTER:                  -4.464
REMARK INTRA:                  -0.212
REMARK UNBOUND:                -0.194
REMARK SMILES OCC(O)CO
REMARK SMILES IDX 3 1 5 2 6 3 2 5 1 6 4 8
REMARK H PARENT 6 4 1 7 4 9
REMARK Flexibility Score: inf
ROOT
ATOM      1  C   UNL     1      -9.346   4.066  18.675  1.00  0.00     0.165 C 
ENDROOT
BRANCH   1   2
ATOM      2  C   UNL     1     -10.129   2.758  18.895  1.00  0.00     0.190 C 
BRANCH   2   3
ATOM      3  O   UNL     1      -9.647   2.061  20.012  1.00  0.00    -0.394 OA
ATOM      4  H   UNL     1      -9.419   2.744  20.697  1.00  0.00     0.210 HD
ENDBRANCH   2   3
ENDBRANCH   1   2
BRANCH   1   5
ATOM      5  C   UNL     1      -9.318   4.936  19.943  1.00  0.00     0.190 C 
BRANCH   5   6
ATOM      6  O   UNL     1      -8.194   4.649  20.730  1.00  0.00    -0.394 OA
ATOM      7  H   UNL     1      -7.444   4.477  20.102  1.00  0.00     0.210 HD
ENDBRANCH   5   6
ENDBRANCH   1   5
BRANCH   1   8
ATOM      8  O   UNL     1      -8.025   3.763  18.313  1.00  0.00    -0.388 OA
ATOM      9  H   UNL     1      -7.495   4.595  18.429  1.00  0.00     0.211 HD
ENDBRANCH   1   8
TORSDOF 5
ENDMDL
MODEL 4
REMARK VINA RESULT:    -3.708      0.818      2.447
REMARK INTER + INTRA:          -4.660
REMARK INTER:                  -4.458
REMARK INTRA:                  -0.203
REMARK UNBOUND:                -0.194
REMARK SMILES OCC(O)CO
REMARK SMILES IDX 3 1 5 2 6 3 2 5 1 6 4 8
REMARK H PARENT 6 4 1 7 4 9
REMARK Flexibility Score: inf
ROOT
ATOM      1  C   UNL     1      -9.878   3.370  18.148  1.00  0.00     0.165 C 
ENDROOT
BRANCH   1   2
ATOM      2  C   UNL     1      -8.344   3.252  18.090  1.00  0.00     0.190 C 
BRANCH   2   3
ATOM      3  O   UNL     1      -7.949   2.116  17.369  1.00  0.00    -0.394 OA
ATOM      4  H   UNL     1      -8.744   1.816  16.854  1.00  0.00     0.210 HD
ENDBRANCH   2   3
ENDBRANCH   1   2
BRANCH   1   5
ATOM      5  C   UNL     1     -10.447   2.784  19.451  1.00  0.00     0.190 C 
BRANCH   5   6
ATOM      6  O   UNL     1      -9.657   1.724  19.919  1.00  0.00    -0.394 OA
ATOM      7  H   UNL     1      -8.754   1.848  19.524  1.00  0.00     0.210 HD
ENDBRANCH   5   6
ENDBRANCH   1   5
BRANCH   1   8
ATOM      8  O   UNL     1     -10.245   4.722  18.069  1.00  0.00    -0.388 OA
ATOM      9  H   UNL     1     -11.095   4.821  18.573  1.00  0.00     0.211 HD
ENDBRANCH   1   8
TORSDOF 5
ENDMDL
MODEL 5
REMARK VINA RESULT:    -3.651      1.953      2.513
REMARK INTER + INTRA:          -4.592
REMARK INTER:                  -4.371
REMARK INTRA:                  -0.221
REMARK UNBOUND:                -0.194
REMARK SMILES OCC(O)CO
REMARK SMILES IDX 3 1 5 2 6 3 2 5 1 6 4 8
REMARK H PARENT 6 4 1 7 4 9
REMARK Flexibility Score: inf
ROOT
ATOM      1  C   UNL     1      -9.820   3.634  19.385  1.00  0.00     0.165 C 
ENDROOT
BRANCH   1   2
ATOM      2  C   UNL     1      -9.226   4.954  19.911  1.00  0.00     0.190 C 
BRANCH   2   3
ATOM      3  O   UNL     1      -8.210   4.716  20.847  1.00  0.00    -0.394 OA
ATOM      4  H   UNL     1      -7.604   4.040  20.444  1.00  0.00     0.210 HD
ENDBRANCH   2   3
ENDBRANCH   1   2
BRANCH   1   5
ATOM      5  C   UNL     1      -9.047   3.105  18.166  1.00  0.00     0.190 C 
BRANCH   5   6
ATOM      6  O   UNL     1      -7.788   3.714  18.059  1.00  0.00    -0.394 OA
ATOM      7  H   UNL     1      -7.208   3.287  18.743  1.00  0.00     0.210 HD
ENDBRANCH   5   6
ENDBRANCH   1   5
BRANCH   1   8
ATOM      8  O   UNL     1      -9.771   2.665  20.399  1.00  0.00    -0.388 OA
ATOM      9  H   UNL     1      -9.736   1.780  19.951  1.00  0.00     0.211 HD
ENDBRANCH   1   8
TORSDOF 5
ENDMDL
MODEL 6
REMARK VINA RESULT:    -3.645      0.822      2.174
REMARK INTER + INTRA:          -4.585
REMARK INTER:                  -4.392
REMARK INTRA:                  -0.192
REMARK UNBOUND:                -0.194
REMARK SMILES OCC(O)CO
REMARK SMILES IDX 3 1 5 2 6 3 2 5 1 6 4 8
REMARK H PARENT 6 4 1 7 4 9
REMARK Flexibility Score: inf
ROOT
ATOM      1  C   UNL     1      -9.937   2.489  18.988  1.00  0.00     0.165 C 
ENDROOT
BRANCH   1   2
ATOM      2  C   UNL     1     -11.298   2.816  18.345  1.00  0.00     0.190 C 
BRANCH   2   3
ATOM      3  O   UNL     1     -11.162   3.071  16.973  1.00  0.00    -0.394 OA
ATOM      4  H   UNL     1     -10.901   4.026  16.886  1.00  0.00     0.210 HD
ENDBRANCH   2   3
ENDBRANCH   1   2
BRANCH   1   5
ATOM      5  C   UNL     1      -8.791   3.274  18.329  1.00  0.00     0.190 C 
BRANCH   5   6
ATOM      6  O   UNL     1      -8.113   2.486  17.387  1.00  0.00    -0.394 OA
ATOM      7  H   UNL     1      -7.272   2.966  17.168  1.00  0.00     0.210 HD
ENDBRANCH   5   6
ENDBRANCH   1   5
BRANCH   1   8
ATOM      8  O   UNL     1      -9.976   2.818  20.352  1.00  0.00    -0.388 OA
ATOM      9  H   UNL     1     -10.220   3.778  20.410  1.00  0.00     0.211 HD
ENDBRANCH   1   8
TORSDOF 5
ENDMDL
MODEL 7
REMARK VINA RESULT:    -3.554      2.554      3.631
REMARK INTER + INTRA:          -4.475
REMARK INTER:                  -4.251
REMARK INTRA:                  -0.223
REMARK UNBOUND:                -0.194
REMARK SMILES OCC(O)CO
REMARK SMILES IDX 3 1 5 2 6 3 2 5 1 6 4 8
REMARK H PARENT 6 4 1 7 4 9
REMARK Flexibility Score: inf
ROOT
ATOM      1  C   UNL     1      -9.254   5.158  20.354  1.00  0.00     0.165 C 
ENDROOT
BRANCH   1   2
ATOM      2  C   UNL     1      -9.083   4.783  18.870  1.00  0.00     0.190 C 
BRANCH   2   3
ATOM      3  O   UNL     1      -8.171   3.729  18.715  1.00  0.00    -0.394 OA
ATOM      4  H   UNL     1      -7.390   4.099  18.226  1.00  0.00     0.210 HD
ENDBRANCH   2   3
ENDBRANCH   1   2
BRANCH   1   5
ATOM      5  C   UNL     1     -10.273   4.248  21.059  1.00  0.00     0.190 C 
BRANCH   5   6
ATOM      6  O   UNL     1     -10.002   2.894  20.811  1.00  0.00    -0.394 OA
ATOM      7  H   UNL     1     -10.554   2.633  20.027  1.00  0.00     0.210 HD
ENDBRANCH   5   6
ENDBRANCH   1   5
BRANCH   1   8
ATOM      8  O   UNL     1      -8.020   5.039  21.010  1.00  0.00    -0.388 OA
ATOM      9  H   UNL     1      -7.314   5.166  20.323  1.00  0.00     0.211 HD
ENDBRANCH   1   8
TORSDOF 5
ENDMDL
MODEL 8
REMARK VINA RESULT:    -3.366     16.298     16.963
REMARK INTER + INTRA:          -4.248
REMARK INTER:                  -4.079
REMARK INTRA:                  -0.170
REMARK UNBOUND:                -0.194
REMARK SMILES OCC(O)CO
REMARK SMILES IDX 3 1 5 2 6 3 2 5 1 6 4 8
REMARK H PARENT 6 4 1 7 4 9
REMARK Flexibility Score: inf
ROOT
ATOM      1  C   UNL     1      -7.112  -0.395   1.094  1.00  0.00     0.165 C 
ENDROOT
BRANCH   1   2
ATOM      2  C   UNL     1      -8.614  -0.075   0.985  1.00  0.00     0.190 C 
BRANCH   2   3
ATOM      3  O   UNL     1      -9.043   0.719   2.058  1.00  0.00    -0.394 OA
ATOM      4  H   UNL     1      -8.645   0.327   2.879  1.00  0.00     0.210 HD
ENDBRANCH   2   3
ENDBRANCH   1   2
BRANCH   1   5
ATOM      5  C   UNL     1      -6.363   0.656   1.930  1.00  0.00     0.190 C 
BRANCH   5   6
ATOM      6  O   UNL     1      -6.127   0.195   3.233  1.00  0.00    -0.394 OA
ATOM      7  H   UNL     1      -5.979  -0.785   3.165  1.00  0.00     0.210 HD
ENDBRANCH   5   6
ENDBRANCH   1   5
BRANCH   1   8
ATOM      8  O   UNL     1      -6.946  -1.649   1.702  1.00  0.00    -0.388 OA
ATOM      9  H   UNL     1      -7.854  -1.984   1.924  1.00  0.00     0.211 HD
ENDBRANCH   1   8
TORSDOF 5
ENDMDL
MODEL 9
REMARK VINA RESULT:    -3.330      1.681      2.872
REMARK INTER + INTRA:          -4.205
REMARK INTER:                  -3.986
REMARK INTRA:                  -0.220
REMARK UNBOUND:                -0.194
REMARK SMILES OCC(O)CO
REMARK SMILES IDX 3 1 5 2 6 3 2 5 1 6 4 8
REMARK H PARENT 6 4 1 7 4 9
REMARK Flexibility Score: inf
ROOT
ATOM      1  C   UNL     1      -8.924   3.923  18.869  1.00  0.00     0.165 C 
ENDROOT
BRANCH   1   2
ATOM      2  C   UNL     1      -9.214   5.434  18.803  1.00  0.00     0.190 C 
BRANCH   2   3
ATOM      3  O   UNL     1     -10.531   5.680  18.387  1.00  0.00    -0.394 OA
ATOM      4  H   UNL     1     -11.068   4.891  18.663  1.00  0.00     0.210 HD
ENDBRANCH   2   3
ENDBRANCH   1   2
BRANCH   1   5
ATOM      5  C   UNL     1     -10.157   3.087  18.485  1.00  0.00     0.190 C 
BRANCH   5   6
ATOM      6  O   UNL     1     -10.385   3.126  17.101  1.00  0.00    -0.394 OA
ATOM      7  H   UNL     1     -10.864   2.287  16.869  1.00  0.00     0.210 HD
ENDBRANCH   5   6
ENDBRANCH   1   5
BRANCH   1   8
ATOM      8  O   UNL     1      -7.880   3.610  17.986  1.00  0.00    -0.388 OA
ATOM      9  H   UNL     1      -8.098   2.730  17.581  1.00  0.00     0.211 HD
ENDBRANCH   1   8
TORSDOF 5
ENDMDL
