MODEL 1
REMARK VINA RESULT:    18.642      0.000      0.000
REMARK INTER + INTRA:          33.615
REMARK INTER:                  27.905
REMARK INTRA:                   5.709
REMARK UNBOUND:                 5.709
REMARK SMILES C=C(CC[C@@H](C(=O)[O-])[C@@H]1[C@H](O)C[C@@]2(C)C3=C(CC[C@@]12C)[C@]1(C)CC[C@H](OC(C)=O)C(C)(C)[C@H]1CC3)C(C)C
REMARK SMILES IDX 4 1 5 2 6 3 7 4 8 5 9 6 10 7 19 8 12 9 13 10 18 11 20 12
REMARK SMILES IDX 14 13 15 14 17 15 16 16 35 17 21 18 34 19 33 20 23 21 22 22
REMARK SMILES IDX 30 23 24 24 25 25 31 26 32 27 11 28 26 30 27 31 29 32 28 33
REMARK SMILES IDX 3 34 2 35 1 36 36 37 37 38 38 39
REMARK H PARENT 11 29
REMARK Flexibility Score: inf
ROOT
ATOM      1  C   UNL     1       7.179 -32.060  18.579  1.00  0.00     0.014 C 
ENDROOT
BRANCH   1   2
ATOM      2  C   UNL     1       7.723 -33.006  17.457  1.00  0.00     0.042 C 
BRANCH   2   3
ATOM      3  C   UNL     1       6.791 -34.162  17.171  1.00  0.00     0.045 C 
ATOM      4  O   UNL     1       6.488 -34.996  18.063  1.00  0.00    -0.550 OA
ATOM      5  O   UNL     1       6.218 -34.285  15.914  1.00  0.00    -0.550 OA
ENDBRANCH   2   3
BRANCH   2   6
ATOM      6  C   UNL     1       8.193 -32.322  16.123  1.00  0.00     0.033 C 
ATOM      7  C   UNL     1       7.180 -31.348  15.467  1.00  0.00     0.119 C 
ATOM      8  C   UNL     1       8.848 -33.181  14.970  1.00  0.00    -0.017 C 
ATOM      9  C   UNL     1       7.220 -31.659  13.977  1.00  0.00     0.043 C 
ATOM     10  C   UNL     1       8.614 -32.271  13.695  1.00  0.00    -0.003 C 
ATOM     11  C   UNL     1      10.366 -33.444  15.286  1.00  0.00     0.012 C 
ATOM     12  C   UNL     1       8.158 -34.561  14.792  1.00  0.00     0.013 C 
ATOM     13  C   UNL     1       8.537 -33.018  12.333  1.00  0.00     0.017 C 
ATOM     14  C   UNL     1       9.729 -31.197  13.569  1.00  0.00    -0.064 C 
ATOM     15  C   UNL     1      11.323 -32.989  14.191  1.00  0.00     0.032 C 
ATOM     16  C   UNL     1      11.036 -31.552  13.786  1.00  0.00    -0.064 C 
ATOM     17  C   UNL     1       9.351 -29.784  13.105  1.00  0.00     0.032 C 
ATOM     18  C   UNL     1      12.181 -30.586  13.400  1.00  0.00    -0.008 C 
ATOM     19  C   UNL     1      10.493 -28.765  12.936  1.00  0.00     0.009 C 
ATOM     20  C   UNL     1      11.716 -29.138  13.791  1.00  0.00     0.009 C 
ATOM     21  C   UNL     1      13.500 -30.886  14.164  1.00  0.00     0.015 C 
ATOM     22  C   UNL     1      12.403 -30.813  11.875  1.00  0.00     0.016 C 
ATOM     23  C   UNL     1      12.857 -28.021  13.937  1.00  0.00     0.005 C 
ATOM     24  C   UNL     1      14.650 -29.895  13.897  1.00  0.00     0.047 C 
ATOM     25  C   UNL     1      14.226 -28.507  13.376  1.00  0.00     0.182 C 
ATOM     26  C   UNL     1      12.500 -26.698  13.203  1.00  0.00     0.015 C 
ATOM     27  C   UNL     1      13.027 -27.664  15.441  1.00  0.00     0.015 C 
BRANCH   7  28
ATOM     28  O   UNL     1       5.875 -31.468  15.976  1.00  0.00    -0.393 OA
ATOM     29  H   UNL     1       5.410 -32.145  15.416  1.00  0.00     0.210 HD
ENDBRANCH   7  28
BRANCH  25  30
ATOM     30  O   UNL     1      15.254 -27.556  13.681  1.00  0.00    -0.462 OA
BRANCH  30  31
ATOM     31  C   UNL     1      15.000 -26.296  14.238  1.00  0.00     0.302 C 
ATOM     32  O   UNL     1      14.492 -25.371  13.547  1.00  0.00    -0.253 OA
ATOM     33  C   UNL     1      15.359 -26.037  15.661  1.00  0.00     0.139 C 
ENDBRANCH  30  31
ENDBRANCH  25  30
ENDBRANCH   2   6
ENDBRANCH   1   2
BRANCH   1  34
ATOM     34  C   UNL     1       8.190 -30.975  18.997  1.00  0.00     0.031 C 
BRANCH  34  35
ATOM     35  C   UNL     1       7.962 -29.671  18.265  1.00  0.00    -0.075 C 
ATOM     36  C   UNL     1       6.706 -29.239  18.044  1.00  0.00     0.008 C 
BRANCH  35  37
ATOM     37  C   UNL     1       9.163 -28.859  17.797  1.00  0.00     0.008 C 
ATOM     38  C   UNL     1       9.802 -29.480  16.546  1.00  0.00     0.012 C 
ATOM     39  C   UNL     1      10.195 -28.683  18.917  1.00  0.00     0.012 C 
ENDBRANCH  35  37
ENDBRANCH  34  35
ENDBRANCH   1  34
TORSDOF 9
ENDMDL
