MODEL 1
REMARK VINA RESULT:    -4.280      0.000      0.000
REMARK INTER + INTRA:          -8.511
REMARK INTER:                  -7.532
REMARK INTRA:                  -0.978
REMARK UNBOUND:                -0.978
REMARK SMILES CCCCCCCCCCCCCCC(=O)[O-]
REMARK SMILES IDX 9 1 10 2 11 3 12 4 13 5 14 6 15 7 16 8 17 9 8 10 7 11 6 12
REMARK SMILES IDX 5 13 4 14 3 15 2 16 1 17
REMARK H PARENT
REMARK Flexibility Score: inf
ROOT
ATOM      1  C   UNL     1      12.259  49.007  96.767  1.00  0.00     0.000 C 
ENDROOT
BRANCH   1   2
ATOM      2  C   UNL     1      11.221  49.266  97.869  1.00  0.00     0.000 C 
BRANCH   2   3
ATOM      3  C   UNL     1       9.896  48.555  97.553  1.00  0.00     0.000 C 
BRANCH   3   4
ATOM      4  C   UNL     1       9.380  48.863  96.138  1.00  0.00     0.000 C 
BRANCH   4   5
ATOM      5  C   UNL     1       9.248  47.601  95.267  1.00  0.00     0.006 C 
BRANCH   5   6
ATOM      6  C   UNL     1       9.521  46.318  96.062  1.00  0.00     0.053 C 
BRANCH   6   7
ATOM      7  C   UNL     1      10.012  45.211  95.180  1.00  0.00     0.041 C 
ATOM      8  O   UNL     1      10.060  44.030  95.611  1.00  0.00    -0.550 OA
ATOM      9  O   UNL     1      10.387  45.481  93.870  1.00  0.00    -0.550 OA
ENDBRANCH   6   7
ENDBRANCH   5   6
ENDBRANCH   4   5
ENDBRANCH   3   4
ENDBRANCH   2   3
ENDBRANCH   1   2
BRANCH   1  10
ATOM     10  C   UNL     1      13.692  49.345  97.210  1.00  0.00     0.000 C 
BRANCH  10  11
ATOM     11  C   UNL     1      14.052  50.822  96.968  1.00  0.00    -0.000 C 
BRANCH  11  12
ATOM     12  C   UNL     1      14.295  51.145  95.482  1.00  0.00    -0.000 C 
BRANCH  12  13
ATOM     13  C   UNL     1      15.622  50.620  94.903  1.00  0.00    -0.000 C 
BRANCH  13  14
ATOM     14  C   UNL     1      15.446  49.338  94.071  1.00  0.00    -0.000 C 
BRANCH  14  15
ATOM     15  C   UNL     1      16.392  48.211  94.518  1.00  0.00    -0.000 C 
BRANCH  15  16
ATOM     16  C   UNL     1      16.883  47.350  93.345  1.00  0.00    -0.003 C 
ATOM     17  C   UNL     1      16.452  47.947  92.008  1.00  0.00     0.004 C 
ENDBRANCH  15  16
ENDBRANCH  14  15
ENDBRANCH  13  14
ENDBRANCH  12  13
ENDBRANCH  11  12
ENDBRANCH  10  11
ENDBRANCH   1  10
TORSDOF 13
ENDMDL
MODEL 2
REMARK VINA RESULT:    -4.253      2.780      6.027
REMARK INTER + INTRA:          -8.464
REMARK INTER:                  -7.252
REMARK INTRA:                  -1.212
REMARK UNBOUND:                -0.978
REMARK SMILES CCCCCCCCCCCCCCC(=O)[O-]
REMARK SMILES IDX 9 1 10 2 11 3 12 4 13 5 14 6 15 7 16 8 17 9 8 10 7 11 6 12
REMARK SMILES IDX 5 13 4 14 3 15 2 16 1 17
REMARK H PARENT
REMARK Flexibility Score: inf
ROOT
ATOM      1  C   UNL     1      13.599  49.487  97.383  1.00  0.00     0.000 C 
ENDROOT
BRANCH   1   2
ATOM      2  C   UNL     1      14.111  50.881  96.990  1.00  0.00     0.000 C 
BRANCH   2   3
ATOM      3  C   UNL     1      14.239  51.007  95.464  1.00  0.00     0.000 C 
BRANCH   3   4
ATOM      4  C   UNL     1      15.645  50.651  94.954  1.00  0.00     0.000 C 
BRANCH   4   5
ATOM      5  C   UNL     1      15.829  49.140  94.732  1.00  0.00     0.006 C 
BRANCH   5   6
ATOM      6  C   UNL     1      15.538  48.728  93.283  1.00  0.00     0.053 C 
BRANCH   6   7
ATOM      7  C   UNL     1      16.599  47.820  92.739  1.00  0.00     0.041 C 
ATOM      8  O   UNL     1      17.217  47.036  93.504  1.00  0.00    -0.550 OA
ATOM      9  O   UNL     1      16.883  47.821  91.379  1.00  0.00    -0.550 OA
ENDBRANCH   6   7
ENDBRANCH   5   6
ENDBRANCH   4   5
ENDBRANCH   3   4
ENDBRANCH   2   3
ENDBRANCH   1   2
BRANCH   1  10
ATOM     10  C   UNL     1      12.223  49.166  96.777  1.00  0.00     0.000 C 
BRANCH  10  11
ATOM     11  C   UNL     1      11.099  49.175  97.827  1.00  0.00    -0.000 C 
BRANCH  11  12
ATOM     12  C   UNL     1       9.903  48.289  97.435  1.00  0.00    -0.000 C 
BRANCH  12  13
ATOM     13  C   UNL     1       8.877  48.947  96.493  1.00  0.00    -0.000 C 
BRANCH  13  14
ATOM     14  C   UNL     1       8.938  48.393  95.059  1.00  0.00    -0.000 C 
BRANCH  14  15
ATOM     15  C   UNL     1       9.602  49.371  94.077  1.00  0.00    -0.000 C 
BRANCH  15  16
ATOM     16  C   UNL     1      10.842  48.774  93.393  1.00  0.00    -0.003 C 
ATOM     17  C   UNL     1      11.043  47.316  93.798  1.00  0.00     0.004 C 
ENDBRANCH  15  16
ENDBRANCH  14  15
ENDBRANCH  13  14
ENDBRANCH  12  13
ENDBRANCH  11  12
ENDBRANCH  10  11
ENDBRANCH   1  10
TORSDOF 13
ENDMDL
MODEL 3
REMARK VINA RESULT:    -4.189      2.651      6.124
REMARK INTER + INTRA:          -8.350
REMARK INTER:                  -7.158
REMARK INTRA:                  -1.192
REMARK UNBOUND:                -0.978
REMARK SMILES CCCCCCCCCCCCCCC(=O)[O-]
REMARK SMILES IDX 9 1 10 2 11 3 12 4 13 5 14 6 15 7 16 8 17 9 8 10 7 11 6 12
REMARK SMILES IDX 5 13 4 14 3 15 2 16 1 17
REMARK H PARENT
REMARK Flexibility Score: inf
ROOT
ATOM      1  C   UNL     1      12.542  48.887  96.481  1.00  0.00     0.000 C 
ENDROOT
BRANCH   1   2
ATOM      2  C   UNL     1      12.981  49.950  97.500  1.00  0.00     0.000 C 
BRANCH   2   3
ATOM      3  C   UNL     1      14.171  50.762  96.966  1.00  0.00     0.000 C 
BRANCH   3   4
ATOM      4  C   UNL     1      14.191  50.847  95.431  1.00  0.00     0.000 C 
BRANCH   4   5
ATOM      5  C   UNL     1      15.556  50.460  94.834  1.00  0.00     0.006 C 
BRANCH   5   6
ATOM      6  C   UNL     1      15.906  48.990  95.097  1.00  0.00     0.053 C 
BRANCH   6   7
ATOM      7  C   UNL     1      16.249  48.265  93.831  1.00  0.00     0.041 C 
ATOM      8  O   UNL     1      15.792  48.663  92.728  1.00  0.00    -0.550 OA
ATOM      9  O   UNL     1      17.098  47.166  93.868  1.00  0.00    -0.550 OA
ENDBRANCH   6   7
ENDBRANCH   5   6
ENDBRANCH   4   5
ENDBRANCH   3   4
ENDBRANCH   2   3
ENDBRANCH   1   2
BRANCH   1  10
ATOM     10  C   UNL     1      11.013  48.764  96.373  1.00  0.00     0.000 C 
BRANCH  10  11
ATOM     11  C   UNL     1      10.382  48.131  97.626  1.00  0.00    -0.000 C 
BRANCH  11  12
ATOM     12  C   UNL     1       9.418  46.977  97.295  1.00  0.00    -0.000 C 
BRANCH  12  13
ATOM     13  C   UNL     1       8.534  47.193  96.052  1.00  0.00    -0.000 C 
BRANCH  13  14
ATOM     14  C   UNL     1       8.556  45.996  95.087  1.00  0.00    -0.000 C 
BRANCH  14  15
ATOM     15  C   UNL     1       9.939  45.330  95.005  1.00  0.00    -0.000 C 
BRANCH  15  16
ATOM     16  C   UNL     1      10.853  45.991  93.962  1.00  0.00    -0.003 C 
ATOM     17  C   UNL     1      10.819  45.228  92.640  1.00  0.00     0.004 C 
ENDBRANCH  15  16
ENDBRANCH  14  15
ENDBRANCH  13  14
ENDBRANCH  12  13
ENDBRANCH  11  12
ENDBRANCH  10  11
ENDBRANCH   1  10
TORSDOF 13
ENDMDL
MODEL 4
REMARK VINA RESULT:    -4.156      3.061      6.175
REMARK INTER + INTRA:          -8.292
REMARK INTER:                  -7.333
REMARK INTRA:                  -0.960
REMARK UNBOUND:                -0.978
REMARK SMILES CCCCCCCCCCCCCCC(=O)[O-]
REMARK SMILES IDX 9 1 10 2 11 3 12 4 13 5 14 6 15 7 16 8 17 9 8 10 7 11 6 12
REMARK SMILES IDX 5 13 4 14 3 15 2 16 1 17
REMARK H PARENT
REMARK Flexibility Score: inf
ROOT
ATOM      1  C   UNL     1       7.559  48.869  97.469  1.00  0.00     0.000 C 
ENDROOT
BRANCH   1   2
ATOM      2  C   UNL     1       8.698  49.854  97.165  1.00  0.00     0.000 C 
BRANCH   2   3
ATOM      3  C   UNL     1       9.639  49.993  98.371  1.00  0.00     0.000 C 
BRANCH   3   4
ATOM      4  C   UNL     1      10.762  48.943  98.372  1.00  0.00     0.000 C 
BRANCH   4   5
ATOM      5  C   UNL     1      11.588  48.957  97.074  1.00  0.00     0.006 C 
BRANCH   5   6
ATOM      6  C   UNL     1      12.957  49.621  97.266  1.00  0.00     0.053 C 
BRANCH   6   7
ATOM      7  C   UNL     1      13.769  49.595  96.007  1.00  0.00     0.041 C 
ATOM      8  O   UNL     1      13.240  49.888  94.904  1.00  0.00    -0.550 OA
ATOM      9  O   UNL     1      15.120  49.274  96.059  1.00  0.00    -0.550 OA
ENDBRANCH   6   7
ENDBRANCH   5   6
ENDBRANCH   4   5
ENDBRANCH   3   4
ENDBRANCH   2   3
ENDBRANCH   1   2
BRANCH   1  10
ATOM     10  C   UNL     1       7.034  48.160  96.209  1.00  0.00     0.000 C 
BRANCH  10  11
ATOM     11  C   UNL     1       7.410  46.668  96.172  1.00  0.00    -0.000 C 
BRANCH  11  12
ATOM     12  C   UNL     1       8.925  46.427  96.296  1.00  0.00    -0.000 C 
BRANCH  12  13
ATOM     13  C   UNL     1       9.568  45.662  95.124  1.00  0.00    -0.000 C 
BRANCH  13  14
ATOM     14  C   UNL     1      10.142  44.297  95.542  1.00  0.00    -0.000 C 
BRANCH  14  15
ATOM     15  C   UNL     1      11.279  43.829  94.619  1.00  0.00    -0.000 C 
BRANCH  15  16
ATOM     16  C   UNL     1      11.834  42.452  95.015  1.00  0.00    -0.003 C 
ATOM     17  C   UNL     1      11.500  42.123  96.468  1.00  0.00     0.004 C 
ENDBRANCH  15  16
ENDBRANCH  14  15
ENDBRANCH  13  14
ENDBRANCH  12  13
ENDBRANCH  11  12
ENDBRANCH  10  11
ENDBRANCH   1  10
TORSDOF 13
ENDMDL
MODEL 5
REMARK VINA RESULT:    -4.154      3.086      6.476
REMARK INTER + INTRA:          -8.290
REMARK INTER:                  -7.428
REMARK INTRA:                  -0.862
REMARK UNBOUND:                -0.978
REMARK SMILES CCCCCCCCCCCCCCC(=O)[O-]
REMARK SMILES IDX 9 1 10 2 11 3 12 4 13 5 14 6 15 7 16 8 17 9 8 10 7 11 6 12
REMARK SMILES IDX 5 13 4 14 3 15 2 16 1 17
REMARK H PARENT
REMARK Flexibility Score: inf
ROOT
ATOM      1  C   UNL     1      10.985  48.294  93.656  1.00  0.00     0.000 C 
ENDROOT
BRANCH   1   2
ATOM      2  C   UNL     1      12.037  49.262  94.220  1.00  0.00     0.000 C 
BRANCH   2   3
ATOM      3  C   UNL     1      12.410  48.886  95.662  1.00  0.00     0.000 C 
BRANCH   3   4
ATOM      4  C   UNL     1      13.514  49.785  96.243  1.00  0.00     0.000 C 
BRANCH   4   5
ATOM      5  C   UNL     1      14.124  50.729  95.193  1.00  0.00     0.006 C 
BRANCH   5   6
ATOM      6  C   UNL     1      15.618  50.459  94.970  1.00  0.00     0.053 C 
BRANCH   6   7
ATOM      7  C   UNL     1      15.861  49.083  94.430  1.00  0.00     0.041 C 
ATOM      8  O   UNL     1      16.523  48.247  95.098  1.00  0.00    -0.550 OA
ATOM      9  O   UNL     1      15.329  48.715  93.200  1.00  0.00    -0.550 OA
ENDBRANCH   6   7
ENDBRANCH   5   6
ENDBRANCH   4   5
ENDBRANCH   3   4
ENDBRANCH   2   3
ENDBRANCH   1   2
BRANCH   1  10
ATOM     10  C   UNL     1      10.267  47.493  94.754  1.00  0.00     0.000 C 
BRANCH  10  11
ATOM     11  C   UNL     1       9.708  46.155  94.238  1.00  0.00    -0.000 C 
BRANCH  11  12
ATOM     12  C   UNL     1      10.657  44.970  94.492  1.00  0.00    -0.000 C 
BRANCH  12  13
ATOM     13  C   UNL     1      11.407  44.449  93.251  1.00  0.00    -0.000 C 
BRANCH  13  14
ATOM     14  C   UNL     1      11.910  43.005  93.418  1.00  0.00    -0.000 C 
BRANCH  14  15
ATOM     15  C   UNL     1      12.458  42.731  94.828  1.00  0.00    -0.000 C 
BRANCH  15  16
ATOM     16  C   UNL     1      11.454  41.982  95.718  1.00  0.00    -0.003 C 
ATOM     17  C   UNL     1      11.824  42.115  97.193  1.00  0.00     0.004 C 
ENDBRANCH  15  16
ENDBRANCH  14  15
ENDBRANCH  13  14
ENDBRANCH  12  13
ENDBRANCH  11  12
ENDBRANCH  10  11
ENDBRANCH   1  10
TORSDOF 13
ENDMDL
MODEL 6
REMARK VINA RESULT:    -4.112      3.416      7.188
REMARK INTER + INTRA:          -8.215
REMARK INTER:                  -7.217
REMARK INTRA:                  -0.998
REMARK UNBOUND:                -0.978
REMARK SMILES CCCCCCCCCCCCCCC(=O)[O-]
REMARK SMILES IDX 9 1 10 2 11 3 12 4 13 5 14 6 15 7 16 8 17 9 8 10 7 11 6 12
REMARK SMILES IDX 5 13 4 14 3 15 2 16 1 17
REMARK H PARENT
REMARK Flexibility Score: inf
ROOT
ATOM      1  C   UNL     1      15.262  50.373  96.175  1.00  0.00     0.000 C 
ENDROOT
BRANCH   1   2
ATOM      2  C   UNL     1      15.291  50.570  94.652  1.00  0.00     0.000 C 
BRANCH   2   3
ATOM      3  C   UNL     1      15.294  49.218  93.924  1.00  0.00     0.000 C 
BRANCH   3   4
ATOM      4  C   UNL     1      16.221  48.187  94.587  1.00  0.00     0.000 C 
BRANCH   4   5
ATOM      5  C   UNL     1      17.095  47.434  93.570  1.00  0.00     0.006 C 
BRANCH   5   6
ATOM      6  C   UNL     1      16.424  47.332  92.194  1.00  0.00     0.053 C 
BRANCH   6   7
ATOM      7  C   UNL     1      17.340  47.775  91.094  1.00  0.00     0.041 C 
ATOM      8  O   UNL     1      18.441  47.194  90.912  1.00  0.00    -0.550 OA
ATOM      9  O   UNL     1      16.963  48.814  90.252  1.00  0.00    -0.550 OA
ENDBRANCH   6   7
ENDBRANCH   5   6
ENDBRANCH   4   5
ENDBRANCH   3   4
ENDBRANCH   2   3
ENDBRANCH   1   2
BRANCH   1  10
ATOM     10  C   UNL     1      13.866  50.601  96.777  1.00  0.00     0.000 C 
BRANCH  10  11
ATOM     11  C   UNL     1      13.143  49.284  97.109  1.00  0.00    -0.000 C 
BRANCH  11  12
ATOM     12  C   UNL     1      12.091  48.893  96.056  1.00  0.00    -0.000 C 
BRANCH  12  13
ATOM     13  C   UNL     1      10.728  48.450  96.619  1.00  0.00    -0.000 C 
BRANCH  13  14
ATOM     14  C   UNL     1      10.585  48.724  98.126  1.00  0.00    -0.000 C 
BRANCH  14  15
ATOM     15  C   UNL     1       9.784  50.003  98.418  1.00  0.00    -0.000 C 
BRANCH  15  16
ATOM     16  C   UNL     1       8.380  49.979  97.793  1.00  0.00    -0.003 C 
ATOM     17  C   UNL     1       7.707  51.344  97.903  1.00  0.00     0.004 C 
ENDBRANCH  15  16
ENDBRANCH  14  15
ENDBRANCH  13  14
ENDBRANCH  12  13
ENDBRANCH  11  12
ENDBRANCH  10  11
ENDBRANCH   1  10
TORSDOF 13
ENDMDL
MODEL 7
REMARK VINA RESULT:    -4.078      2.682      3.927
REMARK INTER + INTRA:          -8.156
REMARK INTER:                  -6.329
REMARK INTRA:                  -1.827
REMARK UNBOUND:                -0.978
REMARK SMILES CCCCCCCCCCCCCCC(=O)[O-]
REMARK SMILES IDX 9 1 10 2 11 3 12 4 13 5 14 6 15 7 16 8 17 9 8 10 7 11 6 12
REMARK SMILES IDX 5 13 4 14 3 15 2 16 1 17
REMARK H PARENT
REMARK Flexibility Score: inf
ROOT
ATOM      1  C   UNL     1      10.395  47.398  93.587  1.00  0.00     0.000 C 
ENDROOT
BRANCH   1   2
ATOM      2  C   UNL     1      10.398  45.909  93.966  1.00  0.00     0.000 C 
BRANCH   2   3
ATOM      3  C   UNL     1      10.037  45.720  95.448  1.00  0.00     0.000 C 
BRANCH   3   4
ATOM      4  C   UNL     1       8.830  46.570  95.878  1.00  0.00     0.000 C 
BRANCH   4   5
ATOM      5  C   UNL     1       9.153  47.504  97.057  1.00  0.00     0.006 C 
BRANCH   5   6
ATOM      6  C   UNL     1       8.643  48.932  96.821  1.00  0.00     0.053 C 
BRANCH   6   7
ATOM      7  C   UNL     1       9.067  49.862  97.916  1.00  0.00     0.041 C 
ATOM      8  O   UNL     1      10.102  49.620  98.589  1.00  0.00    -0.550 OA
ATOM      9  O   UNL     1       8.332  51.013  98.174  1.00  0.00    -0.550 OA
ENDBRANCH   6   7
ENDBRANCH   5   6
ENDBRANCH   4   5
ENDBRANCH   3   4
ENDBRANCH   2   3
ENDBRANCH   1   2
BRANCH   1  10
ATOM     10  C   UNL     1      11.777  48.054  93.747  1.00  0.00     0.000 C 
BRANCH  10  11
ATOM     11  C   UNL     1      11.762  49.225  94.745  1.00  0.00    -0.000 C 
BRANCH  11  12
ATOM     12  C   UNL     1      12.470  48.893  96.071  1.00  0.00    -0.000 C 
BRANCH  12  13
ATOM     13  C   UNL     1      13.599  49.861  96.474  1.00  0.00    -0.000 C 
BRANCH  13  14
ATOM     14  C   UNL     1      14.080  50.740  95.307  1.00  0.00    -0.000 C 
BRANCH  14  15
ATOM     15  C   UNL     1      15.555  50.495  94.954  1.00  0.00    -0.000 C 
BRANCH  15  16
ATOM     16  C   UNL     1      15.870  49.008  94.725  1.00  0.00    -0.003 C 
ATOM     17  C   UNL     1      15.604  48.608  93.276  1.00  0.00     0.004 C 
ENDBRANCH  15  16
ENDBRANCH  14  15
ENDBRANCH  13  14
ENDBRANCH  12  13
ENDBRANCH  11  12
ENDBRANCH  10  11
ENDBRANCH   1  10
TORSDOF 13
ENDMDL
MODEL 8
REMARK VINA RESULT:    -4.065      2.871      7.236
REMARK INTER + INTRA:          -8.132
REMARK INTER:                  -6.936
REMARK INTRA:                  -1.196
REMARK UNBOUND:                -0.978
REMARK SMILES CCCCCCCCCCCCCCC(=O)[O-]
REMARK SMILES IDX 9 1 10 2 11 3 12 4 13 5 14 6 15 7 16 8 17 9 8 10 7 11 6 12
REMARK SMILES IDX 5 13 4 14 3 15 2 16 1 17
REMARK H PARENT
REMARK Flexibility Score: inf
ROOT
ATOM      1  C   UNL     1       9.917  48.232  97.682  1.00  0.00     0.000 C 
ENDROOT
BRANCH   1   2
ATOM      2  C   UNL     1      11.118  48.657  96.824  1.00  0.00     0.000 C 
BRANCH   2   3
ATOM      3  C   UNL     1      12.063  49.572  97.619  1.00  0.00     0.000 C 
BRANCH   3   4
ATOM      4  C   UNL     1      13.530  49.434  97.181  1.00  0.00     0.000 C 
BRANCH   4   5
ATOM      5  C   UNL     1      14.182  50.789  96.855  1.00  0.00     0.006 C 
BRANCH   5   6
ATOM      6  C   UNL     1      14.423  50.968  95.350  1.00  0.00     0.053 C 
BRANCH   6   7
ATOM      7  C   UNL     1      14.835  49.685  94.696  1.00  0.00     0.041 C 
ATOM      8  O   UNL     1      15.994  49.227  94.873  1.00  0.00    -0.550 OA
ATOM      9  O   UNL     1      13.929  48.981  93.913  1.00  0.00    -0.550 OA
ENDBRANCH   6   7
ENDBRANCH   5   6
ENDBRANCH   4   5
ENDBRANCH   3   4
ENDBRANCH   2   3
ENDBRANCH   1   2
BRANCH   1  10
ATOM     10  C   UNL     1       9.209  46.982  97.134  1.00  0.00     0.000 C 
BRANCH  10  11
ATOM     11  C   UNL     1       7.798  47.289  96.601  1.00  0.00    -0.000 C 
BRANCH  11  12
ATOM     12  C   UNL     1       7.809  48.211  95.368  1.00  0.00    -0.000 C 
BRANCH  12  13
ATOM     13  C   UNL     1       6.912  49.459  95.472  1.00  0.00    -0.000 C 
BRANCH  13  14
ATOM     14  C   UNL     1       7.707  50.775  95.412  1.00  0.00    -0.000 C 
BRANCH  14  15
ATOM     15  C   UNL     1       7.348  51.733  96.559  1.00  0.00    -0.000 C 
BRANCH  15  16
ATOM     16  C   UNL     1       7.710  51.164  97.940  1.00  0.00    -0.003 C 
ATOM     17  C   UNL     1       6.471  51.037  98.822  1.00  0.00     0.004 C 
ENDBRANCH  15  16
ENDBRANCH  14  15
ENDBRANCH  13  14
ENDBRANCH  12  13
ENDBRANCH  11  12
ENDBRANCH  10  11
ENDBRANCH   1  10
TORSDOF 13
ENDMDL
MODEL 9
REMARK VINA RESULT:    -4.057      2.868      6.390
REMARK INTER + INTRA:          -8.119
REMARK INTER:                  -7.168
REMARK INTRA:                  -0.951
REMARK UNBOUND:                -0.978
REMARK SMILES CCCCCCCCCCCCCCC(=O)[O-]
REMARK SMILES IDX 9 1 10 2 11 3 12 4 13 5 14 6 15 7 16 8 17 9 8 10 7 11 6 12
REMARK SMILES IDX 5 13 4 14 3 15 2 16 1 17
REMARK H PARENT
REMARK Flexibility Score: inf
ROOT
ATOM      1  C   UNL     1      11.825  48.778  94.726  1.00  0.00     0.000 C 
ENDROOT
BRANCH   1   2
ATOM      2  C   UNL     1      12.308  48.890  96.180  1.00  0.00     0.000 C 
BRANCH   2   3
ATOM      3  C   UNL     1      13.622  49.683  96.261  1.00  0.00     0.000 C 
BRANCH   3   4
ATOM      4  C   UNL     1      13.974  50.386  94.940  1.00  0.00     0.000 C 
BRANCH   4   5
ATOM      5  C   UNL     1      15.208  49.775  94.254  1.00  0.00     0.006 C 
BRANCH   5   6
ATOM      6  C   UNL     1      16.019  48.886  95.206  1.00  0.00     0.053 C 
BRANCH   6   7
ATOM      7  C   UNL     1      16.748  47.803  94.471  1.00  0.00     0.041 C 
ATOM      8  O   UNL     1      16.683  47.733  93.216  1.00  0.00    -0.550 OA
ATOM      9  O   UNL     1      17.523  46.887  95.172  1.00  0.00    -0.550 OA
ENDBRANCH   6   7
ENDBRANCH   5   6
ENDBRANCH   4   5
ENDBRANCH   3   4
ENDBRANCH   2   3
ENDBRANCH   1   2
BRANCH   1  10
ATOM     10  C   UNL     1      10.396  48.222  94.616  1.00  0.00     0.000 C 
BRANCH  10  11
ATOM     11  C   UNL     1       9.706  48.092  95.986  1.00  0.00    -0.000 C 
BRANCH  11  12
ATOM     12  C   UNL     1       9.584  46.633  96.462  1.00  0.00    -0.000 C 
BRANCH  12  13
ATOM     13  C   UNL     1       9.374  45.592  95.347  1.00  0.00    -0.000 C 
BRANCH  13  14
ATOM     14  C   UNL     1      10.101  44.265  95.622  1.00  0.00    -0.000 C 
BRANCH  14  15
ATOM     15  C   UNL     1      11.154  43.937  94.551  1.00  0.00    -0.000 C 
BRANCH  15  16
ATOM     16  C   UNL     1      11.889  42.617  94.828  1.00  0.00    -0.003 C 
ATOM     17  C   UNL     1      11.534  42.070  96.209  1.00  0.00     0.004 C 
ENDBRANCH  15  16
ENDBRANCH  14  15
ENDBRANCH  13  14
ENDBRANCH  12  13
ENDBRANCH  11  12
ENDBRANCH  10  11
ENDBRANCH   1  10
TORSDOF 13
ENDMDL
