MODEL 1
REMARK VINA RESULT:    -2.793      0.000      0.000
REMARK INTER + INTRA:          -3.141
REMARK INTER:                  -3.120
REMARK INTRA:                  -0.021
REMARK UNBOUND:                -0.021
REMARK SMILES CCCC(=O)[O-]
REMARK SMILES IDX 3 1 4 2 5 3 6 4 2 5 1 6
REMARK H PARENT
REMARK Flexibility Score: inf
ROOT
ATOM      1  C   UNL     1      11.548  62.188   7.947  1.00  0.00     0.052 C 
ENDROOT
BRANCH   1   2
ATOM      2  C   UNL     1      12.760  62.883   7.415  1.00  0.00     0.041 C 
ATOM      3  O   UNL     1      13.065  62.781   6.197  1.00  0.00    -0.550 OA
ATOM      4  O   UNL     1      13.527  63.684   8.251  1.00  0.00    -0.550 OA
ENDBRANCH   1   2
BRANCH   1   5
ATOM      5  C   UNL     1      10.884  63.030   9.040  1.00  0.00     0.003 C 
ATOM      6  C   UNL     1       9.491  63.485   8.616  1.00  0.00     0.004 C 
ENDBRANCH   1   5
TORSDOF 2
ENDMDL
MODEL 2
REMARK VINA RESULT:    -2.760      0.111      1.327
REMARK INTER + INTRA:          -3.104
REMARK INTER:                  -3.083
REMARK INTRA:                  -0.021
REMARK UNBOUND:                -0.021
REMARK SMILES CCCC(=O)[O-]
REMARK SMILES IDX 3 1 4 2 5 3 6 4 2 5 1 6
REMARK H PARENT
REMARK Flexibility Score: inf
ROOT
ATOM      1  C   UNL     1      11.533  62.176   7.986  1.00  0.00     0.052 C 
ENDROOT
BRANCH   1   2
ATOM      2  C   UNL     1      12.715  62.872   7.391  1.00  0.00     0.041 C 
ATOM      3  O   UNL     1      13.485  63.551   8.122  1.00  0.00    -0.550 OA
ATOM      4  O   UNL     1      12.998  62.732   6.038  1.00  0.00    -0.550 OA
ENDBRANCH   1   2
BRANCH   1   5
ATOM      5  C   UNL     1      10.877  63.054   9.055  1.00  0.00     0.003 C 
ATOM      6  C   UNL     1       9.479  63.489   8.628  1.00  0.00     0.004 C 
ENDBRANCH   1   5
TORSDOF 2
ENDMDL
MODEL 3
REMARK VINA RESULT:    -2.687      2.490      3.519
REMARK INTER + INTRA:          -3.023
REMARK INTER:                  -3.017
REMARK INTRA:                  -0.006
REMARK UNBOUND:                -0.021
REMARK SMILES CCCC(=O)[O-]
REMARK SMILES IDX 3 1 4 2 5 3 6 4 2 5 1 6
REMARK H PARENT
REMARK Flexibility Score: inf
ROOT
ATOM      1  C   UNL     1      11.408  63.627   8.051  1.00  0.00     0.052 C 
ENDROOT
BRANCH   1   2
ATOM      2  C   UNL     1      10.348  63.118   8.975  1.00  0.00     0.041 C 
ATOM      3  O   UNL     1      10.666  62.477  10.012  1.00  0.00    -0.550 OA
ATOM      4  O   UNL     1       9.011  63.394   8.720  1.00  0.00    -0.550 OA
ENDBRANCH   1   2
BRANCH   1   5
ATOM      5  C   UNL     1      12.261  62.469   7.525  1.00  0.00     0.003 C 
ATOM      6  C   UNL     1      13.005  62.867   6.254  1.00  0.00     0.004 C 
ENDBRANCH   1   5
TORSDOF 2
ENDMDL
MODEL 4
REMARK VINA RESULT:    -2.654      2.147      3.061
REMARK INTER + INTRA:          -2.986
REMARK INTER:                  -2.939
REMARK INTRA:                  -0.047
REMARK UNBOUND:                -0.021
REMARK SMILES CCCC(=O)[O-]
REMARK SMILES IDX 3 1 4 2 5 3 6 4 2 5 1 6
REMARK H PARENT
REMARK Flexibility Score: inf
ROOT
ATOM      1  C   UNL     1      11.852  62.249   7.703  1.00  0.00     0.052 C 
ENDROOT
BRANCH   1   2
ATOM      2  C   UNL     1      10.879  62.942   8.603  1.00  0.00     0.041 C 
ATOM      3  O   UNL     1      10.175  63.891   8.165  1.00  0.00    -0.550 OA
ATOM      4  O   UNL     1      10.712  62.509   9.912  1.00  0.00    -0.550 OA
ENDBRANCH   1   2
BRANCH   1   5
ATOM      5  C   UNL     1      12.724  63.272   6.969  1.00  0.00     0.003 C 
ATOM      6  C   UNL     1      13.627  64.023   7.942  1.00  0.00     0.004 C 
ENDBRANCH   1   5
TORSDOF 2
ENDMDL
MODEL 5
REMARK VINA RESULT:    -2.573      1.951      2.893
REMARK INTER + INTRA:          -2.895
REMARK INTER:                  -2.854
REMARK INTRA:                  -0.041
REMARK UNBOUND:                -0.021
REMARK SMILES CCCC(=O)[O-]
REMARK SMILES IDX 3 1 4 2 5 3 6 4 2 5 1 6
REMARK H PARENT
REMARK Flexibility Score: inf
ROOT
ATOM      1  C   UNL     1      13.097  63.042   6.488  1.00  0.00     0.052 C 
ENDROOT
BRANCH   1   2
ATOM      2  C   UNL     1      12.243  62.731   7.676  1.00  0.00     0.041 C 
ATOM      3  O   UNL     1      11.591  61.655   7.723  1.00  0.00    -0.550 OA
ATOM      4  O   UNL     1      12.205  63.606   8.754  1.00  0.00    -0.550 OA
ENDBRANCH   1   2
BRANCH   1   5
ATOM      5  C   UNL     1      13.346  64.550   6.387  1.00  0.00     0.003 C 
ATOM      6  C   UNL     1      12.363  65.206   5.422  1.00  0.00     0.004 C 
ENDBRANCH   1   5
TORSDOF 2
ENDMDL
MODEL 6
REMARK VINA RESULT:    -2.483      2.399      3.100
REMARK INTER + INTRA:          -2.795
REMARK INTER:                  -2.745
REMARK INTRA:                  -0.050
REMARK UNBOUND:                -0.021
REMARK SMILES CCCC(=O)[O-]
REMARK SMILES IDX 3 1 4 2 5 3 6 4 2 5 1 6
REMARK H PARENT
REMARK Flexibility Score: inf
ROOT
ATOM      1  C   UNL     1      13.299  64.266   6.530  1.00  0.00     0.052 C 
ENDROOT
BRANCH   1   2
ATOM      2  C   UNL     1      12.327  65.027   5.686  1.00  0.00     0.041 C 
ATOM      3  O   UNL     1      12.336  64.894   4.433  1.00  0.00    -0.550 OA
ATOM      4  O   UNL     1      11.377  65.844   6.284  1.00  0.00    -0.550 OA
ENDBRANCH   1   2
BRANCH   1   5
ATOM      5  C   UNL     1      12.971  62.770   6.510  1.00  0.00     0.003 C 
ATOM      6  C   UNL     1      11.997  62.405   7.626  1.00  0.00     0.004 C 
ENDBRANCH   1   5
TORSDOF 2
ENDMDL
MODEL 7
REMARK VINA RESULT:    -2.207      1.687      2.106
REMARK INTER + INTRA:          -2.487
REMARK INTER:                  -2.419
REMARK INTRA:                  -0.068
REMARK UNBOUND:                -0.021
REMARK SMILES CCCC(=O)[O-]
REMARK SMILES IDX 3 1 4 2 5 3 6 4 2 5 1 6
REMARK H PARENT
REMARK Flexibility Score: inf
ROOT
ATOM      1  C   UNL     1      12.176  64.355   8.395  1.00  0.00     0.052 C 
ENDROOT
BRANCH   1   2
ATOM      2  C   UNL     1      12.752  64.639   7.044  1.00  0.00     0.041 C 
ATOM      3  O   UNL     1      12.035  65.153   6.145  1.00  0.00    -0.550 OA
ATOM      4  O   UNL     1      14.093  64.383   6.791  1.00  0.00    -0.550 OA
ENDBRANCH   1   2
BRANCH   1   5
ATOM      5  C   UNL     1      11.100  63.270   8.301  1.00  0.00     0.003 C 
ATOM      6  C   UNL     1      11.674  61.973   7.738  1.00  0.00     0.004 C 
ENDBRANCH   1   5
TORSDOF 2
ENDMDL
MODEL 8
REMARK VINA RESULT:    -2.200      2.148      3.048
REMARK INTER + INTRA:          -2.478
REMARK INTER:                  -2.410
REMARK INTRA:                  -0.068
REMARK UNBOUND:                -0.021
REMARK SMILES CCCC(=O)[O-]
REMARK SMILES IDX 3 1 4 2 5 3 6 4 2 5 1 6
REMARK H PARENT
REMARK Flexibility Score: inf
ROOT
ATOM      1  C   UNL     1      10.569  63.876   8.323  1.00  0.00     0.052 C 
ENDROOT
BRANCH   1   2
ATOM      2  C   UNL     1      11.373  64.945   8.992  1.00  0.00     0.041 C 
ATOM      3  O   UNL     1      11.682  64.837  10.209  1.00  0.00    -0.550 OA
ATOM      4  O   UNL     1      11.825  66.036   8.262  1.00  0.00    -0.550 OA
ENDBRANCH   1   2
BRANCH   1   5
ATOM      5  C   UNL     1      11.346  62.557   8.298  1.00  0.00     0.003 C 
ATOM      6  C   UNL     1      12.480  62.606   7.279  1.00  0.00     0.004 C 
ENDBRANCH   1   5
TORSDOF 2
ENDMDL
MODEL 9
REMARK VINA RESULT:    -2.180      2.794      3.375
REMARK INTER + INTRA:          -2.457
REMARK INTER:                  -2.405
REMARK INTRA:                  -0.052
REMARK UNBOUND:                -0.021
REMARK SMILES CCCC(=O)[O-]
REMARK SMILES IDX 3 1 4 2 5 3 6 4 2 5 1 6
REMARK H PARENT
REMARK Flexibility Score: inf
ROOT
ATOM      1  C   UNL     1      13.687  64.208   8.586  1.00  0.00     0.052 C 
ENDROOT
BRANCH   1   2
ATOM      2  C   UNL     1      12.511  64.984   9.089  1.00  0.00     0.041 C 
ATOM      3  O   UNL     1      12.301  66.155   8.674  1.00  0.00    -0.550 OA
ATOM      4  O   UNL     1      11.619  64.399   9.976  1.00  0.00    -0.550 OA
ENDBRANCH   1   2
BRANCH   1   5
ATOM      5  C   UNL     1      13.565  63.966   7.079  1.00  0.00     0.003 C 
ATOM      6  C   UNL     1      12.788  62.686   6.789  1.00  0.00     0.004 C 
ENDBRANCH   1   5
TORSDOF 2
ENDMDL
