MODEL 1
REMARK VINA RESULT:    -7.895      0.000      0.000
REMARK INTER + INTRA:         -12.731
REMARK INTER:                 -10.895
REMARK INTRA:                  -1.836
REMARK UNBOUND:                -1.836
REMARK SMILES CC[C@@H](CC[C@@H](C)[C@@H]1CC[C@H]2[C@H]3CC=C4C[C@H](O)CC[C@@]4(C)[C@H]3CC[C@]21C)C(C)C
REMARK SMILES IDX 5 1 4 2 3 3 2 4 1 5 28 6 29 7 30 8 6 9 7 10 8 11 9 12 26 13
REMARK SMILES IDX 10 14 11 15 25 16 27 17 12 18 24 19 23 20 13 21 21 22 14 23
REMARK SMILES IDX 15 24 20 25 22 26 16 27 19 28 17 29 18 30
REMARK H PARENT 18 31
REMARK Flexibility Score: inf
ROOT
ATOM      1  C   UNL     1      21.930 -21.542 -11.253  1.00  0.00     0.004 C 
ENDROOT
BRANCH   1   2
ATOM      2  C   UNL     1      23.452 -21.296 -11.422  1.00  0.00     0.004 C 
BRANCH   2   3
ATOM      3  C   UNL     1      23.846 -19.790 -11.454  1.00  0.00    -0.009 C 
BRANCH   3   4
ATOM      4  C   UNL     1      24.529 -19.433 -12.806  1.00  0.00     0.000 C 
ATOM      5  C   UNL     1      23.900 -18.240 -13.528  1.00  0.00     0.004 C 
ENDBRANCH   3   4
BRANCH   3   6
ATOM      6  C   UNL     1      24.698 -19.369 -10.207  1.00  0.00    -0.014 C 
ATOM      7  C   UNL     1      24.897 -20.499  -9.182  1.00  0.00     0.007 C 
ATOM      8  C   UNL     1      24.138 -18.116  -9.511  1.00  0.00     0.007 C 
ENDBRANCH   3   6
ENDBRANCH   2   3
ENDBRANCH   1   2
BRANCH   1   9
ATOM      9  C   UNL     1      21.158 -21.632 -12.603  1.00  0.00    -0.011 C 
ATOM     10  C   UNL     1      20.715 -20.217 -13.044  1.00  0.00     0.008 C 
BRANCH   9  11
ATOM     11  C   UNL     1      21.995 -22.427 -13.676  1.00  0.00    -0.002 C 
ATOM     12  C   UNL     1      22.377 -21.656 -14.960  1.00  0.00     0.005 C 
ATOM     13  C   UNL     1      21.453 -23.810 -14.147  1.00  0.00    -0.026 C 
ATOM     14  C   UNL     1      22.308 -22.657 -16.119  1.00  0.00     0.005 C 
ATOM     15  C   UNL     1      22.204 -24.056 -15.490  1.00  0.00    -0.001 C 
ATOM     16  C   UNL     1      21.675 -24.937 -13.095  1.00  0.00     0.007 C 
ATOM     17  C   UNL     1      19.926 -23.760 -14.444  1.00  0.00     0.012 C 
ATOM     18  C   UNL     1      23.586 -24.806 -15.410  1.00  0.00     0.000 C 
ATOM     19  C   UNL     1      23.082 -25.538 -13.054  1.00  0.00     0.005 C 
ATOM     20  C   UNL     1      23.515 -26.026 -14.458  1.00  0.00     0.003 C 
ATOM     21  C   UNL     1      24.825 -23.934 -15.088  1.00  0.00     0.031 C 
ATOM     22  C   UNL     1      24.845 -26.893 -14.517  1.00  0.00    -0.008 C 
ATOM     23  C   UNL     1      26.084 -24.734 -14.929  1.00  0.00    -0.027 C 
ATOM     24  C   UNL     1      26.110 -26.030 -14.562  1.00  0.00    -0.065 C 
ATOM     25  C   UNL     1      24.958 -27.862 -13.294  1.00  0.00     0.014 C 
ATOM     26  C   UNL     1      24.799 -27.745 -15.819  1.00  0.00     0.016 C 
ATOM     27  C   UNL     1      27.458 -26.713 -14.417  1.00  0.00     0.063 C 
ATOM     28  C   UNL     1      26.285 -28.635 -13.230  1.00  0.00     0.033 C 
ATOM     29  C   UNL     1      27.476 -27.661 -13.207  1.00  0.00     0.118 C 
BRANCH  29  30
ATOM     30  O   UNL     1      28.692 -28.364 -13.151  1.00  0.00    -0.393 OA
ATOM     31  H   UNL     1      28.956 -28.587 -14.081  1.00  0.00     0.210 HD
ENDBRANCH  29  30
ENDBRANCH   9  11
ENDBRANCH   1   9
TORSDOF 7
ENDMDL
MODEL 2
REMARK VINA RESULT:    -7.668      3.505      6.959
REMARK INTER + INTRA:         -12.418
REMARK INTER:                 -10.450
REMARK INTRA:                  -1.968
REMARK UNBOUND:                -1.836
REMARK SMILES CC[C@@H](CC[C@@H](C)[C@@H]1CC[C@H]2[C@H]3CC=C4C[C@H](O)CC[C@@]4(C)[C@H]3CC[C@]21C)C(C)C
REMARK SMILES IDX 5 1 4 2 3 3 2 4 1 5 28 6 29 7 30 8 6 9 7 10 8 11 9 12 26 13
REMARK SMILES IDX 10 14 11 15 25 16 27 17 12 18 24 19 23 20 13 21 21 22 14 23
REMARK SMILES IDX 15 24 20 25 22 26 16 27 19 28 17 29 18 30
REMARK H PARENT 18 31
REMARK Flexibility Score: inf
ROOT
ATOM      1  C   UNL     1      21.456 -25.971 -13.115  1.00  0.00     0.004 C 
ENDROOT
BRANCH   1   2
ATOM      2  C   UNL     1      20.497 -26.635 -12.092  1.00  0.00     0.004 C 
BRANCH   2   3
ATOM      3  C   UNL     1      20.438 -25.904 -10.719  1.00  0.00    -0.009 C 
BRANCH   3   4
ATOM      4  C   UNL     1      21.423 -24.700 -10.698  1.00  0.00     0.000 C 
ATOM      5  C   UNL     1      20.740 -23.335 -10.592  1.00  0.00     0.004 C 
ENDBRANCH   3   4
BRANCH   3   6
ATOM      6  C   UNL     1      20.641 -26.884  -9.512  1.00  0.00    -0.014 C 
ATOM      7  C   UNL     1      21.381 -26.254  -8.319  1.00  0.00     0.007 C 
ATOM      8  C   UNL     1      21.332 -28.194  -9.931  1.00  0.00     0.007 C 
ENDBRANCH   3   6
ENDBRANCH   2   3
ENDBRANCH   1   2
BRANCH   1   9
ATOM      9  C   UNL     1      20.722 -25.289 -14.308  1.00  0.00    -0.011 C 
ATOM     10  C   UNL     1      19.275 -25.827 -14.405  1.00  0.00     0.008 C 
BRANCH   9  11
ATOM     11  C   UNL     1      20.839 -23.720 -14.215  1.00  0.00    -0.002 C 
ATOM     12  C   UNL     1      19.666 -22.906 -14.808  1.00  0.00     0.005 C 
ATOM     13  C   UNL     1      22.142 -23.051 -14.748  1.00  0.00    -0.026 C 
ATOM     14  C   UNL     1      20.271 -21.651 -15.445  1.00  0.00     0.005 C 
ATOM     15  C   UNL     1      21.726 -21.564 -14.959  1.00  0.00    -0.001 C 
ATOM     16  C   UNL     1      23.351 -23.229 -13.783  1.00  0.00     0.007 C 
ATOM     17  C   UNL     1      22.569 -23.638 -16.125  1.00  0.00     0.012 C 
ATOM     18  C   UNL     1      21.918 -20.588 -13.739  1.00  0.00     0.000 C 
ATOM     19  C   UNL     1      23.390 -22.275 -12.586  1.00  0.00     0.005 C 
ATOM     20  C   UNL     1      23.289 -20.802 -13.052  1.00  0.00     0.003 C 
ATOM     21  C   UNL     1      20.780 -20.567 -12.689  1.00  0.00     0.031 C 
ATOM     22  C   UNL     1      23.567 -19.699 -11.942  1.00  0.00    -0.008 C 
ATOM     23  C   UNL     1      21.081 -19.690 -11.510  1.00  0.00    -0.027 C 
ATOM     24  C   UNL     1      22.327 -19.388 -11.097  1.00  0.00    -0.065 C 
ATOM     25  C   UNL     1      24.721 -20.127 -10.977  1.00  0.00     0.014 C 
ATOM     26  C   UNL     1      23.992 -18.390 -12.669  1.00  0.00     0.016 C 
ATOM     27  C   UNL     1      22.489 -18.506  -9.871  1.00  0.00     0.063 C 
ATOM     28  C   UNL     1      24.948 -19.157  -9.806  1.00  0.00     0.033 C 
ATOM     29  C   UNL     1      23.655 -18.983  -8.991  1.00  0.00     0.118 C 
BRANCH  29  30
ATOM     30  O   UNL     1      23.858 -18.095  -7.920  1.00  0.00    -0.393 OA
ATOM     31  H   UNL     1      23.603 -17.186  -8.228  1.00  0.00     0.210 HD
ENDBRANCH  29  30
ENDBRANCH   9  11
ENDBRANCH   1   9
TORSDOF 7
ENDMDL
MODEL 3
REMARK VINA RESULT:    -7.621      2.649      7.223
REMARK INTER + INTRA:         -12.353
REMARK INTER:                 -10.362
REMARK INTRA:                  -1.991
REMARK UNBOUND:                -1.836
REMARK SMILES CC[C@@H](CC[C@@H](C)[C@@H]1CC[C@H]2[C@H]3CC=C4C[C@H](O)CC[C@@]4(C)[C@H]3CC[C@]21C)C(C)C
REMARK SMILES IDX 5 1 4 2 3 3 2 4 1 5 28 6 29 7 30 8 6 9 7 10 8 11 9 12 26 13
REMARK SMILES IDX 10 14 11 15 25 16 27 17 12 18 24 19 23 20 13 21 21 22 14 23
REMARK SMILES IDX 15 24 20 25 22 26 16 27 19 28 17 29 18 30
REMARK H PARENT 18 31
REMARK Flexibility Score: inf
ROOT
ATOM      1  C   UNL     1      22.226 -26.156 -12.673  1.00  0.00     0.004 C 
ENDROOT
BRANCH   1   2
ATOM      2  C   UNL     1      23.408 -27.109 -12.990  1.00  0.00     0.004 C 
BRANCH   2   3
ATOM      3  C   UNL     1      24.356 -26.586 -14.109  1.00  0.00    -0.009 C 
BRANCH   3   4
ATOM      4  C   UNL     1      24.557 -27.671 -15.205  1.00  0.00     0.000 C 
ATOM      5  C   UNL     1      23.349 -27.865 -16.123  1.00  0.00     0.004 C 
ENDBRANCH   3   4
BRANCH   3   6
ATOM      6  C   UNL     1      25.707 -26.033 -13.537  1.00  0.00    -0.014 C 
ATOM      7  C   UNL     1      26.583 -25.328 -14.586  1.00  0.00     0.007 C 
ATOM      8  C   UNL     1      26.523 -27.118 -12.810  1.00  0.00     0.007 C 
ENDBRANCH   3   6
ENDBRANCH   2   3
ENDBRANCH   1   2
BRANCH   1   9
ATOM      9  C   UNL     1      21.496 -25.624 -13.942  1.00  0.00    -0.011 C 
ATOM     10  C   UNL     1      20.168 -26.394 -14.140  1.00  0.00     0.008 C 
BRANCH   9  11
ATOM     11  C   UNL     1      21.348 -24.055 -13.887  1.00  0.00    -0.002 C 
ATOM     12  C   UNL     1      20.022 -23.470 -14.422  1.00  0.00     0.005 C 
ATOM     13  C   UNL     1      22.485 -23.192 -14.514  1.00  0.00    -0.026 C 
ATOM     14  C   UNL     1      20.365 -22.150 -15.120  1.00  0.00     0.005 C 
ATOM     15  C   UNL     1      21.810 -21.804 -14.728  1.00  0.00    -0.001 C 
ATOM     16  C   UNL     1      23.761 -23.134 -13.623  1.00  0.00     0.007 C 
ATOM     17  C   UNL     1      22.925 -23.740 -15.903  1.00  0.00     0.012 C 
ATOM     18  C   UNL     1      21.904 -20.774 -13.542  1.00  0.00     0.000 C 
ATOM     19  C   UNL     1      23.707 -22.152 -12.450  1.00  0.00     0.005 C 
ATOM     20  C   UNL     1      23.329 -20.732 -12.937  1.00  0.00     0.003 C 
ATOM     21  C   UNL     1      20.841 -20.914 -12.424  1.00  0.00     0.031 C 
ATOM     22  C   UNL     1      23.479 -19.565 -11.869  1.00  0.00    -0.008 C 
ATOM     23  C   UNL     1      21.057 -19.964 -11.283  1.00  0.00    -0.027 C 
ATOM     24  C   UNL     1      22.255 -19.443 -10.955  1.00  0.00    -0.065 C 
ATOM     25  C   UNL     1      24.743 -19.763 -10.970  1.00  0.00     0.014 C 
ATOM     26  C   UNL     1      23.631 -18.226 -12.647  1.00  0.00     0.016 C 
ATOM     27  C   UNL     1      22.335 -18.510  -9.759  1.00  0.00     0.063 C 
ATOM     28  C   UNL     1      24.869 -18.734  -9.835  1.00  0.00     0.033 C 
ATOM     29  C   UNL     1      23.615 -18.756  -8.945  1.00  0.00     0.118 C 
BRANCH  29  30
ATOM     30  O   UNL     1      23.725 -17.815  -7.905  1.00  0.00    -0.393 OA
ATOM     31  H   UNL     1      23.822 -16.918  -8.319  1.00  0.00     0.210 HD
ENDBRANCH  29  30
ENDBRANCH   9  11
ENDBRANCH   1   9
TORSDOF 7
ENDMDL
MODEL 4
REMARK VINA RESULT:    -7.330      1.301      1.787
REMARK INTER + INTRA:         -11.951
REMARK INTER:                 -11.456
REMARK INTRA:                  -0.494
REMARK UNBOUND:                -1.836
REMARK SMILES CC[C@@H](CC[C@@H](C)[C@@H]1CC[C@H]2[C@H]3CC=C4C[C@H](O)CC[C@@]4(C)[C@H]3CC[C@]21C)C(C)C
REMARK SMILES IDX 5 1 4 2 3 3 2 4 1 5 28 6 29 7 30 8 6 9 7 10 8 11 9 12 26 13
REMARK SMILES IDX 10 14 11 15 25 16 27 17 12 18 24 19 23 20 13 21 21 22 14 23
REMARK SMILES IDX 15 24 20 25 22 26 16 27 19 28 17 29 18 30
REMARK H PARENT 18 31
REMARK Flexibility Score: inf
ROOT
ATOM      1  C   UNL     1      20.914 -20.424 -12.684  1.00  0.00     0.004 C 
ENDROOT
BRANCH   1   2
ATOM      2  C   UNL     1      20.224 -19.524 -11.626  1.00  0.00     0.004 C 
BRANCH   2   3
ATOM      3  C   UNL     1      21.026 -18.236 -11.277  1.00  0.00    -0.009 C 
BRANCH   3   4
ATOM      4  C   UNL     1      21.558 -17.556 -12.572  1.00  0.00     0.000 C 
ATOM      5  C   UNL     1      20.659 -16.440 -13.107  1.00  0.00     0.004 C 
ENDBRANCH   3   4
BRANCH   3   6
ATOM      6  C   UNL     1      22.151 -18.502 -10.218  1.00  0.00    -0.014 C 
ATOM      7  C   UNL     1      22.058 -17.600  -8.975  1.00  0.00     0.007 C 
ATOM      8  C   UNL     1      23.561 -18.418 -10.827  1.00  0.00     0.007 C 
ENDBRANCH   3   6
ENDBRANCH   2   3
ENDBRANCH   1   2
BRANCH   1   9
ATOM      9  C   UNL     1      21.816 -21.534 -12.066  1.00  0.00    -0.011 C 
ATOM     10  C   UNL     1      20.974 -22.425 -11.122  1.00  0.00     0.008 C 
BRANCH   9  11
ATOM     11  C   UNL     1      22.594 -22.315 -13.192  1.00  0.00    -0.002 C 
ATOM     12  C   UNL     1      23.037 -21.489 -14.422  1.00  0.00     0.005 C 
ATOM     13  C   UNL     1      21.951 -23.618 -13.756  1.00  0.00    -0.026 C 
ATOM     14  C   UNL     1      22.897 -22.400 -15.646  1.00  0.00     0.005 C 
ATOM     15  C   UNL     1      22.685 -23.827 -15.114  1.00  0.00    -0.001 C 
ATOM     16  C   UNL     1      22.084 -24.827 -12.783  1.00  0.00     0.007 C 
ATOM     17  C   UNL     1      20.433 -23.433 -14.046  1.00  0.00     0.012 C 
ATOM     18  C   UNL     1      24.006 -24.683 -15.088  1.00  0.00     0.000 C 
ATOM     19  C   UNL     1      23.442 -25.535 -12.787  1.00  0.00     0.005 C 
ATOM     20  C   UNL     1      23.840 -25.956 -14.222  1.00  0.00     0.003 C 
ATOM     21  C   UNL     1      25.306 -23.932 -14.710  1.00  0.00     0.031 C 
ATOM     22  C   UNL     1      25.101 -26.916 -14.342  1.00  0.00    -0.008 C 
ATOM     23  C   UNL     1      26.501 -24.833 -14.609  1.00  0.00    -0.027 C 
ATOM     24  C   UNL     1      26.428 -26.149 -14.332  1.00  0.00    -0.065 C 
ATOM     25  C   UNL     1      25.137 -27.971 -13.189  1.00  0.00     0.014 C 
ATOM     26  C   UNL     1      24.995 -27.671 -15.700  1.00  0.00     0.016 C 
ATOM     27  C   UNL     1      27.721 -26.941 -14.236  1.00  0.00     0.063 C 
ATOM     28  C   UNL     1      26.402 -28.845 -13.181  1.00  0.00     0.033 C 
ATOM     29  C   UNL     1      27.663 -27.968 -13.094  1.00  0.00     0.118 C 
BRANCH  29  30
ATOM     30  O   UNL     1      28.823 -28.762 -13.088  1.00  0.00    -0.393 OA
ATOM     31  H   UNL     1      29.606 -28.154 -13.117  1.00  0.00     0.210 HD
ENDBRANCH  29  30
ENDBRANCH   9  11
ENDBRANCH   1   9
TORSDOF 7
ENDMDL
MODEL 5
REMARK VINA RESULT:    -7.206      2.736      7.812
REMARK INTER + INTRA:         -11.780
REMARK INTER:                 -10.488
REMARK INTRA:                  -1.291
REMARK UNBOUND:                -1.836
REMARK SMILES CC[C@@H](CC[C@@H](C)[C@@H]1CC[C@H]2[C@H]3CC=C4C[C@H](O)CC[C@@]4(C)[C@H]3CC[C@]21C)C(C)C
REMARK SMILES IDX 5 1 4 2 3 3 2 4 1 5 28 6 29 7 30 8 6 9 7 10 8 11 9 12 26 13
REMARK SMILES IDX 10 14 11 15 25 16 27 17 12 18 24 19 23 20 13 21 21 22 14 23
REMARK SMILES IDX 15 24 20 25 22 26 16 27 19 28 17 29 18 30
REMARK H PARENT 18 31
REMARK Flexibility Score: inf
ROOT
ATOM      1  C   UNL     1      25.500 -24.747 -14.642  1.00  0.00     0.004 C 
ENDROOT
BRANCH   1   2
ATOM      2  C   UNL     1      25.903 -26.243 -14.560  1.00  0.00     0.004 C 
BRANCH   2   3
ATOM      3  C   UNL     1      25.784 -26.848 -13.130  1.00  0.00    -0.009 C 
BRANCH   3   4
ATOM      4  C   UNL     1      27.194 -27.045 -12.502  1.00  0.00     0.000 C 
ATOM      5  C   UNL     1      28.314 -27.234 -13.526  1.00  0.00     0.004 C 
ENDBRANCH   3   4
BRANCH   3   6
ATOM      6  C   UNL     1      24.914 -28.152 -13.105  1.00  0.00    -0.014 C 
ATOM      7  C   UNL     1      25.269 -29.113 -11.957  1.00  0.00     0.007 C 
ATOM      8  C   UNL     1      24.942 -28.902 -14.449  1.00  0.00     0.007 C 
ENDBRANCH   3   6
ENDBRANCH   2   3
ENDBRANCH   1   2
BRANCH   1   9
ATOM      9  C   UNL     1      24.062 -24.518 -15.195  1.00  0.00    -0.011 C 
ATOM     10  C   UNL     1      23.500 -25.848 -15.752  1.00  0.00     0.008 C 
BRANCH   9  11
ATOM     11  C   UNL     1      23.152 -23.816 -14.117  1.00  0.00    -0.002 C 
ATOM     12  C   UNL     1      22.343 -24.748 -13.187  1.00  0.00     0.005 C 
ATOM     13  C   UNL     1      22.156 -22.720 -14.603  1.00  0.00    -0.026 C 
ATOM     14  C   UNL     1      20.996 -24.065 -12.931  1.00  0.00     0.005 C 
ATOM     15  C   UNL     1      21.130 -22.619 -13.435  1.00  0.00    -0.001 C 
ATOM     16  C   UNL     1      22.857 -21.370 -14.935  1.00  0.00     0.007 C 
ATOM     17  C   UNL     1      21.392 -23.163 -15.885  1.00  0.00     0.012 C 
ATOM     18  C   UNL     1      21.451 -21.588 -12.289  1.00  0.00     0.000 C 
ATOM     19  C   UNL     1      23.193 -20.484 -13.733  1.00  0.00     0.005 C 
ATOM     20  C   UNL     1      21.937 -20.235 -12.862  1.00  0.00     0.003 C 
ATOM     21  C   UNL     1      22.402 -22.079 -11.169  1.00  0.00     0.031 C 
ATOM     22  C   UNL     1      22.084 -19.134 -11.725  1.00  0.00    -0.008 C 
ATOM     23  C   UNL     1      22.738 -21.011 -10.171  1.00  0.00    -0.027 C 
ATOM     24  C   UNL     1      22.710 -19.692 -10.443  1.00  0.00    -0.065 C 
ATOM     25  C   UNL     1      22.947 -17.921 -12.203  1.00  0.00     0.014 C 
ATOM     26  C   UNL     1      20.657 -18.619 -11.377  1.00  0.00     0.016 C 
ATOM     27  C   UNL     1      23.098 -18.718  -9.344  1.00  0.00     0.063 C 
ATOM     28  C   UNL     1      23.229 -16.884 -11.104  1.00  0.00     0.033 C 
ATOM     29  C   UNL     1      23.923 -17.547  -9.902  1.00  0.00     0.118 C 
BRANCH  29  30
ATOM     30  O   UNL     1      24.181 -16.603  -8.892  1.00  0.00    -0.393 OA
ATOM     31  H   UNL     1      23.472 -15.911  -8.936  1.00  0.00     0.210 HD
ENDBRANCH  29  30
ENDBRANCH   9  11
ENDBRANCH   1   9
TORSDOF 7
ENDMDL
MODEL 6
REMARK VINA RESULT:    -6.959      3.029      4.625
REMARK INTER + INTRA:         -11.439
REMARK INTER:                  -9.614
REMARK INTRA:                  -1.826
REMARK UNBOUND:                -1.836
REMARK SMILES CC[C@@H](CC[C@@H](C)[C@@H]1CC[C@H]2[C@H]3CC=C4C[C@H](O)CC[C@@]4(C)[C@H]3CC[C@]21C)C(C)C
REMARK SMILES IDX 5 1 4 2 3 3 2 4 1 5 28 6 29 7 30 8 6 9 7 10 8 11 9 12 26 13
REMARK SMILES IDX 10 14 11 15 25 16 27 17 12 18 24 19 23 20 13 21 21 22 14 23
REMARK SMILES IDX 15 24 20 25 22 26 16 27 19 28 17 29 18 30
REMARK H PARENT 18 31
REMARK Flexibility Score: inf
ROOT
ATOM      1  C   UNL     1      22.266 -21.136 -11.211  1.00  0.00     0.004 C 
ENDROOT
BRANCH   1   2
ATOM      2  C   UNL     1      20.873 -20.582 -11.608  1.00  0.00     0.004 C 
BRANCH   2   3
ATOM      3  C   UNL     1      20.730 -19.044 -11.416  1.00  0.00    -0.009 C 
BRANCH   3   4
ATOM      4  C   UNL     1      20.296 -18.365 -12.747  1.00  0.00     0.000 C 
ATOM      5  C   UNL     1      20.496 -19.238 -13.988  1.00  0.00     0.004 C 
ENDBRANCH   3   4
BRANCH   3   6
ATOM      6  C   UNL     1      22.013 -18.398 -10.789  1.00  0.00    -0.014 C 
ATOM      7  C   UNL     1      21.788 -17.803  -9.388  1.00  0.00     0.007 C 
ATOM      8  C   UNL     1      22.651 -17.346 -11.713  1.00  0.00     0.007 C 
ENDBRANCH   3   6
ENDBRANCH   2   3
ENDBRANCH   1   2
BRANCH   1   9
ATOM      9  C   UNL     1      23.256 -21.253 -12.409  1.00  0.00    -0.011 C 
ATOM     10  C   UNL     1      24.632 -20.671 -12.005  1.00  0.00     0.008 C 
BRANCH   9  11
ATOM     11  C   UNL     1      23.299 -22.729 -12.959  1.00  0.00    -0.002 C 
ATOM     12  C   UNL     1      24.698 -23.366 -13.112  1.00  0.00     0.005 C 
ATOM     13  C   UNL     1      22.536 -23.037 -14.283  1.00  0.00    -0.026 C 
ATOM     14  C   UNL     1      24.656 -24.241 -14.370  1.00  0.00     0.005 C 
ATOM     15  C   UNL     1      23.177 -24.372 -14.768  1.00  0.00    -0.001 C 
ATOM     16  C   UNL     1      20.994 -23.122 -14.086  1.00  0.00     0.007 C 
ATOM     17  C   UNL     1      22.797 -21.950 -15.365  1.00  0.00     0.012 C 
ATOM     18  C   UNL     1      22.513 -25.708 -14.265  1.00  0.00     0.000 C 
ATOM     19  C   UNL     1      20.470 -24.443 -13.516  1.00  0.00     0.005 C 
ATOM     20  C   UNL     1      20.969 -25.644 -14.355  1.00  0.00     0.003 C 
ATOM     21  C   UNL     1      22.957 -26.214 -12.870  1.00  0.00     0.031 C 
ATOM     22  C   UNL     1      20.303 -27.049 -14.028  1.00  0.00    -0.008 C 
ATOM     23  C   UNL     1      22.209 -27.433 -12.420  1.00  0.00    -0.027 C 
ATOM     24  C   UNL     1      20.972 -27.756 -12.845  1.00  0.00    -0.065 C 
ATOM     25  C   UNL     1      18.778 -26.906 -13.713  1.00  0.00     0.014 C 
ATOM     26  C   UNL     1      20.466 -27.955 -15.283  1.00  0.00     0.016 C 
ATOM     27  C   UNL     1      20.320 -29.010 -12.288  1.00  0.00     0.063 C 
ATOM     28  C   UNL     1      18.108 -28.215 -13.265  1.00  0.00     0.033 C 
ATOM     29  C   UNL     1      18.821 -28.790 -12.029  1.00  0.00     0.118 C 
BRANCH  29  30
ATOM     30  O   UNL     1      18.213 -29.989 -11.615  1.00  0.00    -0.393 OA
ATOM     31  H   UNL     1      18.570 -30.215 -10.717  1.00  0.00     0.210 HD
ENDBRANCH  29  30
ENDBRANCH   9  11
ENDBRANCH   1   9
TORSDOF 7
ENDMDL
MODEL 7
REMARK VINA RESULT:    -6.908      3.516      7.217
REMARK INTER + INTRA:         -11.369
REMARK INTER:                  -9.777
REMARK INTRA:                  -1.591
REMARK UNBOUND:                -1.836
REMARK SMILES CC[C@@H](CC[C@@H](C)[C@@H]1CC[C@H]2[C@H]3CC=C4C[C@H](O)CC[C@@]4(C)[C@H]3CC[C@]21C)C(C)C
REMARK SMILES IDX 5 1 4 2 3 3 2 4 1 5 28 6 29 7 30 8 6 9 7 10 8 11 9 12 26 13
REMARK SMILES IDX 10 14 11 15 25 16 27 17 12 18 24 19 23 20 13 21 21 22 14 23
REMARK SMILES IDX 15 24 20 25 22 26 16 27 19 28 17 29 18 30
REMARK H PARENT 18 31
REMARK Flexibility Score: inf
ROOT
ATOM      1  C   UNL     1      22.704 -28.221 -11.757  1.00  0.00     0.004 C 
ENDROOT
BRANCH   1   2
ATOM      2  C   UNL     1      21.377 -28.369 -10.968  1.00  0.00     0.004 C 
BRANCH   2   3
ATOM      3  C   UNL     1      21.503 -28.028  -9.455  1.00  0.00    -0.009 C 
BRANCH   3   4
ATOM      4  C   UNL     1      20.869 -29.153  -8.587  1.00  0.00     0.000 C 
ATOM      5  C   UNL     1      20.440 -30.388  -9.381  1.00  0.00     0.004 C 
ENDBRANCH   3   4
BRANCH   3   6
ATOM      6  C   UNL     1      20.943 -26.603  -9.115  1.00  0.00    -0.014 C 
ATOM      7  C   UNL     1      20.307 -26.503  -7.718  1.00  0.00     0.007 C 
ATOM      8  C   UNL     1      19.957 -26.092 -10.181  1.00  0.00     0.007 C 
ENDBRANCH   3   6
ENDBRANCH   2   3
ENDBRANCH   1   2
BRANCH   1   9
ATOM      9  C   UNL     1      22.502 -27.832 -13.252  1.00  0.00    -0.011 C 
ATOM     10  C   UNL     1      21.580 -28.867 -13.939  1.00  0.00     0.008 C 
BRANCH   9  11
ATOM     11  C   UNL     1      22.028 -26.334 -13.382  1.00  0.00    -0.002 C 
ATOM     12  C   UNL     1      20.530 -26.112 -13.691  1.00  0.00     0.005 C 
ATOM     13  C   UNL     1      22.812 -25.401 -14.354  1.00  0.00    -0.026 C 
ATOM     14  C   UNL     1      20.441 -24.898 -14.622  1.00  0.00     0.005 C 
ATOM     15  C   UNL     1      21.823 -24.224 -14.605  1.00  0.00    -0.001 C 
ATOM     16  C   UNL     1      24.186 -24.948 -13.778  1.00  0.00     0.007 C 
ATOM     17  C   UNL     1      23.098 -26.097 -15.717  1.00  0.00     0.012 C 
ATOM     18  C   UNL     1      21.905 -22.999 -13.620  1.00  0.00     0.000 C 
ATOM     19  C   UNL     1      24.135 -23.799 -12.768  1.00  0.00     0.005 C 
ATOM     20  C   UNL     1      23.373 -22.584 -13.351  1.00  0.00     0.003 C 
ATOM     21  C   UNL     1      21.124 -23.131 -12.289  1.00  0.00     0.031 C 
ATOM     22  C   UNL     1      23.458 -21.238 -12.512  1.00  0.00    -0.008 C 
ATOM     23  C   UNL     1      21.333 -21.969 -11.364  1.00  0.00    -0.027 C 
ATOM     24  C   UNL     1      22.427 -21.184 -11.379  1.00  0.00    -0.065 C 
ATOM     25  C   UNL     1      24.878 -21.033 -11.890  1.00  0.00     0.014 C 
ATOM     26  C   UNL     1      23.167 -20.055 -13.481  1.00  0.00     0.016 C 
ATOM     27  C   UNL     1      22.520 -20.054 -10.369  1.00  0.00     0.063 C 
ATOM     28  C   UNL     1      24.983 -19.812 -10.962  1.00  0.00     0.033 C 
ATOM     29  C   UNL     1      23.951 -19.907  -9.826  1.00  0.00     0.118 C 
BRANCH  29  30
ATOM     30  O   UNL     1      24.042 -18.791  -8.975  1.00  0.00    -0.393 OA
ATOM     31  H   UNL     1      23.951 -17.976  -9.535  1.00  0.00     0.210 HD
ENDBRANCH  29  30
ENDBRANCH   9  11
ENDBRANCH   1   9
TORSDOF 7
ENDMDL
MODEL 8
REMARK VINA RESULT:    -6.837      1.624      2.789
REMARK INTER + INTRA:         -11.271
REMARK INTER:                  -9.223
REMARK INTRA:                  -2.048
REMARK UNBOUND:                -1.836
REMARK SMILES CC[C@@H](CC[C@@H](C)[C@@H]1CC[C@H]2[C@H]3CC=C4C[C@H](O)CC[C@@]4(C)[C@H]3CC[C@]21C)C(C)C
REMARK SMILES IDX 5 1 4 2 3 3 2 4 1 5 28 6 29 7 30 8 6 9 7 10 8 11 9 12 26 13
REMARK SMILES IDX 10 14 11 15 25 16 27 17 12 18 24 19 23 20 13 21 21 22 14 23
REMARK SMILES IDX 15 24 20 25 22 26 16 27 19 28 17 29 18 30
REMARK H PARENT 18 31
REMARK Flexibility Score: inf
ROOT
ATOM      1  C   UNL     1      23.575 -19.298 -13.664  1.00  0.00     0.004 C 
ENDROOT
BRANCH   1   2
ATOM      2  C   UNL     1      24.151 -18.901 -12.280  1.00  0.00     0.004 C 
BRANCH   2   3
ATOM      3  C   UNL     1      23.070 -18.447 -11.256  1.00  0.00    -0.009 C 
BRANCH   3   4
ATOM      4  C   UNL     1      23.124 -16.905 -11.053  1.00  0.00     0.000 C 
ATOM      5  C   UNL     1      22.100 -16.129 -11.884  1.00  0.00     0.004 C 
ENDBRANCH   3   4
BRANCH   3   6
ATOM      6  C   UNL     1      23.150 -19.245  -9.909  1.00  0.00    -0.014 C 
ATOM      7  C   UNL     1      22.942 -18.374  -8.658  1.00  0.00     0.007 C 
ATOM      8  C   UNL     1      24.456 -20.050  -9.782  1.00  0.00     0.007 C 
ENDBRANCH   3   6
ENDBRANCH   2   3
ENDBRANCH   1   2
BRANCH   1   9
ATOM      9  C   UNL     1      22.024 -19.443 -13.678  1.00  0.00    -0.011 C 
ATOM     10  C   UNL     1      21.410 -18.378 -14.617  1.00  0.00     0.008 C 
BRANCH   9  11
ATOM     11  C   UNL     1      21.602 -20.928 -13.997  1.00  0.00    -0.002 C 
ATOM     12  C   UNL     1      20.331 -21.112 -14.856  1.00  0.00     0.005 C 
ATOM     13  C   UNL     1      21.465 -21.921 -12.804  1.00  0.00    -0.026 C 
ATOM     14  C   UNL     1      19.610 -22.356 -14.326  1.00  0.00     0.005 C 
ATOM     15  C   UNL     1      20.595 -23.073 -13.389  1.00  0.00    -0.001 C 
ATOM     16  C   UNL     1      22.842 -22.398 -12.253  1.00  0.00     0.007 C 
ATOM     17  C   UNL     1      20.694 -21.286 -11.610  1.00  0.00     0.012 C 
ATOM     18  C   UNL     1      21.357 -24.264 -14.081  1.00  0.00     0.000 C 
ATOM     19  C   UNL     1      23.528 -23.507 -13.055  1.00  0.00     0.005 C 
ATOM     20  C   UNL     1      22.581 -24.716 -13.247  1.00  0.00     0.003 C 
ATOM     21  C   UNL     1      21.755 -24.057 -15.564  1.00  0.00     0.031 C 
ATOM     22  C   UNL     1      23.242 -26.033 -13.842  1.00  0.00    -0.008 C 
ATOM     23  C   UNL     1      22.563 -25.190 -16.122  1.00  0.00    -0.027 C 
ATOM     24  C   UNL     1      23.324 -26.011 -15.373  1.00  0.00    -0.065 C 
ATOM     25  C   UNL     1      24.682 -26.262 -13.279  1.00  0.00     0.014 C 
ATOM     26  C   UNL     1      22.351 -27.240 -13.428  1.00  0.00     0.016 C 
ATOM     27  C   UNL     1      24.111 -27.106 -16.071  1.00  0.00     0.063 C 
ATOM     28  C   UNL     1      25.420 -27.451 -13.915  1.00  0.00     0.033 C 
ATOM     29  C   UNL     1      25.503 -27.280 -15.442  1.00  0.00     0.118 C 
BRANCH  29  30
ATOM     30  O   UNL     1      26.176 -28.366 -16.029  1.00  0.00    -0.393 OA
ATOM     31  H   UNL     1      27.150 -28.220 -15.908  1.00  0.00     0.210 HD
ENDBRANCH  29  30
ENDBRANCH   9  11
ENDBRANCH   1   9
TORSDOF 7
ENDMDL
MODEL 9
REMARK VINA RESULT:    -6.709      3.351      5.370
REMARK INTER + INTRA:         -11.094
REMARK INTER:                 -10.764
REMARK INTRA:                  -0.330
REMARK UNBOUND:                -1.836
REMARK SMILES CC[C@@H](CC[C@@H](C)[C@@H]1CC[C@H]2[C@H]3CC=C4C[C@H](O)CC[C@@]4(C)[C@H]3CC[C@]21C)C(C)C
REMARK SMILES IDX 5 1 4 2 3 3 2 4 1 5 28 6 29 7 30 8 6 9 7 10 8 11 9 12 26 13
REMARK SMILES IDX 10 14 11 15 25 16 27 17 12 18 24 19 23 20 13 21 21 22 14 23
REMARK SMILES IDX 15 24 20 25 22 26 16 27 19 28 17 29 18 30
REMARK H PARENT 18 31
REMARK Flexibility Score: inf
ROOT
ATOM      1  C   UNL     1      21.000 -17.646 -11.148  1.00  0.00     0.004 C 
ENDROOT
BRANCH   1   2
ATOM      2  C   UNL     1      22.038 -16.706 -11.814  1.00  0.00     0.004 C 
BRANCH   2   3
ATOM      3  C   UNL     1      22.840 -15.837 -10.802  1.00  0.00    -0.009 C 
BRANCH   3   4
ATOM      4  C   UNL     1      22.822 -16.488  -9.389  1.00  0.00     0.000 C 
ATOM      5  C   UNL     1      24.112 -17.226  -9.025  1.00  0.00     0.004 C 
ENDBRANCH   3   4
BRANCH   3   6
ATOM      6  C   UNL     1      22.367 -14.342 -10.794  1.00  0.00    -0.014 C 
ATOM      7  C   UNL     1      21.787 -13.882  -9.445  1.00  0.00     0.007 C 
ATOM      8  C   UNL     1      21.374 -14.035 -11.928  1.00  0.00     0.007 C 
ENDBRANCH   3   6
ENDBRANCH   2   3
ENDBRANCH   1   2
BRANCH   1   9
ATOM      9  C   UNL     1      20.438 -18.737 -12.109  1.00  0.00    -0.011 C 
ATOM     10  C   UNL     1      20.478 -18.218 -13.566  1.00  0.00     0.008 C 
BRANCH   9  11
ATOM     11  C   UNL     1      21.167 -20.116 -11.878  1.00  0.00    -0.002 C 
ATOM     12  C   UNL     1      22.245 -20.147 -10.771  1.00  0.00     0.005 C 
ATOM     13  C   UNL     1      21.797 -20.825 -13.115  1.00  0.00    -0.026 C 
ATOM     14  C   UNL     1      23.361 -21.077 -11.260  1.00  0.00     0.005 C 
ATOM     15  C   UNL     1      22.808 -21.828 -12.482  1.00  0.00    -0.001 C 
ATOM     16  C   UNL     1      20.735 -21.505 -14.028  1.00  0.00     0.007 C 
ATOM     17  C   UNL     1      22.593 -19.829 -14.007  1.00  0.00     0.012 C 
ATOM     18  C   UNL     1      22.267 -23.265 -12.136  1.00  0.00     0.000 C 
ATOM     19  C   UNL     1      20.222 -22.866 -13.550  1.00  0.00     0.005 C 
ATOM     20  C   UNL     1      21.399 -23.836 -13.284  1.00  0.00     0.003 C 
ATOM     21  C   UNL     1      21.543 -23.420 -10.776  1.00  0.00     0.031 C 
ATOM     22  C   UNL     1      21.006 -25.354 -13.024  1.00  0.00    -0.008 C 
ATOM     23  C   UNL     1      20.970 -24.790 -10.565  1.00  0.00    -0.027 C 
ATOM     24  C   UNL     1      20.619 -25.620 -11.565  1.00  0.00    -0.065 C 
ATOM     25  C   UNL     1      19.820 -25.809 -13.935  1.00  0.00     0.014 C 
ATOM     26  C   UNL     1      22.249 -26.229 -13.357  1.00  0.00     0.016 C 
ATOM     27  C   UNL     1      20.028 -26.973 -11.209  1.00  0.00     0.063 C 
ATOM     28  C   UNL     1      19.313 -27.229 -13.638  1.00  0.00     0.033 C 
ATOM     29  C   UNL     1      18.886 -27.352 -12.165  1.00  0.00     0.118 C 
BRANCH  29  30
ATOM     30  O   UNL     1      18.423 -28.651 -11.888  1.00  0.00    -0.393 OA
ATOM     31  H   UNL     1      18.977 -29.018 -11.150  1.00  0.00     0.210 HD
ENDBRANCH  29  30
ENDBRANCH   9  11
ENDBRANCH   1   9
TORSDOF 7
ENDMDL
