MODEL 1
REMARK VINA RESULT:    -4.031      0.000      0.000
REMARK INTER + INTRA:          -5.169
REMARK INTER:                  -5.680
REMARK INTRA:                   0.512
REMARK UNBOUND:                 0.512
REMARK SMILES CC1=CCC(=C(C)C)C(=O)CC(C)=CCC1
REMARK SMILES IDX 12 1 14 2 13 3 15 4 16 5 2 6 1 7 3 8 11 10 9 11 10 12 5 13
REMARK SMILES IDX 6 14 7 15 8 16 4 17
REMARK H PARENT
REMARK Flexibility Score: 60.00
ROOT
ATOM      1  C   UNL     1     -11.401  -4.943 -14.752  1.00  0.00    -0.070 C 
ATOM      2  C   UNL     1     -11.479  -6.282 -14.569  1.00  0.00    -0.027 C 
ATOM      3  C   UNL     1     -12.609  -4.248 -15.330  1.00  0.00     0.039 C 
ENDROOT
BRANCH   2   4
ATOM      4  C   UNL     1     -10.436  -7.157 -13.914  1.00  0.00     0.032 C 
BRANCH   4   5
ATOM      5  C   UNL     1      -9.372  -7.658 -14.909  1.00  0.00     0.034 C 
BRANCH   5   6
ATOM      6  C   UNL     1      -7.967  -7.537 -14.352  1.00  0.00    -0.077 C 
ATOM      7  C   UNL     1      -7.566  -8.449 -13.221  1.00  0.00     0.039 C 
ATOM      8  C   UNL     1      -7.058  -6.640 -14.794  1.00  0.00    -0.023 CG0
ATOM      9  G   UNL     1      -7.283  -5.624 -15.889  1.00  0.00     0.000 G0
ENDBRANCH   5   6
ENDBRANCH   4   5
ENDBRANCH   2   4
BRANCH   1  10
ATOM     10  C   UNL     1     -10.199  -4.104 -14.350  1.00  0.00     0.111 C 
BRANCH  10  11
ATOM     11  C   UNL     1      -9.200  -3.989 -15.475  1.00  0.00     0.163 C 
ATOM     12  O   UNL     1      -9.624  -3.646 -16.612  1.00  0.00    -0.294 OA
BRANCH  11  13
ATOM     13  C   UNL     1      -7.753  -4.319 -15.286  1.00  0.00    -0.002 C 
ATOM     14  C   UNL     1      -6.922  -3.516 -14.555  1.00  0.00    -0.069 C 
ATOM     15  C   UNL     1      -7.437  -2.289 -13.836  1.00  0.00     0.039 C 
ATOM     16  C   UNL     1      -5.452  -3.836 -14.399  1.00  0.00     0.039 C 
BRANCH  13  17
ATOM     17  C   UNL     1      -7.260  -5.627 -15.880  1.00  0.00     0.066 CG0
ATOM     18  G   UNL     1      -7.061  -6.644 -14.781  1.00  0.00     0.000 G0
ENDBRANCH  13  17
ENDBRANCH  11  13
ENDBRANCH  10  11
ENDBRANCH   1  10
TORSDOF 0
ENDMDL
MODEL 2
REMARK VINA RESULT:    -3.765      4.538      7.726
REMARK INTER + INTRA:          -4.793
REMARK INTER:                  -5.249
REMARK INTRA:                   0.455
REMARK UNBOUND:                 0.512
REMARK SMILES CC1=CCC(=C(C)C)C(=O)CC(C)=CCC1
REMARK SMILES IDX 12 1 14 2 13 3 15 4 16 5 2 6 1 7 3 8 11 10 9 11 10 12 5 13
REMARK SMILES IDX 6 14 7 15 8 16 4 17
REMARK H PARENT
REMARK Flexibility Score: 60.00
ROOT
ATOM      1  C   UNL     1      -2.772  -1.588 -17.958  1.00  0.00    -0.070 C 
ATOM      2  C   UNL     1      -1.544  -1.042 -17.794  1.00  0.00    -0.027 C 
ATOM      3  C   UNL     1      -3.164  -2.008 -19.354  1.00  0.00     0.039 C 
ENDROOT
BRANCH   2   4
ATOM      4  C   UNL     1      -0.910  -0.650 -16.480  1.00  0.00     0.032 C 
BRANCH   4   5
ATOM      5  C   UNL     1      -0.523  -1.868 -15.621  1.00  0.00     0.034 C 
BRANCH   5   6
ATOM      6  C   UNL     1      -1.099  -1.787 -14.221  1.00  0.00    -0.077 C 
ATOM      7  C   UNL     1      -0.720  -0.609 -13.359  1.00  0.00     0.039 C 
ATOM      8  C   UNL     1      -1.915  -2.723 -13.688  1.00  0.00    -0.023 CG0
ATOM      9  G   UNL     1      -2.378  -3.985 -14.378  1.00  0.00     0.000 G0
ENDBRANCH   5   6
ENDBRANCH   4   5
ENDBRANCH   2   4
BRANCH   1  10
ATOM     10  C   UNL     1      -3.738  -1.857 -16.816  1.00  0.00     0.111 C 
BRANCH  10  11
ATOM     11  C   UNL     1      -3.766  -3.320 -16.447  1.00  0.00     0.163 C 
ATOM     12  O   UNL     1      -3.856  -4.166 -17.377  1.00  0.00    -0.294 OA
BRANCH  11  13
ATOM     13  C   UNL     1      -3.744  -3.777 -15.022  1.00  0.00    -0.002 C 
ATOM     14  C   UNL     1      -4.895  -4.046 -14.335  1.00  0.00    -0.069 C 
ATOM     15  C   UNL     1      -6.251  -3.969 -15.000  1.00  0.00     0.039 C 
ATOM     16  C   UNL     1      -4.866  -4.471 -12.883  1.00  0.00     0.039 C 
BRANCH  13  17
ATOM     17  C   UNL     1      -2.381  -4.001 -14.391  1.00  0.00     0.066 CG0
ATOM     18  G   UNL     1      -1.923  -2.737 -13.701  1.00  0.00     0.000 G0
ENDBRANCH  13  17
ENDBRANCH  11  13
ENDBRANCH  10  11
ENDBRANCH   1  10
TORSDOF 0
ENDMDL
MODEL 3
REMARK VINA RESULT:    -3.751      6.912      8.784
REMARK INTER + INTRA:          -4.775
REMARK INTER:                  -5.162
REMARK INTRA:                   0.387
REMARK UNBOUND:                 0.512
REMARK SMILES CC1=CCC(=C(C)C)C(=O)CC(C)=CCC1
REMARK SMILES IDX 12 1 14 2 13 3 15 4 16 5 2 6 1 7 3 8 11 10 9 11 10 12 5 13
REMARK SMILES IDX 6 14 7 15 8 16 4 17
REMARK H PARENT
REMARK Flexibility Score: 60.00
ROOT
ATOM      1  C   UNL     1      -6.259   1.610 -10.359  1.00  0.00    -0.070 C 
ATOM      2  C   UNL     1      -6.882   0.418 -10.206  1.00  0.00    -0.027 C 
ATOM      3  C   UNL     1      -6.900   2.816  -9.717  1.00  0.00     0.039 C 
ENDROOT
BRANCH   2   4
ATOM      4  C   UNL     1      -6.369  -0.925 -10.671  1.00  0.00     0.032 C 
BRANCH   4   5
ATOM      5  C   UNL     1      -5.249  -1.476  -9.768  1.00  0.00     0.034 C 
BRANCH   5   6
ATOM      6  C   UNL     1      -4.090  -2.034 -10.570  1.00  0.00    -0.077 C 
ATOM      7  C   UNL     1      -4.343  -3.228 -11.456  1.00  0.00     0.039 C 
ATOM      8  C   UNL     1      -2.834  -1.540 -10.519  1.00  0.00    -0.023 CG0
ATOM      9  G   UNL     1      -2.378  -0.378  -9.669  1.00  0.00     0.000 G0
ENDBRANCH   5   6
ENDBRANCH   4   5
ENDBRANCH   2   4
BRANCH   1  10
ATOM     10  C   UNL     1      -4.932   1.784 -11.079  1.00  0.00     0.111 C 
BRANCH  10  11
ATOM     11  C   UNL     1      -3.769   1.725 -10.120  1.00  0.00     0.163 C 
ATOM     12  O   UNL     1      -3.836   2.407  -9.062  1.00  0.00    -0.294 OA
BRANCH  11  13
ATOM     13  C   UNL     1      -2.537   0.929 -10.418  1.00  0.00    -0.002 C 
ATOM     14  C   UNL     1      -1.571   1.390 -11.269  1.00  0.00    -0.069 C 
ATOM     15  C   UNL     1      -1.660   2.762 -11.899  1.00  0.00     0.039 C 
ATOM     16  C   UNL     1      -0.347   0.563 -11.595  1.00  0.00     0.039 C 
BRANCH  13  17
ATOM     17  C   UNL     1      -2.368  -0.385  -9.675  1.00  0.00     0.066 CG0
ATOM     18  G   UNL     1      -2.851  -1.526 -10.539  1.00  0.00     0.000 G0
ENDBRANCH  13  17
ENDBRANCH  11  13
ENDBRANCH  10  11
ENDBRANCH   1  10
TORSDOF 0
ENDMDL
MODEL 4
REMARK VINA RESULT:    -3.716      1.972      2.384
REMARK INTER + INTRA:          -4.725
REMARK INTER:                  -5.453
REMARK INTRA:                   0.728
REMARK UNBOUND:                 0.512
REMARK SMILES CC1=CCC(=C(C)C)C(=O)CC(C)=CCC1
REMARK SMILES IDX 12 1 14 2 13 3 15 4 16 5 2 6 1 7 3 8 11 10 9 11 10 12 5 13
REMARK SMILES IDX 6 14 7 15 8 16 4 17
REMARK H PARENT
REMARK Flexibility Score: 60.00
ROOT
ATOM      1  C   UNL     1      -9.949  -4.324 -15.420  1.00  0.00    -0.070 C 
ATOM      2  C   UNL     1     -10.528  -5.548 -15.419  1.00  0.00    -0.027 C 
ATOM      3  C   UNL     1     -10.070  -3.499 -16.678  1.00  0.00     0.039 C 
ENDROOT
BRANCH   2   4
ATOM      4  C   UNL     1     -10.620  -6.492 -14.244  1.00  0.00     0.032 C 
BRANCH   4   5
ATOM      5  C   UNL     1      -9.962  -7.856 -14.526  1.00  0.00     0.034 C 
BRANCH   5   6
ATOM      6  C   UNL     1      -8.511  -7.716 -14.942  1.00  0.00    -0.077 C 
ATOM      7  C   UNL     1      -8.093  -8.278 -16.278  1.00  0.00     0.039 C 
ATOM      8  C   UNL     1      -7.561  -7.139 -14.174  1.00  0.00    -0.023 CG0
ATOM      9  G   UNL     1      -7.777  -6.552 -12.799  1.00  0.00     0.000 G0
ENDBRANCH   5   6
ENDBRANCH   4   5
ENDBRANCH   2   4
BRANCH   1  10
ATOM     10  C   UNL     1      -9.249  -3.720 -14.214  1.00  0.00     0.111 C 
BRANCH  10  11
ATOM     11  C   UNL     1      -7.861  -4.286 -14.037  1.00  0.00     0.163 C 
ATOM     12  O   UNL     1      -7.036  -4.140 -14.978  1.00  0.00    -0.294 OA
BRANCH  11  13
ATOM     13  C   UNL     1      -7.468  -5.047 -12.810  1.00  0.00    -0.002 C 
ATOM     14  C   UNL     1      -6.912  -4.427 -11.726  1.00  0.00    -0.069 C 
ATOM     15  C   UNL     1      -6.732  -2.926 -11.677  1.00  0.00     0.039 C 
ATOM     16  C   UNL     1      -6.482  -5.210 -10.504  1.00  0.00     0.039 C 
BRANCH  13  17
ATOM     17  C   UNL     1      -7.781  -6.533 -12.791  1.00  0.00     0.066 CG0
ATOM     18  G   UNL     1      -7.539  -7.125 -14.160  1.00  0.00     0.000 G0
ENDBRANCH  13  17
ENDBRANCH  11  13
ENDBRANCH  10  11
ENDBRANCH   1  10
TORSDOF 0
ENDMDL
MODEL 5
REMARK VINA RESULT:    -3.697      6.564      9.196
REMARK INTER + INTRA:          -4.698
REMARK INTER:                  -5.615
REMARK INTRA:                   0.917
REMARK UNBOUND:                 0.512
REMARK SMILES CC1=CCC(=C(C)C)C(=O)CC(C)=CCC1
REMARK SMILES IDX 12 1 14 2 13 3 15 4 16 5 2 6 1 7 3 8 11 10 9 11 10 12 5 13
REMARK SMILES IDX 6 14 7 15 8 16 4 17
REMARK H PARENT
REMARK Flexibility Score: 60.00
ROOT
ATOM      1  C   UNL     1      -6.346   1.689  -8.753  1.00  0.00    -0.070 C 
ATOM      2  C   UNL     1      -5.255   2.106  -8.069  1.00  0.00    -0.027 C 
ATOM      3  C   UNL     1      -7.043   2.699  -9.633  1.00  0.00     0.039 C 
ENDROOT
BRANCH   2   4
ATOM      4  C   UNL     1      -4.351   1.245  -7.219  1.00  0.00     0.032 C 
BRANCH   4   5
ATOM      5  C   UNL     1      -2.921   1.149  -7.785  1.00  0.00     0.034 C 
BRANCH   5   6
ATOM      6  C   UNL     1      -2.914   0.917  -9.283  1.00  0.00    -0.077 C 
ATOM      7  C   UNL     1      -2.354   1.999 -10.172  1.00  0.00     0.039 C 
ATOM      8  C   UNL     1      -3.404  -0.195  -9.874  1.00  0.00    -0.023 CG0
ATOM      9  G   UNL     1      -4.033  -1.368  -9.160  1.00  0.00     0.000 G0
ENDBRANCH   5   6
ENDBRANCH   4   5
ENDBRANCH   2   4
BRANCH   1  10
ATOM     10  C   UNL     1      -6.861   0.259  -8.734  1.00  0.00     0.111 C 
BRANCH  10  11
ATOM     11  C   UNL     1      -6.351  -0.531  -9.914  1.00  0.00     0.163 C 
ATOM     12  O   UNL     1      -6.782  -0.232 -11.060  1.00  0.00    -0.294 OA
BRANCH  11  13
ATOM     13  C   UNL     1      -5.400  -1.674  -9.749  1.00  0.00    -0.002 C 
ATOM     14  C   UNL     1      -5.708  -2.934 -10.186  1.00  0.00    -0.069 C 
ATOM     15  C   UNL     1      -6.995  -3.223 -10.926  1.00  0.00     0.039 C 
ATOM     16  C   UNL     1      -4.758  -4.093  -9.981  1.00  0.00     0.039 C 
BRANCH  13  17
ATOM     17  C   UNL     1      -4.045  -1.364  -9.141  1.00  0.00     0.066 CG0
ATOM     18  G   UNL     1      -3.407  -0.209  -9.877  1.00  0.00     0.000 G0
ENDBRANCH  13  17
ENDBRANCH  11  13
ENDBRANCH  10  11
ENDBRANCH   1  10
TORSDOF 0
ENDMDL
MODEL 6
REMARK VINA RESULT:    -3.650      1.877      3.779
REMARK INTER + INTRA:          -4.632
REMARK INTER:                  -5.106
REMARK INTRA:                   0.475
REMARK UNBOUND:                 0.512
REMARK SMILES CC1=CCC(=C(C)C)C(=O)CC(C)=CCC1
REMARK SMILES IDX 12 1 14 2 13 3 15 4 16 5 2 6 1 7 3 8 11 10 9 11 10 12 5 13
REMARK SMILES IDX 6 14 7 15 8 16 4 17
REMARK H PARENT
REMARK Flexibility Score: 60.00
ROOT
ATOM      1  C   UNL     1     -10.129  -7.776 -14.360  1.00  0.00    -0.070 C 
ATOM      2  C   UNL     1     -11.174  -6.924 -14.237  1.00  0.00    -0.027 C 
ATOM      3  C   UNL     1     -10.213  -9.091 -13.623  1.00  0.00     0.039 C 
ENDROOT
BRANCH   2   4
ATOM      4  C   UNL     1     -11.346  -5.611 -14.963  1.00  0.00     0.032 C 
BRANCH   4   5
ATOM      5  C   UNL     1     -10.454  -4.494 -14.389  1.00  0.00     0.034 C 
BRANCH   5   6
ATOM      6  C   UNL     1      -9.521  -3.914 -15.434  1.00  0.00    -0.077 C 
ATOM      7  C   UNL     1     -10.128  -3.251 -16.645  1.00  0.00     0.039 C 
ATOM      8  C   UNL     1      -8.174  -3.977 -15.357  1.00  0.00    -0.023 CG0
ATOM      9  G   UNL     1      -7.384  -4.628 -14.246  1.00  0.00     0.000 G0
ENDBRANCH   5   6
ENDBRANCH   4   5
ENDBRANCH   2   4
BRANCH   1  10
ATOM     10  C   UNL     1      -8.920  -7.509 -15.241  1.00  0.00     0.111 C 
BRANCH  10  11
ATOM     11  C   UNL     1      -7.697  -7.178 -14.421  1.00  0.00     0.163 C 
ATOM     12  O   UNL     1      -7.420  -7.923 -13.443  1.00  0.00    -0.294 OA
BRANCH  11  13
ATOM     13  C   UNL     1      -6.852  -5.977 -14.708  1.00  0.00    -0.002 C 
ATOM     14  C   UNL     1      -5.685  -6.071 -15.416  1.00  0.00    -0.069 C 
ATOM     15  C   UNL     1      -5.223  -7.383 -16.011  1.00  0.00     0.039 C 
ATOM     16  C   UNL     1      -4.817  -4.859 -15.670  1.00  0.00     0.039 C 
BRANCH  13  17
ATOM     17  C   UNL     1      -7.383  -4.633 -14.243  1.00  0.00     0.066 CG0
ATOM     18  G   UNL     1      -8.181  -3.987 -15.351  1.00  0.00     0.000 G0
ENDBRANCH  13  17
ENDBRANCH  11  13
ENDBRANCH  10  11
ENDBRANCH   1  10
TORSDOF 0
ENDMDL
MODEL 7
REMARK VINA RESULT:    -3.638      7.403      9.367
REMARK INTER + INTRA:          -4.615
REMARK INTER:                  -5.139
REMARK INTRA:                   0.524
REMARK UNBOUND:                 0.512
REMARK SMILES CC1=CCC(=C(C)C)C(=O)CC(C)=CCC1
REMARK SMILES IDX 12 1 14 2 13 3 15 4 16 5 2 6 1 7 3 8 11 10 9 11 10 12 5 13
REMARK SMILES IDX 6 14 7 15 8 16 4 17
REMARK H PARENT
REMARK Flexibility Score: 60.00
ROOT
ATOM      1  C   UNL     1      -6.430  -0.127  -9.215  1.00  0.00    -0.070 C 
ATOM      2  C   UNL     1      -6.488  -0.996 -10.251  1.00  0.00    -0.027 C 
ATOM      3  C   UNL     1      -7.738   0.396  -8.673  1.00  0.00     0.039 C 
ENDROOT
BRANCH   2   4
ATOM      4  C   UNL     1      -5.318  -1.719 -10.878  1.00  0.00     0.032 C 
BRANCH   4   5
ATOM      5  C   UNL     1      -4.496  -0.814 -11.815  1.00  0.00     0.034 C 
BRANCH   5   6
ATOM      6  C   UNL     1      -3.054  -0.686 -11.366  1.00  0.00    -0.077 C 
ATOM      7  C   UNL     1      -2.189  -1.920 -11.377  1.00  0.00     0.039 C 
ATOM      8  C   UNL     1      -2.503   0.469 -10.930  1.00  0.00    -0.023 CG0
ATOM      9  G   UNL     1      -3.214   1.796 -10.813  1.00  0.00     0.000 G0
ENDBRANCH   5   6
ENDBRANCH   4   5
ENDBRANCH   2   4
BRANCH   1  10
ATOM     10  C   UNL     1      -5.138   0.294  -8.535  1.00  0.00     0.111 C 
BRANCH  10  11
ATOM     11  C   UNL     1      -4.806   1.738  -8.818  1.00  0.00     0.163 C 
ATOM     12  O   UNL     1      -5.701   2.603  -8.614  1.00  0.00    -0.294 OA
BRANCH  11  13
ATOM     13  C   UNL     1      -3.481   2.152  -9.375  1.00  0.00    -0.002 C 
ATOM     14  C   UNL     1      -2.529   2.752  -8.597  1.00  0.00    -0.069 C 
ATOM     15  C   UNL     1      -2.736   2.962  -7.114  1.00  0.00     0.039 C 
ATOM     16  C   UNL     1      -1.206   3.202  -9.176  1.00  0.00     0.039 C 
BRANCH  13  17
ATOM     17  C   UNL     1      -3.206   1.811 -10.829  1.00  0.00     0.066 CG0
ATOM     18  G   UNL     1      -2.511   0.473 -10.917  1.00  0.00     0.000 G0
ENDBRANCH  13  17
ENDBRANCH  11  13
ENDBRANCH  10  11
ENDBRANCH   1  10
TORSDOF 0
ENDMDL
MODEL 8
REMARK VINA RESULT:    -3.586      5.174      7.855
REMARK INTER + INTRA:          -4.541
REMARK INTER:                  -5.261
REMARK INTRA:                   0.720
REMARK UNBOUND:                 0.512
REMARK SMILES CC1=CCC(=C(C)C)C(=O)CC(C)=CCC1
REMARK SMILES IDX 12 1 14 2 13 3 15 4 16 5 2 6 1 7 3 8 11 10 9 11 10 12 5 13
REMARK SMILES IDX 6 14 7 15 8 16 4 17
REMARK H PARENT
REMARK Flexibility Score: 60.00
ROOT
ATOM      1  C   UNL     1      -6.567   0.477  -9.872  1.00  0.00    -0.070 C 
ATOM      2  C   UNL     1      -5.533   1.352  -9.884  1.00  0.00    -0.027 C 
ATOM      3  C   UNL     1      -7.407   0.410  -8.620  1.00  0.00     0.039 C 
ENDROOT
BRANCH   2   4
ATOM      4  C   UNL     1      -4.635   1.656 -11.058  1.00  0.00     0.032 C 
BRANCH   4   5
ATOM      5  C   UNL     1      -3.151   1.371 -10.759  1.00  0.00     0.034 C 
BRANCH   5   6
ATOM      6  C   UNL     1      -2.925  -0.055 -10.296  1.00  0.00    -0.077 C 
ATOM      7  C   UNL     1      -2.273  -0.276  -8.955  1.00  0.00     0.039 C 
ATOM      8  C   UNL     1      -3.251  -1.143 -11.028  1.00  0.00    -0.023 CG0
ATOM      9  G   UNL     1      -3.876  -1.126 -12.403  1.00  0.00     0.000 G0
ENDBRANCH   5   6
ENDBRANCH   4   5
ENDBRANCH   2   4
BRANCH   1  10
ATOM     10  C   UNL     1      -6.962  -0.381 -11.062  1.00  0.00     0.111 C 
BRANCH  10  11
ATOM     11  C   UNL     1      -6.080  -1.599 -11.185  1.00  0.00     0.163 C 
ATOM     12  O   UNL     1      -6.051  -2.410 -10.220  1.00  0.00    -0.294 OA
BRANCH  11  13
ATOM     13  C   UNL     1      -5.215  -1.833 -12.383  1.00  0.00    -0.002 C 
ATOM     14  C   UNL     1      -5.637  -2.595 -13.437  1.00  0.00    -0.069 C 
ATOM     15  C   UNL     1      -7.030  -3.182 -13.483  1.00  0.00     0.039 C 
ATOM     16  C   UNL     1      -4.742  -2.859 -14.628  1.00  0.00     0.039 C 
BRANCH  13  17
ATOM     17  C   UNL     1      -3.871  -1.126 -12.413  1.00  0.00     0.066 CG0
ATOM     18  G   UNL     1      -3.253  -1.143 -11.035  1.00  0.00     0.000 G0
ENDBRANCH  13  17
ENDBRANCH  11  13
ENDBRANCH  10  11
ENDBRANCH   1  10
TORSDOF 0
ENDMDL
MODEL 9
REMARK VINA RESULT:    -3.572      6.539      9.163
REMARK INTER + INTRA:          -4.522
REMARK INTER:                  -5.270
REMARK INTRA:                   0.748
REMARK UNBOUND:                 0.512
REMARK SMILES CC1=CCC(=C(C)C)C(=O)CC(C)=CCC1
REMARK SMILES IDX 12 1 14 2 13 3 15 4 16 5 2 6 1 7 3 8 11 10 9 11 10 12 5 13
REMARK SMILES IDX 6 14 7 15 8 16 4 17
REMARK H PARENT
REMARK Flexibility Score: 60.00
ROOT
ATOM      1  C   UNL     1      -6.292  -1.290 -10.124  1.00  0.00    -0.070 C 
ATOM      2  C   UNL     1      -6.922  -0.334  -9.400  1.00  0.00    -0.027 C 
ATOM      3  C   UNL     1      -7.125  -2.082 -11.102  1.00  0.00     0.039 C 
ENDROOT
BRANCH   2   4
ATOM      4  C   UNL     1      -6.269   0.640  -8.448  1.00  0.00     0.032 C 
BRANCH   4   5
ATOM      5  C   UNL     1      -6.499   2.108  -8.852  1.00  0.00     0.034 C 
BRANCH   5   6
ATOM      6  C   UNL     1      -5.995   2.402 -10.251  1.00  0.00    -0.077 C 
ATOM      7  C   UNL     1      -6.969   2.954 -11.261  1.00  0.00     0.039 C 
ATOM      8  C   UNL     1      -4.726   2.173 -10.657  1.00  0.00    -0.023 CG0
ATOM      9  G   UNL     1      -3.620   1.594  -9.806  1.00  0.00     0.000 G0
ENDBRANCH   5   6
ENDBRANCH   4   5
ENDBRANCH   2   4
BRANCH   1  10
ATOM     10  C   UNL     1      -4.798  -1.559 -10.051  1.00  0.00     0.111 C 
BRANCH  10  11
ATOM     11  C   UNL     1      -4.025  -0.648 -10.973  1.00  0.00     0.163 C 
ATOM     12  O   UNL     1      -4.193  -0.780 -12.216  1.00  0.00    -0.294 OA
BRANCH  11  13
ATOM     13  C   UNL     1      -3.042   0.354 -10.455  1.00  0.00    -0.002 C 
ATOM     14  C   UNL     1      -1.694   0.188 -10.615  1.00  0.00    -0.069 C 
ATOM     15  C   UNL     1      -1.126  -0.980 -11.390  1.00  0.00     0.039 C 
ATOM     16  C   UNL     1      -0.705   1.187 -10.055  1.00  0.00     0.039 C 
BRANCH  13  17
ATOM     17  C   UNL     1      -3.608   1.604  -9.806  1.00  0.00     0.066 CG0
ATOM     18  G   UNL     1      -4.726   2.161 -10.656  1.00  0.00     0.000 G0
ENDBRANCH  13  17
ENDBRANCH  11  13
ENDBRANCH  10  11
ENDBRANCH   1  10
TORSDOF 0
ENDMDL
