MODEL 1
REMARK VINA RESULT:    -5.343      0.000      0.000
REMARK INTER + INTRA:          -7.602
REMARK INTER:                  -6.905
REMARK INTRA:                  -0.697
REMARK UNBOUND:                -0.697
REMARK SMILES CCCCC(=O)c1ccccc1C(=O)[O-]
REMARK SMILES IDX 4 1 5 2 6 3 7 4 12 5 11 6 10 7 8 8 9 9 13 10 14 11 15 12
REMARK SMILES IDX 3 13 2 14 1 15
REMARK H PARENT
REMARK Flexibility Score: inf
ROOT
ATOM      1  C   UNL     1      33.970  19.303  -9.787  1.00  0.00     0.081 C 
ENDROOT
BRANCH   1   2
ATOM      2  C   UNL     1      32.787  19.895 -10.501  1.00  0.00     0.163 C 
ATOM      3  O   UNL     1      31.947  20.569  -9.847  1.00  0.00    -0.294 OA
BRANCH   2   4
ATOM      4  C   UNL     1      32.566  19.657 -11.946  1.00  0.00     0.027 A 
ATOM      5  C   UNL     1      31.510  18.835 -12.429  1.00  0.00     0.008 A 
ATOM      6  C   UNL     1      31.300  18.739 -13.817  1.00  0.00     0.011 A 
ATOM      7  C   UNL     1      32.127  19.417 -14.713  1.00  0.00     0.001 A 
ATOM      8  C   UNL     1      33.389  20.331 -12.867  1.00  0.00     0.012 A 
ATOM      9  C   UNL     1      33.172  20.206 -14.240  1.00  0.00     0.001 A 
BRANCH   5  10
ATOM     10  C   UNL     1      30.639  18.032 -11.533  1.00  0.00     0.072 C 
ATOM     11  O   UNL     1      30.872  16.814 -11.319  1.00  0.00    -0.545 OA
ATOM     12  O   UNL     1      29.516  18.611 -10.951  1.00  0.00    -0.545 OA
ENDBRANCH   5  10
ENDBRANCH   2   4
ENDBRANCH   1   2
BRANCH   1  13
ATOM     13  C   UNL     1      33.805  17.787  -9.644  1.00  0.00     0.008 C 
BRANCH  13  14
ATOM     14  C   UNL     1      33.474  17.403  -8.198  1.00  0.00    -0.003 C 
ATOM     15  C   UNL     1      31.999  17.045  -8.047  1.00  0.00     0.004 C 
ENDBRANCH  13  14
ENDBRANCH   1  13
TORSDOF 5
ENDMDL
MODEL 2
REMARK VINA RESULT:    -5.320      2.191      4.178
REMARK INTER + INTRA:          -7.572
REMARK INTER:                  -6.849
REMARK INTRA:                  -0.722
REMARK UNBOUND:                -0.697
REMARK SMILES CCCCC(=O)c1ccccc1C(=O)[O-]
REMARK SMILES IDX 4 1 5 2 6 3 7 4 12 5 11 6 10 7 8 8 9 9 13 10 14 11 15 12
REMARK SMILES IDX 3 13 2 14 1 15
REMARK H PARENT
REMARK Flexibility Score: inf
ROOT
ATOM      1  C   UNL     1      33.571  20.477 -12.787  1.00  0.00     0.081 C 
ENDROOT
BRANCH   1   2
ATOM      2  C   UNL     1      32.918  19.125 -12.850  1.00  0.00     0.163 C 
ATOM      3  O   UNL     1      33.601  18.099 -12.583  1.00  0.00    -0.294 OA
BRANCH   2   4
ATOM      4  C   UNL     1      31.505  18.974 -13.267  1.00  0.00     0.027 A 
ATOM      5  C   UNL     1      30.436  18.933 -12.330  1.00  0.00     0.008 A 
ATOM      6  C   UNL     1      29.112  18.891 -12.807  1.00  0.00     0.011 A 
ATOM      7  C   UNL     1      28.847  18.864 -14.176  1.00  0.00     0.001 A 
ATOM      8  C   UNL     1      31.215  18.944 -14.644  1.00  0.00     0.012 A 
ATOM      9  C   UNL     1      29.895  18.885 -15.092  1.00  0.00     0.001 A 
BRANCH   5  10
ATOM     10  C   UNL     1      30.652  18.888 -10.861  1.00  0.00     0.072 C 
ATOM     11  O   UNL     1      30.473  17.826 -10.210  1.00  0.00    -0.545 OA
ATOM     12  O   UNL     1      31.011  20.043 -10.174  1.00  0.00    -0.545 OA
ENDBRANCH   5  10
ENDBRANCH   2   4
ENDBRANCH   1   2
BRANCH   1  13
ATOM     13  C   UNL     1      34.659  20.596 -13.858  1.00  0.00     0.008 C 
BRANCH  13  14
ATOM     14  C   UNL     1      34.223  21.538 -14.985  1.00  0.00    -0.003 C 
ATOM     15  C   UNL     1      33.970  20.769 -16.278  1.00  0.00     0.004 C 
ENDBRANCH  13  14
ENDBRANCH   1  13
TORSDOF 5
ENDMDL
MODEL 3
REMARK VINA RESULT:    -5.270      2.132      4.358
REMARK INTER + INTRA:          -7.508
REMARK INTER:                  -6.623
REMARK INTRA:                  -0.885
REMARK UNBOUND:                -0.697
REMARK SMILES CCCCC(=O)c1ccccc1C(=O)[O-]
REMARK SMILES IDX 4 1 5 2 6 3 7 4 12 5 11 6 10 7 8 8 9 9 13 10 14 11 15 12
REMARK SMILES IDX 3 13 2 14 1 15
REMARK H PARENT
REMARK Flexibility Score: inf
ROOT
ATOM      1  C   UNL     1      33.457  20.817 -13.003  1.00  0.00     0.081 C 
ENDROOT
BRANCH   1   2
ATOM      2  C   UNL     1      33.283  20.649 -11.520  1.00  0.00     0.163 C 
ATOM      3  O   UNL     1      33.960  21.368 -10.736  1.00  0.00    -0.294 OA
BRANCH   2   4
ATOM      4  C   UNL     1      32.372  19.622 -10.966  1.00  0.00     0.027 A 
ATOM      5  C   UNL     1      32.849  18.407 -10.402  1.00  0.00     0.008 A 
ATOM      6  C   UNL     1      31.928  17.525  -9.803  1.00  0.00     0.011 A 
ATOM      7  C   UNL     1      30.565  17.822  -9.782  1.00  0.00     0.001 A 
ATOM      8  C   UNL     1      30.993  19.900 -10.935  1.00  0.00     0.012 A 
ATOM      9  C   UNL     1      30.098  19.003 -10.351  1.00  0.00     0.001 A 
BRANCH   5  10
ATOM     10  C   UNL     1      34.275  17.999 -10.454  1.00  0.00     0.072 C 
ATOM     11  O   UNL     1      34.698  17.224 -11.351  1.00  0.00    -0.545 OA
ATOM     12  O   UNL     1      35.161  18.434  -9.474  1.00  0.00    -0.545 OA
ENDBRANCH   5  10
ENDBRANCH   2   4
ENDBRANCH   1   2
BRANCH   1  13
ATOM     13  C   UNL     1      33.315  19.468 -13.715  1.00  0.00     0.008 C 
BRANCH  13  14
ATOM     14  C   UNL     1      32.188  19.509 -14.752  1.00  0.00    -0.003 C 
ATOM     15  C   UNL     1      30.988  18.685 -14.293  1.00  0.00     0.004 C 
ENDBRANCH  13  14
ENDBRANCH   1  13
TORSDOF 5
ENDMDL
MODEL 4
REMARK VINA RESULT:    -5.236      1.946      3.014
REMARK INTER + INTRA:          -7.463
REMARK INTER:                  -6.907
REMARK INTRA:                  -0.557
REMARK UNBOUND:                -0.697
REMARK SMILES CCCCC(=O)c1ccccc1C(=O)[O-]
REMARK SMILES IDX 4 1 5 2 6 3 7 4 12 5 11 6 10 7 8 8 9 9 13 10 14 11 15 12
REMARK SMILES IDX 3 13 2 14 1 15
REMARK H PARENT
REMARK Flexibility Score: inf
ROOT
ATOM      1  C   UNL     1      31.569  17.594 -10.638  1.00  0.00     0.081 C 
ENDROOT
BRANCH   1   2
ATOM      2  C   UNL     1      31.124  18.898 -11.239  1.00  0.00     0.163 C 
ATOM      3  O   UNL     1      31.084  19.928 -10.514  1.00  0.00    -0.294 OA
BRANCH   2   4
ATOM      4  C   UNL     1      30.685  18.981 -12.651  1.00  0.00     0.027 A 
ATOM      5  C   UNL     1      31.603  19.156 -13.724  1.00  0.00     0.008 A 
ATOM      6  C   UNL     1      31.122  19.123 -15.046  1.00  0.00     0.011 A 
ATOM      7  C   UNL     1      29.763  18.946 -15.307  1.00  0.00     0.001 A 
ATOM      8  C   UNL     1      29.319  18.805 -12.937  1.00  0.00     0.012 A 
ATOM      9  C   UNL     1      28.864  18.792 -14.256  1.00  0.00     0.001 A 
BRANCH   5  10
ATOM     10  C   UNL     1      33.049  19.420 -13.512  1.00  0.00     0.072 C 
ATOM     11  O   UNL     1      33.894  18.488 -13.564  1.00  0.00    -0.545 OA
ATOM     12  O   UNL     1      33.487  20.703 -13.204  1.00  0.00    -0.545 OA
ENDBRANCH   5  10
ENDBRANCH   2   4
ENDBRANCH   1   2
BRANCH   1  13
ATOM     13  C   UNL     1      30.891  17.372  -9.282  1.00  0.00     0.008 C 
BRANCH  13  14
ATOM     14  C   UNL     1      31.920  17.013  -8.205  1.00  0.00    -0.003 C 
ATOM     15  C   UNL     1      33.199  17.827  -8.374  1.00  0.00     0.004 C 
ENDBRANCH  13  14
ENDBRANCH   1  13
TORSDOF 5
ENDMDL
MODEL 5
REMARK VINA RESULT:    -5.187      0.968      2.877
REMARK INTER + INTRA:          -7.400
REMARK INTER:                  -6.774
REMARK INTRA:                  -0.627
REMARK UNBOUND:                -0.697
REMARK SMILES CCCCC(=O)c1ccccc1C(=O)[O-]
REMARK SMILES IDX 4 1 5 2 6 3 7 4 12 5 11 6 10 7 8 8 9 9 13 10 14 11 15 12
REMARK SMILES IDX 3 13 2 14 1 15
REMARK H PARENT
REMARK Flexibility Score: inf
ROOT
ATOM      1  C   UNL     1      31.393  17.301 -10.471  1.00  0.00     0.081 C 
ENDROOT
BRANCH   1   2
ATOM      2  C   UNL     1      30.843  18.508 -11.178  1.00  0.00     0.163 C 
ATOM      3  O   UNL     1      29.702  18.939 -10.862  1.00  0.00    -0.294 OA
BRANCH   2   4
ATOM      4  C   UNL     1      31.597  19.166 -12.270  1.00  0.00     0.027 A 
ATOM      5  C   UNL     1      32.617  20.125 -12.020  1.00  0.00     0.008 A 
ATOM      6  C   UNL     1      33.359  20.630 -13.104  1.00  0.00     0.011 A 
ATOM      7  C   UNL     1      33.086  20.219 -14.409  1.00  0.00     0.001 A 
ATOM      8  C   UNL     1      31.338  18.767 -13.595  1.00  0.00     0.012 A 
ATOM      9  C   UNL     1      32.075  19.295 -14.654  1.00  0.00     0.001 A 
BRANCH   5  10
ATOM     10  C   UNL     1      32.910  20.655 -10.664  1.00  0.00     0.072 C 
ATOM     11  O   UNL     1      32.001  21.156  -9.951  1.00  0.00    -0.545 OA
ATOM     12  O   UNL     1      34.214  20.650 -10.180  1.00  0.00    -0.545 OA
ENDBRANCH   5  10
ENDBRANCH   2   4
ENDBRANCH   1   2
BRANCH   1  13
ATOM     13  C   UNL     1      31.139  17.402  -8.964  1.00  0.00     0.008 C 
BRANCH  13  14
ATOM     14  C   UNL     1      32.401  17.852  -8.222  1.00  0.00    -0.003 C 
ATOM     15  C   UNL     1      33.661  17.421  -8.967  1.00  0.00     0.004 C 
ENDBRANCH  13  14
ENDBRANCH   1  13
TORSDOF 5
ENDMDL
MODEL 6
REMARK VINA RESULT:    -5.168      2.016      3.942
REMARK INTER + INTRA:          -7.376
REMARK INTER:                  -6.685
REMARK INTRA:                  -0.691
REMARK UNBOUND:                -0.697
REMARK SMILES CCCCC(=O)c1ccccc1C(=O)[O-]
REMARK SMILES IDX 4 1 5 2 6 3 7 4 12 5 11 6 10 7 8 8 9 9 13 10 14 11 15 12
REMARK SMILES IDX 3 13 2 14 1 15
REMARK H PARENT
REMARK Flexibility Score: inf
ROOT
ATOM      1  C   UNL     1      30.455  17.933 -11.604  1.00  0.00     0.081 C 
ENDROOT
BRANCH   1   2
ATOM      2  C   UNL     1      31.943  18.132 -11.673  1.00  0.00     0.163 C 
ATOM      3  O   UNL     1      32.696  17.384 -10.993  1.00  0.00    -0.294 OA
BRANCH   2   4
ATOM      4  C   UNL     1      32.534  19.221 -12.485  1.00  0.00     0.027 A 
ATOM      5  C   UNL     1      33.234  20.312 -11.899  1.00  0.00     0.008 A 
ATOM      6  C   UNL     1      33.855  21.254 -12.740  1.00  0.00     0.011 A 
ATOM      7  C   UNL     1      33.770  21.138 -14.128  1.00  0.00     0.001 A 
ATOM      8  C   UNL     1      32.459  19.125 -13.886  1.00  0.00     0.012 A 
ATOM      9  C   UNL     1      33.069  20.080 -14.699  1.00  0.00     0.001 A 
BRANCH   5  10
ATOM     10  C   UNL     1      33.303  20.531 -10.432  1.00  0.00     0.072 C 
ATOM     11  O   UNL     1      34.294  20.141  -9.761  1.00  0.00    -0.545 OA
ATOM     12  O   UNL     1      32.240  21.134  -9.766  1.00  0.00    -0.545 OA
ENDBRANCH   5  10
ENDBRANCH   2   4
ENDBRANCH   1   2
BRANCH   1  13
ATOM     13  C   UNL     1      29.742  19.280 -11.447  1.00  0.00     0.008 C 
BRANCH  13  14
ATOM     14  C   UNL     1      28.331  19.229 -12.042  1.00  0.00    -0.003 C 
ATOM     15  C   UNL     1      28.379  19.032 -13.554  1.00  0.00     0.004 C 
ENDBRANCH  13  14
ENDBRANCH   1  13
TORSDOF 5
ENDMDL
MODEL 7
REMARK VINA RESULT:    -5.127      0.952      1.830
REMARK INTER + INTRA:          -7.323
REMARK INTER:                  -6.618
REMARK INTRA:                  -0.705
REMARK UNBOUND:                -0.697
REMARK SMILES CCCCC(=O)c1ccccc1C(=O)[O-]
REMARK SMILES IDX 4 1 5 2 6 3 7 4 12 5 11 6 10 7 8 8 9 9 13 10 14 11 15 12
REMARK SMILES IDX 3 13 2 14 1 15
REMARK H PARENT
REMARK Flexibility Score: inf
ROOT
ATOM      1  C   UNL     1      33.000  19.010  -9.199  1.00  0.00     0.081 C 
ENDROOT
BRANCH   1   2
ATOM      2  C   UNL     1      32.466  20.037 -10.157  1.00  0.00     0.163 C 
ATOM      3  O   UNL     1      31.932  21.085  -9.703  1.00  0.00    -0.294 OA
BRANCH   2   4
ATOM      4  C   UNL     1      32.510  19.816 -11.621  1.00  0.00     0.027 A 
ATOM      5  C   UNL     1      31.564  18.994 -12.295  1.00  0.00     0.008 A 
ATOM      6  C   UNL     1      31.609  18.914 -13.699  1.00  0.00     0.011 A 
ATOM      7  C   UNL     1      32.578  19.608 -14.424  1.00  0.00     0.001 A 
ATOM      8  C   UNL     1      33.480  20.506 -12.371  1.00  0.00     0.012 A 
ATOM      9  C   UNL     1      33.514  20.397 -13.762  1.00  0.00     0.001 A 
BRANCH   5  10
ATOM     10  C   UNL     1      30.553  18.176 -11.579  1.00  0.00     0.072 C 
ATOM     11  O   UNL     1      29.411  18.635 -11.318  1.00  0.00    -0.545 OA
ATOM     12  O   UNL     1      30.876  16.895 -11.142  1.00  0.00    -0.545 OA
ENDBRANCH   5  10
ENDBRANCH   2   4
ENDBRANCH   1   2
BRANCH   1  13
ATOM     13  C   UNL     1      34.270  18.364  -9.761  1.00  0.00     0.008 C 
BRANCH  13  14
ATOM     14  C   UNL     1      35.517  18.875  -9.033  1.00  0.00    -0.003 C 
ATOM     15  C   UNL     1      36.125  20.072  -9.758  1.00  0.00     0.004 C 
ENDBRANCH  13  14
ENDBRANCH   1  13
TORSDOF 5
ENDMDL
MODEL 8
REMARK VINA RESULT:    -5.077      1.900      2.772
REMARK INTER + INTRA:          -7.258
REMARK INTER:                  -6.461
REMARK INTRA:                  -0.797
REMARK UNBOUND:                -0.697
REMARK SMILES CCCCC(=O)c1ccccc1C(=O)[O-]
REMARK SMILES IDX 4 1 5 2 6 3 7 4 12 5 11 6 10 7 8 8 9 9 13 10 14 11 15 12
REMARK SMILES IDX 3 13 2 14 1 15
REMARK H PARENT
REMARK Flexibility Score: inf
ROOT
ATOM      1  C   UNL     1      33.840  19.180  -9.708  1.00  0.00     0.081 C 
ENDROOT
BRANCH   1   2
ATOM      2  C   UNL     1      32.959  20.162 -10.428  1.00  0.00     0.163 C 
ATOM      3  O   UNL     1      33.167  21.397 -10.282  1.00  0.00    -0.294 OA
BRANCH   2   4
ATOM      4  C   UNL     1      31.823  19.706 -11.261  1.00  0.00     0.027 A 
ATOM      5  C   UNL     1      31.986  19.313 -12.619  1.00  0.00     0.008 A 
ATOM      6  C   UNL     1      30.879  18.794 -13.316  1.00  0.00     0.011 A 
ATOM      7  C   UNL     1      29.633  18.686 -12.698  1.00  0.00     0.001 A 
ATOM      8  C   UNL     1      30.557  19.590 -10.659  1.00  0.00     0.012 A 
ATOM      9  C   UNL     1      29.471  19.088 -11.376  1.00  0.00     0.001 A 
BRANCH   5  10
ATOM     10  C   UNL     1      33.266  19.467 -13.355  1.00  0.00     0.072 C 
ATOM     11  O   UNL     1      34.083  18.514 -13.447  1.00  0.00    -0.545 OA
ATOM     12  O   UNL     1      33.604  20.694 -13.916  1.00  0.00    -0.545 OA
ENDBRANCH   5  10
ENDBRANCH   2   4
ENDBRANCH   1   2
BRANCH   1  13
ATOM     13  C   UNL     1      33.208  18.771  -8.374  1.00  0.00     0.008 C 
BRANCH  13  14
ATOM     14  C   UNL     1      32.978  17.258  -8.315  1.00  0.00    -0.003 C 
ATOM     15  C   UNL     1      31.490  16.929  -8.249  1.00  0.00     0.004 C 
ENDBRANCH  13  14
ENDBRANCH   1  13
TORSDOF 5
ENDMDL
MODEL 9
REMARK VINA RESULT:    -5.061      2.704      5.508
REMARK INTER + INTRA:          -7.238
REMARK INTER:                  -6.823
REMARK INTRA:                  -0.415
REMARK UNBOUND:                -0.697
REMARK SMILES CCCCC(=O)c1ccccc1C(=O)[O-]
REMARK SMILES IDX 4 1 5 2 6 3 7 4 12 5 11 6 10 7 8 8 9 9 13 10 14 11 15 12
REMARK SMILES IDX 3 13 2 14 1 15
REMARK H PARENT
REMARK Flexibility Score: inf
ROOT
ATOM      1  C   UNL     1      33.032  20.019 -15.133  1.00  0.00     0.081 C 
ENDROOT
BRANCH   1   2
ATOM      2  C   UNL     1      33.237  19.231 -13.870  1.00  0.00     0.163 C 
ATOM      3  O   UNL     1      34.275  18.526 -13.746  1.00  0.00    -0.294 OA
BRANCH   2   4
ATOM      4  C   UNL     1      32.220  19.228 -12.793  1.00  0.00     0.027 A 
ATOM      5  C   UNL     1      32.401  19.939 -11.574  1.00  0.00     0.008 A 
ATOM      6  C   UNL     1      31.348  19.973 -10.642  1.00  0.00     0.011 A 
ATOM      7  C   UNL     1      30.150  19.302 -10.892  1.00  0.00     0.001 A 
ATOM      8  C   UNL     1      31.005  18.557 -13.024  1.00  0.00     0.012 A 
ATOM      9  C   UNL     1      29.982  18.592 -12.077  1.00  0.00     0.001 A 
BRANCH   5  10
ATOM     10  C   UNL     1      33.674  20.615 -11.217  1.00  0.00     0.072 C 
ATOM     11  O   UNL     1      34.457  20.118 -10.366  1.00  0.00    -0.545 OA
ATOM     12  O   UNL     1      33.997  21.841 -11.788  1.00  0.00    -0.545 OA
ENDBRANCH   5  10
ENDBRANCH   2   4
ENDBRANCH   1   2
BRANCH   1  13
ATOM     13  C   UNL     1      34.243  20.916 -15.406  1.00  0.00     0.008 C 
BRANCH  13  14
ATOM     14  C   UNL     1      34.294  21.339 -16.878  1.00  0.00    -0.003 C 
ATOM     15  C   UNL     1      34.959  22.703 -17.036  1.00  0.00     0.004 C 
ENDBRANCH  13  14
ENDBRANCH   1  13
TORSDOF 5
ENDMDL
