MODEL 1
REMARK VINA RESULT:    -3.075      0.000      0.000
REMARK INTER + INTRA:          -3.814
REMARK INTER:                  -3.524
REMARK INTRA:                  -0.290
REMARK UNBOUND:                -0.290
REMARK SMILES O=C1C[C@H](c2ccc(O)cc2)Oc2cc(O)cc(O)c21
REMARK SMILES IDX 3 1 4 2 12 3 13 4 14 5 15 6 17 7 18 8 20 9 2 10 1 11 5 12
REMARK SMILES IDX 6 13 11 14 7 15 10 16 8 17 9 18 19 20 16 22
REMARK H PARENT 9 19 19 21 16 23
REMARK Flexibility Score: inf
ROOT
ATOM      1  C   UNL     1      50.735  52.468  52.092  1.00  0.00     0.131 C 
ATOM      2  C   UNL     1      50.712  52.397  50.562  1.00  0.00     0.211 C 
ATOM      3  O   UNL     1      50.349  53.665  50.019  1.00  0.00    -0.484 OA
ATOM      4  C   UNL     1      49.295  54.422  50.545  1.00  0.00     0.138 A 
ATOM      5  C   UNL     1      48.796  55.487  49.794  1.00  0.00     0.093 A 
ATOM      6  C   UNL     1      47.734  56.251  50.274  1.00  0.00     0.123 A 
ATOM      7  C   UNL     1      47.160  55.941  51.509  1.00  0.00     0.093 A 
ATOM      8  C   UNL     1      47.641  54.876  52.282  1.00  0.00     0.133 A 
ATOM      9  C   UNL     1      48.754  54.117  51.817  1.00  0.00     0.102 A 
ATOM     10  C   UNL     1      49.453  53.059  52.606  1.00  0.00     0.174 C 
ATOM     11  O   UNL     1      49.046  52.696  53.740  1.00  0.00    -0.294 OA
ENDROOT
BRANCH   2  12
ATOM     12  C   UNL     1      52.057  51.969  50.025  1.00  0.00    -0.007 A 
ATOM     13  C   UNL     1      53.173  51.917  50.877  1.00  0.00     0.011 A 
ATOM     14  C   UNL     1      52.222  51.674  48.661  1.00  0.00     0.011 A 
ATOM     15  C   UNL     1      54.427  51.549  50.378  1.00  0.00     0.046 A 
ATOM     16  C   UNL     1      53.478  51.307  48.164  1.00  0.00     0.046 A 
ATOM     17  C   UNL     1      54.582  51.242  49.020  1.00  0.00     0.115 A 
BRANCH  17  18
ATOM     18  O   UNL     1      55.825  50.875  48.511  1.00  0.00    -0.508 OA
ATOM     19  H   UNL     1      56.098  49.902  48.432  1.00  0.00     0.293 HD
ENDBRANCH  17  18
ENDBRANCH   2  12
BRANCH   8  20
ATOM     20  O   UNL     1      46.972  54.623  53.483  1.00  0.00    -0.507 OA
ATOM     21  H   UNL     1      47.350  54.102  54.258  1.00  0.00     0.293 HD
ENDBRANCH   8  20
BRANCH   6  22
ATOM     22  O   UNL     1      47.251  57.312  49.511  1.00  0.00    -0.508 OA
ATOM     23  H   UNL     1      47.623  57.516  48.591  1.00  0.00     0.293 HD
ENDBRANCH   6  22
TORSDOF 4
ENDMDL
MODEL 2
REMARK VINA RESULT:    -2.177     17.512     19.084
REMARK INTER + INTRA:          -2.785
REMARK INTER:                  -2.496
REMARK INTRA:                  -0.289
REMARK UNBOUND:                -0.290
REMARK SMILES O=C1C[C@H](c2ccc(O)cc2)Oc2cc(O)cc(O)c21
REMARK SMILES IDX 3 1 4 2 12 3 13 4 14 5 15 6 17 7 18 8 20 9 2 10 1 11 5 12
REMARK SMILES IDX 6 13 11 14 7 15 10 16 8 17 9 18 19 20 16 22
REMARK H PARENT 9 19 19 21 16 23
REMARK Flexibility Score: inf
ROOT
ATOM      1  C   UNL     1      52.004  69.197  58.934  1.00  0.00     0.131 C 
ATOM      2  C   UNL     1      53.428  69.745  59.075  1.00  0.00     0.211 C 
ATOM      3  O   UNL     1      53.822  69.735  60.446  1.00  0.00    -0.484 OA
ATOM      4  C   UNL     1      52.967  70.170  61.466  1.00  0.00     0.138 A 
ATOM      5  C   UNL     1      53.506  70.425  62.728  1.00  0.00     0.093 A 
ATOM      6  C   UNL     1      52.692  70.878  63.763  1.00  0.00     0.123 A 
ATOM      7  C   UNL     1      51.330  71.089  63.533  1.00  0.00     0.093 A 
ATOM      8  C   UNL     1      50.765  70.843  62.275  1.00  0.00     0.133 A 
ATOM      9  C   UNL     1      51.583  70.338  61.223  1.00  0.00     0.102 A 
ATOM     10  C   UNL     1      51.078  69.897  59.888  1.00  0.00     0.174 C 
ATOM     11  O   UNL     1      49.870  70.018  59.560  1.00  0.00    -0.294 OA
ENDROOT
BRANCH   2  12
ATOM     12  C   UNL     1      54.398  68.934  58.250  1.00  0.00    -0.007 A 
ATOM     13  C   UNL     1      54.718  67.619  58.627  1.00  0.00     0.011 A 
ATOM     14  C   UNL     1      55.035  69.501  57.132  1.00  0.00     0.011 A 
ATOM     15  C   UNL     1      55.639  66.874  57.883  1.00  0.00     0.046 A 
ATOM     16  C   UNL     1      55.955  68.754  56.390  1.00  0.00     0.046 A 
ATOM     17  C   UNL     1      56.259  67.440  56.761  1.00  0.00     0.115 A 
BRANCH  17  18
ATOM     18  O   UNL     1      57.177  66.708  56.012  1.00  0.00    -0.508 OA
ATOM     19  H   UNL     1      58.121  66.546  56.343  1.00  0.00     0.293 HD
ENDBRANCH  17  18
ENDBRANCH   2  12
BRANCH   8  20
ATOM     20  O   UNL     1      49.402  71.125  62.137  1.00  0.00    -0.507 OA
ATOM     21  H   UNL     1      49.020  72.017  61.867  1.00  0.00     0.293 HD
ENDBRANCH   8  20
BRANCH   6  22
ATOM     22  O   UNL     1      53.248  71.125  65.017  1.00  0.00    -0.508 OA
ATOM     23  H   UNL     1      53.033  70.539  65.816  1.00  0.00     0.293 HD
ENDBRANCH   6  22
TORSDOF 4
ENDMDL
MODEL 3
REMARK VINA RESULT:    -1.770     15.668     17.727
REMARK INTER + INTRA:          -2.319
REMARK INTER:                  -2.034
REMARK INTRA:                  -0.285
REMARK UNBOUND:                -0.290
REMARK SMILES O=C1C[C@H](c2ccc(O)cc2)Oc2cc(O)cc(O)c21
REMARK SMILES IDX 3 1 4 2 12 3 13 4 14 5 15 6 17 7 18 8 20 9 2 10 1 11 5 12
REMARK SMILES IDX 6 13 11 14 7 15 10 16 8 17 9 18 19 20 16 22
REMARK H PARENT 9 19 19 21 16 23
REMARK Flexibility Score: inf
ROOT
ATOM      1  C   UNL     1      56.129  68.668  57.151  1.00  0.00     0.131 C 
ATOM      2  C   UNL     1      54.759  68.103  57.543  1.00  0.00     0.211 C 
ATOM      3  O   UNL     1      54.890  66.744  57.955  1.00  0.00    -0.484 OA
ATOM      4  C   UNL     1      55.675  65.827  57.246  1.00  0.00     0.138 A 
ATOM      5  C   UNL     1      55.520  64.466  57.513  1.00  0.00     0.093 A 
ATOM      6  C   UNL     1      56.266  63.521  56.813  1.00  0.00     0.123 A 
ATOM      7  C   UNL     1      57.168  63.939  55.831  1.00  0.00     0.093 A 
ATOM      8  C   UNL     1      57.341  65.299  55.542  1.00  0.00     0.133 A 
ATOM      9  C   UNL     1      56.612  66.273  56.284  1.00  0.00     0.102 A 
ATOM     10  C   UNL     1      56.812  67.749  56.177  1.00  0.00     0.174 C 
ATOM     11  O   UNL     1      57.606  68.255  55.343  1.00  0.00    -0.294 OA
ENDROOT
BRANCH   2  12
ATOM     12  C   UNL     1      54.139  68.923  58.649  1.00  0.00    -0.007 A 
ATOM     13  C   UNL     1      54.911  69.317  59.754  1.00  0.00     0.011 A 
ATOM     14  C   UNL     1      52.773  69.254  58.614  1.00  0.00     0.011 A 
ATOM     15  C   UNL     1      54.333  70.052  60.795  1.00  0.00     0.046 A 
ATOM     16  C   UNL     1      52.198  69.988  59.657  1.00  0.00     0.046 A 
ATOM     17  C   UNL     1      52.975  70.390  60.748  1.00  0.00     0.115 A 
BRANCH  17  18
ATOM     18  O   UNL     1      52.389  71.121  61.777  1.00  0.00    -0.508 OA
ATOM     19  H   UNL     1      51.808  70.676  62.480  1.00  0.00     0.293 HD
ENDBRANCH  17  18
ENDBRANCH   2  12
BRANCH   8  20
ATOM     20  O   UNL     1      58.236  65.610  54.514  1.00  0.00    -0.507 OA
ATOM     21  H   UNL     1      58.508  66.542  54.245  1.00  0.00     0.293 HD
ENDBRANCH   8  20
BRANCH   6  22
ATOM     22  O   UNL     1      56.100  62.166  57.095  1.00  0.00    -0.508 OA
ATOM     23  H   UNL     1      56.157  61.812  58.043  1.00  0.00     0.293 HD
ENDBRANCH   6  22
TORSDOF 4
ENDMDL
MODEL 4
REMARK VINA RESULT:    -1.589     15.728     16.716
REMARK INTER + INTRA:          -2.112
REMARK INTER:                  -1.818
REMARK INTRA:                  -0.294
REMARK UNBOUND:                -0.290
REMARK SMILES O=C1C[C@H](c2ccc(O)cc2)Oc2cc(O)cc(O)c21
REMARK SMILES IDX 3 1 4 2 12 3 13 4 14 5 15 6 17 7 18 8 20 9 2 10 1 11 5 12
REMARK SMILES IDX 6 13 11 14 7 15 10 16 8 17 9 18 19 20 16 22
REMARK H PARENT 9 19 19 21 16 23
REMARK Flexibility Score: inf
ROOT
ATOM      1  C   UNL     1      56.378  68.414  56.250  1.00  0.00     0.131 C 
ATOM      2  C   UNL     1      57.773  67.881  55.905  1.00  0.00     0.211 C 
ATOM      3  O   UNL     1      57.680  66.541  55.426  1.00  0.00    -0.484 OA
ATOM      4  C   UNL     1      56.871  65.585  56.051  1.00  0.00     0.138 A 
ATOM      5  C   UNL     1      57.056  64.239  55.731  1.00  0.00     0.093 A 
ATOM      6  C   UNL     1      56.285  63.256  56.347  1.00  0.00     0.123 A 
ATOM      7  C   UNL     1      55.329  63.620  57.298  1.00  0.00     0.093 A 
ATOM      8  C   UNL     1      55.124  64.963  57.639  1.00  0.00     0.133 A 
ATOM      9  C   UNL     1      55.880  65.977  56.982  1.00  0.00     0.102 A 
ATOM     10  C   UNL     1      55.657  67.445  57.144  1.00  0.00     0.174 C 
ATOM     11  O   UNL     1      54.814  67.905  57.957  1.00  0.00    -0.294 OA
ENDROOT
BRANCH   2  12
ATOM     12  C   UNL     1      58.440  68.757  54.872  1.00  0.00    -0.007 A 
ATOM     13  C   UNL     1      58.122  68.612  53.511  1.00  0.00     0.011 A 
ATOM     14  C   UNL     1      59.426  69.686  55.249  1.00  0.00     0.011 A 
ATOM     15  C   UNL     1      58.759  69.400  52.547  1.00  0.00     0.046 A 
ATOM     16  C   UNL     1      60.061  70.473  54.283  1.00  0.00     0.046 A 
ATOM     17  C   UNL     1      59.730  70.334  52.932  1.00  0.00     0.115 A 
BRANCH  17  18
ATOM     18  O   UNL     1      60.370  71.125  51.982  1.00  0.00    -0.508 OA
ATOM     19  H   UNL     1      60.031  71.188  51.029  1.00  0.00     0.293 HD
ENDBRANCH  17  18
ENDBRANCH   2  12
BRANCH   8  20
ATOM     20  O   UNL     1      54.173  65.219  58.631  1.00  0.00    -0.507 OA
ATOM     21  H   UNL     1      54.331  65.778  59.454  1.00  0.00     0.293 HD
ENDBRANCH   8  20
BRANCH   6  22
ATOM     22  O   UNL     1      56.482  61.917  56.013  1.00  0.00    -0.508 OA
ATOM     23  H   UNL     1      55.842  61.195  56.322  1.00  0.00     0.293 HD
ENDBRANCH   6  22
TORSDOF 4
ENDMDL
MODEL 5
REMARK VINA RESULT:    -1.232      3.792      5.674
REMARK INTER + INTRA:          -1.702
REMARK INTER:                  -1.407
REMARK INTRA:                  -0.294
REMARK UNBOUND:                -0.290
REMARK SMILES O=C1C[C@H](c2ccc(O)cc2)Oc2cc(O)cc(O)c21
REMARK SMILES IDX 3 1 4 2 12 3 13 4 14 5 15 6 17 7 18 8 20 9 2 10 1 11 5 12
REMARK SMILES IDX 6 13 11 14 7 15 10 16 8 17 9 18 19 20 16 22
REMARK H PARENT 9 19 19 21 16 23
REMARK Flexibility Score: inf
ROOT
ATOM      1  C   UNL     1      51.459  52.892  53.741  1.00  0.00     0.131 C 
ATOM      2  C   UNL     1      52.884  52.358  53.557  1.00  0.00     0.211 C 
ATOM      3  O   UNL     1      53.229  52.349  52.173  1.00  0.00    -0.484 OA
ATOM      4  C   UNL     1      52.343  51.887  51.192  1.00  0.00     0.138 A 
ATOM      5  C   UNL     1      52.840  51.617  49.916  1.00  0.00     0.093 A 
ATOM      6  C   UNL     1      51.995  51.136  48.918  1.00  0.00     0.123 A 
ATOM      7  C   UNL     1      50.645  50.913  49.201  1.00  0.00     0.093 A 
ATOM      8  C   UNL     1      50.122  51.174  50.474  1.00  0.00     0.133 A 
ATOM      9  C   UNL     1      50.971  51.706  51.487  1.00  0.00     0.102 A 
ATOM     10  C   UNL     1      50.509  52.164  52.832  1.00  0.00     0.174 C 
ATOM     11  O   UNL     1      49.315  52.034  53.205  1.00  0.00    -0.294 OA
ENDROOT
BRANCH   2  12
ATOM     12  C   UNL     1      53.873  53.195  54.333  1.00  0.00    -0.007 A 
ATOM     13  C   UNL     1      54.344  54.406  53.800  1.00  0.00     0.011 A 
ATOM     14  C   UNL     1      54.376  52.747  55.567  1.00  0.00     0.011 A 
ATOM     15  C   UNL     1      55.283  55.169  54.502  1.00  0.00     0.046 A 
ATOM     16  C   UNL     1      55.314  53.513  56.267  1.00  0.00     0.046 A 
ATOM     17  C   UNL     1      55.769  54.725  55.738  1.00  0.00     0.115 A 
BRANCH  17  18
ATOM     18  O   UNL     1      56.703  55.476  56.446  1.00  0.00    -0.508 OA
ATOM     19  H   UNL     1      56.448  56.344  56.904  1.00  0.00     0.293 HD
ENDBRANCH  17  18
ENDBRANCH   2  12
BRANCH   8  20
ATOM     20  O   UNL     1      48.769  50.878  50.666  1.00  0.00    -0.507 OA
ATOM     21  H   UNL     1      48.003  51.484  50.417  1.00  0.00     0.293 HD
ENDBRANCH   8  20
BRANCH   6  22
ATOM     22  O   UNL     1      52.509  50.875  47.649  1.00  0.00    -0.508 OA
ATOM     23  H   UNL     1      53.219  51.467  47.233  1.00  0.00     0.293 HD
ENDBRANCH   6  22
TORSDOF 4
ENDMDL
MODEL 6
REMARK VINA RESULT:    -1.202      3.408      5.595
REMARK INTER + INTRA:          -1.668
REMARK INTER:                  -1.382
REMARK INTRA:                  -0.286
REMARK UNBOUND:                -0.290
REMARK SMILES O=C1C[C@H](c2ccc(O)cc2)Oc2cc(O)cc(O)c21
REMARK SMILES IDX 3 1 4 2 12 3 13 4 14 5 15 6 17 7 18 8 20 9 2 10 1 11 5 12
REMARK SMILES IDX 6 13 11 14 7 15 10 16 8 17 9 18 19 20 16 22
REMARK H PARENT 9 19 19 21 16 23
REMARK Flexibility Score: inf
ROOT
ATOM      1  C   UNL     1      50.888  52.095  52.988  1.00  0.00     0.131 C 
ATOM      2  C   UNL     1      52.269  51.432  52.945  1.00  0.00     0.211 C 
ATOM      3  O   UNL     1      52.845  51.584  51.649  1.00  0.00    -0.484 OA
ATOM      4  C   UNL     1      52.105  51.375  50.480  1.00  0.00     0.138 A 
ATOM      5  C   UNL     1      52.787  51.237  49.271  1.00  0.00     0.093 A 
ATOM      6  C   UNL     1      52.087  51.007  48.089  1.00  0.00     0.123 A 
ATOM      7  C   UNL     1      50.694  50.904  48.117  1.00  0.00     0.093 A 
ATOM      8  C   UNL     1      49.985  51.036  49.317  1.00  0.00     0.133 A 
ATOM      9  C   UNL     1      50.691  51.314  50.523  1.00  0.00     0.102 A 
ATOM     10  C   UNL     1      50.047  51.622  51.836  1.00  0.00     0.174 C 
ATOM     11  O   UNL     1      48.800  51.579  51.991  1.00  0.00    -0.294 OA
ENDROOT
BRANCH   2  12
ATOM     12  C   UNL     1      53.181  52.027  53.992  1.00  0.00    -0.007 A 
ATOM     13  C   UNL     1      53.540  53.383  53.927  1.00  0.00     0.011 A 
ATOM     14  C   UNL     1      53.725  51.222  55.008  1.00  0.00     0.011 A 
ATOM     15  C   UNL     1      54.408  53.931  54.877  1.00  0.00     0.046 A 
ATOM     16  C   UNL     1      54.593  51.772  55.957  1.00  0.00     0.046 A 
ATOM     17  C   UNL     1      54.935  53.126  55.895  1.00  0.00     0.115 A 
BRANCH  17  18
ATOM     18  O   UNL     1      55.800  53.661  56.847  1.00  0.00    -0.508 OA
ATOM     19  H   UNL     1      56.040  53.151  57.690  1.00  0.00     0.293 HD
ENDBRANCH  17  18
ENDBRANCH   2  12
BRANCH   8  20
ATOM     20  O   UNL     1      48.598  50.875  49.245  1.00  0.00    -0.507 OA
ATOM     21  H   UNL     1      48.049  50.960  48.405  1.00  0.00     0.293 HD
ENDBRANCH   8  20
BRANCH   6  22
ATOM     22  O   UNL     1      52.786  50.875  46.890  1.00  0.00    -0.508 OA
ATOM     23  H   UNL     1      52.367  50.437  46.078  1.00  0.00     0.293 HD
ENDBRANCH   6  22
TORSDOF 4
ENDMDL
MODEL 7
REMARK VINA RESULT:    -0.704     16.711     19.242
REMARK INTER + INTRA:          -1.097
REMARK INTER:                  -0.812
REMARK INTRA:                  -0.284
REMARK UNBOUND:                -0.290
REMARK SMILES O=C1C[C@H](c2ccc(O)cc2)Oc2cc(O)cc(O)c21
REMARK SMILES IDX 3 1 4 2 12 3 13 4 14 5 15 6 17 7 18 8 20 9 2 10 1 11 5 12
REMARK SMILES IDX 6 13 11 14 7 15 10 16 8 17 9 18 19 20 16 22
REMARK H PARENT 9 19 19 21 16 23
REMARK Flexibility Score: inf
ROOT
ATOM      1  C   UNL     1      54.034  70.684  58.476  1.00  0.00     0.131 C 
ATOM      2  C   UNL     1      52.898  69.673  58.663  1.00  0.00     0.211 C 
ATOM      3  O   UNL     1      53.435  68.372  58.899  1.00  0.00    -0.484 OA
ATOM      4  C   UNL     1      54.499  67.862  58.147  1.00  0.00     0.138 A 
ATOM      5  C   UNL     1      54.771  66.495  58.214  1.00  0.00     0.093 A 
ATOM      6  C   UNL     1      55.809  65.946  57.464  1.00  0.00     0.123 A 
ATOM      7  C   UNL     1      56.574  66.767  56.633  1.00  0.00     0.093 A 
ATOM      8  C   UNL     1      56.320  68.143  56.546  1.00  0.00     0.133 A 
ATOM      9  C   UNL     1      55.288  68.718  57.343  1.00  0.00     0.102 A 
ATOM     10  C   UNL     1      55.015  70.182  57.454  1.00  0.00     0.174 C 
ATOM     11  O   UNL     1      55.644  71.031  56.771  1.00  0.00    -0.294 OA
ENDROOT
BRANCH   2  12
ATOM     12  C   UNL     1      52.002  70.081  59.808  1.00  0.00    -0.007 A 
ATOM     13  C   UNL     1      52.549  70.687  60.951  1.00  0.00     0.011 A 
ATOM     14  C   UNL     1      50.623  69.809  59.770  1.00  0.00     0.011 A 
ATOM     15  C   UNL     1      51.727  71.040  62.027  1.00  0.00     0.046 A 
ATOM     16  C   UNL     1      49.804  70.162  60.847  1.00  0.00     0.046 A 
ATOM     17  C   UNL     1      50.351  70.778  61.976  1.00  0.00     0.115 A 
BRANCH  17  18
ATOM     18  O   UNL     1      49.522  71.125  63.040  1.00  0.00    -0.508 OA
ATOM     19  H   UNL     1      49.694  70.783  63.979  1.00  0.00     0.293 HD
ENDBRANCH  17  18
ENDBRANCH   2  12
BRANCH   8  20
ATOM     20  O   UNL     1      57.115  68.869  55.655  1.00  0.00    -0.507 OA
ATOM     21  H   UNL     1      57.944  68.520  55.200  1.00  0.00     0.293 HD
ENDBRANCH   8  20
BRANCH   6  22
ATOM     22  O   UNL     1      56.068  64.579  57.546  1.00  0.00    -0.508 OA
ATOM     23  H   UNL     1      56.641  64.106  56.856  1.00  0.00     0.293 HD
ENDBRANCH   6  22
TORSDOF 4
ENDMDL
MODEL 8
REMARK VINA RESULT:    -0.647     19.712     20.609
REMARK INTER + INTRA:          -1.032
REMARK INTER:                  -0.723
REMARK INTRA:                  -0.308
REMARK UNBOUND:                -0.290
REMARK SMILES O=C1C[C@H](c2ccc(O)cc2)Oc2cc(O)cc(O)c21
REMARK SMILES IDX 3 1 4 2 12 3 13 4 14 5 15 6 17 7 18 8 20 9 2 10 1 11 5 12
REMARK SMILES IDX 6 13 11 14 7 15 10 16 8 17 9 18 19 20 16 22
REMARK H PARENT 9 19 19 21 16 23
REMARK Flexibility Score: inf
ROOT
ATOM      1  C   UNL     1      66.245  68.129  51.544  1.00  0.00     0.131 C 
ATOM      2  C   UNL     1      65.112  67.229  51.038  1.00  0.00     0.211 C 
ATOM      3  O   UNL     1      63.977  68.021  50.691  1.00  0.00    -0.484 OA
ATOM      4  C   UNL     1      63.521  69.062  51.508  1.00  0.00     0.138 A 
ATOM      5  C   UNL     1      62.249  69.587  51.277  1.00  0.00     0.093 A 
ATOM      6  C   UNL     1      61.752  70.609  52.083  1.00  0.00     0.123 A 
ATOM      7  C   UNL     1      62.528  71.103  53.134  1.00  0.00     0.093 A 
ATOM      8  C   UNL     1      63.807  70.592  53.389  1.00  0.00     0.133 A 
ATOM      9  C   UNL     1      64.339  69.576  52.543  1.00  0.00     0.102 A 
ATOM     10  C   UNL     1      65.737  69.053  52.615  1.00  0.00     0.174 C 
ATOM     11  O   UNL     1      66.542  69.427  53.505  1.00  0.00    -0.294 OA
ENDROOT
BRANCH   2  12
ATOM     12  C   UNL     1      65.564  66.420  49.846  1.00  0.00    -0.007 A 
ATOM     13  C   UNL     1      64.927  66.576  48.603  1.00  0.00     0.011 A 
ATOM     14  C   UNL     1      66.585  65.463  49.976  1.00  0.00     0.011 A 
ATOM     15  C   UNL     1      65.322  65.807  47.504  1.00  0.00     0.046 A 
ATOM     16  C   UNL     1      66.978  64.695  48.875  1.00  0.00     0.046 A 
ATOM     17  C   UNL     1      66.351  64.865  47.638  1.00  0.00     0.115 A 
BRANCH  17  18
ATOM     18  O   UNL     1      66.753  64.094  46.550  1.00  0.00    -0.508 OA
ATOM     19  H   UNL     1      66.098  63.807  45.833  1.00  0.00     0.293 HD
ENDBRANCH  17  18
ENDBRANCH   2  12
BRANCH   8  20
ATOM     20  O   UNL     1      64.485  71.125  54.489  1.00  0.00    -0.507 OA
ATOM     21  H   UNL     1      65.463  70.989  54.688  1.00  0.00     0.293 HD
ENDBRANCH   8  20
BRANCH   6  22
ATOM     22  O   UNL     1      60.480  71.123  51.835  1.00  0.00    -0.508 OA
ATOM     23  H   UNL     1      59.965  70.879  50.997  1.00  0.00     0.293 HD
ENDBRANCH   6  22
TORSDOF 4
ENDMDL
MODEL 9
REMARK VINA RESULT:    -0.426     11.914     15.208
REMARK INTER + INTRA:          -0.779
REMARK INTER:                  -0.483
REMARK INTRA:                  -0.296
REMARK UNBOUND:                -0.290
REMARK SMILES O=C1C[C@H](c2ccc(O)cc2)Oc2cc(O)cc(O)c21
REMARK SMILES IDX 3 1 4 2 12 3 13 4 14 5 15 6 17 7 18 8 20 9 2 10 1 11 5 12
REMARK SMILES IDX 6 13 11 14 7 15 10 16 8 17 9 18 19 20 16 22
REMARK H PARENT 9 19 19 21 16 23
REMARK Flexibility Score: inf
ROOT
ATOM      1  C   UNL     1      60.498  51.303  60.348  1.00  0.00     0.131 C 
ATOM      2  C   UNL     1      60.721  52.143  59.086  1.00  0.00     0.211 C 
ATOM      3  O   UNL     1      61.891  51.696  58.401  1.00  0.00    -0.484 OA
ATOM      4  C   UNL     1      63.080  51.405  59.080  1.00  0.00     0.138 A 
ATOM      5  C   UNL     1      64.257  51.275  58.341  1.00  0.00     0.093 A 
ATOM      6  C   UNL     1      65.464  51.007  58.982  1.00  0.00     0.123 A 
ATOM      7  C   UNL     1      65.498  50.878  60.372  1.00  0.00     0.093 A 
ATOM      8  C   UNL     1      64.332  51.006  61.137  1.00  0.00     0.133 A 
ATOM      9  C   UNL     1      63.086  51.238  60.485  1.00  0.00     0.102 A 
ATOM     10  C   UNL     1      61.757  51.247  61.166  1.00  0.00     0.174 C 
ATOM     11  O   UNL     1      61.647  51.126  62.413  1.00  0.00    -0.294 OA
ENDROOT
BRANCH   2  12
ATOM     12  C   UNL     1      59.523  52.063  58.170  1.00  0.00    -0.007 A 
ATOM     13  C   UNL     1      58.538  53.065  58.207  1.00  0.00     0.011 A 
ATOM     14  C   UNL     1      59.348  50.963  57.313  1.00  0.00     0.011 A 
ATOM     15  C   UNL     1      57.412  52.981  57.382  1.00  0.00     0.046 A 
ATOM     16  C   UNL     1      58.221  50.881  56.490  1.00  0.00     0.046 A 
ATOM     17  C   UNL     1      57.252  51.888  56.521  1.00  0.00     0.115 A 
BRANCH  17  18
ATOM     18  O   UNL     1      56.135  51.793  55.694  1.00  0.00    -0.508 OA
ATOM     19  H   UNL     1      55.238  51.480  56.049  1.00  0.00     0.293 HD
ENDBRANCH  17  18
ENDBRANCH   2  12
BRANCH   8  20
ATOM     20  O   UNL     1      64.479  50.901  62.523  1.00  0.00    -0.507 OA
ATOM     21  H   UNL     1      63.877  50.369  63.131  1.00  0.00     0.293 HD
ENDBRANCH   8  20
BRANCH   6  22
ATOM     22  O   UNL     1      66.629  50.877  58.227  1.00  0.00    -0.508 OA
ATOM     23  H   UNL     1      67.419  51.498  58.362  1.00  0.00     0.293 HD
ENDBRANCH   6  22
TORSDOF 4
ENDMDL
