MODEL 1
REMARK VINA RESULT:    -3.980      0.000      0.000
REMARK INTER + INTRA:          -4.753
REMARK INTER:                  -4.679
REMARK INTRA:                  -0.075
REMARK UNBOUND:                -0.075
REMARK SMILES O=C([O-])CCC(=O)[O-]
REMARK SMILES IDX 4 1 2 2 1 3 3 4 5 5 6 6 7 7 8 8
REMARK H PARENT
REMARK Flexibility Score: inf
ROOT
ATOM      1  C   UNL     1      13.460  33.947  13.952  1.00  0.00     0.059 C 
ENDROOT
BRANCH   1   2
ATOM      2  C   UNL     1      13.182  32.647  13.259  1.00  0.00     0.042 C 
ATOM      3  O   UNL     1      13.725  32.390  12.152  1.00  0.00    -0.550 OA
ATOM      4  O   UNL     1      12.356  31.704  13.856  1.00  0.00    -0.550 OA
ENDBRANCH   1   2
BRANCH   1   5
ATOM      5  C   UNL     1      14.394  34.837  13.127  1.00  0.00     0.059 C 
BRANCH   5   6
ATOM      6  C   UNL     1      13.696  36.074  12.647  1.00  0.00     0.042 C 
ATOM      7  O   UNL     1      12.787  36.598  13.342  1.00  0.00    -0.550 OA
ATOM      8  O   UNL     1      14.023  36.623  11.414  1.00  0.00    -0.550 OA
ENDBRANCH   5   6
ENDBRANCH   1   5
TORSDOF 3
ENDMDL
MODEL 2
REMARK VINA RESULT:    -3.931      0.122      4.158
REMARK INTER + INTRA:          -4.695
REMARK INTER:                  -4.630
REMARK INTRA:                  -0.065
REMARK UNBOUND:                -0.075
REMARK SMILES O=C([O-])CCC(=O)[O-]
REMARK SMILES IDX 4 1 2 2 1 3 3 4 5 5 6 6 7 7 8 8
REMARK H PARENT
REMARK Flexibility Score: inf
ROOT
ATOM      1  C   UNL     1      14.319  34.816  12.944  1.00  0.00     0.059 C 
ENDROOT
BRANCH   1   2
ATOM      2  C   UNL     1      13.624  36.103  12.614  1.00  0.00     0.042 C 
ATOM      3  O   UNL     1      12.779  36.589  13.411  1.00  0.00    -0.550 OA
ATOM      4  O   UNL     1      13.941  36.784  11.446  1.00  0.00    -0.550 OA
ENDBRANCH   1   2
BRANCH   1   5
ATOM      5  C   UNL     1      13.455  33.922  13.839  1.00  0.00     0.059 C 
BRANCH   5   6
ATOM      6  C   UNL     1      13.208  32.585  13.211  1.00  0.00     0.042 C 
ATOM      7  O   UNL     1      13.711  32.309  12.090  1.00  0.00    -0.550 OA
ATOM      8  O   UNL     1      12.392  31.657  13.845  1.00  0.00    -0.550 OA
ENDBRANCH   5   6
ENDBRANCH   1   5
TORSDOF 3
ENDMDL
MODEL 3
REMARK VINA RESULT:    -3.655      1.432      2.044
REMARK INTER + INTRA:          -4.370
REMARK INTER:                  -4.271
REMARK INTRA:                  -0.099
REMARK UNBOUND:                -0.075
REMARK SMILES O=C([O-])CCC(=O)[O-]
REMARK SMILES IDX 4 1 2 2 1 3 3 4 5 5 6 6 7 7 8 8
REMARK H PARENT
REMARK Flexibility Score: inf
ROOT
ATOM      1  C   UNL     1      13.465  32.957  12.850  1.00  0.00     0.059 C 
ENDROOT
BRANCH   1   2
ATOM      2  C   UNL     1      14.759  32.202  12.795  1.00  0.00     0.042 C 
ATOM      3  O   UNL     1      15.815  32.719  13.248  1.00  0.00    -0.550 OA
ATOM      4  O   UNL     1      14.791  30.913  12.280  1.00  0.00    -0.550 OA
ENDBRANCH   1   2
BRANCH   1   5
ATOM      5  C   UNL     1      13.526  34.108  13.860  1.00  0.00     0.059 C 
BRANCH   5   6
ATOM      6  C   UNL     1      13.608  35.438  13.175  1.00  0.00     0.042 C 
ATOM      7  O   UNL     1      14.458  35.632  12.267  1.00  0.00    -0.550 OA
ATOM      8  O   UNL     1      12.774  36.476  13.569  1.00  0.00    -0.550 OA
ENDBRANCH   5   6
ENDBRANCH   1   5
TORSDOF 3
ENDMDL
MODEL 4
REMARK VINA RESULT:    -3.624     14.955     15.800
REMARK INTER + INTRA:          -4.334
REMARK INTER:                  -4.299
REMARK INTRA:                  -0.035
REMARK UNBOUND:                -0.075
REMARK SMILES O=C([O-])CCC(=O)[O-]
REMARK SMILES IDX 4 1 2 2 1 3 3 4 5 5 6 6 7 7 8 8
REMARK H PARENT
REMARK Flexibility Score: inf
ROOT
ATOM      1  C   UNL     1       4.896  46.364  10.265  1.00  0.00     0.059 C 
ENDROOT
BRANCH   1   2
ATOM      2  C   UNL     1       3.458  46.100  10.597  1.00  0.00     0.042 C 
ATOM      3  O   UNL     1       3.152  45.176  11.396  1.00  0.00    -0.550 OA
ATOM      4  O   UNL     1       2.461  46.901  10.055  1.00  0.00    -0.550 OA
ENDBRANCH   1   2
BRANCH   1   5
ATOM      5  C   UNL     1       5.035  47.415   9.158  1.00  0.00     0.059 C 
BRANCH   5   6
ATOM      6  C   UNL     1       6.371  48.093   9.205  1.00  0.00     0.042 C 
ATOM      7  O   UNL     1       6.478  49.303   8.875  1.00  0.00    -0.550 OA
ATOM      8  O   UNL     1       7.502  47.378   9.576  1.00  0.00    -0.550 OA
ENDBRANCH   5   6
ENDBRANCH   1   5
TORSDOF 3
ENDMDL
MODEL 5
REMARK VINA RESULT:    -3.623     14.945     16.065
REMARK INTER + INTRA:          -4.333
REMARK INTER:                  -4.296
REMARK INTRA:                  -0.037
REMARK UNBOUND:                -0.075
REMARK SMILES O=C([O-])CCC(=O)[O-]
REMARK SMILES IDX 4 1 2 2 1 3 3 4 5 5 6 6 7 7 8 8
REMARK H PARENT
REMARK Flexibility Score: inf
ROOT
ATOM      1  C   UNL     1       5.039  47.357   9.064  1.00  0.00     0.059 C 
ENDROOT
BRANCH   1   2
ATOM      2  C   UNL     1       6.359  48.064   9.138  1.00  0.00     0.042 C 
ATOM      3  O   UNL     1       6.441  49.286   8.842  1.00  0.00    -0.550 OA
ATOM      4  O   UNL     1       7.488  47.384   9.572  1.00  0.00    -0.550 OA
ENDBRANCH   1   2
BRANCH   1   5
ATOM      5  C   UNL     1       4.905  46.297  10.162  1.00  0.00     0.059 C 
BRANCH   5   6
ATOM      6  C   UNL     1       3.480  46.125  10.592  1.00  0.00     0.042 C 
ATOM      7  O   UNL     1       3.175  45.240  11.435  1.00  0.00    -0.550 OA
ATOM      8  O   UNL     1       2.484  46.915  10.034  1.00  0.00    -0.550 OA
ENDBRANCH   5   6
ENDBRANCH   1   5
TORSDOF 3
ENDMDL
MODEL 6
REMARK VINA RESULT:    -3.599     15.425     16.877
REMARK INTER + INTRA:          -4.304
REMARK INTER:                  -4.258
REMARK INTRA:                  -0.046
REMARK UNBOUND:                -0.075
REMARK SMILES O=C([O-])CCC(=O)[O-]
REMARK SMILES IDX 4 1 2 2 1 3 3 4 5 5 6 6 7 7 8 8
REMARK H PARENT
REMARK Flexibility Score: inf
ROOT
ATOM      1  C   UNL     1       5.186  47.219   9.288  1.00  0.00     0.059 C 
ENDROOT
BRANCH   1   2
ATOM      2  C   UNL     1       6.450  48.025   9.283  1.00  0.00     0.042 C 
ATOM      3  O   UNL     1       7.544  47.491   9.608  1.00  0.00    -0.550 OA
ATOM      4  O   UNL     1       6.427  49.354   8.879  1.00  0.00    -0.550 OA
ENDBRANCH   1   2
BRANCH   1   5
ATOM      5  C   UNL     1       4.169  47.760   8.277  1.00  0.00     0.059 C 
BRANCH   5   6
ATOM      6  C   UNL     1       2.763  47.446   8.688  1.00  0.00     0.042 C 
ATOM      7  O   UNL     1       2.521  47.024   9.849  1.00  0.00    -0.550 OA
ATOM      8  O   UNL     1       1.724  47.582   7.776  1.00  0.00    -0.550 OA
ENDBRANCH   5   6
ENDBRANCH   1   5
TORSDOF 3
ENDMDL
MODEL 7
REMARK VINA RESULT:    -3.573     13.515     15.169
REMARK INTER + INTRA:          -4.274
REMARK INTER:                  -4.233
REMARK INTRA:                  -0.041
REMARK UNBOUND:                -0.075
REMARK SMILES O=C([O-])CCC(=O)[O-]
REMARK SMILES IDX 4 1 2 2 1 3 3 4 5 5 6 6 7 7 8 8
REMARK H PARENT
REMARK Flexibility Score: inf
ROOT
ATOM      1  C   UNL     1       4.493  45.876   9.434  1.00  0.00     0.059 C 
ENDROOT
BRANCH   1   2
ATOM      2  C   UNL     1       5.153  47.189   9.140  1.00  0.00     0.042 C 
ATOM      3  O   UNL     1       6.293  47.445   9.610  1.00  0.00    -0.550 OA
ATOM      4  O   UNL     1       4.526  48.113   8.314  1.00  0.00    -0.550 OA
ENDBRANCH   1   2
BRANCH   1   5
ATOM      5  C   UNL     1       4.101  45.760  10.911  1.00  0.00     0.059 C 
BRANCH   5   6
ATOM      6  C   UNL     1       4.304  44.368  11.428  1.00  0.00     0.042 C 
ATOM      7  O   UNL     1       4.580  44.178  12.642  1.00  0.00    -0.550 OA
ATOM      8  O   UNL     1       4.227  43.285  10.562  1.00  0.00    -0.550 OA
ENDBRANCH   5   6
ENDBRANCH   1   5
TORSDOF 3
ENDMDL
MODEL 8
REMARK VINA RESULT:    -3.522     13.167     14.572
REMARK INTER + INTRA:          -4.214
REMARK INTER:                  -4.109
REMARK INTRA:                  -0.105
REMARK UNBOUND:                -0.075
REMARK SMILES O=C([O-])CCC(=O)[O-]
REMARK SMILES IDX 4 1 2 2 1 3 3 4 5 5 6 6 7 7 8 8
REMARK H PARENT
REMARK Flexibility Score: inf
ROOT
ATOM      1  C   UNL     1       4.159  44.525  11.801  1.00  0.00     0.059 C 
ENDROOT
BRANCH   1   2
ATOM      2  C   UNL     1       3.994  45.674  10.853  1.00  0.00     0.042 C 
ATOM      3  O   UNL     1       5.001  46.186  10.296  1.00  0.00    -0.550 OA
ATOM      4  O   UNL     1       2.725  46.151  10.554  1.00  0.00    -0.550 OA
ENDBRANCH   1   2
BRANCH   1   5
ATOM      5  C   UNL     1       2.858  43.730  11.957  1.00  0.00     0.059 C 
BRANCH   5   6
ATOM      6  C   UNL     1       2.910  42.434  11.206  1.00  0.00     0.042 C 
ATOM      7  O   UNL     1       3.081  41.351  11.824  1.00  0.00    -0.550 OA
ATOM      8  O   UNL     1       2.809  42.427   9.821  1.00  0.00    -0.550 OA
ENDBRANCH   5   6
ENDBRANCH   1   5
TORSDOF 3
ENDMDL
MODEL 9
REMARK VINA RESULT:    -3.506     13.235     14.184
REMARK INTER + INTRA:          -4.195
REMARK INTER:                  -4.089
REMARK INTRA:                  -0.107
REMARK UNBOUND:                -0.075
REMARK SMILES O=C([O-])CCC(=O)[O-]
REMARK SMILES IDX 4 1 2 2 1 3 3 4 5 5 6 6 7 7 8 8
REMARK H PARENT
REMARK Flexibility Score: inf
ROOT
ATOM      1  C   UNL     1       2.827  43.752  11.946  1.00  0.00     0.059 C 
ENDROOT
BRANCH   1   2
ATOM      2  C   UNL     1       2.859  42.466  11.177  1.00  0.00     0.042 C 
ATOM      3  O   UNL     1       3.004  41.370  11.780  1.00  0.00    -0.550 OA
ATOM      4  O   UNL     1       2.686  42.475   9.799  1.00  0.00    -0.550 OA
ENDBRANCH   1   2
BRANCH   1   5
ATOM      5  C   UNL     1       4.122  44.550  11.763  1.00  0.00     0.059 C 
BRANCH   5   6
ATOM      6  C   UNL     1       3.933  45.703  10.825  1.00  0.00     0.042 C 
ATOM      7  O   UNL     1       2.781  46.163  10.611  1.00  0.00    -0.550 OA
ATOM      8  O   UNL     1       5.024  46.244  10.157  1.00  0.00    -0.550 OA
ENDBRANCH   5   6
ENDBRANCH   1   5
TORSDOF 3
ENDMDL
