MODEL 1
REMARK VINA RESULT:    -3.235      0.000      0.000
REMARK INTER + INTRA:          -4.681
REMARK INTER:                  -4.370
REMARK INTRA:                  -0.311
REMARK UNBOUND:                -0.311
REMARK SMILES CCCCCCCC(=O)[O-]
REMARK SMILES IDX 5 1 6 2 7 3 8 4 9 5 10 6 4 7 3 8 2 9 1 10
REMARK H PARENT
REMARK Flexibility Score: inf
ROOT
ATOM      1  C   UNL     1     -19.378 -19.476   1.732  1.00  0.00     0.000 C 
ENDROOT
BRANCH   1   2
ATOM      2  C   UNL     1     -20.610 -19.552   0.816  1.00  0.00     0.006 C 
BRANCH   2   3
ATOM      3  C   UNL     1     -21.373 -20.875   0.961  1.00  0.00     0.053 C 
BRANCH   3   4
ATOM      4  C   UNL     1     -21.810 -21.375  -0.379  1.00  0.00     0.041 C 
ATOM      5  O   UNL     1     -21.524 -20.728  -1.421  1.00  0.00    -0.550 OA
ATOM      6  O   UNL     1     -22.578 -22.528  -0.474  1.00  0.00    -0.550 OA
ENDBRANCH   3   4
ENDBRANCH   2   3
ENDBRANCH   1   2
BRANCH   1   7
ATOM      7  C   UNL     1     -19.421 -20.507   2.870  1.00  0.00     0.000 C 
BRANCH   7   8
ATOM      8  C   UNL     1     -18.019 -21.046   3.176  1.00  0.00    -0.000 C 
BRANCH   8   9
ATOM      9  C   UNL     1     -16.947 -20.260   2.413  1.00  0.00    -0.003 C 
ATOM     10  C   UNL     1     -15.697 -20.062   3.266  1.00  0.00     0.004 C 
ENDBRANCH   8   9
ENDBRANCH   7   8
ENDBRANCH   1   7
TORSDOF 6
ENDMDL
MODEL 2
REMARK VINA RESULT:    -3.233      3.664      5.558
REMARK INTER + INTRA:          -4.678
REMARK INTER:                  -4.321
REMARK INTRA:                  -0.357
REMARK UNBOUND:                -0.311
REMARK SMILES CCCCCCCC(=O)[O-]
REMARK SMILES IDX 5 1 6 2 7 3 8 4 9 5 10 6 4 7 3 8 2 9 1 10
REMARK H PARENT
REMARK Flexibility Score: inf
ROOT
ATOM      1  C   UNL     1     -19.190 -18.649   1.730  1.00  0.00     0.000 C 
ENDROOT
BRANCH   1   2
ATOM      2  C   UNL     1     -17.700 -18.469   2.064  1.00  0.00     0.006 C 
BRANCH   2   3
ATOM      3  C   UNL     1     -16.930 -19.796   2.065  1.00  0.00     0.053 C 
BRANCH   3   4
ATOM      4  C   UNL     1     -16.172 -19.958   3.344  1.00  0.00     0.041 C 
ATOM      5  O   UNL     1     -16.769 -19.880   4.449  1.00  0.00    -0.550 OA
ATOM      6  O   UNL     1     -14.795 -20.144   3.317  1.00  0.00    -0.550 OA
ENDBRANCH   3   4
ENDBRANCH   2   3
ENDBRANCH   1   2
BRANCH   1   7
ATOM      7  C   UNL     1     -19.740 -20.007   2.193  1.00  0.00     0.000 C 
BRANCH   7   8
ATOM      8  C   UNL     1     -20.943 -20.431   1.343  1.00  0.00    -0.000 C 
BRANCH   8   9
ATOM      9  C   UNL     1     -20.971 -19.672   0.011  1.00  0.00    -0.003 C 
ATOM     10  C   UNL     1     -21.530 -20.545  -1.109  1.00  0.00     0.004 C 
ENDBRANCH   8   9
ENDBRANCH   7   8
ENDBRANCH   1   7
TORSDOF 6
ENDMDL
MODEL 3
REMARK VINA RESULT:    -3.213      0.994      1.697
REMARK INTER + INTRA:          -4.651
REMARK INTER:                  -4.416
REMARK INTRA:                  -0.235
REMARK UNBOUND:                -0.311
REMARK SMILES CCCCCCCC(=O)[O-]
REMARK SMILES IDX 5 1 6 2 7 3 8 4 9 5 10 6 4 7 3 8 2 9 1 10
REMARK H PARENT
REMARK Flexibility Score: inf
ROOT
ATOM      1  C   UNL     1     -20.022 -19.117   1.896  1.00  0.00     0.000 C 
ENDROOT
BRANCH   1   2
ATOM      2  C   UNL     1     -20.700 -19.608   0.607  1.00  0.00     0.006 C 
BRANCH   2   3
ATOM      3  C   UNL     1     -21.592 -20.834   0.838  1.00  0.00     0.053 C 
BRANCH   3   4
ATOM      4  C   UNL     1     -21.976 -21.454  -0.468  1.00  0.00     0.041 C 
ATOM      5  O   UNL     1     -22.555 -22.571  -0.492  1.00  0.00    -0.550 OA
ATOM      6  O   UNL     1     -21.648 -20.822  -1.660  1.00  0.00    -0.550 OA
ENDBRANCH   3   4
ENDBRANCH   2   3
ENDBRANCH   1   2
BRANCH   1   7
ATOM      7  C   UNL     1     -18.992 -18.007   1.638  1.00  0.00     0.000 C 
BRANCH   7   8
ATOM      8  C   UNL     1     -17.667 -18.312   2.347  1.00  0.00    -0.000 C 
BRANCH   8   9
ATOM      9  C   UNL     1     -17.008 -19.568   1.766  1.00  0.00    -0.003 C 
ATOM     10  C   UNL     1     -16.091 -20.232   2.789  1.00  0.00     0.004 C 
ENDBRANCH   8   9
ENDBRANCH   7   8
ENDBRANCH   1   7
TORSDOF 6
ENDMDL
MODEL 4
REMARK VINA RESULT:    -3.183      0.671      1.244
REMARK INTER + INTRA:          -4.610
REMARK INTER:                  -4.292
REMARK INTRA:                  -0.318
REMARK UNBOUND:                -0.311
REMARK SMILES CCCCCCCC(=O)[O-]
REMARK SMILES IDX 5 1 6 2 7 3 8 4 9 5 10 6 4 7 3 8 2 9 1 10
REMARK H PARENT
REMARK Flexibility Score: inf
ROOT
ATOM      1  C   UNL     1     -20.044 -19.781   2.147  1.00  0.00     0.000 C 
ENDROOT
BRANCH   1   2
ATOM      2  C   UNL     1     -20.732 -20.055   0.800  1.00  0.00     0.006 C 
BRANCH   2   3
ATOM      3  C   UNL     1     -21.696 -21.247   0.861  1.00  0.00     0.053 C 
BRANCH   3   4
ATOM      4  C   UNL     1     -22.039 -21.712  -0.519  1.00  0.00     0.041 C 
ATOM      5  O   UNL     1     -22.577 -22.836  -0.693  1.00  0.00    -0.550 OA
ATOM      6  O   UNL     1     -21.716 -20.925  -1.618  1.00  0.00    -0.550 OA
ENDBRANCH   3   4
ENDBRANCH   2   3
ENDBRANCH   1   2
BRANCH   1   7
ATOM      7  C   UNL     1     -19.851 -21.055   2.983  1.00  0.00     0.000 C 
BRANCH   7   8
ATOM      8  C   UNL     1     -18.366 -21.425   3.085  1.00  0.00    -0.000 C 
BRANCH   8   9
ATOM      9  C   UNL     1     -17.492 -20.171   3.198  1.00  0.00    -0.003 C 
ATOM     10  C   UNL     1     -16.362 -20.193   2.173  1.00  0.00     0.004 C 
ENDBRANCH   8   9
ENDBRANCH   7   8
ENDBRANCH   1   7
TORSDOF 6
ENDMDL
MODEL 5
REMARK VINA RESULT:    -3.159      3.268      5.412
REMARK INTER + INTRA:          -4.577
REMARK INTER:                  -4.247
REMARK INTRA:                  -0.330
REMARK UNBOUND:                -0.311
REMARK SMILES CCCCCCCC(=O)[O-]
REMARK SMILES IDX 5 1 6 2 7 3 8 4 9 5 10 6 4 7 3 8 2 9 1 10
REMARK H PARENT
REMARK Flexibility Score: inf
ROOT
ATOM      1  C   UNL     1     -19.750 -20.791   2.552  1.00  0.00     0.000 C 
ENDROOT
BRANCH   1   2
ATOM      2  C   UNL     1     -18.386 -21.237   3.104  1.00  0.00     0.006 C 
BRANCH   2   3
ATOM      3  C   UNL     1     -17.475 -20.053   3.453  1.00  0.00     0.053 C 
BRANCH   3   4
ATOM      4  C   UNL     1     -16.182 -20.153   2.708  1.00  0.00     0.041 C 
ATOM      5  O   UNL     1     -16.180 -20.276   1.455  1.00  0.00    -0.550 OA
ATOM      6  O   UNL     1     -14.978 -20.160   3.402  1.00  0.00    -0.550 OA
ENDBRANCH   3   4
ENDBRANCH   2   3
ENDBRANCH   1   2
BRANCH   1   7
ATOM      7  C   UNL     1     -19.687 -19.426   1.849  1.00  0.00     0.000 C 
BRANCH   7   8
ATOM      8  C   UNL     1     -20.628 -19.387   0.640  1.00  0.00    -0.000 C 
BRANCH   8   9
ATOM      9  C   UNL     1     -21.383 -20.712   0.486  1.00  0.00    -0.003 C 
ATOM     10  C   UNL     1     -21.733 -20.981  -0.975  1.00  0.00     0.004 C 
ENDBRANCH   8   9
ENDBRANCH   7   8
ENDBRANCH   1   7
TORSDOF 6
ENDMDL
MODEL 6
REMARK VINA RESULT:    -3.058      8.063      9.075
REMARK INTER + INTRA:          -4.441
REMARK INTER:                  -4.048
REMARK INTRA:                  -0.393
REMARK UNBOUND:                -0.311
REMARK SMILES CCCCCCCC(=O)[O-]
REMARK SMILES IDX 5 1 6 2 7 3 8 4 9 5 10 6 4 7 3 8 2 9 1 10
REMARK H PARENT
REMARK Flexibility Score: inf
ROOT
ATOM      1  C   UNL     1     -18.497 -13.963  -3.475  1.00  0.00     0.000 C 
ENDROOT
BRANCH   1   2
ATOM      2  C   UNL     1     -19.214 -12.788  -2.793  1.00  0.00     0.006 C 
BRANCH   2   3
ATOM      3  C   UNL     1     -19.287 -11.542  -3.685  1.00  0.00     0.053 C 
BRANCH   3   4
ATOM      4  C   UNL     1     -20.306 -11.730  -4.763  1.00  0.00     0.041 C 
ATOM      5  O   UNL     1     -21.534 -11.690  -4.489  1.00  0.00    -0.550 OA
ATOM      6  O   UNL     1     -19.899 -12.001  -6.064  1.00  0.00    -0.550 OA
ENDBRANCH   3   4
ENDBRANCH   2   3
ENDBRANCH   1   2
BRANCH   1   7
ATOM      7  C   UNL     1     -17.220 -14.389  -2.734  1.00  0.00     0.000 C 
BRANCH   7   8
ATOM      8  C   UNL     1     -16.939 -13.461  -1.546  1.00  0.00    -0.000 C 
BRANCH   8   9
ATOM      9  C   UNL     1     -16.676 -14.265  -0.268  1.00  0.00    -0.003 C 
ATOM     10  C   UNL     1     -17.849 -15.185   0.056  1.00  0.00     0.004 C 
ENDBRANCH   8   9
ENDBRANCH   7   8
ENDBRANCH   1   7
TORSDOF 6
ENDMDL
MODEL 7
REMARK VINA RESULT:    -3.051      5.029      6.660
REMARK INTER + INTRA:          -4.433
REMARK INTER:                  -3.961
REMARK INTRA:                  -0.471
REMARK UNBOUND:                -0.311
REMARK SMILES CCCCCCCC(=O)[O-]
REMARK SMILES IDX 5 1 6 2 7 3 8 4 9 5 10 6 4 7 3 8 2 9 1 10
REMARK H PARENT
REMARK Flexibility Score: inf
ROOT
ATOM      1  C   UNL     1     -15.608 -20.231   2.964  1.00  0.00     0.000 C 
ENDROOT
BRANCH   1   2
ATOM      2  C   UNL     1     -16.056 -19.589   4.287  1.00  0.00     0.006 C 
BRANCH   2   3
ATOM      3  C   UNL     1     -16.500 -20.626   5.326  1.00  0.00     0.053 C 
BRANCH   3   4
ATOM      4  C   UNL     1     -15.478 -20.748   6.412  1.00  0.00     0.041 C 
ATOM      5  O   UNL     1     -14.487 -21.511   6.267  1.00  0.00    -0.550 OA
ATOM      6  O   UNL     1     -15.647 -20.057   7.605  1.00  0.00    -0.550 OA
ENDBRANCH   3   4
ENDBRANCH   2   3
ENDBRANCH   1   2
BRANCH   1   7
ATOM      7  C   UNL     1     -16.525 -19.863   1.787  1.00  0.00     0.000 C 
BRANCH   7   8
ATOM      8  C   UNL     1     -17.563 -18.816   2.206  1.00  0.00    -0.000 C 
BRANCH   8   9
ATOM      9  C   UNL     1     -18.980 -19.266   1.832  1.00  0.00    -0.003 C 
ATOM     10  C   UNL     1     -19.508 -20.302   2.820  1.00  0.00     0.004 C 
ENDBRANCH   8   9
ENDBRANCH   7   8
ENDBRANCH   1   7
TORSDOF 6
ENDMDL
MODEL 8
REMARK VINA RESULT:    -3.039     11.160     12.406
REMARK INTER + INTRA:          -4.416
REMARK INTER:                  -4.218
REMARK INTRA:                  -0.198
REMARK UNBOUND:                -0.311
REMARK SMILES CCCCCCCC(=O)[O-]
REMARK SMILES IDX 5 1 6 2 7 3 8 4 9 5 10 6 4 7 3 8 2 9 1 10
REMARK H PARENT
REMARK Flexibility Score: inf
ROOT
ATOM      1  C   UNL     1     -11.085 -15.846   4.341  1.00  0.00     0.000 C 
ENDROOT
BRANCH   1   2
ATOM      2  C   UNL     1     -10.071 -16.398   5.356  1.00  0.00     0.006 C 
BRANCH   2   3
ATOM      3  C   UNL     1      -8.635 -15.942   5.064  1.00  0.00     0.053 C 
BRANCH   3   4
ATOM      4  C   UNL     1      -7.728 -17.124   4.936  1.00  0.00     0.041 C 
ATOM      5  O   UNL     1      -6.789 -17.114   4.097  1.00  0.00    -0.550 OA
ATOM      6  O   UNL     1      -7.951 -18.258   5.707  1.00  0.00    -0.550 OA
ENDBRANCH   3   4
ENDBRANCH   2   3
ENDBRANCH   1   2
BRANCH   1   7
ATOM      7  C   UNL     1     -11.009 -14.319   4.198  1.00  0.00     0.000 C 
BRANCH   7   8
ATOM      8  C   UNL     1     -12.277 -13.765   3.537  1.00  0.00    -0.000 C 
BRANCH   8   9
ATOM      9  C   UNL     1     -11.941 -13.023   2.239  1.00  0.00    -0.003 C 
ATOM     10  C   UNL     1     -12.249 -13.883   1.016  1.00  0.00     0.004 C 
ENDBRANCH   8   9
ENDBRANCH   7   8
ENDBRANCH   1   7
TORSDOF 6
ENDMDL
MODEL 9
REMARK VINA RESULT:    -2.983      7.323      8.254
REMARK INTER + INTRA:          -4.340
REMARK INTER:                  -3.991
REMARK INTRA:                  -0.348
REMARK UNBOUND:                -0.311
REMARK SMILES CCCCCCCC(=O)[O-]
REMARK SMILES IDX 5 1 6 2 7 3 8 4 9 5 10 6 4 7 3 8 2 9 1 10
REMARK H PARENT
REMARK Flexibility Score: inf
ROOT
ATOM      1  C   UNL     1     -16.393 -14.023   0.356  1.00  0.00     0.000 C 
ENDROOT
BRANCH   1   2
ATOM      2  C   UNL     1     -17.376 -14.685  -0.622  1.00  0.00     0.006 C 
BRANCH   2   3
ATOM      3  C   UNL     1     -17.061 -14.359  -2.088  1.00  0.00     0.053 C 
BRANCH   3   4
ATOM      4  C   UNL     1     -18.267 -13.789  -2.766  1.00  0.00     0.041 C 
ATOM      5  O   UNL     1     -18.962 -12.911  -2.191  1.00  0.00    -0.550 OA
ATOM      6  O   UNL     1     -18.652 -14.264  -4.013  1.00  0.00    -0.550 OA
ENDBRANCH   3   4
ENDBRANCH   2   3
ENDBRANCH   1   2
BRANCH   1   7
ATOM      7  C   UNL     1     -15.845 -12.687  -0.169  1.00  0.00     0.000 C 
BRANCH   7   8
ATOM      8  C   UNL     1     -14.586 -12.269   0.601  1.00  0.00    -0.000 C 
BRANCH   8   9
ATOM      9  C   UNL     1     -13.918 -13.479   1.263  1.00  0.00    -0.003 C 
ATOM     10  C   UNL     1     -12.425 -13.524   0.950  1.00  0.00     0.004 C 
ENDBRANCH   8   9
ENDBRANCH   7   8
ENDBRANCH   1   7
TORSDOF 6
ENDMDL
