MODEL 1
REMARK VINA RESULT:    -6.244      0.000      0.000
REMARK INTER + INTRA:          -7.828
REMARK INTER:                  -7.521
REMARK INTRA:                  -0.306
REMARK UNBOUND:                -0.306
REMARK SMILES O=c1c(O)c(-c2ccc(O)c(O)c2)oc2cc(O)cc(O)c12
REMARK SMILES IDX 5 1 3 2 2 3 1 4 22 5 20 6 19 7 17 8 16 9 15 10 14 11 6 12
REMARK SMILES IDX 7 13 8 14 9 15 13 16 11 17 10 18 12 20 4 22 21 24 18 26
REMARK H PARENT 10 19 12 21 4 23 21 25 18 27
REMARK Flexibility Score: inf
ROOT
ATOM      1  C   UNL     1     253.468 -24.374  46.834  1.00  0.00     0.180 A 
ATOM      2  C   UNL     1     252.576 -23.449  46.266  1.00  0.00     0.208 A 
ATOM      3  C   UNL     1     252.634 -23.207  44.883  1.00  0.00     0.238 A 
ATOM      4  O   UNL     1     251.869 -22.338  44.389  1.00  0.00    -0.285 OA
ATOM      5  C   UNL     1     253.572 -23.905  44.085  1.00  0.00     0.111 A 
ATOM      6  C   UNL     1     253.693 -23.768  42.670  1.00  0.00     0.134 A 
ATOM      7  C   UNL     1     254.743 -24.410  42.001  1.00  0.00     0.093 A 
ATOM      8  C   UNL     1     255.637 -25.232  42.685  1.00  0.00     0.123 A 
ATOM      9  C   UNL     1     255.493 -25.421  44.060  1.00  0.00     0.094 A 
ATOM     10  C   UNL     1     254.476 -24.766  44.761  1.00  0.00     0.146 A 
ATOM     11  O   UNL     1     254.381 -24.964  46.070  1.00  0.00    -0.452 OA
ENDROOT
BRANCH   1  12
ATOM     12  C   UNL     1     253.451 -24.701  48.279  1.00  0.00     0.025 A 
ATOM     13  C   UNL     1     252.511 -25.622  48.768  1.00  0.00     0.016 A 
ATOM     14  C   UNL     1     252.463 -25.929  50.130  1.00  0.00     0.051 A 
ATOM     15  C   UNL     1     253.345 -25.309  51.024  1.00  0.00     0.157 A 
ATOM     16  C   UNL     1     254.319 -24.064  49.183  1.00  0.00     0.062 A 
ATOM     17  C   UNL     1     254.271 -24.372  50.551  1.00  0.00     0.158 A 
BRANCH  15  18
ATOM     18  O   UNL     1     253.302 -25.614  52.384  1.00  0.00    -0.504 OA
ATOM     19  H   UNL     1     254.148 -25.673  52.940  1.00  0.00     0.293 HD
ENDBRANCH  15  18
BRANCH  17  20
ATOM     20  O   UNL     1     255.137 -23.745  51.446  1.00  0.00    -0.504 OA
ATOM     21  H   UNL     1     256.142 -23.774  51.319  1.00  0.00     0.293 HD
ENDBRANCH  17  20
ENDBRANCH   1  12
BRANCH   2  22
ATOM     22  O   UNL     1     251.671 -22.755  47.075  1.00  0.00    -0.502 OA
ATOM     23  H   UNL     1     250.960 -22.142  46.695  1.00  0.00     0.293 HD
ENDBRANCH   2  22
BRANCH   6  24
ATOM     24  O   UNL     1     252.798 -23.044  41.877  1.00  0.00    -0.507 OA
ATOM     25  H   UNL     1     252.889 -22.915  40.880  1.00  0.00     0.293 HD
ENDBRANCH   6  24
BRANCH   8  26
ATOM     26  O   UNL     1     256.660 -25.868  41.984  1.00  0.00    -0.508 OA
ATOM     27  H   UNL     1     256.707 -25.840  40.973  1.00  0.00     0.293 HD
ENDBRANCH   8  26
TORSDOF 6
ENDMDL
MODEL 2
REMARK VINA RESULT:    -6.226      0.621      1.417
REMARK INTER + INTRA:          -7.807
REMARK INTER:                  -7.476
REMARK INTRA:                  -0.331
REMARK UNBOUND:                -0.306
REMARK SMILES O=c1c(O)c(-c2ccc(O)c(O)c2)oc2cc(O)cc(O)c12
REMARK SMILES IDX 5 1 3 2 2 3 1 4 22 5 20 6 19 7 17 8 16 9 15 10 14 11 6 12
REMARK SMILES IDX 7 13 8 14 9 15 13 16 11 17 10 18 12 20 4 22 21 24 18 26
REMARK H PARENT 10 19 12 21 4 23 21 25 18 27
REMARK Flexibility Score: inf
ROOT
ATOM      1  C   UNL     1     253.578 -24.336  46.898  1.00  0.00     0.180 A 
ATOM      2  C   UNL     1     252.530 -23.570  46.361  1.00  0.00     0.208 A 
ATOM      3  C   UNL     1     252.447 -23.410  44.968  1.00  0.00     0.238 A 
ATOM      4  O   UNL     1     251.537 -22.679  44.497  1.00  0.00    -0.285 OA
ATOM      5  C   UNL     1     253.402 -24.032  44.129  1.00  0.00     0.111 A 
ATOM      6  C   UNL     1     253.392 -23.971  42.704  1.00  0.00     0.134 A 
ATOM      7  C   UNL     1     254.461 -24.515  41.981  1.00  0.00     0.093 A 
ATOM      8  C   UNL     1     255.507 -25.172  42.627  1.00  0.00     0.123 A 
ATOM      9  C   UNL     1     255.498 -25.290  44.017  1.00  0.00     0.094 A 
ATOM     10  C   UNL     1     254.463 -24.727  44.768  1.00  0.00     0.146 A 
ATOM     11  O   UNL     1     254.498 -24.852  46.090  1.00  0.00    -0.452 OA
ENDROOT
BRANCH   1  12
ATOM     12  C   UNL     1     253.718 -24.570  48.354  1.00  0.00     0.025 A 
ATOM     13  C   UNL     1     254.585 -23.759  49.104  1.00  0.00     0.016 A 
ATOM     14  C   UNL     1     254.748 -23.976  50.474  1.00  0.00     0.051 A 
ATOM     15  C   UNL     1     254.058 -25.015  51.112  1.00  0.00     0.157 A 
ATOM     16  C   UNL     1     253.044 -25.626  48.993  1.00  0.00     0.062 A 
ATOM     17  C   UNL     1     253.208 -25.844  50.369  1.00  0.00     0.158 A 
BRANCH  15  18
ATOM     18  O   UNL     1     254.216 -25.234  52.479  1.00  0.00    -0.504 OA
ATOM     19  H   UNL     1     254.112 -26.158  52.883  1.00  0.00     0.293 HD
ENDBRANCH  15  18
BRANCH  17  20
ATOM     20  O   UNL     1     252.534 -26.887  51.003  1.00  0.00    -0.504 OA
ATOM     21  H   UNL     1     252.491 -27.814  50.597  1.00  0.00     0.293 HD
ENDBRANCH  17  20
ENDBRANCH   1  12
BRANCH   2  22
ATOM     22  O   UNL     1     251.609 -22.947  47.208  1.00  0.00    -0.502 OA
ATOM     23  H   UNL     1     250.830 -22.401  46.858  1.00  0.00     0.293 HD
ENDBRANCH   2  22
BRANCH   6  24
ATOM     24  O   UNL     1     252.350 -23.418  41.954  1.00  0.00    -0.507 OA
ATOM     25  H   UNL     1     251.815 -23.916  41.258  1.00  0.00     0.293 HD
ENDBRANCH   6  24
BRANCH   8  26
ATOM     26  O   UNL     1     256.547 -25.715  41.875  1.00  0.00    -0.508 OA
ATOM     27  H   UNL     1     256.380 -26.437  41.183  1.00  0.00     0.293 HD
ENDBRANCH   8  26
TORSDOF 6
ENDMDL
MODEL 3
REMARK VINA RESULT:    -6.157     13.264     14.945
REMARK INTER + INTRA:          -7.724
REMARK INTER:                  -7.403
REMARK INTRA:                  -0.320
REMARK UNBOUND:                -0.306
REMARK SMILES O=c1c(O)c(-c2ccc(O)c(O)c2)oc2cc(O)cc(O)c12
REMARK SMILES IDX 5 1 3 2 2 3 1 4 22 5 20 6 19 7 17 8 16 9 15 10 14 11 6 12
REMARK SMILES IDX 7 13 8 14 9 15 13 16 11 17 10 18 12 20 4 22 21 24 18 26
REMARK H PARENT 10 19 12 21 4 23 21 25 18 27
REMARK Flexibility Score: inf
ROOT
ATOM      1  C   UNL     1     262.089 -27.910  57.782  1.00  0.00     0.180 A 
ATOM      2  C   UNL     1     261.858 -27.218  56.581  1.00  0.00     0.208 A 
ATOM      3  C   UNL     1     262.782 -27.348  55.531  1.00  0.00     0.238 A 
ATOM      4  O   UNL     1     262.597 -26.684  54.478  1.00  0.00    -0.285 OA
ATOM      5  C   UNL     1     263.915 -28.181  55.689  1.00  0.00     0.111 A 
ATOM      6  C   UNL     1     264.894 -28.419  54.678  1.00  0.00     0.134 A 
ATOM      7  C   UNL     1     266.043 -29.158  54.989  1.00  0.00     0.093 A 
ATOM      8  C   UNL     1     266.217 -29.720  56.251  1.00  0.00     0.123 A 
ATOM      9  C   UNL     1     265.238 -29.545  57.230  1.00  0.00     0.094 A 
ATOM     10  C   UNL     1     264.098 -28.783  56.961  1.00  0.00     0.146 A 
ATOM     11  O   UNL     1     263.196 -28.631  57.924  1.00  0.00    -0.452 OA
ENDROOT
BRANCH   1  12
ATOM     12  C   UNL     1     261.149 -27.842  58.924  1.00  0.00     0.025 A 
ATOM     13  C   UNL     1     260.046 -28.710  58.964  1.00  0.00     0.016 A 
ATOM     14  C   UNL     1     259.135 -28.650  60.021  1.00  0.00     0.051 A 
ATOM     15  C   UNL     1     259.306 -27.711  61.047  1.00  0.00     0.157 A 
ATOM     16  C   UNL     1     261.305 -26.887  59.945  1.00  0.00     0.062 A 
ATOM     17  C   UNL     1     260.390 -26.825  61.007  1.00  0.00     0.158 A 
BRANCH  15  18
ATOM     18  O   UNL     1     258.401 -27.648  62.106  1.00  0.00    -0.504 OA
ATOM     19  H   UNL     1     257.527 -27.142  62.025  1.00  0.00     0.293 HD
ENDBRANCH  15  18
BRANCH  17  20
ATOM     20  O   UNL     1     260.550 -25.882  62.021  1.00  0.00    -0.504 OA
ATOM     21  H   UNL     1     261.252 -25.155  61.962  1.00  0.00     0.293 HD
ENDBRANCH  17  20
ENDBRANCH   1  12
BRANCH   2  22
ATOM     22  O   UNL     1     260.744 -26.384  56.453  1.00  0.00    -0.502 OA
ATOM     23  H   UNL     1     260.295 -26.207  55.562  1.00  0.00     0.293 HD
ENDBRANCH   2  22
BRANCH   6  24
ATOM     24  O   UNL     1     264.773 -27.980  53.356  1.00  0.00    -0.507 OA
ATOM     25  H   UNL     1     265.468 -28.120  52.638  1.00  0.00     0.293 HD
ENDBRANCH   6  24
BRANCH   8  26
ATOM     26  O   UNL     1     267.365 -30.463  56.521  1.00  0.00    -0.508 OA
ATOM     27  H   UNL     1     267.724 -31.142  55.860  1.00  0.00     0.293 HD
ENDBRANCH   8  26
TORSDOF 6
ENDMDL
MODEL 4
REMARK VINA RESULT:    -5.913     10.691     13.851
REMARK INTER + INTRA:          -7.430
REMARK INTER:                  -7.202
REMARK INTRA:                  -0.228
REMARK UNBOUND:                -0.306
REMARK SMILES O=c1c(O)c(-c2ccc(O)c(O)c2)oc2cc(O)cc(O)c12
REMARK SMILES IDX 5 1 3 2 2 3 1 4 22 5 20 6 19 7 17 8 16 9 15 10 14 11 6 12
REMARK SMILES IDX 7 13 8 14 9 15 13 16 11 17 10 18 12 20 4 22 21 24 18 26
REMARK H PARENT 10 19 12 21 4 23 21 25 18 27
REMARK Flexibility Score: inf
ROOT
ATOM      1  C   UNL     1     262.066 -27.764  57.082  1.00  0.00     0.180 A 
ATOM      2  C   UNL     1     263.455 -27.971  57.093  1.00  0.00     0.208 A 
ATOM      3  C   UNL     1     264.172 -27.844  55.892  1.00  0.00     0.238 A 
ATOM      4  O   UNL     1     265.408 -28.084  55.897  1.00  0.00    -0.285 OA
ATOM      5  C   UNL     1     263.493 -27.497  54.699  1.00  0.00     0.111 A 
ATOM      6  C   UNL     1     264.123 -27.302  53.434  1.00  0.00     0.134 A 
ATOM      7  C   UNL     1     263.336 -27.089  52.295  1.00  0.00     0.093 A 
ATOM      8  C   UNL     1     261.949 -26.999  52.386  1.00  0.00     0.123 A 
ATOM      9  C   UNL     1     261.325 -27.128  53.627  1.00  0.00     0.094 A 
ATOM     10  C   UNL     1     262.080 -27.376  54.776  1.00  0.00     0.146 A 
ATOM     11  O   UNL     1     261.447 -27.504  55.936  1.00  0.00    -0.452 OA
ENDROOT
BRANCH   1  12
ATOM     12  C   UNL     1     261.245 -27.855  58.313  1.00  0.00     0.025 A 
ATOM     13  C   UNL     1     260.286 -28.873  58.430  1.00  0.00     0.016 A 
ATOM     14  C   UNL     1     259.488 -28.965  59.573  1.00  0.00     0.051 A 
ATOM     15  C   UNL     1     259.626 -28.031  60.608  1.00  0.00     0.157 A 
ATOM     16  C   UNL     1     261.367 -26.907  59.344  1.00  0.00     0.062 A 
ATOM     17  C   UNL     1     260.564 -26.998  60.492  1.00  0.00     0.158 A 
BRANCH  15  18
ATOM     18  O   UNL     1     258.833 -28.120  61.751  1.00  0.00    -0.504 OA
ATOM     19  H   UNL     1     259.089 -27.649  62.611  1.00  0.00     0.293 HD
ENDBRANCH  15  18
BRANCH  17  20
ATOM     20  O   UNL     1     260.690 -26.061  61.517  1.00  0.00    -0.504 OA
ATOM     21  H   UNL     1     261.551 -25.961  62.040  1.00  0.00     0.293 HD
ENDBRANCH  17  20
ENDBRANCH   1  12
BRANCH   2  22
ATOM     22  O   UNL     1     264.103 -28.334  58.277  1.00  0.00    -0.502 OA
ATOM     23  H   UNL     1     263.678 -28.943  58.966  1.00  0.00     0.293 HD
ENDBRANCH   2  22
BRANCH   6  24
ATOM     24  O   UNL     1     265.509 -27.281  53.248  1.00  0.00    -0.507 OA
ATOM     25  H   UNL     1     265.981 -27.596  52.415  1.00  0.00     0.293 HD
ENDBRANCH   6  24
BRANCH   8  26
ATOM     26  O   UNL     1     261.198 -26.769  51.234  1.00  0.00    -0.508 OA
ATOM     27  H   UNL     1     261.137 -27.460  50.495  1.00  0.00     0.293 HD
ENDBRANCH   8  26
TORSDOF 6
ENDMDL
MODEL 5
REMARK VINA RESULT:    -5.886     14.187     16.450
REMARK INTER + INTRA:          -7.396
REMARK INTER:                  -7.074
REMARK INTRA:                  -0.322
REMARK UNBOUND:                -0.306
REMARK SMILES O=c1c(O)c(-c2ccc(O)c(O)c2)oc2cc(O)cc(O)c12
REMARK SMILES IDX 5 1 3 2 2 3 1 4 22 5 20 6 19 7 17 8 16 9 15 10 14 11 6 12
REMARK SMILES IDX 7 13 8 14 9 15 13 16 11 17 10 18 12 20 4 22 21 24 18 26
REMARK H PARENT 10 19 12 21 4 23 21 25 18 27
REMARK Flexibility Score: inf
ROOT
ATOM      1  C   UNL     1     262.985 -28.123  58.011  1.00  0.00     0.180 A 
ATOM      2  C   UNL     1     263.412 -27.164  58.945  1.00  0.00     0.208 A 
ATOM      3  C   UNL     1     262.508 -26.715  59.921  1.00  0.00     0.238 A 
ATOM      4  O   UNL     1     262.880 -25.817  60.721  1.00  0.00    -0.285 OA
ATOM      5  C   UNL     1     261.195 -27.242  59.961  1.00  0.00     0.111 A 
ATOM      6  C   UNL     1     260.209 -26.889  60.931  1.00  0.00     0.134 A 
ATOM      7  C   UNL     1     258.902 -27.375  60.796  1.00  0.00     0.093 A 
ATOM      8  C   UNL     1     258.563 -28.250  59.766  1.00  0.00     0.123 A 
ATOM      9  C   UNL     1     259.533 -28.650  58.847  1.00  0.00     0.094 A 
ATOM     10  C   UNL     1     260.837 -28.154  58.934  1.00  0.00     0.146 A 
ATOM     11  O   UNL     1     261.728 -28.550  58.033  1.00  0.00    -0.452 OA
ENDROOT
BRANCH   1  12
ATOM     12  C   UNL     1     263.887 -28.664  56.967  1.00  0.00     0.025 A 
ATOM     13  C   UNL     1     264.662 -29.801  57.245  1.00  0.00     0.016 A 
ATOM     14  C   UNL     1     265.535 -30.316  56.284  1.00  0.00     0.051 A 
ATOM     15  C   UNL     1     265.656 -29.692  55.035  1.00  0.00     0.157 A 
ATOM     16  C   UNL     1     264.028 -28.028  55.721  1.00  0.00     0.062 A 
ATOM     17  C   UNL     1     264.906 -28.543  54.755  1.00  0.00     0.158 A 
BRANCH  15  18
ATOM     18  O   UNL     1     266.524 -30.202  54.071  1.00  0.00    -0.504 OA
ATOM     19  H   UNL     1     266.266 -30.994  53.493  1.00  0.00     0.293 HD
ENDBRANCH  15  18
BRANCH  17  20
ATOM     20  O   UNL     1     265.040 -27.915  53.517  1.00  0.00    -0.504 OA
ATOM     21  H   UNL     1     265.950 -27.693  53.132  1.00  0.00     0.293 HD
ENDBRANCH  17  20
ENDBRANCH   1  12
BRANCH   2  22
ATOM     22  O   UNL     1     264.706 -26.641  58.874  1.00  0.00    -0.502 OA
ATOM     23  H   UNL     1     264.933 -25.706  59.191  1.00  0.00     0.293 HD
ENDBRANCH   2  22
BRANCH   6  24
ATOM     24  O   UNL     1     260.466 -26.095  62.052  1.00  0.00    -0.507 OA
ATOM     25  H   UNL     1     261.278 -25.507  62.166  1.00  0.00     0.293 HD
ENDBRANCH   6  24
BRANCH   8  26
ATOM     26  O   UNL     1     257.256 -28.727  59.671  1.00  0.00    -0.508 OA
ATOM     27  H   UNL     1     256.670 -28.511  58.874  1.00  0.00     0.293 HD
ENDBRANCH   8  26
TORSDOF 6
ENDMDL
MODEL 6
REMARK VINA RESULT:    -5.750     15.279     16.655
REMARK INTER + INTRA:          -7.233
REMARK INTER:                  -6.966
REMARK INTRA:                  -0.267
REMARK UNBOUND:                -0.306
REMARK SMILES O=c1c(O)c(-c2ccc(O)c(O)c2)oc2cc(O)cc(O)c12
REMARK SMILES IDX 5 1 3 2 2 3 1 4 22 5 20 6 19 7 17 8 16 9 15 10 14 11 6 12
REMARK SMILES IDX 7 13 8 14 9 15 13 16 11 17 10 18 12 20 4 22 21 24 18 26
REMARK H PARENT 10 19 12 21 4 23 21 25 18 27
REMARK Flexibility Score: inf
ROOT
ATOM      1  C   UNL     1     267.128 -33.798  47.597  1.00  0.00     0.180 A 
ATOM      2  C   UNL     1     267.150 -32.800  46.608  1.00  0.00     0.208 A 
ATOM      3  C   UNL     1     267.136 -33.182  45.256  1.00  0.00     0.238 A 
ATOM      4  O   UNL     1     267.210 -32.286  44.375  1.00  0.00    -0.285 OA
ATOM      5  C   UNL     1     267.084 -34.554  44.912  1.00  0.00     0.111 A 
ATOM      6  C   UNL     1     267.026 -35.053  43.576  1.00  0.00     0.134 A 
ATOM      7  C   UNL     1     267.110 -36.433  43.350  1.00  0.00     0.093 A 
ATOM      8  C   UNL     1     267.185 -37.333  44.411  1.00  0.00     0.123 A 
ATOM      9  C   UNL     1     267.182 -36.860  45.723  1.00  0.00     0.094 A 
ATOM     10  C   UNL     1     267.135 -35.487  45.980  1.00  0.00     0.146 A 
ATOM     11  O   UNL     1     267.146 -35.078  47.243  1.00  0.00    -0.452 OA
ENDROOT
BRANCH   1  12
ATOM     12  C   UNL     1     267.116 -33.474  49.043  1.00  0.00     0.025 A 
ATOM     13  C   UNL     1     268.254 -33.739  49.821  1.00  0.00     0.016 A 
ATOM     14  C   UNL     1     268.257 -33.460  51.190  1.00  0.00     0.051 A 
ATOM     15  C   UNL     1     267.116 -32.927  51.804  1.00  0.00     0.157 A 
ATOM     16  C   UNL     1     265.965 -32.959  49.667  1.00  0.00     0.062 A 
ATOM     17  C   UNL     1     265.967 -32.681  51.043  1.00  0.00     0.158 A 
BRANCH  15  18
ATOM     18  O   UNL     1     267.115 -32.646  53.169  1.00  0.00    -0.504 OA
ATOM     19  H   UNL     1     267.057 -33.384  53.861  1.00  0.00     0.293 HD
ENDBRANCH  15  18
BRANCH  17  20
ATOM     20  O   UNL     1     264.828 -32.164  51.659  1.00  0.00    -0.504 OA
ATOM     21  H   UNL     1     263.960 -32.042  51.151  1.00  0.00     0.293 HD
ENDBRANCH  17  20
ENDBRANCH   1  12
BRANCH   2  22
ATOM     22  O   UNL     1     267.223 -31.452  46.969  1.00  0.00    -0.502 OA
ATOM     23  H   UNL     1     267.764 -31.130  47.762  1.00  0.00     0.293 HD
ENDBRANCH   2  22
BRANCH   6  24
ATOM     24  O   UNL     1     266.858 -34.245  42.448  1.00  0.00    -0.507 OA
ATOM     25  H   UNL     1     267.592 -33.706  42.013  1.00  0.00     0.293 HD
ENDBRANCH   6  24
BRANCH   8  26
ATOM     26  O   UNL     1     267.251 -38.700  44.149  1.00  0.00    -0.508 OA
ATOM     27  H   UNL     1     266.418 -39.277  44.131  1.00  0.00     0.293 HD
ENDBRANCH   8  26
TORSDOF 6
ENDMDL
MODEL 7
REMARK VINA RESULT:    -5.628     12.779     14.122
REMARK INTER + INTRA:          -7.086
REMARK INTER:                  -6.759
REMARK INTRA:                  -0.327
REMARK UNBOUND:                -0.306
REMARK SMILES O=c1c(O)c(-c2ccc(O)c(O)c2)oc2cc(O)cc(O)c12
REMARK SMILES IDX 5 1 3 2 2 3 1 4 22 5 20 6 19 7 17 8 16 9 15 10 14 11 6 12
REMARK SMILES IDX 7 13 8 14 9 15 13 16 11 17 10 18 12 20 4 22 21 24 18 26
REMARK H PARENT 10 19 12 21 4 23 21 25 18 27
REMARK Flexibility Score: inf
ROOT
ATOM      1  C   UNL     1     262.148 -27.113  57.053  1.00  0.00     0.180 A 
ATOM      2  C   UNL     1     263.075 -28.100  56.680  1.00  0.00     0.208 A 
ATOM      3  C   UNL     1     264.036 -27.798  55.700  1.00  0.00     0.238 A 
ATOM      4  O   UNL     1     264.828 -28.703  55.332  1.00  0.00    -0.285 OA
ATOM      5  C   UNL     1     264.067 -26.507  55.120  1.00  0.00     0.111 A 
ATOM      6  C   UNL     1     265.021 -26.079  54.148  1.00  0.00     0.134 A 
ATOM      7  C   UNL     1     264.877 -24.822  53.546  1.00  0.00     0.093 A 
ATOM      8  C   UNL     1     263.854 -23.955  53.926  1.00  0.00     0.123 A 
ATOM      9  C   UNL     1     262.951 -24.340  54.917  1.00  0.00     0.094 A 
ATOM     10  C   UNL     1     263.047 -25.601  55.511  1.00  0.00     0.146 A 
ATOM     11  O   UNL     1     262.161 -25.933  56.443  1.00  0.00    -0.452 OA
ENDROOT
BRANCH   1  12
ATOM     12  C   UNL     1     261.122 -27.348  58.095  1.00  0.00     0.025 A 
ATOM     13  C   UNL     1     259.864 -27.850  57.726  1.00  0.00     0.016 A 
ATOM     14  C   UNL     1     258.875 -28.061  58.689  1.00  0.00     0.051 A 
ATOM     15  C   UNL     1     259.124 -27.757  60.034  1.00  0.00     0.157 A 
ATOM     16  C   UNL     1     261.361 -27.025  59.443  1.00  0.00     0.062 A 
ATOM     17  C   UNL     1     260.367 -27.234  60.411  1.00  0.00     0.158 A 
BRANCH  15  18
ATOM     18  O   UNL     1     258.141 -27.967  61.000  1.00  0.00    -0.504 OA
ATOM     19  H   UNL     1     258.006 -28.875  61.429  1.00  0.00     0.293 HD
ENDBRANCH  15  18
BRANCH  17  20
ATOM     20  O   UNL     1     260.608 -26.919  61.748  1.00  0.00    -0.504 OA
ATOM     21  H   UNL     1     260.406 -25.999  62.120  1.00  0.00     0.293 HD
ENDBRANCH  17  20
ENDBRANCH   1  12
BRANCH   2  22
ATOM     22  O   UNL     1     263.013 -29.375  57.250  1.00  0.00    -0.502 OA
ATOM     23  H   UNL     1     263.842 -29.896  57.509  1.00  0.00     0.293 HD
ENDBRANCH   2  22
BRANCH   6  24
ATOM     24  O   UNL     1     266.135 -26.830  53.764  1.00  0.00    -0.507 OA
ATOM     25  H   UNL     1     267.005 -26.441  53.435  1.00  0.00     0.293 HD
ENDBRANCH   6  24
BRANCH   8  26
ATOM     26  O   UNL     1     263.750 -22.706  53.317  1.00  0.00    -0.508 OA
ATOM     27  H   UNL     1     263.388 -21.902  53.816  1.00  0.00     0.293 HD
ENDBRANCH   8  26
TORSDOF 6
ENDMDL
MODEL 8
REMARK VINA RESULT:    -5.590      2.143      7.062
REMARK INTER + INTRA:          -7.041
REMARK INTER:                  -6.746
REMARK INTRA:                  -0.295
REMARK UNBOUND:                -0.306
REMARK SMILES O=c1c(O)c(-c2ccc(O)c(O)c2)oc2cc(O)cc(O)c12
REMARK SMILES IDX 5 1 3 2 2 3 1 4 22 5 20 6 19 7 17 8 16 9 15 10 14 11 6 12
REMARK SMILES IDX 7 13 8 14 9 15 13 16 11 17 10 18 12 20 4 22 21 24 18 26
REMARK H PARENT 10 19 12 21 4 23 21 25 18 27
REMARK Flexibility Score: inf
ROOT
ATOM      1  C   UNL     1     252.225 -24.448  48.077  1.00  0.00     0.180 A 
ATOM      2  C   UNL     1     251.304 -23.572  48.674  1.00  0.00     0.208 A 
ATOM      3  C   UNL     1     251.272 -23.467  50.074  1.00  0.00     0.238 A 
ATOM      4  O   UNL     1     250.408 -22.721  50.605  1.00  0.00    -0.285 OA
ATOM      5  C   UNL     1     252.173 -24.227  50.858  1.00  0.00     0.111 A 
ATOM      6  C   UNL     1     252.256 -24.170  52.281  1.00  0.00     0.134 A 
ATOM      7  C   UNL     1     253.095 -25.063  52.961  1.00  0.00     0.093 A 
ATOM      8  C   UNL     1     253.899 -25.965  52.267  1.00  0.00     0.123 A 
ATOM      9  C   UNL     1     253.870 -25.989  50.872  1.00  0.00     0.094 A 
ATOM     10  C   UNL     1     253.018 -25.135  50.168  1.00  0.00     0.146 A 
ATOM     11  O   UNL     1     253.013 -25.198  48.841  1.00  0.00    -0.452 OA
ENDROOT
BRANCH   1  12
ATOM     12  C   UNL     1     252.336 -24.595  46.607  1.00  0.00     0.025 A 
ATOM     13  C   UNL     1     251.817 -25.742  45.986  1.00  0.00     0.016 A 
ATOM     14  C   UNL     1     251.928 -25.910  44.603  1.00  0.00     0.051 A 
ATOM     15  C   UNL     1     252.574 -24.941  43.824  1.00  0.00     0.157 A 
ATOM     16  C   UNL     1     253.002 -23.635  45.824  1.00  0.00     0.062 A 
ATOM     17  C   UNL     1     253.115 -23.804  44.436  1.00  0.00     0.158 A 
BRANCH  15  18
ATOM     18  O   UNL     1     252.686 -25.104  42.444  1.00  0.00    -0.504 OA
ATOM     19  H   UNL     1     253.298 -25.804  42.042  1.00  0.00     0.293 HD
ENDBRANCH  15  18
BRANCH  17  20
ATOM     20  O   UNL     1     253.770 -22.848  43.660  1.00  0.00    -0.504 OA
ATOM     21  H   UNL     1     254.194 -22.028  44.077  1.00  0.00     0.293 HD
ENDBRANCH  17  20
ENDBRANCH   1  12
BRANCH   2  22
ATOM     22  O   UNL     1     250.409 -22.846  47.883  1.00  0.00    -0.502 OA
ATOM     23  H   UNL     1     250.331 -22.984  46.882  1.00  0.00     0.293 HD
ENDBRANCH   2  22
BRANCH   6  24
ATOM     24  O   UNL     1     251.564 -23.244  53.067  1.00  0.00    -0.507 OA
ATOM     25  H   UNL     1     250.560 -23.191  53.142  1.00  0.00     0.293 HD
ENDBRANCH   6  24
BRANCH   8  26
ATOM     26  O   UNL     1     254.734 -26.828  52.975  1.00  0.00    -0.508 OA
ATOM     27  H   UNL     1     254.637 -27.834  52.905  1.00  0.00     0.293 HD
ENDBRANCH   8  26
TORSDOF 6
ENDMDL
MODEL 9
REMARK VINA RESULT:    -5.551     14.247     16.860
REMARK INTER + INTRA:          -6.993
REMARK INTER:                  -6.674
REMARK INTRA:                  -0.318
REMARK UNBOUND:                -0.306
REMARK SMILES O=c1c(O)c(-c2ccc(O)c(O)c2)oc2cc(O)cc(O)c12
REMARK SMILES IDX 5 1 3 2 2 3 1 4 22 5 20 6 19 7 17 8 16 9 15 10 14 11 6 12
REMARK SMILES IDX 7 13 8 14 9 15 13 16 11 17 10 18 12 20 4 22 21 24 18 26
REMARK H PARENT 10 19 12 21 4 23 21 25 18 27
REMARK Flexibility Score: inf
ROOT
ATOM      1  C   UNL     1     264.525 -28.398  57.378  1.00  0.00     0.180 A 
ATOM      2  C   UNL     1     264.891 -27.543  58.432  1.00  0.00     0.208 A 
ATOM      3  C   UNL     1     263.898 -27.089  59.316  1.00  0.00     0.238 A 
ATOM      4  O   UNL     1     264.223 -26.281  60.225  1.00  0.00    -0.285 OA
ATOM      5  C   UNL     1     262.557 -27.509  59.145  1.00  0.00     0.111 A 
ATOM      6  C   UNL     1     261.478 -27.144  60.004  1.00  0.00     0.134 A 
ATOM      7  C   UNL     1     260.170 -27.512  59.665  1.00  0.00     0.093 A 
ATOM      8  C   UNL     1     259.909 -28.284  58.534  1.00  0.00     0.123 A 
ATOM      9  C   UNL     1     260.964 -28.697  57.719  1.00  0.00     0.094 A 
ATOM     10  C   UNL     1     262.276 -28.316  58.012  1.00  0.00     0.146 A 
ATOM     11  O   UNL     1     263.249 -28.721  57.204  1.00  0.00    -0.452 OA
ENDROOT
BRANCH   1  12
ATOM     12  C   UNL     1     265.518 -28.937  56.420  1.00  0.00     0.025 A 
ATOM     13  C   UNL     1     266.244 -30.092  56.754  1.00  0.00     0.016 A 
ATOM     14  C   UNL     1     267.200 -30.607  55.875  1.00  0.00     0.051 A 
ATOM     15  C   UNL     1     267.454 -29.965  54.655  1.00  0.00     0.157 A 
ATOM     16  C   UNL     1     265.792 -28.285  55.205  1.00  0.00     0.062 A 
ATOM     17  C   UNL     1     266.753 -28.800  54.322  1.00  0.00     0.158 A 
BRANCH  15  18
ATOM     18  O   UNL     1     268.406 -30.476  53.774  1.00  0.00    -0.504 OA
ATOM     19  H   UNL     1     268.193 -30.628  52.795  1.00  0.00     0.293 HD
ENDBRANCH  15  18
BRANCH  17  20
ATOM     20  O   UNL     1     267.019 -28.156  53.115  1.00  0.00    -0.504 OA
ATOM     21  H   UNL     1     267.536 -27.285  53.081  1.00  0.00     0.293 HD
ENDBRANCH  17  20
ENDBRANCH   1  12
BRANCH   2  22
ATOM     22  O   UNL     1     266.217 -27.123  58.569  1.00  0.00    -0.502 OA
ATOM     23  H   UNL     1     266.996 -27.769  58.556  1.00  0.00     0.293 HD
ENDBRANCH   2  22
BRANCH   6  24
ATOM     24  O   UNL     1     261.638 -26.452  61.208  1.00  0.00    -0.507 OA
ATOM     25  H   UNL     1     262.460 -25.925  61.463  1.00  0.00     0.293 HD
ENDBRANCH   6  24
BRANCH   8  26
ATOM     26  O   UNL     1     258.597 -28.645  58.235  1.00  0.00    -0.508 OA
ATOM     27  H   UNL     1     257.840 -27.973  58.276  1.00  0.00     0.293 HD
ENDBRANCH   8  26
TORSDOF 6
ENDMDL
