MODEL 1
REMARK VINA RESULT:    -7.664      0.000      0.000
REMARK INTER + INTRA:         -11.922
REMARK INTER:                 -10.576
REMARK INTRA:                  -1.347
REMARK UNBOUND:                -1.347
REMARK SMILES C[C@@H]1C(=O)O[C@H](C)[C@H]1C[C@H](O)[C@](C)(O)[C@H]1CC[C@@]2(O)C3=CC(=O)[C@H]4C[C@@H](O)[C@@H](O)C[C@@]4(C)[C@@H]3CC[C@@]12C
REMARK SMILES IDX 12 1 13 2 10 3 9 4 8 5 1 6 2 7 3 8 6 9 5 10 4 11 7 12 11 13
REMARK SMILES IDX 15 15 16 16 36 17 17 18 18 19 35 20 37 21 20 22 34 23 33 24
REMARK SMILES IDX 21 25 31 26 22 27 24 28 30 29 32 30 23 31 25 32 28 33 26 34
REMARK SMILES IDX 19 35 29 37 27 39 14 41
REMARK H PARENT 11 14 19 36 29 38 27 40 14 42
REMARK Flexibility Score: inf
ROOT
ATOM      1  C   UNL     1      11.296   8.278  46.841  1.00  0.00     0.091 C 
ATOM      2  C   UNL     1      11.662   9.559  47.616  1.00  0.00     0.045 C 
ENDROOT
BRANCH   1   3
ATOM      3  C   UNL     1      10.490   8.638  45.534  1.00  0.00     0.146 C 
BRANCH   3   4
ATOM      4  C   UNL     1       8.935   8.547  45.639  1.00  0.00     0.043 C 
BRANCH   4   5
ATOM      5  C   UNL     1       8.117   9.863  45.536  1.00  0.00     0.046 C 
ATOM      6  C   UNL     1       5.765  10.530  46.331  1.00  0.00     0.020 C 
ATOM      7  C   UNL     1       7.169  10.073  46.753  1.00  0.00     0.103 C 
ATOM      8  C   UNL     1       7.842  11.161  47.499  1.00  0.00     0.309 C 
ATOM      9  C   UNL     1       9.090  11.089  45.558  1.00  0.00     0.177 C 
ATOM     10  O   UNL     1       8.895  11.716  46.813  1.00  0.00    -0.462 OA
ATOM     11  O   UNL     1       7.472  11.578  48.630  1.00  0.00    -0.252 OA
ATOM     12  C   UNL     1       8.792  12.086  44.437  1.00  0.00     0.053 C 
ENDBRANCH   4   5
ENDBRANCH   3   4
BRANCH   3  13
ATOM     13  O   UNL     1      10.875   7.781  44.495  1.00  0.00    -0.390 OA
ATOM     14  H   UNL     1      11.835   7.559  44.633  1.00  0.00     0.211 HD
ENDBRANCH   3  13
ENDBRANCH   1   3
BRANCH   1  15
ATOM     15  C   UNL     1      10.547   7.165  47.725  1.00  0.00     0.032 C 
ATOM     16  C   UNL     1      11.207   5.786  47.592  1.00  0.00     0.010 C 
ATOM     17  C   UNL     1      10.129   7.271  49.258  1.00  0.00     0.006 C 
ATOM     18  C   UNL     1      10.523   4.869  48.585  1.00  0.00     0.041 C 
ATOM     19  C   UNL     1       9.815   5.758  49.640  1.00  0.00     0.092 C 
ATOM     20  C   UNL     1      11.188   7.867  50.247  1.00  0.00     0.011 C 
ATOM     21  C   UNL     1       8.854   8.148  49.439  1.00  0.00     0.015 C 
ATOM     22  C   UNL     1      10.341   5.376  51.039  1.00  0.00    -0.031 C 
ATOM     23  C   UNL     1      12.327   6.916  50.626  1.00  0.00     0.009 C 
ATOM     24  C   UNL     1      11.819   5.640  51.356  1.00  0.00     0.025 C 
ATOM     25  C   UNL     1       9.574   4.673  51.896  1.00  0.00     0.050 C 
ATOM     26  C   UNL     1      12.153   5.594  52.902  1.00  0.00    -0.013 C 
ATOM     27  C   UNL     1      10.075   4.194  53.189  1.00  0.00     0.159 C 
ATOM     28  C   UNL     1      11.530   4.310  53.537  1.00  0.00     0.070 C 
ATOM     29  C   UNL     1      13.693   5.588  53.197  1.00  0.00     0.042 C 
ATOM     30  C   UNL     1      11.549   6.837  53.614  1.00  0.00     0.013 C 
ATOM     31  O   UNL     1       9.282   3.635  53.993  1.00  0.00    -0.295 OA
ATOM     32  C   UNL     1      12.252   3.017  53.107  1.00  0.00     0.047 C 
ATOM     33  C   UNL     1      14.433   4.279  52.836  1.00  0.00     0.143 C 
ATOM     34  C   UNL     1      13.742   3.065  53.472  1.00  0.00     0.143 C 
BRANCH  19  35
ATOM     35  O   UNL     1       8.422   5.503  49.568  1.00  0.00    -0.385 OA
ATOM     36  H   UNL     1       8.035   6.040  48.829  1.00  0.00     0.211 HD
ENDBRANCH  19  35
BRANCH  33  37
ATOM     37  O   UNL     1      14.547   4.112  51.447  1.00  0.00    -0.390 OA
ATOM     38  H   UNL     1      15.321   4.659  51.156  1.00  0.00     0.211 HD
ENDBRANCH  33  37
BRANCH  34  39
ATOM     39  O   UNL     1      14.376   1.885  53.046  1.00  0.00    -0.390 OA
ATOM     40  H   UNL     1      13.949   1.136  53.540  1.00  0.00     0.211 HD
ENDBRANCH  34  39
ENDBRANCH   1  15
BRANCH   1  41
ATOM     41  O   UNL     1      12.528   7.726  46.434  1.00  0.00    -0.387 OA
ATOM     42  H   UNL     1      12.576   7.777  45.444  1.00  0.00     0.211 HD
ENDBRANCH   1  41
TORSDOF 9
ENDMDL
MODEL 2
REMARK VINA RESULT:    -7.579      1.539      2.115
REMARK INTER + INTRA:         -11.806
REMARK INTER:                 -10.709
REMARK INTRA:                  -1.097
REMARK UNBOUND:                -1.347
REMARK SMILES C[C@@H]1C(=O)O[C@H](C)[C@H]1C[C@H](O)[C@](C)(O)[C@H]1CC[C@@]2(O)C3=CC(=O)[C@H]4C[C@@H](O)[C@@H](O)C[C@@]4(C)[C@@H]3CC[C@@]12C
REMARK SMILES IDX 12 1 13 2 10 3 9 4 8 5 1 6 2 7 3 8 6 9 5 10 4 11 7 12 11 13
REMARK SMILES IDX 15 15 16 16 36 17 17 18 18 19 35 20 37 21 20 22 34 23 33 24
REMARK SMILES IDX 21 25 31 26 22 27 24 28 30 29 32 30 23 31 25 32 28 33 26 34
REMARK SMILES IDX 19 35 29 37 27 39 14 41
REMARK H PARENT 11 14 19 36 29 38 27 40 14 42
REMARK Flexibility Score: inf
ROOT
ATOM      1  C   UNL     1      10.176   7.566  46.831  1.00  0.00     0.091 C 
ATOM      2  C   UNL     1      11.265   8.656  46.864  1.00  0.00     0.045 C 
ENDROOT
BRANCH   1   3
ATOM      3  C   UNL     1       8.933   8.056  45.991  1.00  0.00     0.146 C 
BRANCH   3   4
ATOM      4  C   UNL     1       7.748   8.659  46.809  1.00  0.00     0.043 C 
BRANCH   4   5
ATOM      5  C   UNL     1       7.606  10.204  46.859  1.00  0.00     0.046 C 
ATOM      6  C   UNL     1       9.046  12.126  45.941  1.00  0.00     0.020 C 
ATOM      7  C   UNL     1       8.191  10.899  45.594  1.00  0.00     0.103 C 
ATOM      8  C   UNL     1       6.971  11.331  44.873  1.00  0.00     0.309 C 
ATOM      9  C   UNL     1       6.089  10.592  46.875  1.00  0.00     0.177 C 
ATOM     10  O   UNL     1       5.822  11.162  45.607  1.00  0.00    -0.462 OA
ATOM     11  O   UNL     1       6.974  11.844  43.721  1.00  0.00    -0.252 OA
ATOM     12  C   UNL     1       5.762  11.608  47.971  1.00  0.00     0.053 C 
ENDBRANCH   4   5
ENDBRANCH   3   4
BRANCH   3  13
ATOM     13  O   UNL     1       8.412   6.984  45.256  1.00  0.00    -0.390 OA
ATOM     14  H   UNL     1       8.066   7.352  44.399  1.00  0.00     0.211 HD
ENDBRANCH   3  13
ENDBRANCH   1   3
BRANCH   1  15
ATOM     15  C   UNL     1       9.748   7.018  48.279  1.00  0.00     0.032 C 
ATOM     16  C   UNL     1       9.965   5.504  48.408  1.00  0.00     0.010 C 
ATOM     17  C   UNL     1      10.165   7.612  49.696  1.00  0.00     0.006 C 
ATOM     18  C   UNL     1       9.685   5.138  49.851  1.00  0.00     0.041 C 
ATOM     19  C   UNL     1       9.780   6.434  50.695  1.00  0.00     0.092 C 
ATOM     20  C   UNL     1      11.667   8.011  49.889  1.00  0.00     0.011 C 
ATOM     21  C   UNL     1       9.349   8.895  50.036  1.00  0.00     0.015 C 
ATOM     22  C   UNL     1      10.834   6.224  51.803  1.00  0.00    -0.031 C 
ATOM     23  C   UNL     1      12.627   6.837  50.103  1.00  0.00     0.009 C 
ATOM     24  C   UNL     1      12.296   6.023  51.384  1.00  0.00     0.025 C 
ATOM     25  C   UNL     1      10.460   6.050  53.086  1.00  0.00     0.050 C 
ATOM     26  C   UNL     1      13.326   6.219  52.569  1.00  0.00    -0.013 C 
ATOM     27  C   UNL     1      11.421   5.737  54.150  1.00  0.00     0.159 C 
ATOM     28  C   UNL     1      12.849   5.415  53.821  1.00  0.00     0.070 C 
ATOM     29  C   UNL     1      14.776   5.745  52.207  1.00  0.00     0.042 C 
ATOM     30  C   UNL     1      13.413   7.723  52.955  1.00  0.00     0.013 C 
ATOM     31  O   UNL     1      11.029   5.690  55.346  1.00  0.00    -0.295 OA
ATOM     32  C   UNL     1      12.991   3.890  53.644  1.00  0.00     0.047 C 
ATOM     33  C   UNL     1      14.963   4.215  52.086  1.00  0.00     0.143 C 
ATOM     34  C   UNL     1      14.443   3.499  53.340  1.00  0.00     0.143 C 
BRANCH  19  35
ATOM     35  O   UNL     1       8.511   6.671  51.283  1.00  0.00    -0.385 OA
ATOM     36  H   UNL     1       8.636   7.194  52.117  1.00  0.00     0.211 HD
ENDBRANCH  19  35
BRANCH  33  37
ATOM     37  O   UNL     1      14.347   3.704  50.933  1.00  0.00    -0.390 OA
ATOM     38  H   UNL     1      14.034   4.484  50.407  1.00  0.00     0.211 HD
ENDBRANCH  33  37
BRANCH  34  39
ATOM     39  O   UNL     1      14.534   2.107  53.160  1.00  0.00    -0.390 OA
ATOM     40  H   UNL     1      13.931   1.876  52.406  1.00  0.00     0.211 HD
ENDBRANCH  34  39
ENDBRANCH   1  15
BRANCH   1  41
ATOM     41  O   UNL     1      10.753   6.485  46.131  1.00  0.00    -0.387 OA
ATOM     42  H   UNL     1      11.200   6.846  45.321  1.00  0.00     0.211 HD
ENDBRANCH   1  41
TORSDOF 9
ENDMDL
MODEL 3
REMARK VINA RESULT:    -7.467      4.483      8.836
REMARK INTER + INTRA:         -11.651
REMARK INTER:                 -10.839
REMARK INTRA:                  -0.811
REMARK UNBOUND:                -1.347
REMARK SMILES C[C@@H]1C(=O)O[C@H](C)[C@H]1C[C@H](O)[C@](C)(O)[C@H]1CC[C@@]2(O)C3=CC(=O)[C@H]4C[C@@H](O)[C@@H](O)C[C@@]4(C)[C@@H]3CC[C@@]12C
REMARK SMILES IDX 12 1 13 2 10 3 9 4 8 5 1 6 2 7 3 8 6 9 5 10 4 11 7 12 11 13
REMARK SMILES IDX 15 15 16 16 36 17 17 18 18 19 35 20 37 21 20 22 34 23 33 24
REMARK SMILES IDX 21 25 31 26 22 27 24 28 30 29 32 30 23 31 25 32 28 33 26 34
REMARK SMILES IDX 19 35 29 37 27 39 14 41
REMARK H PARENT 11 14 19 36 29 38 27 40 14 42
REMARK Flexibility Score: inf
ROOT
ATOM      1  C   UNL     1       2.815  11.487  47.288  1.00  0.00     0.091 C 
ATOM      2  C   UNL     1       2.061  12.549  46.464  1.00  0.00     0.045 C 
ENDROOT
BRANCH   1   3
ATOM      3  C   UNL     1       1.881  10.899  48.414  1.00  0.00     0.146 C 
BRANCH   3   4
ATOM      4  C   UNL     1       1.000   9.676  48.006  1.00  0.00     0.043 C 
BRANCH   4   5
ATOM      5  C   UNL     1      -0.372   9.956  47.335  1.00  0.00     0.046 C 
ATOM      6  C   UNL     1      -1.037  10.909  45.041  1.00  0.00     0.020 C 
ATOM      7  C   UNL     1      -0.328   9.770  45.789  1.00  0.00     0.103 C 
ATOM      8  C   UNL     1      -1.077   8.507  45.596  1.00  0.00     0.309 C 
ATOM      9  C   UNL     1      -1.426   8.915  47.842  1.00  0.00     0.177 C 
ATOM     10  O   UNL     1      -1.685   8.060  46.744  1.00  0.00    -0.462 OA
ATOM     11  O   UNL     1      -1.191   7.913  44.490  1.00  0.00    -0.252 OA
ATOM     12  C   UNL     1      -2.729   9.581  48.289  1.00  0.00     0.053 C 
ENDBRANCH   4   5
ENDBRANCH   3   4
BRANCH   3  13
ATOM     13  O   UNL     1       1.004  11.895  48.864  1.00  0.00    -0.390 OA
ATOM     14  H   UNL     1       0.078  11.580  48.682  1.00  0.00     0.211 HD
ENDBRANCH   3  13
ENDBRANCH   1   3
BRANCH   1  15
ATOM     15  C   UNL     1       4.226  11.988  47.873  1.00  0.00     0.032 C 
ATOM     16  C   UNL     1       4.695  11.128  49.055  1.00  0.00     0.010 C 
ATOM     17  C   UNL     1       5.550  12.311  47.053  1.00  0.00     0.006 C 
ATOM     18  C   UNL     1       6.094  11.590  49.410  1.00  0.00     0.041 C 
ATOM     19  C   UNL     1       6.664  12.355  48.189  1.00  0.00     0.092 C 
ATOM     20  C   UNL     1       5.963  11.295  45.934  1.00  0.00     0.011 C 
ATOM     21  C   UNL     1       5.454  13.693  46.340  1.00  0.00     0.015 C 
ATOM     22  C   UNL     1       7.982  11.680  47.757  1.00  0.00    -0.031 C 
ATOM     23  C   UNL     1       6.598   9.996  46.441  1.00  0.00     0.009 C 
ATOM     24  C   UNL     1       7.921  10.244  47.219  1.00  0.00     0.025 C 
ATOM     25  C   UNL     1       9.171  12.266  48.006  1.00  0.00     0.050 C 
ATOM     26  C   UNL     1       9.228   9.802  46.444  1.00  0.00    -0.013 C 
ATOM     27  C   UNL     1      10.449  11.608  47.713  1.00  0.00     0.159 C 
ATOM     28  C   UNL     1      10.490  10.169  47.289  1.00  0.00     0.070 C 
ATOM     29  C   UNL     1       9.271   8.264  46.142  1.00  0.00     0.042 C 
ATOM     30  C   UNL     1       9.316  10.545  45.081  1.00  0.00     0.013 C 
ATOM     31  O   UNL     1      11.524  12.245  47.868  1.00  0.00    -0.295 OA
ATOM     32  C   UNL     1      10.653   9.283  48.540  1.00  0.00     0.047 C 
ATOM     33  C   UNL     1       9.499   7.353  47.370  1.00  0.00     0.143 C 
ATOM     34  C   UNL     1      10.737   7.798  48.161  1.00  0.00     0.143 C 
BRANCH  19  35
ATOM     35  O   UNL     1       6.920  13.692  48.587  1.00  0.00    -0.385 OA
ATOM     36  H   UNL     1       7.333  13.684  49.490  1.00  0.00     0.211 HD
ENDBRANCH  19  35
BRANCH  33  37
ATOM     37  O   UNL     1       8.370   7.309  48.203  1.00  0.00    -0.390 OA
ATOM     38  H   UNL     1       7.599   7.606  47.654  1.00  0.00     0.211 HD
ENDBRANCH  33  37
BRANCH  34  39
ATOM     39  O   UNL     1      10.861   7.016  49.323  1.00  0.00    -0.390 OA
ATOM     40  H   UNL     1      11.827   6.993  49.551  1.00  0.00     0.211 HD
ENDBRANCH  34  39
ENDBRANCH   1  15
BRANCH   1  41
ATOM     41  O   UNL     1       3.089  10.441  46.383  1.00  0.00    -0.387 OA
ATOM     42  H   UNL     1       3.258   9.615  46.909  1.00  0.00     0.211 HD
ENDBRANCH   1  41
TORSDOF 9
ENDMDL
MODEL 4
REMARK VINA RESULT:    -7.428      1.911      3.307
REMARK INTER + INTRA:         -11.597
REMARK INTER:                 -10.495
REMARK INTRA:                  -1.102
REMARK UNBOUND:                -1.347
REMARK SMILES C[C@@H]1C(=O)O[C@H](C)[C@H]1C[C@H](O)[C@](C)(O)[C@H]1CC[C@@]2(O)C3=CC(=O)[C@H]4C[C@@H](O)[C@@H](O)C[C@@]4(C)[C@@H]3CC[C@@]12C
REMARK SMILES IDX 12 1 13 2 10 3 9 4 8 5 1 6 2 7 3 8 6 9 5 10 4 11 7 12 11 13
REMARK SMILES IDX 15 15 16 16 36 17 17 18 18 19 35 20 37 21 20 22 34 23 33 24
REMARK SMILES IDX 21 25 31 26 22 27 24 28 30 29 32 30 23 31 25 32 28 33 26 34
REMARK SMILES IDX 19 35 29 37 27 39 14 41
REMARK H PARENT 11 14 19 36 29 38 27 40 14 42
REMARK Flexibility Score: inf
ROOT
ATOM      1  C   UNL     1       9.483   5.739  48.529  1.00  0.00     0.091 C 
ATOM      2  C   UNL     1      10.194   4.402  48.248  1.00  0.00     0.045 C 
ENDROOT
BRANCH   1   3
ATOM      3  C   UNL     1       9.941   6.835  47.490  1.00  0.00     0.146 C 
BRANCH   3   4
ATOM      4  C   UNL     1       8.800   7.608  46.759  1.00  0.00     0.043 C 
BRANCH   4   5
ATOM      5  C   UNL     1       8.750   9.153  46.909  1.00  0.00     0.046 C 
ATOM      6  C   UNL     1       9.453  11.085  45.366  1.00  0.00     0.020 C 
ATOM      7  C   UNL     1       8.523   9.877  45.549  1.00  0.00     0.103 C 
ATOM      8  C   UNL     1       7.121  10.342  45.664  1.00  0.00     0.309 C 
ATOM      9  C   UNL     1       7.525   9.555  47.797  1.00  0.00     0.177 C 
ATOM     10  O   UNL     1       6.595  10.164  46.920  1.00  0.00    -0.462 OA
ATOM     11  O   UNL     1       6.478  10.887  44.727  1.00  0.00    -0.252 OA
ATOM     12  C   UNL     1       7.909  10.543  48.900  1.00  0.00     0.053 C 
ENDBRANCH   4   5
ENDBRANCH   3   4
BRANCH   3  13
ATOM     13  O   UNL     1      10.725   6.237  46.495  1.00  0.00    -0.390 OA
ATOM     14  H   UNL     1      10.433   5.289  46.416  1.00  0.00     0.211 HD
ENDBRANCH   3  13
ENDBRANCH   1   3
BRANCH   1  15
ATOM     15  C   UNL     1       9.618   6.252  50.046  1.00  0.00     0.032 C 
ATOM     16  C   UNL     1       9.309   5.139  51.058  1.00  0.00     0.010 C 
ATOM     17  C   UNL     1      10.830   7.061  50.686  1.00  0.00     0.006 C 
ATOM     18  C   UNL     1       9.626   5.691  52.432  1.00  0.00     0.041 C 
ATOM     19  C   UNL     1      10.563   6.912  52.248  1.00  0.00     0.092 C 
ATOM     20  C   UNL     1      12.277   6.572  50.338  1.00  0.00     0.011 C 
ATOM     21  C   UNL     1      10.791   8.563  50.274  1.00  0.00     0.015 C 
ATOM     22  C   UNL     1      11.857   6.666  53.052  1.00  0.00    -0.031 C 
ATOM     23  C   UNL     1      12.731   5.311  51.081  1.00  0.00     0.009 C 
ATOM     24  C   UNL     1      12.770   5.510  52.622  1.00  0.00     0.025 C 
ATOM     25  C   UNL     1      12.092   7.332  54.201  1.00  0.00     0.050 C 
ATOM     26  C   UNL     1      14.227   5.592  53.235  1.00  0.00    -0.013 C 
ATOM     27  C   UNL     1      13.253   7.047  55.051  1.00  0.00     0.159 C 
ATOM     28  C   UNL     1      14.137   5.867  54.770  1.00  0.00     0.070 C 
ATOM     29  C   UNL     1      15.057   4.280  53.020  1.00  0.00     0.042 C 
ATOM     30  C   UNL     1      15.017   6.756  52.572  1.00  0.00     0.013 C 
ATOM     31  O   UNL     1      13.479   7.772  56.056  1.00  0.00    -0.295 OA
ATOM     32  C   UNL     1      13.621   4.653  55.568  1.00  0.00     0.047 C 
ATOM     33  C   UNL     1      14.603   3.062  53.857  1.00  0.00     0.143 C 
ATOM     34  C   UNL     1      14.511   3.423  55.346  1.00  0.00     0.143 C 
BRANCH  19  35
ATOM     35  O   UNL     1       9.898   8.058  52.754  1.00  0.00    -0.385 OA
ATOM     36  H   UNL     1      10.576   8.742  52.996  1.00  0.00     0.211 HD
ENDBRANCH  19  35
BRANCH  33  37
ATOM     37  O   UNL     1      13.383   2.542  53.398  1.00  0.00    -0.390 OA
ATOM     38  H   UNL     1      12.852   3.310  53.064  1.00  0.00     0.211 HD
ENDBRANCH  33  37
BRANCH  34  39
ATOM     39  O   UNL     1      14.002   2.329  56.066  1.00  0.00    -0.390 OA
ATOM     40  H   UNL     1      14.712   2.048  56.701  1.00  0.00     0.211 HD
ENDBRANCH  34  39
ENDBRANCH   1  15
BRANCH   1  41
ATOM     41  O   UNL     1       8.114   5.488  48.295  1.00  0.00    -0.387 OA
ATOM     42  H   UNL     1       8.006   5.241  47.340  1.00  0.00     0.211 HD
ENDBRANCH   1  41
TORSDOF 9
ENDMDL
MODEL 5
REMARK VINA RESULT:    -7.346      2.356      5.066
REMARK INTER + INTRA:         -11.484
REMARK INTER:                 -10.747
REMARK INTRA:                  -0.737
REMARK UNBOUND:                -1.347
REMARK SMILES C[C@@H]1C(=O)O[C@H](C)[C@H]1C[C@H](O)[C@](C)(O)[C@H]1CC[C@@]2(O)C3=CC(=O)[C@H]4C[C@@H](O)[C@@H](O)C[C@@]4(C)[C@@H]3CC[C@@]12C
REMARK SMILES IDX 12 1 13 2 10 3 9 4 8 5 1 6 2 7 3 8 6 9 5 10 4 11 7 12 11 13
REMARK SMILES IDX 15 15 16 16 36 17 17 18 18 19 35 20 37 21 20 22 34 23 33 24
REMARK SMILES IDX 21 25 31 26 22 27 24 28 30 29 32 30 23 31 25 32 28 33 26 34
REMARK SMILES IDX 19 35 29 37 27 39 14 41
REMARK H PARENT 11 14 19 36 29 38 27 40 14 42
REMARK Flexibility Score: inf
ROOT
ATOM      1  C   UNL     1       7.897  10.634  45.743  1.00  0.00     0.091 C 
ATOM      2  C   UNL     1       7.998  11.569  44.522  1.00  0.00     0.045 C 
ENDROOT
BRANCH   1   3
ATOM      3  C   UNL     1       6.978  11.276  46.853  1.00  0.00     0.146 C 
BRANCH   3   4
ATOM      4  C   UNL     1       5.539  10.685  46.979  1.00  0.00     0.043 C 
BRANCH   4   5
ATOM      5  C   UNL     1       4.420  11.601  47.546  1.00  0.00     0.046 C 
ATOM      6  C   UNL     1       2.092  12.264  46.677  1.00  0.00     0.020 C 
ATOM      7  C   UNL     1       2.994  11.114  47.151  1.00  0.00     0.103 C 
ATOM      8  C   UNL     1       2.476  10.570  48.427  1.00  0.00     0.309 C 
ATOM      9  C   UNL     1       4.449  11.558  49.111  1.00  0.00     0.177 C 
ATOM     10  O   UNL     1       3.293  10.838  49.499  1.00  0.00    -0.462 OA
ATOM     11  O   UNL     1       1.380   9.960  48.543  1.00  0.00    -0.252 OA
ATOM     12  C   UNL     1       4.411  12.957  49.729  1.00  0.00     0.053 C 
ENDBRANCH   4   5
ENDBRANCH   3   4
BRANCH   3  13
ATOM     13  O   UNL     1       6.831  12.647  46.604  1.00  0.00    -0.390 OA
ATOM     14  H   UNL     1       5.868  12.812  46.414  1.00  0.00     0.211 HD
ENDBRANCH   3  13
ENDBRANCH   1   3
BRANCH   1  15
ATOM     15  C   UNL     1       9.316  10.163  46.331  1.00  0.00     0.032 C 
ATOM     16  C   UNL     1       9.540  10.667  47.763  1.00  0.00     0.010 C 
ATOM     17  C   UNL     1       9.926   8.693  46.315  1.00  0.00     0.006 C 
ATOM     18  C   UNL     1      10.821  10.029  48.261  1.00  0.00     0.041 C 
ATOM     19  C   UNL     1      11.114   8.797  47.369  1.00  0.00     0.092 C 
ATOM     20  C   UNL     1       8.965   7.517  46.701  1.00  0.00     0.011 C 
ATOM     21  C   UNL     1      10.485   8.325  44.908  1.00  0.00     0.015 C 
ATOM     22  C   UNL     1      11.220   7.550  48.272  1.00  0.00    -0.031 C 
ATOM     23  C   UNL     1       8.681   7.379  48.200  1.00  0.00     0.009 C 
ATOM     24  C   UNL     1       9.965   7.091  49.026  1.00  0.00     0.025 C 
ATOM     25  C   UNL     1      12.417   6.983  48.527  1.00  0.00     0.050 C 
ATOM     26  C   UNL     1      10.067   5.614  49.585  1.00  0.00    -0.013 C 
ATOM     27  C   UNL     1      12.573   5.867  49.466  1.00  0.00     0.159 C 
ATOM     28  C   UNL     1      11.427   5.424  50.329  1.00  0.00     0.070 C 
ATOM     29  C   UNL     1       8.910   5.254  50.580  1.00  0.00     0.042 C 
ATOM     30  C   UNL     1      10.002   4.596  48.411  1.00  0.00     0.013 C 
ATOM     31  O   UNL     1      13.696   5.309  49.585  1.00  0.00    -0.295 OA
ATOM     32  C   UNL     1      11.488   6.182  51.670  1.00  0.00     0.047 C 
ATOM     33  C   UNL     1       8.981   5.949  51.959  1.00  0.00     0.143 C 
ATOM     34  C   UNL     1      10.357   5.741  52.608  1.00  0.00     0.143 C 
BRANCH  19  35
ATOM     35  O   UNL     1      12.351   9.015  46.710  1.00  0.00    -0.385 OA
ATOM     36  H   UNL     1      12.396   8.428  45.910  1.00  0.00     0.211 HD
ENDBRANCH  19  35
BRANCH  33  37
ATOM     37  O   UNL     1       8.679   7.317  51.869  1.00  0.00    -0.390 OA
ATOM     38  H   UNL     1       7.834   7.456  52.370  1.00  0.00     0.211 HD
ENDBRANCH  33  37
BRANCH  34  39
ATOM     39  O   UNL     1      10.425   6.466  53.811  1.00  0.00    -0.390 OA
ATOM     40  H   UNL     1      10.852   5.869  54.481  1.00  0.00     0.211 HD
ENDBRANCH  34  39
ENDBRANCH   1  15
BRANCH   1  41
ATOM     41  O   UNL     1       7.238   9.479  45.272  1.00  0.00    -0.387 OA
ATOM     42  H   UNL     1       6.547   9.225  45.939  1.00  0.00     0.211 HD
ENDBRANCH   1  41
TORSDOF 9
ENDMDL
MODEL 6
REMARK VINA RESULT:    -7.333      1.783      2.486
REMARK INTER + INTRA:         -11.467
REMARK INTER:                 -10.572
REMARK INTRA:                  -0.895
REMARK UNBOUND:                -1.347
REMARK SMILES C[C@@H]1C(=O)O[C@H](C)[C@H]1C[C@H](O)[C@](C)(O)[C@H]1CC[C@@]2(O)C3=CC(=O)[C@H]4C[C@@H](O)[C@@H](O)C[C@@]4(C)[C@@H]3CC[C@@]12C
REMARK SMILES IDX 12 1 13 2 10 3 9 4 8 5 1 6 2 7 3 8 6 9 5 10 4 11 7 12 11 13
REMARK SMILES IDX 15 15 16 16 36 17 17 18 18 19 35 20 37 21 20 22 34 23 33 24
REMARK SMILES IDX 21 25 31 26 22 27 24 28 30 29 32 30 23 31 25 32 28 33 26 34
REMARK SMILES IDX 19 35 29 37 27 39 14 41
REMARK H PARENT 11 14 19 36 29 38 27 40 14 42
REMARK Flexibility Score: inf
ROOT
ATOM      1  C   UNL     1       9.484   8.213  48.191  1.00  0.00     0.091 C 
ATOM      2  C   UNL     1      10.926   8.025  47.682  1.00  0.00     0.045 C 
ENDROOT
BRANCH   1   3
ATOM      3  C   UNL     1       9.168   9.745  48.393  1.00  0.00     0.146 C 
BRANCH   3   4
ATOM      4  C   UNL     1       7.660  10.120  48.543  1.00  0.00     0.043 C 
BRANCH   4   5
ATOM      5  C   UNL     1       7.056  11.136  47.536  1.00  0.00     0.046 C 
ATOM      6  C   UNL     1       6.339  10.945  45.074  1.00  0.00     0.020 C 
ATOM      7  C   UNL     1       6.097  10.461  46.511  1.00  0.00     0.103 C 
ATOM      8  C   UNL     1       4.764  10.917  46.971  1.00  0.00     0.309 C 
ATOM      9  C   UNL     1       6.170  12.174  48.304  1.00  0.00     0.177 C 
ATOM     10  O   UNL     1       4.831  11.873  47.955  1.00  0.00    -0.462 OA
ATOM     11  O   UNL     1       3.672  10.511  46.489  1.00  0.00    -0.252 OA
ATOM     12  C   UNL     1       6.490  13.616  47.905  1.00  0.00     0.053 C 
ENDBRANCH   4   5
ENDBRANCH   3   4
BRANCH   3  13
ATOM     13  O   UNL     1       9.658  10.473  47.302  1.00  0.00    -0.390 OA
ATOM     14  H   UNL     1      10.650  10.394  47.313  1.00  0.00     0.211 HD
ENDBRANCH   3  13
ENDBRANCH   1   3
BRANCH   1  15
ATOM     15  C   UNL     1       9.127   7.345  49.495  1.00  0.00     0.032 C 
ATOM     16  C   UNL     1       9.446   5.856  49.299  1.00  0.00     0.010 C 
ATOM     17  C   UNL     1       9.537   7.655  51.001  1.00  0.00     0.006 C 
ATOM     18  C   UNL     1       9.225   5.177  50.635  1.00  0.00     0.041 C 
ATOM     19  C   UNL     1       9.254   6.271  51.733  1.00  0.00     0.092 C 
ATOM     20  C   UNL     1      11.014   8.108  51.261  1.00  0.00     0.011 C 
ATOM     21  C   UNL     1       8.647   8.779  51.612  1.00  0.00     0.015 C 
ATOM     22  C   UNL     1      10.345   5.906  52.762  1.00  0.00    -0.031 C 
ATOM     23  C   UNL     1      12.054   6.985  51.213  1.00  0.00     0.009 C 
ATOM     24  C   UNL     1      11.807   5.898  52.297  1.00  0.00     0.025 C 
ATOM     25  C   UNL     1      10.013   5.441  53.983  1.00  0.00     0.050 C 
ATOM     26  C   UNL     1      12.850   5.912  53.487  1.00  0.00    -0.013 C 
ATOM     27  C   UNL     1      11.018   4.979  54.947  1.00  0.00     0.159 C 
ATOM     28  C   UNL     1      12.456   4.833  54.545  1.00  0.00     0.070 C 
ATOM     29  C   UNL     1      14.319   5.626  53.019  1.00  0.00     0.042 C 
ATOM     30  C   UNL     1      12.847   7.304  54.181  1.00  0.00     0.013 C 
ATOM     31  O   UNL     1      10.658   4.655  56.110  1.00  0.00    -0.295 OA
ATOM     32  C   UNL     1      12.693   3.392  54.049  1.00  0.00     0.047 C 
ATOM     33  C   UNL     1      14.603   4.173  52.577  1.00  0.00     0.143 C 
ATOM     34  C   UNL     1      14.160   3.175  53.656  1.00  0.00     0.143 C 
BRANCH  19  35
ATOM     35  O   UNL     1       7.986   6.290  52.369  1.00  0.00    -0.385 OA
ATOM     36  H   UNL     1       7.488   7.093  52.066  1.00  0.00     0.211 HD
ENDBRANCH  19  35
BRANCH  33  37
ATOM     37  O   UNL     1      13.995   3.873  51.348  1.00  0.00    -0.390 OA
ATOM     38  H   UNL     1      14.625   3.288  50.852  1.00  0.00     0.211 HD
ENDBRANCH  33  37
BRANCH  34  39
ATOM     39  O   UNL     1      14.339   1.862  53.186  1.00  0.00    -0.390 OA
ATOM     40  H   UNL     1      15.314   1.675  53.221  1.00  0.00     0.211 HD
ENDBRANCH  34  39
ENDBRANCH   1  15
BRANCH   1  41
ATOM     41  O   UNL     1       8.658   7.750  47.145  1.00  0.00    -0.387 OA
ATOM     42  H   UNL     1       9.234   7.287  46.481  1.00  0.00     0.211 HD
ENDBRANCH   1  41
TORSDOF 9
ENDMDL
MODEL 7
REMARK VINA RESULT:    -7.173      2.566      9.026
REMARK INTER + INTRA:         -11.245
REMARK INTER:                 -10.260
REMARK INTRA:                  -0.985
REMARK UNBOUND:                -1.347
REMARK SMILES C[C@@H]1C(=O)O[C@H](C)[C@H]1C[C@H](O)[C@](C)(O)[C@H]1CC[C@@]2(O)C3=CC(=O)[C@H]4C[C@@H](O)[C@@H](O)C[C@@]4(C)[C@@H]3CC[C@@]12C
REMARK SMILES IDX 12 1 13 2 10 3 9 4 8 5 1 6 2 7 3 8 6 9 5 10 4 11 7 12 11 13
REMARK SMILES IDX 15 15 16 16 36 17 17 18 18 19 35 20 37 21 20 22 34 23 33 24
REMARK SMILES IDX 21 25 31 26 22 27 24 28 30 29 32 30 23 31 25 32 28 33 26 34
REMARK SMILES IDX 19 35 29 37 27 39 14 41
REMARK H PARENT 11 14 19 36 29 38 27 40 14 42
REMARK Flexibility Score: inf
ROOT
ATOM      1  C   UNL     1       9.932   5.869  48.798  1.00  0.00     0.091 C 
ATOM      2  C   UNL     1      10.631   6.530  50.002  1.00  0.00     0.045 C 
ENDROOT
BRANCH   1   3
ATOM      3  C   UNL     1      10.570   4.458  48.498  1.00  0.00     0.146 C 
BRANCH   3   4
ATOM      4  C   UNL     1      11.832   4.457  47.579  1.00  0.00     0.043 C 
BRANCH   4   5
ATOM      5  C   UNL     1      13.170   3.942  48.176  1.00  0.00     0.046 C 
ATOM      6  C   UNL     1      14.901   2.221  47.367  1.00  0.00     0.020 C 
ATOM      7  C   UNL     1      14.205   3.559  47.077  1.00  0.00     0.103 C 
ATOM      8  C   UNL     1      15.190   4.661  47.166  1.00  0.00     0.309 C 
ATOM      9  C   UNL     1      13.852   5.086  49.000  1.00  0.00     0.177 C 
ATOM     10  O   UNL     1      14.981   5.486  48.245  1.00  0.00    -0.462 OA
ATOM     11  O   UNL     1      16.154   4.815  46.368  1.00  0.00    -0.252 OA
ATOM     12  C   UNL     1      14.303   4.613  50.383  1.00  0.00     0.053 C 
ENDBRANCH   4   5
ENDBRANCH   3   4
BRANCH   3  13
ATOM     13  O   UNL     1       9.620   3.636  47.878  1.00  0.00    -0.390 OA
ATOM     14  H   UNL     1       9.904   2.693  48.022  1.00  0.00     0.211 HD
ENDBRANCH   3  13
ENDBRANCH   1   3
BRANCH   1  15
ATOM     15  C   UNL     1       9.867   6.794  47.485  1.00  0.00     0.032 C 
ATOM     16  C   UNL     1       8.470   6.792  46.849  1.00  0.00     0.010 C 
ATOM     17  C   UNL     1      10.381   8.293  47.335  1.00  0.00     0.006 C 
ATOM     18  C   UNL     1       8.491   7.815  45.732  1.00  0.00     0.041 C 
ATOM     19  C   UNL     1       9.687   8.767  45.984  1.00  0.00     0.092 C 
ATOM     20  C   UNL     1      10.033   9.286  48.496  1.00  0.00     0.011 C 
ATOM     21  C   UNL     1      11.932   8.350  47.193  1.00  0.00     0.015 C 
ATOM     22  C   UNL     1       9.156  10.214  46.063  1.00  0.00    -0.031 C 
ATOM     23  C   UNL     1       8.586   9.788  48.508  1.00  0.00     0.009 C 
ATOM     24  C   UNL     1       8.220  10.582  47.223  1.00  0.00     0.025 C 
ATOM     25  C   UNL     1       9.365  11.082  45.053  1.00  0.00     0.050 C 
ATOM     26  C   UNL     1       8.063  12.141  47.440  1.00  0.00    -0.013 C 
ATOM     27  C   UNL     1       8.783  12.428  45.040  1.00  0.00     0.159 C 
ATOM     28  C   UNL     1       7.772  12.836  46.071  1.00  0.00     0.070 C 
ATOM     29  C   UNL     1       6.906  12.509  48.431  1.00  0.00     0.042 C 
ATOM     30  C   UNL     1       9.378  12.733  48.021  1.00  0.00     0.013 C 
ATOM     31  O   UNL     1       9.099  13.231  44.122  1.00  0.00    -0.295 OA
ATOM     32  C   UNL     1       6.359  12.536  45.534  1.00  0.00     0.047 C 
ATOM     33  C   UNL     1       5.475  12.280  47.895  1.00  0.00     0.143 C 
ATOM     34  C   UNL     1       5.281  12.967  46.536  1.00  0.00     0.143 C 
BRANCH  19  35
ATOM     35  O   UNL     1      10.583   8.647  44.892  1.00  0.00    -0.385 OA
ATOM     36  H   UNL     1      10.376   9.355  44.227  1.00  0.00     0.211 HD
ENDBRANCH  19  35
BRANCH  33  37
ATOM     37  O   UNL     1       5.165  10.913  47.806  1.00  0.00    -0.390 OA
ATOM     38  H   UNL     1       5.936  10.473  47.364  1.00  0.00     0.211 HD
ENDBRANCH  33  37
BRANCH  34  39
ATOM     39  O   UNL     1       4.006  12.658  46.029  1.00  0.00    -0.390 OA
ATOM     40  H   UNL     1       3.574  12.056  46.690  1.00  0.00     0.211 HD
ENDBRANCH  34  39
ENDBRANCH   1  15
BRANCH   1  41
ATOM     41  O   UNL     1       8.603   5.647  49.216  1.00  0.00    -0.387 OA
ATOM     42  H   UNL     1       8.564   4.760  49.660  1.00  0.00     0.211 HD
ENDBRANCH   1  41
TORSDOF 9
ENDMDL
MODEL 8
REMARK VINA RESULT:    -7.144      2.385      8.059
REMARK INTER + INTRA:         -11.205
REMARK INTER:                  -9.557
REMARK INTRA:                  -1.649
REMARK UNBOUND:                -1.347
REMARK SMILES C[C@@H]1C(=O)O[C@H](C)[C@H]1C[C@H](O)[C@](C)(O)[C@H]1CC[C@@]2(O)C3=CC(=O)[C@H]4C[C@@H](O)[C@@H](O)C[C@@]4(C)[C@@H]3CC[C@@]12C
REMARK SMILES IDX 12 1 13 2 10 3 9 4 8 5 1 6 2 7 3 8 6 9 5 10 4 11 7 12 11 13
REMARK SMILES IDX 15 15 16 16 36 17 17 18 18 19 35 20 37 21 20 22 34 23 33 24
REMARK SMILES IDX 21 25 31 26 22 27 24 28 30 29 32 30 23 31 25 32 28 33 26 34
REMARK SMILES IDX 19 35 29 37 27 39 14 41
REMARK H PARENT 11 14 19 36 29 38 27 40 14 42
REMARK Flexibility Score: inf
ROOT
ATOM      1  C   UNL     1      11.291   9.205  53.146  1.00  0.00     0.091 C 
ATOM      2  C   UNL     1      12.262   9.348  54.333  1.00  0.00     0.045 C 
ENDROOT
BRANCH   1   3
ATOM      3  C   UNL     1      10.835   7.703  52.987  1.00  0.00     0.146 C 
BRANCH   3   4
ATOM      4  C   UNL     1       9.310   7.469  52.754  1.00  0.00     0.043 C 
BRANCH   4   5
ATOM      5  C   UNL     1       8.873   6.173  52.019  1.00  0.00     0.046 C 
ATOM      6  C   UNL     1       9.584   5.097  49.794  1.00  0.00     0.020 C 
ATOM      7  C   UNL     1      10.031   5.534  51.197  1.00  0.00     0.103 C 
ATOM      8  C   UNL     1      10.376   4.340  52.003  1.00  0.00     0.309 C 
ATOM      9  C   UNL     1       8.467   5.084  53.069  1.00  0.00     0.177 C 
ATOM     10  O   UNL     1       9.489   4.105  53.026  1.00  0.00    -0.462 OA
ATOM     11  O   UNL     1      11.353   3.581  51.762  1.00  0.00    -0.252 OA
ATOM     12  C   UNL     1       7.122   4.434  52.740  1.00  0.00     0.053 C 
ENDBRANCH   4   5
ENDBRANCH   3   4
BRANCH   3  13
ATOM     13  O   UNL     1      11.182   6.983  54.138  1.00  0.00    -0.390 OA
ATOM     14  H   UNL     1      10.382   6.965  54.729  1.00  0.00     0.211 HD
ENDBRANCH   3  13
ENDBRANCH   1   3
BRANCH   1  15
ATOM     15  C   UNL     1      11.841   9.818  51.767  1.00  0.00     0.032 C 
ATOM     16  C   UNL     1      12.511   8.752  50.890  1.00  0.00     0.010 C 
ATOM     17  C   UNL     1      11.054  10.751  50.745  1.00  0.00     0.006 C 
ATOM     18  C   UNL     1      12.837   9.409  49.565  1.00  0.00     0.041 C 
ATOM     19  C   UNL     1      11.960  10.681  49.439  1.00  0.00     0.092 C 
ATOM     20  C   UNL     1       9.580  10.348  50.400  1.00  0.00     0.011 C 
ATOM     21  C   UNL     1      10.970  12.218  51.264  1.00  0.00     0.015 C 
ATOM     22  C   UNL     1      11.130  10.579  48.142  1.00  0.00    -0.031 C 
ATOM     23  C   UNL     1       9.441   9.172  49.428  1.00  0.00     0.009 C 
ATOM     24  C   UNL     1      10.076   9.468  48.041  1.00  0.00     0.025 C 
ATOM     25  C   UNL     1      11.437  11.330  47.066  1.00  0.00     0.050 C 
ATOM     26  C   UNL     1       9.029   9.693  46.876  1.00  0.00    -0.013 C 
ATOM     27  C   UNL     1      10.744  11.183  45.781  1.00  0.00     0.159 C 
ATOM     28  C   UNL     1       9.780  10.056  45.555  1.00  0.00     0.070 C 
ATOM     29  C   UNL     1       8.136   8.434  46.602  1.00  0.00     0.042 C 
ATOM     30  C   UNL     1       8.076  10.867  47.238  1.00  0.00     0.013 C 
ATOM     31  O   UNL     1      11.000  11.984  44.843  1.00  0.00    -0.295 OA
ATOM     32  C   UNL     1      10.542   8.860  44.950  1.00  0.00     0.047 C 
ATOM     33  C   UNL     1       8.858   7.241  45.935  1.00  0.00     0.143 C 
ATOM     34  C   UNL     1       9.595   7.686  44.664  1.00  0.00     0.143 C 
BRANCH  19  35
ATOM     35  O   UNL     1      12.822  11.805  49.366  1.00  0.00    -0.385 OA
ATOM     36  H   UNL     1      13.737  11.493  49.141  1.00  0.00     0.211 HD
ENDBRANCH  19  35
BRANCH  33  37
ATOM     37  O   UNL     1       9.742   6.606  46.822  1.00  0.00    -0.390 OA
ATOM     38  H   UNL     1      10.024   7.290  47.483  1.00  0.00     0.211 HD
ENDBRANCH  33  37
BRANCH  34  39
ATOM     39  O   UNL     1      10.322   6.604  44.137  1.00  0.00    -0.390 OA
ATOM     40  H   UNL     1      10.328   6.717  43.150  1.00  0.00     0.211 HD
ENDBRANCH  34  39
ENDBRANCH   1  15
BRANCH   1  41
ATOM     41  O   UNL     1      10.150   9.951  53.508  1.00  0.00    -0.387 OA
ATOM     42  H   UNL     1      10.209  10.153  54.478  1.00  0.00     0.211 HD
ENDBRANCH   1  41
TORSDOF 9
ENDMDL
