MODEL 1
REMARK VINA RESULT:    -2.033      0.000      0.000
REMARK INTER + INTRA:          -3.226
REMARK INTER:                  -2.568
REMARK INTRA:                  -0.658
REMARK UNBOUND:                -0.658
REMARK SMILES O=C(C=Cc1ccc(O)cc1)c1ccc(O)cc1O
REMARK SMILES IDX 4 1 3 2 5 3 6 4 7 5 8 6 11 7 10 8 9 9 2 11 1 12 12 13 18 14
REMARK SMILES IDX 13 15 17 16 14 17 15 18 19 19 16 21
REMARK H PARENT 9 10 19 20 16 22
REMARK Flexibility Score: inf
ROOT
ATOM      1  C   UNL     1      13.502 -37.267  31.673  1.00  0.00     0.012 C 
ATOM      2  C   UNL     1      14.416 -38.040  32.277  1.00  0.00     0.053 C 
ENDROOT
BRANCH   1   3
ATOM      3  C   UNL     1      12.038 -37.477  31.792  1.00  0.00    -0.025 A 
ATOM      4  C   UNL     1      11.288 -37.664  30.619  1.00  0.00     0.012 A 
ATOM      5  C   UNL     1       9.907 -37.876  30.684  1.00  0.00     0.047 A 
ATOM      6  C   UNL     1       9.259 -37.915  31.924  1.00  0.00     0.115 A 
ATOM      7  C   UNL     1      11.379 -37.535  33.037  1.00  0.00     0.012 A 
ATOM      8  C   UNL     1       9.999 -37.747  33.097  1.00  0.00     0.047 A 
BRANCH   6   9
ATOM      9  O   UNL     1       7.883 -38.125  32.001  1.00  0.00    -0.508 OA
ATOM     10  H   UNL     1       7.223 -37.418  31.699  1.00  0.00     0.293 HD
ENDBRANCH   6   9
ENDBRANCH   1   3
BRANCH   2  11
ATOM     11  C   UNL     1      15.868 -37.793  32.147  1.00  0.00     0.189 C 
ATOM     12  O   UNL     1      16.639 -38.017  33.120  1.00  0.00    -0.289 OA
BRANCH  11  13
ATOM     13  C   UNL     1      16.425 -37.250  30.889  1.00  0.00     0.064 A 
ATOM     14  C   UNL     1      16.702 -35.870  30.726  1.00  0.00     0.130 A 
ATOM     15  C   UNL     1      16.649 -38.123  29.808  1.00  0.00     0.020 A 
ATOM     16  C   UNL     1      17.160 -35.396  29.491  1.00  0.00     0.093 A 
ATOM     17  C   UNL     1      17.120 -37.637  28.587  1.00  0.00     0.047 A 
ATOM     18  C   UNL     1      17.371 -36.274  28.422  1.00  0.00     0.119 A 
BRANCH  14  19
ATOM     19  O   UNL     1      16.563 -34.954  31.770  1.00  0.00    -0.507 OA
ATOM     20  H   UNL     1      16.847 -35.148  32.721  1.00  0.00     0.293 HD
ENDBRANCH  14  19
BRANCH  18  21
ATOM     21  O   UNL     1      17.834 -35.803  27.195  1.00  0.00    -0.508 OA
ATOM     22  H   UNL     1      17.494 -36.184  26.320  1.00  0.00     0.293 HD
ENDBRANCH  18  21
ENDBRANCH  11  13
ENDBRANCH   2  11
TORSDOF 6
ENDMDL
MODEL 2
REMARK VINA RESULT:    -1.153     15.046     17.734
REMARK INTER + INTRA:          -2.114
REMARK INTER:                  -1.607
REMARK INTRA:                  -0.508
REMARK UNBOUND:                -0.658
REMARK SMILES O=C(C=Cc1ccc(O)cc1)c1ccc(O)cc1O
REMARK SMILES IDX 4 1 3 2 5 3 6 4 7 5 8 6 11 7 10 8 9 9 2 11 1 12 12 13 18 14
REMARK SMILES IDX 13 15 17 16 14 17 15 18 19 19 16 21
REMARK H PARENT 9 10 19 20 16 22
REMARK Flexibility Score: inf
ROOT
ATOM      1  C   UNL     1       8.620 -33.477  15.321  1.00  0.00     0.012 C 
ATOM      2  C   UNL     1       8.247 -34.678  14.855  1.00  0.00     0.053 C 
ENDROOT
BRANCH   1   3
ATOM      3  C   UNL     1       9.813 -32.741  14.838  1.00  0.00    -0.025 A 
ATOM      4  C   UNL     1      10.311 -31.682  15.616  1.00  0.00     0.012 A 
ATOM      5  C   UNL     1      11.440 -30.965  15.204  1.00  0.00     0.047 A 
ATOM      6  C   UNL     1      12.093 -31.306  14.014  1.00  0.00     0.115 A 
ATOM      7  C   UNL     1      10.488 -33.086  13.649  1.00  0.00     0.012 A 
ATOM      8  C   UNL     1      11.616 -32.368  13.242  1.00  0.00     0.047 A 
BRANCH   6   9
ATOM      9  O   UNL     1      13.218 -30.599  13.594  1.00  0.00    -0.508 OA
ATOM     10  H   UNL     1      13.203 -30.031  12.755  1.00  0.00     0.293 HD
ENDBRANCH   6   9
ENDBRANCH   1   3
BRANCH   2  11
ATOM     11  C   UNL     1       7.043 -35.377  15.351  1.00  0.00     0.189 C 
ATOM     12  O   UNL     1       5.959 -35.306  14.709  1.00  0.00    -0.289 OA
BRANCH  11  13
ATOM     13  C   UNL     1       7.089 -36.140  16.619  1.00  0.00     0.064 A 
ATOM     14  C   UNL     1       6.474 -37.408  16.752  1.00  0.00     0.130 A 
ATOM     15  C   UNL     1       7.727 -35.570  17.736  1.00  0.00     0.020 A 
ATOM     16  C   UNL     1       6.482 -38.056  17.993  1.00  0.00     0.093 A 
ATOM     17  C   UNL     1       7.740 -36.234  18.963  1.00  0.00     0.047 A 
ATOM     18  C   UNL     1       7.114 -37.474  19.098  1.00  0.00     0.119 A 
BRANCH  14  19
ATOM     19  O   UNL     1       5.875 -38.064  15.674  1.00  0.00    -0.507 OA
ATOM     20  H   UNL     1       5.645 -37.605  14.803  1.00  0.00     0.293 HD
ENDBRANCH  14  19
BRANCH  18  21
ATOM     21  O   UNL     1       7.129 -38.122  20.331  1.00  0.00    -0.508 OA
ATOM     22  H   UNL     1       7.767 -37.844  21.068  1.00  0.00     0.293 HD
ENDBRANCH  18  21
ENDBRANCH  11  13
ENDBRANCH   2  11
TORSDOF 6
ENDMDL
MODEL 3
REMARK VINA RESULT:    -1.041     16.130     17.737
REMARK INTER + INTRA:          -1.973
REMARK INTER:                  -1.425
REMARK INTRA:                  -0.547
REMARK UNBOUND:                -0.658
REMARK SMILES O=C(C=Cc1ccc(O)cc1)c1ccc(O)cc1O
REMARK SMILES IDX 4 1 3 2 5 3 6 4 7 5 8 6 11 7 10 8 9 9 2 11 1 12 12 13 18 14
REMARK SMILES IDX 13 15 17 16 14 17 15 18 19 19 16 21
REMARK H PARENT 9 10 19 20 16 22
REMARK Flexibility Score: inf
ROOT
ATOM      1  C   UNL     1       7.563 -33.936  15.717  1.00  0.00     0.012 C 
ATOM      2  C   UNL     1       6.904 -34.055  14.554  1.00  0.00     0.053 C 
ENDROOT
BRANCH   1   3
ATOM      3  C   UNL     1       7.278 -32.881  16.720  1.00  0.00    -0.025 A 
ATOM      4  C   UNL     1       8.246 -32.609  17.702  1.00  0.00     0.012 A 
ATOM      5  C   UNL     1       8.025 -31.616  18.662  1.00  0.00     0.047 A 
ATOM      6  C   UNL     1       6.839 -30.873  18.645  1.00  0.00     0.115 A 
ATOM      7  C   UNL     1       6.094 -32.117  16.702  1.00  0.00     0.012 A 
ATOM      8  C   UNL     1       5.878 -31.124  17.663  1.00  0.00     0.047 A 
BRANCH   6   9
ATOM      9  O   UNL     1       6.608 -29.881  19.597  1.00  0.00    -0.508 OA
ATOM     10  H   UNL     1       5.669 -29.579  19.829  1.00  0.00     0.293 HD
ENDBRANCH   6   9
ENDBRANCH   1   3
BRANCH   2  11
ATOM     11  C   UNL     1       7.204 -35.129  13.584  1.00  0.00     0.189 C 
ATOM     12  O   UNL     1       6.268 -35.705  12.965  1.00  0.00    -0.289 OA
BRANCH  11  13
ATOM     13  C   UNL     1       8.601 -35.560  13.353  1.00  0.00     0.064 A 
ATOM     14  C   UNL     1       8.961 -36.928  13.287  1.00  0.00     0.130 A 
ATOM     15  C   UNL     1       9.607 -34.583  13.236  1.00  0.00     0.020 A 
ATOM     16  C   UNL     1      10.307 -37.285  13.139  1.00  0.00     0.093 A 
ATOM     17  C   UNL     1      10.943 -34.954  13.075  1.00  0.00     0.047 A 
ATOM     18  C   UNL     1      11.298 -36.303  13.032  1.00  0.00     0.119 A 
BRANCH  14  19
ATOM     19  O   UNL     1       8.013 -37.952  13.333  1.00  0.00    -0.507 OA
ATOM     20  H   UNL     1       7.315 -38.096  12.614  1.00  0.00     0.293 HD
ENDBRANCH  14  19
BRANCH  18  21
ATOM     21  O   UNL     1      12.637 -36.658  12.878  1.00  0.00    -0.508 OA
ATOM     22  H   UNL     1      12.906 -37.576  12.544  1.00  0.00     0.293 HD
ENDBRANCH  18  21
ENDBRANCH  11  13
ENDBRANCH   2  11
TORSDOF 6
ENDMDL
MODEL 4
REMARK VINA RESULT:    -1.022     16.465     18.775
REMARK INTER + INTRA:          -1.949
REMARK INTER:                  -1.601
REMARK INTRA:                  -0.348
REMARK UNBOUND:                -0.658
REMARK SMILES O=C(C=Cc1ccc(O)cc1)c1ccc(O)cc1O
REMARK SMILES IDX 4 1 3 2 5 3 6 4 7 5 8 6 11 7 10 8 9 9 2 11 1 12 12 13 18 14
REMARK SMILES IDX 13 15 17 16 14 17 15 18 19 19 16 21
REMARK H PARENT 9 10 19 20 16 22
REMARK Flexibility Score: inf
ROOT
ATOM      1  C   UNL     1       8.902 -32.901  14.643  1.00  0.00     0.012 C 
ATOM      2  C   UNL     1       8.172 -33.120  13.540  1.00  0.00     0.053 C 
ENDROOT
BRANCH   1   3
ATOM      3  C   UNL     1      10.256 -32.296  14.627  1.00  0.00    -0.025 A 
ATOM      4  C   UNL     1      11.112 -32.593  13.553  1.00  0.00     0.012 A 
ATOM      5  C   UNL     1      12.394 -32.037  13.490  1.00  0.00     0.047 A 
ATOM      6  C   UNL     1      12.834 -31.169  14.495  1.00  0.00     0.115 A 
ATOM      7  C   UNL     1      10.703 -31.408  15.626  1.00  0.00     0.012 A 
ATOM      8  C   UNL     1      11.985 -30.854  15.559  1.00  0.00     0.047 A 
BRANCH   6   9
ATOM      9  O   UNL     1      14.110 -30.610  14.443  1.00  0.00    -0.508 OA
ATOM     10  H   UNL     1      14.283 -29.731  13.969  1.00  0.00     0.293 HD
ENDBRANCH   6   9
ENDBRANCH   1   3
BRANCH   2  11
ATOM     11  C   UNL     1       6.818 -33.712  13.595  1.00  0.00     0.189 C 
ATOM     12  O   UNL     1       5.892 -33.246  12.876  1.00  0.00    -0.289 OA
BRANCH  11  13
ATOM     13  C   UNL     1       6.529 -34.834  14.516  1.00  0.00     0.064 A 
ATOM     14  C   UNL     1       6.294 -34.627  15.897  1.00  0.00     0.130 A 
ATOM     15  C   UNL     1       6.525 -36.148  14.012  1.00  0.00     0.020 A 
ATOM     16  C   UNL     1       6.097 -35.728  16.740  1.00  0.00     0.093 A 
ATOM     17  C   UNL     1       6.313 -37.235  14.862  1.00  0.00     0.047 A 
ATOM     18  C   UNL     1       6.103 -37.030  16.226  1.00  0.00     0.119 A 
BRANCH  14  19
ATOM     19  O   UNL     1       6.221 -33.350  16.458  1.00  0.00    -0.507 OA
ATOM     20  H   UNL     1       6.893 -32.999  17.127  1.00  0.00     0.293 HD
ENDBRANCH  14  19
BRANCH  18  21
ATOM     21  O   UNL     1       5.900 -38.125  17.063  1.00  0.00    -0.508 OA
ATOM     22  H   UNL     1       5.477 -38.981  16.722  1.00  0.00     0.293 HD
ENDBRANCH  18  21
ENDBRANCH  11  13
ENDBRANCH   2  11
TORSDOF 6
ENDMDL
MODEL 5
REMARK VINA RESULT:    -0.579     16.234     18.902
REMARK INTER + INTRA:          -1.389
REMARK INTER:                  -1.090
REMARK INTRA:                  -0.299
REMARK UNBOUND:                -0.658
REMARK SMILES O=C(C=Cc1ccc(O)cc1)c1ccc(O)cc1O
REMARK SMILES IDX 4 1 3 2 5 3 6 4 7 5 8 6 11 7 10 8 9 9 2 11 1 12 12 13 18 14
REMARK SMILES IDX 13 15 17 16 14 17 15 18 19 19 16 21
REMARK H PARENT 9 10 19 20 16 22
REMARK Flexibility Score: inf
ROOT
ATOM      1  C   UNL     1       8.943 -32.992  14.665  1.00  0.00     0.012 C 
ATOM      2  C   UNL     1       8.202 -33.327  13.598  1.00  0.00     0.053 C 
ENDROOT
BRANCH   1   3
ATOM      3  C   UNL     1      10.281 -32.360  14.573  1.00  0.00    -0.025 A 
ATOM      4  C   UNL     1      10.647 -31.415  15.547  1.00  0.00     0.012 A 
ATOM      5  C   UNL     1      11.903 -30.800  15.505  1.00  0.00     0.047 A 
ATOM      6  C   UNL     1      12.814 -31.131  14.497  1.00  0.00     0.115 A 
ATOM      7  C   UNL     1      11.212 -32.697  13.570  1.00  0.00     0.012 A 
ATOM      8  C   UNL     1      12.467 -32.081  13.533  1.00  0.00     0.047 A 
BRANCH   6   9
ATOM      9  O   UNL     1      14.068 -30.525  14.445  1.00  0.00    -0.508 OA
ATOM     10  H   UNL     1      14.899 -31.049  14.197  1.00  0.00     0.293 HD
ENDBRANCH   6   9
ENDBRANCH   1   3
BRANCH   2  11
ATOM     11  C   UNL     1       6.865 -33.943  13.727  1.00  0.00     0.189 C 
ATOM     12  O   UNL     1       5.893 -33.496  13.059  1.00  0.00    -0.289 OA
BRANCH  11  13
ATOM     13  C   UNL     1       6.646 -35.067  14.665  1.00  0.00     0.064 A 
ATOM     14  C   UNL     1       6.135 -36.315  14.231  1.00  0.00     0.130 A 
ATOM     15  C   UNL     1       6.917 -34.879  16.033  1.00  0.00     0.020 A 
ATOM     16  C   UNL     1       5.878 -37.323  15.168  1.00  0.00     0.093 A 
ATOM     17  C   UNL     1       6.669 -35.898  16.954  1.00  0.00     0.047 A 
ATOM     18  C   UNL     1       6.144 -37.119  16.527  1.00  0.00     0.119 A 
BRANCH  14  19
ATOM     19  O   UNL     1       5.901 -36.598  12.884  1.00  0.00    -0.507 OA
ATOM     20  H   UNL     1       6.595 -37.009  12.274  1.00  0.00     0.293 HD
ENDBRANCH  14  19
BRANCH  18  21
ATOM     21  O   UNL     1       5.895 -38.124  17.459  1.00  0.00    -0.508 OA
ATOM     22  H   UNL     1       6.539 -38.314  18.218  1.00  0.00     0.293 HD
ENDBRANCH  18  21
ENDBRANCH  11  13
ENDBRANCH   2  11
TORSDOF 6
ENDMDL
MODEL 6
REMARK VINA RESULT:    -0.551     14.859     17.491
REMARK INTER + INTRA:          -1.355
REMARK INTER:                  -2.064
REMARK INTRA:                   0.710
REMARK UNBOUND:                -0.658
REMARK SMILES O=C(C=Cc1ccc(O)cc1)c1ccc(O)cc1O
REMARK SMILES IDX 4 1 3 2 5 3 6 4 7 5 8 6 11 7 10 8 9 9 2 11 1 12 12 13 18 14
REMARK SMILES IDX 13 15 17 16 14 17 15 18 19 19 16 21
REMARK H PARENT 9 10 19 20 16 22
REMARK Flexibility Score: inf
ROOT
ATOM      1  C   UNL     1       8.609 -33.468  15.323  1.00  0.00     0.012 C 
ATOM      2  C   UNL     1       8.285 -34.700  14.904  1.00  0.00     0.053 C 
ENDROOT
BRANCH   1   3
ATOM      3  C   UNL     1       9.800 -32.724  14.848  1.00  0.00    -0.025 A 
ATOM      4  C   UNL     1      10.374 -31.761  15.695  1.00  0.00     0.012 A 
ATOM      5  C   UNL     1      11.504 -31.042  15.293  1.00  0.00     0.047 A 
ATOM      6  C   UNL     1      12.083 -31.284  14.042  1.00  0.00     0.115 A 
ATOM      7  C   UNL     1      10.399 -32.971  13.596  1.00  0.00     0.012 A 
ATOM      8  C   UNL     1      11.530 -32.250  13.198  1.00  0.00     0.047 A 
BRANCH   6   9
ATOM      9  O   UNL     1      13.209 -30.573  13.630  1.00  0.00    -0.508 OA
ATOM     10  H   UNL     1      13.310 -29.584  13.825  1.00  0.00     0.293 HD
ENDBRANCH   6   9
ENDBRANCH   1   3
BRANCH   2  11
ATOM     11  C   UNL     1       7.081 -35.407  15.389  1.00  0.00     0.189 C 
ATOM     12  O   UNL     1       6.032 -35.429  14.688  1.00  0.00    -0.289 OA
BRANCH  11  13
ATOM     13  C   UNL     1       7.083 -36.068  16.713  1.00  0.00     0.064 A 
ATOM     14  C   UNL     1       7.618 -35.437  17.863  1.00  0.00     0.130 A 
ATOM     15  C   UNL     1       6.575 -37.375  16.826  1.00  0.00     0.020 A 
ATOM     16  C   UNL     1       7.663 -36.132  19.078  1.00  0.00     0.093 A 
ATOM     17  C   UNL     1       6.614 -38.050  18.047  1.00  0.00     0.047 A 
ATOM     18  C   UNL     1       7.161 -37.436  19.174  1.00  0.00     0.119 A 
BRANCH  14  19
ATOM     19  O   UNL     1       8.083 -34.121  17.844  1.00  0.00    -0.507 OA
ATOM     20  H   UNL     1       9.013 -33.865  17.540  1.00  0.00     0.293 HD
ENDBRANCH  14  19
BRANCH  18  21
ATOM     21  O   UNL     1       7.199 -38.125  20.384  1.00  0.00    -0.508 OA
ATOM     22  H   UNL     1       6.656 -38.968  20.530  1.00  0.00     0.293 HD
ENDBRANCH  18  21
ENDBRANCH  11  13
ENDBRANCH   2  11
TORSDOF 6
ENDMDL
MODEL 7
REMARK VINA RESULT:    -0.380     15.882     17.604
REMARK INTER + INTRA:          -1.138
REMARK INTER:                  -0.696
REMARK INTRA:                  -0.443
REMARK UNBOUND:                -0.658
REMARK SMILES O=C(C=Cc1ccc(O)cc1)c1ccc(O)cc1O
REMARK SMILES IDX 4 1 3 2 5 3 6 4 7 5 8 6 11 7 10 8 9 9 2 11 1 12 12 13 18 14
REMARK SMILES IDX 13 15 17 16 14 17 15 18 19 19 16 21
REMARK H PARENT 9 10 19 20 16 22
REMARK Flexibility Score: inf
ROOT
ATOM      1  C   UNL     1       8.724 -32.759  15.917  1.00  0.00     0.012 C 
ATOM      2  C   UNL     1       7.634 -32.509  15.177  1.00  0.00     0.053 C 
ENDROOT
BRANCH   1   3
ATOM      3  C   UNL     1       8.994 -32.116  17.226  1.00  0.00    -0.025 A 
ATOM      4  C   UNL     1       8.166 -32.435  18.316  1.00  0.00     0.012 A 
ATOM      5  C   UNL     1       8.390 -31.861  19.572  1.00  0.00     0.047 A 
ATOM      6  C   UNL     1       9.452 -30.969  19.758  1.00  0.00     0.115 A 
ATOM      7  C   UNL     1      10.071 -31.228  17.428  1.00  0.00     0.012 A 
ATOM      8  C   UNL     1      10.291 -30.657  18.685  1.00  0.00     0.047 A 
BRANCH   6   9
ATOM      9  O   UNL     1       9.684 -30.390  21.005  1.00  0.00    -0.508 OA
ATOM     10  H   UNL     1       9.614 -29.389  21.144  1.00  0.00     0.293 HD
ENDBRANCH   6   9
ENDBRANCH   1   3
BRANCH   2  11
ATOM     11  C   UNL     1       7.389 -33.179  13.882  1.00  0.00     0.189 C 
ATOM     12  O   UNL     1       6.609 -32.661  13.037  1.00  0.00    -0.289 OA
BRANCH  11  13
ATOM     13  C   UNL     1       8.031 -34.478  13.579  1.00  0.00     0.064 A 
ATOM     14  C   UNL     1       7.308 -35.696  13.612  1.00  0.00     0.130 A 
ATOM     15  C   UNL     1       9.407 -34.509  13.288  1.00  0.00     0.020 A 
ATOM     16  C   UNL     1       7.977 -36.905  13.388  1.00  0.00     0.093 A 
ATOM     17  C   UNL     1      10.057 -35.721  13.053  1.00  0.00     0.047 A 
ATOM     18  C   UNL     1       9.348 -36.922  13.108  1.00  0.00     0.119 A 
BRANCH  14  19
ATOM     19  O   UNL     1       5.930 -35.740  13.832  1.00  0.00    -0.507 OA
ATOM     20  H   UNL     1       5.251 -35.823  13.087  1.00  0.00     0.293 HD
ENDBRANCH  14  19
BRANCH  18  21
ATOM     21  O   UNL     1      10.012 -38.125  12.878  1.00  0.00    -0.508 OA
ATOM     22  H   UNL     1       9.574 -39.018  13.074  1.00  0.00     0.293 HD
ENDBRANCH  18  21
ENDBRANCH  11  13
ENDBRANCH   2  11
TORSDOF 6
ENDMDL
