MODEL 1
REMARK VINA RESULT:    -4.995      0.000      0.000
REMARK INTER + INTRA:          -5.287
REMARK INTER:                  -5.287
REMARK INTRA:                   0.000
REMARK UNBOUND:                 0.000
REMARK SMILES O=c1ccc2cc(O)c(O)cc2o1
REMARK SMILES IDX 4 1 3 2 2 3 1 4 13 5 12 6 11 7 9 8 7 9 6 10 5 11 8 12 10 14
REMARK H PARENT 8 13 10 15
REMARK Flexibility Score: inf
ROOT
ATOM      1  C   UNL     1      16.621  -7.208   6.405  1.00  0.00     0.019 A 
ATOM      2  C   UNL     1      16.671  -5.815   6.403  1.00  0.00     0.094 A 
ATOM      3  C   UNL     1      17.101  -5.150   7.555  1.00  0.00     0.336 A 
ATOM      4  O   UNL     1      17.154  -3.892   7.572  1.00  0.00    -0.246 OA
ATOM      5  O   UNL     1      17.456  -5.838   8.638  1.00  0.00    -0.423 OA
ATOM      6  C   UNL     1      17.421  -7.168   8.684  1.00  0.00     0.142 A 
ATOM      7  C   UNL     1      17.805  -7.837   9.849  1.00  0.00     0.098 A 
ATOM      8  C   UNL     1      17.773  -9.235   9.906  1.00  0.00     0.161 A 
ATOM      9  C   UNL     1      17.351  -9.974   8.784  1.00  0.00     0.158 A 
ATOM     10  C   UNL     1      16.966  -9.307   7.612  1.00  0.00     0.062 A 
ATOM     11  C   UNL     1      16.998  -7.906   7.557  1.00  0.00     0.022 A 
ENDROOT
BRANCH   9  12
ATOM     12  O   UNL     1      17.319 -11.367   8.838  1.00  0.00    -0.504 OA
ATOM     13  H   UNL     1      17.196 -11.861   9.714  1.00  0.00     0.293 HD
ENDBRANCH   9  12
BRANCH   8  14
ATOM     14  O   UNL     1      18.163  -9.874  11.083  1.00  0.00    -0.504 OA
ATOM     15  H   UNL     1      17.933  -9.503  11.996  1.00  0.00     0.293 HD
ENDBRANCH   8  14
TORSDOF 2
ENDMDL
MODEL 2
REMARK VINA RESULT:    -4.845      1.142      2.265
REMARK INTER + INTRA:          -5.128
REMARK INTER:                  -5.128
REMARK INTRA:                   0.000
REMARK UNBOUND:                 0.000
REMARK SMILES O=c1ccc2cc(O)c(O)cc2o1
REMARK SMILES IDX 4 1 3 2 2 3 1 4 13 5 12 6 11 7 9 8 7 9 6 10 5 11 8 12 10 14
REMARK H PARENT 8 13 10 15
REMARK Flexibility Score: inf
ROOT
ATOM      1  C   UNL     1      17.356  -5.726   8.935  1.00  0.00     0.019 A 
ATOM      2  C   UNL     1      16.763  -5.044   7.873  1.00  0.00     0.094 A 
ATOM      3  C   UNL     1      16.169  -5.781   6.843  1.00  0.00     0.336 A 
ATOM      4  O   UNL     1      15.627  -5.184   5.875  1.00  0.00    -0.246 OA
ATOM      5  O   UNL     1      16.171  -7.111   6.876  1.00  0.00    -0.423 OA
ATOM      6  C   UNL     1      16.727  -7.800   7.870  1.00  0.00     0.142 A 
ATOM      7  C   UNL     1      16.700  -9.198   7.853  1.00  0.00     0.098 A 
ATOM      8  C   UNL     1      17.282  -9.930   8.893  1.00  0.00     0.161 A 
ATOM      9  C   UNL     1      17.899  -9.259   9.965  1.00  0.00     0.158 A 
ATOM     10  C   UNL     1      17.928  -7.856   9.988  1.00  0.00     0.062 A 
ATOM     11  C   UNL     1      17.346  -7.124   8.944  1.00  0.00     0.022 A 
ENDROOT
BRANCH   9  12
ATOM     12  O   UNL     1      18.478  -9.987  11.003  1.00  0.00    -0.504 OA
ATOM     13  H   UNL     1      19.131  -9.561  11.651  1.00  0.00     0.293 HD
ENDBRANCH   9  12
BRANCH   8  14
ATOM     14  O   UNL     1      17.238 -11.324   8.847  1.00  0.00    -0.504 OA
ATOM     15  H   UNL     1      16.374 -11.838   8.962  1.00  0.00     0.293 HD
ENDBRANCH   8  14
TORSDOF 2
ENDMDL
MODEL 3
REMARK VINA RESULT:    -4.839     14.895     17.160
REMARK INTER + INTRA:          -5.121
REMARK INTER:                  -5.121
REMARK INTRA:                   0.000
REMARK UNBOUND:                 0.000
REMARK SMILES O=c1ccc2cc(O)c(O)cc2o1
REMARK SMILES IDX 4 1 3 2 2 3 1 4 13 5 12 6 11 7 9 8 7 9 6 10 5 11 8 12 10 14
REMARK H PARENT 8 13 10 15
REMARK Flexibility Score: inf
ROOT
ATOM      1  C   UNL     1      14.112 -14.883  21.081  1.00  0.00     0.019 A 
ATOM      2  C   UNL     1      13.794 -15.272  19.781  1.00  0.00     0.094 A 
ATOM      3  C   UNL     1      12.939 -16.361  19.589  1.00  0.00     0.336 A 
ATOM      4  O   UNL     1      12.640 -16.728  18.422  1.00  0.00    -0.246 OA
ATOM      5  O   UNL     1      12.438 -17.017  20.633  1.00  0.00    -0.423 OA
ATOM      6  C   UNL     1      12.716 -16.681  21.890  1.00  0.00     0.142 A 
ATOM      7  C   UNL     1      12.161 -17.406  22.948  1.00  0.00     0.098 A 
ATOM      8  C   UNL     1      12.448 -17.058  24.273  1.00  0.00     0.161 A 
ATOM      9  C   UNL     1      13.301 -15.973  24.545  1.00  0.00     0.158 A 
ATOM     10  C   UNL     1      13.861 -15.240  23.487  1.00  0.00     0.062 A 
ATOM     11  C   UNL     1      13.572 -15.590  22.160  1.00  0.00     0.022 A 
ENDROOT
BRANCH   9  12
ATOM     12  O   UNL     1      13.587 -15.624  25.864  1.00  0.00    -0.504 OA
ATOM     13  H   UNL     1      14.161 -16.214  26.456  1.00  0.00     0.293 HD
ENDBRANCH   9  12
BRANCH   8  14
ATOM     14  O   UNL     1      11.878 -17.802  25.306  1.00  0.00    -0.504 OA
ATOM     15  H   UNL     1      11.930 -17.506  26.273  1.00  0.00     0.293 HD
ENDBRANCH   8  14
TORSDOF 2
ENDMDL
MODEL 4
REMARK VINA RESULT:    -4.772      1.747      4.709
REMARK INTER + INTRA:          -5.051
REMARK INTER:                  -5.051
REMARK INTRA:                   0.000
REMARK UNBOUND:                 0.000
REMARK SMILES O=c1ccc2cc(O)c(O)cc2o1
REMARK SMILES IDX 4 1 3 2 2 3 1 4 13 5 12 6 11 7 9 8 7 9 6 10 5 11 8 12 10 14
REMARK H PARENT 8 13 10 15
REMARK Flexibility Score: inf
ROOT
ATOM      1  C   UNL     1      17.490  -9.882   9.297  1.00  0.00     0.019 A 
ATOM      2  C   UNL     1      17.107 -10.905   8.430  1.00  0.00     0.094 A 
ATOM      3  C   UNL     1      16.746 -10.582   7.118  1.00  0.00     0.336 A 
ATOM      4  O   UNL     1      16.398 -11.491   6.320  1.00  0.00    -0.246 OA
ATOM      5  O   UNL     1      16.766  -9.317   6.705  1.00  0.00    -0.423 OA
ATOM      6  C   UNL     1      17.123  -8.310   7.500  1.00  0.00     0.142 A 
ATOM      7  C   UNL     1      17.125  -7.001   7.012  1.00  0.00     0.098 A 
ATOM      8  C   UNL     1      17.499  -5.937   7.840  1.00  0.00     0.161 A 
ATOM      9  C   UNL     1      17.876  -6.184   9.173  1.00  0.00     0.158 A 
ATOM     10  C   UNL     1      17.877  -7.497   9.668  1.00  0.00     0.062 A 
ATOM     11  C   UNL     1      17.501  -8.561   8.837  1.00  0.00     0.022 A 
ENDROOT
BRANCH   9  12
ATOM     12  O   UNL     1      18.250  -5.126  10.000  1.00  0.00    -0.504 OA
ATOM     13  H   UNL     1      18.223  -4.165   9.678  1.00  0.00     0.293 HD
ENDBRANCH   9  12
BRANCH   8  14
ATOM     14  O   UNL     1      17.491  -4.641   7.323  1.00  0.00    -0.504 OA
ATOM     15  H   UNL     1      17.923  -4.414   6.436  1.00  0.00     0.293 HD
ENDBRANCH   8  14
TORSDOF 2
ENDMDL
MODEL 5
REMARK VINA RESULT:    -4.731      1.545      4.769
REMARK INTER + INTRA:          -5.007
REMARK INTER:                  -5.007
REMARK INTRA:                   0.000
REMARK UNBOUND:                 0.000
REMARK SMILES O=c1ccc2cc(O)c(O)cc2o1
REMARK SMILES IDX 4 1 3 2 2 3 1 4 13 5 12 6 11 7 9 8 7 9 6 10 5 11 8 12 10 14
REMARK H PARENT 8 13 10 15
REMARK Flexibility Score: inf
ROOT
ATOM      1  C   UNL     1      15.533  -8.071   8.737  1.00  0.00     0.019 A 
ATOM      2  C   UNL     1      16.263  -8.881   9.605  1.00  0.00     0.094 A 
ATOM      3  C   UNL     1      17.590  -8.543   9.892  1.00  0.00     0.336 A 
ATOM      4  O   UNL     1      18.266  -9.263  10.674  1.00  0.00    -0.246 OA
ATOM      5  O   UNL     1      18.145  -7.466   9.344  1.00  0.00    -0.423 OA
ATOM      6  C   UNL     1      17.484  -6.666   8.510  1.00  0.00     0.142 A 
ATOM      7  C   UNL     1      18.119  -5.547   7.964  1.00  0.00     0.098 A 
ATOM      8  C   UNL     1      17.432  -4.701   7.086  1.00  0.00     0.161 A 
ATOM      9  C   UNL     1      16.093  -4.976   6.749  1.00  0.00     0.158 A 
ATOM     10  C   UNL     1      15.451  -6.098   7.295  1.00  0.00     0.062 A 
ATOM     11  C   UNL     1      16.141  -6.944   8.174  1.00  0.00     0.022 A 
ENDROOT
BRANCH   9  12
ATOM     12  O   UNL     1      15.407  -4.134   5.876  1.00  0.00    -0.504 OA
ATOM     13  H   UNL     1      15.650  -3.155   5.782  1.00  0.00     0.293 HD
ENDBRANCH   9  12
BRANCH   8  14
ATOM     14  O   UNL     1      18.093  -3.592   6.558  1.00  0.00    -0.504 OA
ATOM     15  H   UNL     1      18.966  -3.253   6.944  1.00  0.00     0.293 HD
ENDBRANCH   8  14
TORSDOF 2
ENDMDL
MODEL 6
REMARK VINA RESULT:    -4.685     15.879     17.551
REMARK INTER + INTRA:          -4.959
REMARK INTER:                  -4.959
REMARK INTRA:                   0.000
REMARK UNBOUND:                 0.000
REMARK SMILES O=c1ccc2cc(O)c(O)cc2o1
REMARK SMILES IDX 4 1 3 2 2 3 1 4 13 5 12 6 11 7 9 8 7 9 6 10 5 11 8 12 10 14
REMARK H PARENT 8 13 10 15
REMARK Flexibility Score: inf
ROOT
ATOM      1  C   UNL     1      12.552 -16.762  20.613  1.00  0.00     0.019 A 
ATOM      2  C   UNL     1      12.102 -18.082  20.585  1.00  0.00     0.094 A 
ATOM      3  C   UNL     1      12.396 -18.921  21.664  1.00  0.00     0.336 A 
ATOM      4  O   UNL     1      11.999 -20.116  21.657  1.00  0.00    -0.246 OA
ATOM      5  O   UNL     1      13.096 -18.467  22.701  1.00  0.00    -0.423 OA
ATOM      6  C   UNL     1      13.545 -17.215  22.767  1.00  0.00     0.142 A 
ATOM      7  C   UNL     1      14.275 -16.793  23.882  1.00  0.00     0.098 A 
ATOM      8  C   UNL     1      14.750 -15.479  23.961  1.00  0.00     0.161 A 
ATOM      9  C   UNL     1      14.493 -14.575  22.912  1.00  0.00     0.158 A 
ATOM     10  C   UNL     1      13.760 -14.994  21.792  1.00  0.00     0.062 A 
ATOM     11  C   UNL     1      13.285 -16.311  21.715  1.00  0.00     0.022 A 
ENDROOT
BRANCH   9  12
ATOM     12  O   UNL     1      14.965 -13.266  22.989  1.00  0.00    -0.504 OA
ATOM     13  H   UNL     1      15.849 -12.995  22.574  1.00  0.00     0.293 HD
ENDBRANCH   9  12
BRANCH   8  14
ATOM     14  O   UNL     1      15.475 -15.087  25.086  1.00  0.00    -0.504 OA
ATOM     15  H   UNL     1      16.487 -15.043  25.085  1.00  0.00     0.293 HD
ENDBRANCH   8  14
TORSDOF 2
ENDMDL
MODEL 7
REMARK VINA RESULT:    -4.618      2.463      4.171
REMARK INTER + INTRA:          -4.888
REMARK INTER:                  -4.888
REMARK INTRA:                   0.000
REMARK UNBOUND:                 0.000
REMARK SMILES O=c1ccc2cc(O)c(O)cc2o1
REMARK SMILES IDX 4 1 3 2 2 3 1 4 13 5 12 6 11 7 9 8 7 9 6 10 5 11 8 12 10 14
REMARK H PARENT 8 13 10 15
REMARK Flexibility Score: inf
ROOT
ATOM      1  C   UNL     1      15.848  -8.415   9.375  1.00  0.00     0.019 A 
ATOM      2  C   UNL     1      14.771  -8.802   8.578  1.00  0.00     0.094 A 
ATOM      3  C   UNL     1      14.699  -8.333   7.262  1.00  0.00     0.336 A 
ATOM      4  O   UNL     1      13.735  -8.672   6.527  1.00  0.00    -0.246 OA
ATOM      5  O   UNL     1      15.643  -7.529   6.780  1.00  0.00    -0.423 OA
ATOM      6  C   UNL     1      16.686  -7.134   7.506  1.00  0.00     0.142 A 
ATOM      7  C   UNL     1      17.648  -6.288   6.947  1.00  0.00     0.098 A 
ATOM      8  C   UNL     1      18.748  -5.868   7.703  1.00  0.00     0.161 A 
ATOM      9  C   UNL     1      18.889  -6.299   9.036  1.00  0.00     0.158 A 
ATOM     10  C   UNL     1      17.927  -7.149   9.602  1.00  0.00     0.062 A 
ATOM     11  C   UNL     1      16.826  -7.568   8.843  1.00  0.00     0.022 A 
ENDROOT
BRANCH   9  12
ATOM     12  O   UNL     1      19.985  -5.883   9.790  1.00  0.00    -0.504 OA
ATOM     13  H   UNL     1      19.917  -5.742  10.792  1.00  0.00     0.293 HD
ENDBRANCH   9  12
BRANCH   8  14
ATOM     14  O   UNL     1      19.691  -5.024   7.116  1.00  0.00    -0.504 OA
ATOM     15  H   UNL     1      19.793  -4.949   6.112  1.00  0.00     0.293 HD
ENDBRANCH   8  14
TORSDOF 2
ENDMDL
MODEL 8
REMARK VINA RESULT:    -4.612      1.273      5.003
REMARK INTER + INTRA:          -4.882
REMARK INTER:                  -4.882
REMARK INTRA:                   0.000
REMARK UNBOUND:                 0.000
REMARK SMILES O=c1ccc2cc(O)c(O)cc2o1
REMARK SMILES IDX 4 1 3 2 2 3 1 4 13 5 12 6 11 7 9 8 7 9 6 10 5 11 8 12 10 14
REMARK H PARENT 8 13 10 15
REMARK Flexibility Score: inf
ROOT
ATOM      1  C   UNL     1      17.867  -8.501   9.990  1.00  0.00     0.019 A 
ATOM      2  C   UNL     1      17.851  -9.864   9.693  1.00  0.00     0.094 A 
ATOM      3  C   UNL     1      17.468 -10.274   8.412  1.00  0.00     0.336 A 
ATOM      4  O   UNL     1      17.447 -11.500   8.125  1.00  0.00    -0.246 OA
ATOM      5  O   UNL     1      17.124  -9.377   7.492  1.00  0.00    -0.423 OA
ATOM      6  C   UNL     1      17.124  -8.068   7.733  1.00  0.00     0.142 A 
ATOM      7  C   UNL     1      16.754  -7.172   6.726  1.00  0.00     0.098 A 
ATOM      8  C   UNL     1      16.752  -5.794   6.971  1.00  0.00     0.161 A 
ATOM      9  C   UNL     1      17.125  -5.305   8.237  1.00  0.00     0.158 A 
ATOM     10  C   UNL     1      17.500  -6.200   9.250  1.00  0.00     0.062 A 
ATOM     11  C   UNL     1      17.500  -7.580   9.003  1.00  0.00     0.022 A 
ENDROOT
BRANCH   9  12
ATOM     12  O   UNL     1      17.125  -3.933   8.482  1.00  0.00    -0.504 OA
ATOM     13  H   UNL     1      16.919  -3.262   7.750  1.00  0.00     0.293 HD
ENDBRANCH   9  12
BRANCH   8  14
ATOM     14  O   UNL     1      16.377  -4.925   5.946  1.00  0.00    -0.504 OA
ATOM     15  H   UNL     1      16.082  -3.974   6.129  1.00  0.00     0.293 HD
ENDBRANCH   8  14
TORSDOF 2
ENDMDL
MODEL 9
REMARK VINA RESULT:    -4.448      2.595      3.411
REMARK INTER + INTRA:          -4.708
REMARK INTER:                  -4.708
REMARK INTRA:                   0.000
REMARK UNBOUND:                 0.000
REMARK SMILES O=c1ccc2cc(O)c(O)cc2o1
REMARK SMILES IDX 4 1 3 2 2 3 1 4 13 5 12 6 11 7 9 8 7 9 6 10 5 11 8 12 10 14
REMARK H PARENT 8 13 10 15
REMARK Flexibility Score: inf
ROOT
ATOM      1  C   UNL     1      15.230  -5.649   7.030  1.00  0.00     0.019 A 
ATOM      2  C   UNL     1      14.021  -6.125   6.525  1.00  0.00     0.094 A 
ATOM      3  C   UNL     1      13.541  -7.361   6.970  1.00  0.00     0.336 A 
ATOM      4  O   UNL     1      12.451  -7.808   6.525  1.00  0.00    -0.246 OA
ATOM      5  O   UNL     1      14.228  -8.072   7.860  1.00  0.00    -0.423 OA
ATOM      6  C   UNL     1      15.387  -7.655   8.367  1.00  0.00     0.142 A 
ATOM      7  C   UNL     1      16.065  -8.443   9.300  1.00  0.00     0.098 A 
ATOM      8  C   UNL     1      17.283  -8.013   9.839  1.00  0.00     0.161 A 
ATOM      9  C   UNL     1      17.830  -6.779   9.440  1.00  0.00     0.158 A 
ATOM     10  C   UNL     1      17.153  -5.983   8.504  1.00  0.00     0.062 A 
ATOM     11  C   UNL     1      15.933  -6.416   7.965  1.00  0.00     0.022 A 
ENDROOT
BRANCH   9  12
ATOM     12  O   UNL     1      19.043  -6.348   9.975  1.00  0.00    -0.504 OA
ATOM     13  H   UNL     1      19.205  -6.330  10.975  1.00  0.00     0.293 HD
ENDBRANCH   9  12
BRANCH   8  14
ATOM     14  O   UNL     1      17.937  -8.822  10.768  1.00  0.00    -0.504 OA
ATOM     15  H   UNL     1      18.220  -8.476  11.676  1.00  0.00     0.293 HD
ENDBRANCH   8  14
TORSDOF 2
ENDMDL
