MODEL 1
REMARK VINA RESULT:     1.113      0.000      0.000
REMARK INTER + INTRA:           1.521
REMARK INTER:                   2.088
REMARK INTRA:                  -0.567
REMARK UNBOUND:                -0.567
REMARK SMILES O=C([O-])CCCCCCCCCCCCCCC(=O)[O-]
REMARK SMILES IDX 10 1 9 2 8 3 7 4 6 5 5 6 4 7 2 8 1 9 3 10 11 11 12 12 13 13
REMARK SMILES IDX 14 14 15 15 16 16 17 17 18 18 19 19 20 20
REMARK H PARENT
REMARK Flexibility Score: inf
ROOT
ATOM      1  C   UNL     1     -27.525 -21.821 -21.640  1.00  0.00     0.000 C 
ENDROOT
BRANCH   1   2
ATOM      2  C   UNL     1     -27.374 -21.708 -23.165  1.00  0.00     0.000 C 
BRANCH   2   3
ATOM      3  C   UNL     1     -28.405 -20.727 -23.744  1.00  0.00     0.000 C 
BRANCH   3   4
ATOM      4  C   UNL     1     -29.208 -21.342 -24.904  1.00  0.00     0.000 C 
BRANCH   4   5
ATOM      5  C   UNL     1     -30.270 -20.382 -25.492  1.00  0.00     0.000 C 
BRANCH   5   6
ATOM      6  C   UNL     1     -31.635 -20.474 -24.783  1.00  0.00     0.006 C 
BRANCH   6   7
ATOM      7  C   UNL     1     -31.533 -20.756 -23.278  1.00  0.00     0.053 C 
BRANCH   7   8
ATOM      8  C   UNL     1     -32.477 -19.903 -22.485  1.00  0.00     0.041 C 
ATOM      9  O   UNL     1     -33.457 -20.427 -21.893  1.00  0.00    -0.550 OA
ATOM     10  O   UNL     1     -32.290 -18.527 -22.419  1.00  0.00    -0.550 OA
ENDBRANCH   7   8
ENDBRANCH   6   7
ENDBRANCH   5   6
ENDBRANCH   4   5
ENDBRANCH   3   4
ENDBRANCH   2   3
ENDBRANCH   1   2
BRANCH   1  11
ATOM     11  C   UNL     1     -28.986 -22.019 -21.204  1.00  0.00     0.000 C 
BRANCH  11  12
ATOM     12  C   UNL     1     -29.138 -22.124 -19.676  1.00  0.00     0.000 C 
BRANCH  12  13
ATOM     13  C   UNL     1     -28.041 -21.360 -18.919  1.00  0.00     0.000 C 
BRANCH  13  14
ATOM     14  C   UNL     1     -27.940 -21.777 -17.445  1.00  0.00     0.000 C 
BRANCH  14  15
ATOM     15  C   UNL     1     -29.324 -22.125 -16.876  1.00  0.00     0.000 C 
BRANCH  15  16
ATOM     16  C   UNL     1     -29.425 -21.883 -15.359  1.00  0.00     0.006 C 
BRANCH  16  17
ATOM     17  C   UNL     1     -30.847 -22.009 -14.789  1.00  0.00     0.053 C 
BRANCH  17  18
ATOM     18  C   UNL     1     -31.292 -20.752 -14.105  1.00  0.00     0.041 C 
ATOM     19  O   UNL     1     -32.520 -20.510 -13.962  1.00  0.00    -0.550 OA
ATOM     20  O   UNL     1     -30.352 -19.833 -13.657  1.00  0.00    -0.550 OA
ENDBRANCH  17  18
ENDBRANCH  16  17
ENDBRANCH  15  16
ENDBRANCH  14  15
ENDBRANCH  13  14
ENDBRANCH  12  13
ENDBRANCH  11  12
ENDBRANCH   1  11
TORSDOF 15
ENDMDL
MODEL 2
REMARK VINA RESULT:     3.599      2.761      3.916
REMARK INTER + INTRA:           6.187
REMARK INTER:                   5.162
REMARK INTRA:                   1.025
REMARK UNBOUND:                -0.567
REMARK SMILES O=C([O-])CCCCCCCCCCCCCCC(=O)[O-]
REMARK SMILES IDX 10 1 9 2 8 3 7 4 6 5 5 6 4 7 2 8 1 9 3 10 11 11 12 12 13 13
REMARK SMILES IDX 14 14 15 15 16 16 17 17 18 18 19 19 20 20
REMARK H PARENT
REMARK Flexibility Score: inf
ROOT
ATOM      1  C   UNL     1     -29.383 -19.731 -24.490  1.00  0.00     0.000 C 
ENDROOT
BRANCH   1   2
ATOM      2  C   UNL     1     -30.216 -19.570 -25.770  1.00  0.00     0.000 C 
BRANCH   2   3
ATOM      3  C   UNL     1     -30.366 -20.915 -26.498  1.00  0.00     0.000 C 
BRANCH   3   4
ATOM      4  C   UNL     1     -31.444 -21.808 -25.859  1.00  0.00     0.000 C 
BRANCH   4   5
ATOM      5  C   UNL     1     -31.187 -22.105 -24.362  1.00  0.00     0.000 C 
BRANCH   5   6
ATOM      6  C   UNL     1     -32.231 -21.468 -23.425  1.00  0.00     0.006 C 
BRANCH   6   7
ATOM      7  C   UNL     1     -31.663 -20.356 -22.531  1.00  0.00     0.053 C 
BRANCH   7   8
ATOM      8  C   UNL     1     -32.450 -19.086 -22.652  1.00  0.00     0.041 C 
ATOM      9  O   UNL     1     -33.126 -18.858 -23.690  1.00  0.00    -0.550 OA
ATOM     10  O   UNL     1     -32.418 -18.142 -21.633  1.00  0.00    -0.550 OA
ENDBRANCH   7   8
ENDBRANCH   6   7
ENDBRANCH   5   6
ENDBRANCH   4   5
ENDBRANCH   3   4
ENDBRANCH   2   3
ENDBRANCH   1   2
BRANCH   1  11
ATOM     11  C   UNL     1     -28.497 -20.987 -24.515  1.00  0.00     0.000 C 
BRANCH  11  12
ATOM     12  C   UNL     1     -27.197 -20.810 -23.711  1.00  0.00     0.000 C 
BRANCH  12  13
ATOM     13  C   UNL     1     -26.840 -22.054 -22.883  1.00  0.00     0.000 C 
BRANCH  13  14
ATOM     14  C   UNL     1     -27.115 -21.865 -21.384  1.00  0.00     0.000 C 
BRANCH  14  15
ATOM     15  C   UNL     1     -28.491 -21.219 -21.156  1.00  0.00     0.000 C 
BRANCH  15  16
ATOM     16  C   UNL     1     -29.453 -22.125 -20.366  1.00  0.00     0.006 C 
BRANCH  16  17
ATOM     17  C   UNL     1     -29.362 -21.970 -18.840  1.00  0.00     0.053 C 
BRANCH  17  18
ATOM     18  C   UNL     1     -28.071 -21.339 -18.414  1.00  0.00     0.041 C 
ATOM     19  O   UNL     1     -27.872 -20.111 -18.608  1.00  0.00    -0.550 OA
ATOM     20  O   UNL     1     -27.075 -22.115 -17.835  1.00  0.00    -0.550 OA
ENDBRANCH  17  18
ENDBRANCH  16  17
ENDBRANCH  15  16
ENDBRANCH  14  15
ENDBRANCH  13  14
ENDBRANCH  12  13
ENDBRANCH  11  12
ENDBRANCH   1  11
TORSDOF 15
ENDMDL
MODEL 3
REMARK VINA RESULT:     3.702      0.951      7.519
REMARK INTER + INTRA:           6.381
REMARK INTER:                   6.848
REMARK INTRA:                  -0.467
REMARK UNBOUND:                -0.567
REMARK SMILES O=C([O-])CCCCCCCCCCCCCCC(=O)[O-]
REMARK SMILES IDX 10 1 9 2 8 3 7 4 6 5 5 6 4 7 2 8 1 9 3 10 11 11 12 12 13 13
REMARK SMILES IDX 14 14 15 15 16 16 17 17 18 18 19 19 20 20
REMARK H PARENT
REMARK Flexibility Score: inf
ROOT
ATOM      1  C   UNL     1     -27.794 -21.218 -20.437  1.00  0.00     0.000 C 
ENDROOT
BRANCH   1   2
ATOM      2  C   UNL     1     -28.982 -22.124 -20.079  1.00  0.00     0.000 C 
BRANCH   2   3
ATOM      3  C   UNL     1     -29.385 -21.941 -18.608  1.00  0.00     0.000 C 
BRANCH   3   4
ATOM      4  C   UNL     1     -28.167 -21.886 -17.671  1.00  0.00     0.000 C 
BRANCH   4   5
ATOM      5  C   UNL     1     -28.527 -22.104 -16.182  1.00  0.00     0.000 C 
BRANCH   5   6
ATOM      6  C   UNL     1     -30.028 -21.926 -15.885  1.00  0.00     0.006 C 
BRANCH   6   7
ATOM      7  C   UNL     1     -30.356 -21.826 -14.388  1.00  0.00     0.053 C 
BRANCH   7   8
ATOM      8  C   UNL     1     -31.108 -20.571 -14.064  1.00  0.00     0.041 C 
ATOM      9  O   UNL     1     -30.575 -19.681 -13.350  1.00  0.00    -0.550 OA
ATOM     10  O   UNL     1     -32.406 -20.393 -14.528  1.00  0.00    -0.550 OA
ENDBRANCH   7   8
ENDBRANCH   6   7
ENDBRANCH   5   6
ENDBRANCH   4   5
ENDBRANCH   3   4
ENDBRANCH   2   3
ENDBRANCH   1   2
BRANCH   1  11
ATOM     11  C   UNL     1     -27.191 -21.549 -21.812  1.00  0.00     0.000 C 
BRANCH  11  12
ATOM     12  C   UNL     1     -27.916 -20.830 -22.964  1.00  0.00     0.000 C 
BRANCH  12  13
ATOM     13  C   UNL     1     -28.408 -21.800 -24.048  1.00  0.00     0.000 C 
BRANCH  13  14
ATOM     14  C   UNL     1     -29.508 -21.190 -24.931  1.00  0.00     0.000 C 
BRANCH  14  15
ATOM     15  C   UNL     1     -30.877 -21.806 -24.605  1.00  0.00     0.000 C 
BRANCH  15  16
ATOM     16  C   UNL     1     -31.249 -21.681 -23.116  1.00  0.00     0.006 C 
BRANCH  16  17
ATOM     17  C   UNL     1     -31.011 -20.286 -22.517  1.00  0.00     0.053 C 
BRANCH  17  18
ATOM     18  C   UNL     1     -32.106 -19.327 -22.871  1.00  0.00     0.041 C 
ATOM     19  O   UNL     1     -32.681 -18.662 -21.969  1.00  0.00    -0.550 OA
ATOM     20  O   UNL     1     -32.516 -19.194 -24.191  1.00  0.00    -0.550 OA
ENDBRANCH  17  18
ENDBRANCH  16  17
ENDBRANCH  15  16
ENDBRANCH  14  15
ENDBRANCH  13  14
ENDBRANCH  12  13
ENDBRANCH  11  12
ENDBRANCH   1  11
TORSDOF 15
ENDMDL
MODEL 4
REMARK VINA RESULT:     4.075      2.646      3.686
REMARK INTER + INTRA:           7.082
REMARK INTER:                   6.503
REMARK INTRA:                   0.579
REMARK UNBOUND:                -0.567
REMARK SMILES O=C([O-])CCCCCCCCCCCCCCC(=O)[O-]
REMARK SMILES IDX 10 1 9 2 8 3 7 4 6 5 5 6 4 7 2 8 1 9 3 10 11 11 12 12 13 13
REMARK SMILES IDX 14 14 15 15 16 16 17 17 18 18 19 19 20 20
REMARK H PARENT
REMARK Flexibility Score: inf
ROOT
ATOM      1  C   UNL     1     -28.988 -19.857 -24.516  1.00  0.00     0.000 C 
ENDROOT
BRANCH   1   2
ATOM      2  C   UNL     1     -30.128 -19.885 -25.545  1.00  0.00     0.000 C 
BRANCH   2   3
ATOM      3  C   UNL     1     -30.712 -21.300 -25.676  1.00  0.00     0.000 C 
BRANCH   3   4
ATOM      4  C   UNL     1     -31.772 -21.596 -24.601  1.00  0.00     0.000 C 
BRANCH   4   5
ATOM      5  C   UNL     1     -31.213 -21.557 -23.159  1.00  0.00     0.000 C 
BRANCH   5   6
ATOM      6  C   UNL     1     -32.166 -20.884 -22.152  1.00  0.00     0.006 C 
BRANCH   6   7
ATOM      7  C   UNL     1     -31.735 -19.468 -21.743  1.00  0.00     0.053 C 
BRANCH   7   8
ATOM      8  C   UNL     1     -32.522 -18.415 -22.464  1.00  0.00     0.041 C 
ATOM      9  O   UNL     1     -32.797 -17.328 -21.890  1.00  0.00    -0.550 OA
ATOM     10  O   UNL     1     -32.973 -18.642 -23.759  1.00  0.00    -0.550 OA
ENDBRANCH   7   8
ENDBRANCH   6   7
ENDBRANCH   5   6
ENDBRANCH   4   5
ENDBRANCH   3   4
ENDBRANCH   2   3
ENDBRANCH   1   2
BRANCH   1  11
ATOM     11  C   UNL     1     -28.452 -21.260 -24.188  1.00  0.00     0.000 C 
BRANCH  11  12
ATOM     12  C   UNL     1     -27.903 -21.363 -22.754  1.00  0.00     0.000 C 
BRANCH  12  13
ATOM     13  C   UNL     1     -28.859 -22.106 -21.808  1.00  0.00     0.000 C 
BRANCH  13  14
ATOM     14  C   UNL     1     -28.964 -21.437 -20.430  1.00  0.00     0.000 C 
BRANCH  14  15
ATOM     15  C   UNL     1     -28.038 -22.125 -19.414  1.00  0.00     0.000 C 
BRANCH  15  16
ATOM     16  C   UNL     1     -27.417 -21.139 -18.408  1.00  0.00     0.006 C 
BRANCH  16  17
ATOM     17  C   UNL     1     -26.124 -21.639 -17.745  1.00  0.00     0.053 C 
BRANCH  17  18
ATOM     18  C   UNL     1     -26.322 -21.960 -16.295  1.00  0.00     0.041 C 
ATOM     19  O   UNL     1     -27.484 -22.049 -15.819  1.00  0.00    -0.550 OA
ATOM     20  O   UNL     1     -25.223 -22.125 -15.462  1.00  0.00    -0.550 OA
ENDBRANCH  17  18
ENDBRANCH  16  17
ENDBRANCH  15  16
ENDBRANCH  14  15
ENDBRANCH  13  14
ENDBRANCH  12  13
ENDBRANCH  11  12
ENDBRANCH   1  11
TORSDOF 15
ENDMDL
