MODEL 1
REMARK VINA RESULT:    -5.590      0.000      0.000
REMARK INTER + INTRA:          -8.629
REMARK INTER:                  -8.530
REMARK INTRA:                  -0.099
REMARK UNBOUND:                -0.099
REMARK SMILES CC1=CCC[C@@H](C)C(=O)C[C@@H](C(C)C)C(=O)C1
REMARK SMILES IDX 8 1 9 2 6 3 7 4 5 5 4 6 3 7 2 8 1 9 10 11 11 12 15 13 16 14
REMARK SMILES IDX 17 15 12 17 13 18 14 19
REMARK H PARENT
REMARK Flexibility Score: 70.00
ROOT
ATOM      1  C   UNL     1      -8.274  30.696  42.834  1.00  0.00     0.136 C 
ATOM      2  O   UNL     1      -8.633  31.028  43.955  1.00  0.00    -0.299 OA
ENDROOT
BRANCH   1   3
ATOM      3  C   UNL     1      -8.308  29.234  42.440  1.00  0.00     0.053 C 
ATOM      4  C   UNL     1      -7.681  28.391  43.555  1.00  0.00     0.016 C 
BRANCH   3   5
ATOM      5  C   UNL     1      -7.576  28.972  41.101  1.00  0.00     0.015 C 
BRANCH   5   6
ATOM      6  C   UNL     1      -8.516  28.690  39.919  1.00  0.00     0.028 C 
BRANCH   6   7
ATOM      7  C   UNL     1      -8.255  29.629  38.765  1.00  0.00    -0.028 C 
ATOM      8  C   UNL     1      -8.853  30.830  38.590  1.00  0.00    -0.070 CG0
ATOM      9  C   UNL     1      -8.458  31.648  37.386  1.00  0.00     0.039 C 
ATOM     10  G   UNL     1      -9.892  31.383  39.549  1.00  0.00     0.000 G0
ENDBRANCH   6   7
ENDBRANCH   5   6
ENDBRANCH   3   5
ENDBRANCH   1   3
BRANCH   1  11
ATOM     11  C   UNL     1      -7.854  31.765  41.851  1.00  0.00     0.087 C 
BRANCH  11  12
ATOM     12  C   UNL     1      -8.949  32.832  41.597  1.00  0.00     0.066 C 
BRANCH  12  13
ATOM     13  C   UNL     1      -9.524  32.722  40.187  1.00  0.00     0.140 C 
ATOM     14  O   UNL     1      -9.735  33.744  39.552  1.00  0.00    -0.299 OA
BRANCH  13  15
ATOM     15  C   UNL     1      -9.894  31.399  39.547  1.00  0.00     0.106 CG0
ATOM     16  G   UNL     1      -8.846  30.852  38.595  1.00  0.00     0.000 G0
ENDBRANCH  13  15
ENDBRANCH  12  13
BRANCH  12  17
ATOM     17  C   UNL     1      -8.435  34.269  41.925  1.00  0.00    -0.006 C 
ATOM     18  C   UNL     1      -6.901  34.319  41.961  1.00  0.00     0.008 C 
ATOM     19  C   UNL     1      -9.007  34.864  43.224  1.00  0.00     0.008 C 
ENDBRANCH  12  17
ENDBRANCH  11  12
ENDBRANCH   1  11
TORSDOF 1
ENDMDL
MODEL 2
REMARK VINA RESULT:    -5.005      1.792      2.925
REMARK INTER + INTRA:          -7.738
REMARK INTER:                  -7.452
REMARK INTRA:                  -0.286
REMARK UNBOUND:                -0.099
REMARK SMILES CC1=CCC[C@@H](C)C(=O)C[C@@H](C(C)C)C(=O)C1
REMARK SMILES IDX 8 1 9 2 6 3 7 4 5 5 4 6 3 7 2 8 1 9 10 11 11 12 15 13 16 14
REMARK SMILES IDX 17 15 12 17 13 18 14 19
REMARK H PARENT
REMARK Flexibility Score: 70.00
ROOT
ATOM      1  C   UNL     1      -7.923  32.250  42.695  1.00  0.00     0.136 C 
ATOM      2  O   UNL     1      -7.294  32.975  43.454  1.00  0.00    -0.299 OA
ENDROOT
BRANCH   1   3
ATOM      3  C   UNL     1      -9.040  31.385  43.242  1.00  0.00     0.053 C 
ATOM      4  C   UNL     1      -9.773  32.143  44.353  1.00  0.00     0.016 C 
BRANCH   3   5
ATOM      5  C   UNL     1      -8.522  30.028  43.776  1.00  0.00     0.015 C 
BRANCH   5   6
ATOM      6  C   UNL     1      -7.645  29.256  42.778  1.00  0.00     0.028 C 
BRANCH   6   7
ATOM      7  C   UNL     1      -8.477  28.397  41.856  1.00  0.00    -0.028 C 
ATOM      8  C   UNL     1      -8.582  28.569  40.518  1.00  0.00    -0.070 CG0
ATOM      9  C   UNL     1      -9.446  27.605  39.746  1.00  0.00     0.039 C 
ATOM     10  G   UNL     1      -7.867  29.680  39.770  1.00  0.00     0.000 G0
ENDBRANCH   6   7
ENDBRANCH   5   6
ENDBRANCH   3   5
ENDBRANCH   1   3
BRANCH   1  11
ATOM     11  C   UNL     1      -7.600  32.277  41.219  1.00  0.00     0.087 C 
BRANCH  11  12
ATOM     12  C   UNL     1      -8.847  32.112  40.313  1.00  0.00     0.066 C 
BRANCH  12  13
ATOM     13  C   UNL     1      -8.727  30.886  39.411  1.00  0.00     0.140 C 
ATOM     14  O   UNL     1      -9.377  30.847  38.376  1.00  0.00    -0.299 OA
BRANCH  13  15
ATOM     15  C   UNL     1      -7.872  29.685  39.758  1.00  0.00     0.106 CG0
ATOM     16  G   UNL     1      -8.605  28.595  40.518  1.00  0.00     0.000 G0
ENDBRANCH  13  15
ENDBRANCH  12  13
BRANCH  12  17
ATOM     17  C   UNL     1      -9.151  33.417  39.514  1.00  0.00    -0.006 C 
ATOM     18  C   UNL     1      -7.930  33.874  38.703  1.00  0.00     0.008 C 
ATOM     19  C   UNL     1      -9.666  34.583  40.379  1.00  0.00     0.008 C 
ENDBRANCH  12  17
ENDBRANCH  11  12
ENDBRANCH   1  11
TORSDOF 1
ENDMDL
MODEL 3
REMARK VINA RESULT:    -4.996      1.792      4.010
REMARK INTER + INTRA:          -7.724
REMARK INTER:                  -7.819
REMARK INTRA:                   0.096
REMARK UNBOUND:                -0.099
REMARK SMILES CC1=CCC[C@@H](C)C(=O)C[C@@H](C(C)C)C(=O)C1
REMARK SMILES IDX 8 1 9 2 6 3 7 4 5 5 4 6 3 7 2 8 1 9 10 11 11 12 15 13 16 14
REMARK SMILES IDX 17 15 12 17 13 18 14 19
REMARK H PARENT
REMARK Flexibility Score: 70.00
ROOT
ATOM      1  C   UNL     1      -8.220  32.880  40.869  1.00  0.00     0.136 C 
ATOM      2  O   UNL     1      -7.343  33.448  41.506  1.00  0.00    -0.299 OA
ENDROOT
BRANCH   1   3
ATOM      3  C   UNL     1      -8.505  33.307  39.444  1.00  0.00     0.053 C 
ATOM      4  C   UNL     1      -9.426  34.532  39.454  1.00  0.00     0.016 C 
BRANCH   3   5
ATOM      5  C   UNL     1      -9.143  32.170  38.609  1.00  0.00     0.015 C 
BRANCH   5   6
ATOM      6  C   UNL     1      -8.180  31.018  38.282  1.00  0.00     0.028 C 
BRANCH   6   7
ATOM      7  C   UNL     1      -8.823  29.672  38.517  1.00  0.00    -0.028 C 
ATOM      8  C   UNL     1      -8.507  28.825  39.523  1.00  0.00    -0.070 CG0
ATOM      9  C   UNL     1      -9.265  27.524  39.618  1.00  0.00     0.039 C 
ATOM     10  G   UNL     1      -7.433  29.129  40.552  1.00  0.00     0.000 G0
ENDBRANCH   6   7
ENDBRANCH   5   6
ENDBRANCH   3   5
ENDBRANCH   1   3
BRANCH   1  11
ATOM     11  C   UNL     1      -8.961  31.727  41.507  1.00  0.00     0.087 C 
BRANCH  11  12
ATOM     12  C   UNL     1      -8.078  30.878  42.456  1.00  0.00     0.066 C 
BRANCH  12  13
ATOM     13  C   UNL     1      -7.915  29.450  41.943  1.00  0.00     0.140 C 
ATOM     14  O   UNL     1      -8.161  28.518  42.695  1.00  0.00    -0.299 OA
BRANCH  13  15
ATOM     15  C   UNL     1      -7.413  29.125  40.551  1.00  0.00     0.106 CG0
ATOM     16  G   UNL     1      -8.511  28.830  39.544  1.00  0.00     0.000 G0
ENDBRANCH  13  15
ENDBRANCH  12  13
BRANCH  12  17
ATOM     17  C   UNL     1      -8.603  30.931  43.925  1.00  0.00    -0.006 C 
ATOM     18  C   UNL     1      -9.438  32.195  44.176  1.00  0.00     0.008 C 
ATOM     19  C   UNL     1      -7.501  30.815  44.995  1.00  0.00     0.008 C 
ENDBRANCH  12  17
ENDBRANCH  11  12
ENDBRANCH   1  11
TORSDOF 1
ENDMDL
MODEL 4
REMARK VINA RESULT:    -4.794      1.668      2.494
REMARK INTER + INTRA:          -7.415
REMARK INTER:                  -7.554
REMARK INTRA:                   0.140
REMARK UNBOUND:                -0.099
REMARK SMILES CC1=CCC[C@@H](C)C(=O)C[C@@H](C(C)C)C(=O)C1
REMARK SMILES IDX 8 1 9 2 6 3 7 4 5 5 4 6 3 7 2 8 1 9 10 11 11 12 15 13 16 14
REMARK SMILES IDX 17 15 12 17 13 18 14 19
REMARK H PARENT
REMARK Flexibility Score: 70.00
ROOT
ATOM      1  C   UNL     1      -8.303  29.423  41.468  1.00  0.00     0.136 C 
ATOM      2  O   UNL     1      -8.226  28.621  42.388  1.00  0.00    -0.299 OA
ENDROOT
BRANCH   1   3
ATOM      3  C   UNL     1      -8.971  29.013  40.172  1.00  0.00     0.053 C 
ATOM      4  C   UNL     1      -9.024  27.484  40.088  1.00  0.00     0.016 C 
BRANCH   3   5
ATOM      5  C   UNL     1      -8.244  29.588  38.932  1.00  0.00     0.015 C 
BRANCH   5   6
ATOM      6  C   UNL     1      -9.075  30.606  38.135  1.00  0.00     0.028 C 
BRANCH   6   7
ATOM      7  C   UNL     1      -8.358  31.927  38.003  1.00  0.00    -0.028 C 
ATOM      8  C   UNL     1      -8.562  33.005  38.795  1.00  0.00    -0.070 CG0
ATOM      9  C   UNL     1      -7.742  34.243  38.532  1.00  0.00     0.039 C 
ATOM     10  G   UNL     1      -9.571  33.016  39.930  1.00  0.00     0.000 G0
ENDBRANCH   6   7
ENDBRANCH   5   6
ENDBRANCH   3   5
ENDBRANCH   1   3
BRANCH   1  11
ATOM     11  C   UNL     1      -7.775  30.825  41.670  1.00  0.00     0.087 C 
BRANCH  11  12
ATOM     12  C   UNL     1      -8.836  31.809  42.224  1.00  0.00     0.066 C 
BRANCH  12  13
ATOM     13  C   UNL     1      -8.973  33.045  41.339  1.00  0.00     0.140 C 
ATOM     14  O   UNL     1      -8.622  34.130  41.777  1.00  0.00    -0.299 OA
BRANCH  13  15
ATOM     15  C   UNL     1      -9.573  33.002  39.948  1.00  0.00     0.106 CG0
ATOM     16  G   UNL     1      -8.549  32.993  38.827  1.00  0.00     0.000 G0
ENDBRANCH  13  15
ENDBRANCH  12  13
BRANCH  12  17
ATOM     17  C   UNL     1      -8.558  32.169  43.717  1.00  0.00    -0.006 C 
ATOM     18  C   UNL     1      -7.874  31.009  44.455  1.00  0.00     0.008 C 
ATOM     19  C   UNL     1      -9.803  32.623  44.502  1.00  0.00     0.008 C 
ENDBRANCH  12  17
ENDBRANCH  11  12
ENDBRANCH   1  11
TORSDOF 1
ENDMDL
MODEL 5
REMARK VINA RESULT:    -3.910      1.649      4.098
REMARK INTER + INTRA:          -6.065
REMARK INTER:                  -7.492
REMARK INTRA:                   1.427
REMARK UNBOUND:                -0.099
REMARK SMILES CC1=CCC[C@@H](C)C(=O)C[C@@H](C(C)C)C(=O)C1
REMARK SMILES IDX 8 1 9 2 6 3 7 4 5 5 4 6 3 7 2 8 1 9 10 11 11 12 15 13 16 14
REMARK SMILES IDX 17 15 12 17 13 18 14 19
REMARK H PARENT
REMARK Flexibility Score: 70.00
ROOT
ATOM      1  C   UNL     1      -8.122  32.568  42.927  1.00  0.00     0.136 C 
ATOM      2  O   UNL     1      -7.477  32.095  43.853  1.00  0.00    -0.299 OA
ENDROOT
BRANCH   1   3
ATOM      3  C   UNL     1      -7.968  34.035  42.581  1.00  0.00     0.053 C 
ATOM      4  C   UNL     1      -9.010  34.852  43.353  1.00  0.00     0.016 C 
BRANCH   3   5
ATOM      5  C   UNL     1      -8.109  34.296  41.061  1.00  0.00     0.015 C 
BRANCH   5   6
ATOM      6  C   UNL     1      -9.538  34.640  40.615  1.00  0.00     0.028 C 
BRANCH   6   7
ATOM      7  C   UNL     1      -9.698  34.513  39.119  1.00  0.00    -0.028 C 
ATOM      8  C   UNL     1      -9.072  33.597  38.345  1.00  0.00    -0.070 CG0
ATOM      9  C   UNL     1      -9.363  33.602  36.865  1.00  0.00     0.039 C 
ATOM     10  G   UNL     1      -8.102  32.570  38.902  1.00  0.00     0.000 G0
ENDBRANCH   6   7
ENDBRANCH   5   6
ENDBRANCH   3   5
ENDBRANCH   1   3
BRANCH   1  11
ATOM     11  C   UNL     1      -9.019  31.660  42.117  1.00  0.00     0.087 C 
BRANCH  11  12
ATOM     12  C   UNL     1      -8.275  30.913  40.982  1.00  0.00     0.066 C 
BRANCH  12  13
ATOM     13  C   UNL     1      -8.730  31.387  39.605  1.00  0.00     0.140 C 
ATOM     14  O   UNL     1      -9.620  30.777  39.032  1.00  0.00    -0.299 OA
BRANCH  13  15
ATOM     15  C   UNL     1      -8.096  32.560  38.885  1.00  0.00     0.106 CG0
ATOM     16  G   UNL     1      -9.090  33.563  38.328  1.00  0.00     0.000 G0
ENDBRANCH  13  15
ENDBRANCH  12  13
BRANCH  12  17
ATOM     17  C   UNL     1      -8.383  29.365  41.149  1.00  0.00    -0.006 C 
ATOM     18  C   UNL     1      -8.251  28.950  42.621  1.00  0.00     0.008 C 
ATOM     19  C   UNL     1      -7.386  28.564  40.291  1.00  0.00     0.008 C 
ENDBRANCH  12  17
ENDBRANCH  11  12
ENDBRANCH   1  11
TORSDOF 1
ENDMDL
MODEL 6
REMARK VINA RESULT:    -3.722      1.689      4.210
REMARK INTER + INTRA:          -5.779
REMARK INTER:                  -7.569
REMARK INTRA:                   1.791
REMARK UNBOUND:                -0.099
REMARK SMILES CC1=CCC[C@@H](C)C(=O)C[C@@H](C(C)C)C(=O)C1
REMARK SMILES IDX 8 1 9 2 6 3 7 4 5 5 4 6 3 7 2 8 1 9 10 11 11 12 15 13 16 14
REMARK SMILES IDX 17 15 12 17 13 18 14 19
REMARK H PARENT
REMARK Flexibility Score: 70.00
ROOT
ATOM      1  C   UNL     1      -8.515  30.466  43.125  1.00  0.00     0.136 C 
ATOM      2  O   UNL     1      -7.971  29.460  43.560  1.00  0.00    -0.299 OA
ENDROOT
BRANCH   1   3
ATOM      3  C   UNL     1      -8.230  31.808  43.767  1.00  0.00     0.053 C 
ATOM      4  C   UNL     1      -9.466  32.274  44.543  1.00  0.00     0.016 C 
BRANCH   3   5
ATOM      5  C   UNL     1      -7.821  32.879  42.726  1.00  0.00     0.015 C 
BRANCH   5   6
ATOM      6  C   UNL     1      -8.585  34.205  42.860  1.00  0.00     0.028 C 
BRANCH   6   7
ATOM      7  C   UNL     1      -9.231  34.608  41.556  1.00  0.00    -0.028 C 
ATOM      8  C   UNL     1      -9.019  34.004  40.364  1.00  0.00    -0.070 CG0
ATOM      9  C   UNL     1      -9.764  34.528  39.162  1.00  0.00     0.039 C 
ATOM     10  G   UNL     1      -8.074  32.829  40.191  1.00  0.00     0.000 G0
ENDBRANCH   6   7
ENDBRANCH   5   6
ENDBRANCH   3   5
ENDBRANCH   1   3
BRANCH   1  11
ATOM     11  C   UNL     1      -9.421  30.347  41.920  1.00  0.00     0.087 C 
BRANCH  11  12
ATOM     12  C   UNL     1      -8.651  30.240  40.580  1.00  0.00     0.066 C 
BRANCH  12  13
ATOM     13  C   UNL     1      -8.763  31.525  39.763  1.00  0.00     0.140 C 
ATOM     14  O   UNL     1      -9.398  31.510  38.719  1.00  0.00    -0.299 OA
BRANCH  13  15
ATOM     15  C   UNL     1      -8.081  32.818  40.161  1.00  0.00     0.106 CG0
ATOM     16  G   UNL     1      -9.028  33.987  40.365  1.00  0.00     0.000 G0
ENDBRANCH  13  15
ENDBRANCH  12  13
BRANCH  12  17
ATOM     17  C   UNL     1      -9.083  28.976  39.772  1.00  0.00    -0.006 C 
ATOM     18  C   UNL     1      -9.213  27.747  40.682  1.00  0.00     0.008 C 
ATOM     19  C   UNL     1      -8.167  28.645  38.578  1.00  0.00     0.008 C 
ENDBRANCH  12  17
ENDBRANCH  11  12
ENDBRANCH   1  11
TORSDOF 1
ENDMDL
MODEL 7
REMARK VINA RESULT:    -3.520      1.971      5.292
REMARK INTER + INTRA:          -5.471
REMARK INTER:                  -6.175
REMARK INTRA:                   0.704
REMARK UNBOUND:                -0.099
REMARK SMILES CC1=CCC[C@@H](C)C(=O)C[C@@H](C(C)C)C(=O)C1
REMARK SMILES IDX 8 1 9 2 6 3 7 4 5 5 4 6 3 7 2 8 1 9 10 11 11 12 15 13 16 14
REMARK SMILES IDX 17 15 12 17 13 18 14 19
REMARK H PARENT
REMARK Flexibility Score: 70.00
ROOT
ATOM      1  C   UNL     1      -9.217  32.194  39.436  1.00  0.00     0.136 C 
ATOM      2  O   UNL     1      -9.170  31.638  38.347  1.00  0.00    -0.299 OA
ENDROOT
BRANCH   1   3
ATOM      3  C   UNL     1      -8.471  33.496  39.643  1.00  0.00     0.053 C 
ATOM      4  C   UNL     1      -7.063  33.198  40.169  1.00  0.00     0.016 C 
BRANCH   3   5
ATOM      5  C   UNL     1      -9.212  34.446  40.616  1.00  0.00     0.015 C 
BRANCH   5   6
ATOM      6  C   UNL     1      -8.410  34.797  41.879  1.00  0.00     0.028 C 
BRANCH   6   7
ATOM      7  C   UNL     1      -9.100  34.305  43.129  1.00  0.00    -0.028 C 
ATOM      8  C   UNL     1      -9.001  33.051  43.628  1.00  0.00    -0.070 CG0
ATOM      9  C   UNL     1      -9.746  32.735  44.901  1.00  0.00     0.039 C 
ATOM     10  G   UNL     1      -8.175  31.962  42.967  1.00  0.00     0.000 G0
ENDBRANCH   6   7
ENDBRANCH   5   6
ENDBRANCH   3   5
ENDBRANCH   1   3
BRANCH   1  11
ATOM     11  C   UNL     1     -10.065  31.591  40.532  1.00  0.00     0.087 C 
BRANCH  11  12
ATOM     12  C   UNL     1      -9.408  30.365  41.214  1.00  0.00     0.066 C 
BRANCH  12  13
ATOM     13  C   UNL     1      -8.952  30.689  42.634  1.00  0.00     0.140 C 
ATOM     14  O   UNL     1      -9.256  29.930  43.542  1.00  0.00    -0.299 OA
BRANCH  13  15
ATOM     15  C   UNL     1      -8.172  31.940  42.985  1.00  0.00     0.106 CG0
ATOM     16  G   UNL     1      -9.006  33.037  43.623  1.00  0.00     0.000 G0
ENDBRANCH  13  15
ENDBRANCH  12  13
BRANCH  12  17
ATOM     17  C   UNL     1      -8.263  29.768  40.338  1.00  0.00    -0.006 C 
ATOM     18  C   UNL     1      -8.789  28.671  39.401  1.00  0.00     0.008 C 
ATOM     19  C   UNL     1      -7.064  29.234  41.142  1.00  0.00     0.008 C 
ENDBRANCH  12  17
ENDBRANCH  11  12
ENDBRANCH   1  11
TORSDOF 1
ENDMDL
MODEL 8
REMARK VINA RESULT:    -3.395      2.088      4.447
REMARK INTER + INTRA:          -5.279
REMARK INTER:                  -7.119
REMARK INTRA:                   1.839
REMARK UNBOUND:                -0.099
REMARK SMILES CC1=CCC[C@@H](C)C(=O)C[C@@H](C(C)C)C(=O)C1
REMARK SMILES IDX 8 1 9 2 6 3 7 4 5 5 4 6 3 7 2 8 1 9 10 11 11 12 15 13 16 14
REMARK SMILES IDX 17 15 12 17 13 18 14 19
REMARK H PARENT
REMARK Flexibility Score: 70.00
ROOT
ATOM      1  C   UNL     1      -9.260  30.580  39.620  1.00  0.00     0.136 C 
ATOM      2  O   UNL     1      -8.435  29.678  39.651  1.00  0.00    -0.299 OA
ENDROOT
BRANCH   1   3
ATOM      3  C   UNL     1      -9.434  31.392  38.353  1.00  0.00     0.053 C 
ATOM      4  C   UNL     1      -8.080  31.531  37.648  1.00  0.00     0.016 C 
BRANCH   3   5
ATOM      5  C   UNL     1     -10.033  32.792  38.632  1.00  0.00     0.015 C 
BRANCH   5   6
ATOM      6  C   UNL     1      -8.985  33.909  38.754  1.00  0.00     0.028 C 
BRANCH   6   7
ATOM      7  C   UNL     1      -9.061  34.596  40.096  1.00  0.00    -0.028 C 
ATOM      8  C   UNL     1      -8.328  34.261  41.183  1.00  0.00    -0.070 CG0
ATOM      9  C   UNL     1      -8.518  35.070  42.442  1.00  0.00     0.039 C 
ATOM     10  G   UNL     1      -7.328  33.119  41.185  1.00  0.00     0.000 G0
ENDBRANCH   6   7
ENDBRANCH   5   6
ENDBRANCH   3   5
ENDBRANCH   1   3
BRANCH   1  11
ATOM     11  C   UNL     1     -10.125  30.827  40.835  1.00  0.00     0.087 C 
BRANCH  11  12
ATOM     12  C   UNL     1      -9.393  31.593  41.966  1.00  0.00     0.066 C 
BRANCH  12  13
ATOM     13  C   UNL     1      -7.914  31.790  41.645  1.00  0.00     0.140 C 
ATOM     14  O   UNL     1      -7.143  30.855  41.805  1.00  0.00    -0.299 OA
BRANCH  13  15
ATOM     15  C   UNL     1      -7.339  33.112  41.179  1.00  0.00     0.106 CG0
ATOM     16  G   UNL     1      -8.328  34.264  41.197  1.00  0.00     0.000 G0
ENDBRANCH  13  15
ENDBRANCH  12  13
BRANCH  12  17
ATOM     17  C   UNL     1      -9.621  30.917  43.355  1.00  0.00    -0.006 C 
ATOM     18  C   UNL     1      -9.645  31.956  44.485  1.00  0.00     0.008 C 
ATOM     19  C   UNL     1      -8.610  29.806  43.691  1.00  0.00     0.008 C 
ENDBRANCH  12  17
ENDBRANCH  11  12
ENDBRANCH   1  11
TORSDOF 1
ENDMDL
MODEL 9
REMARK VINA RESULT:    -2.890     17.838     19.482
REMARK INTER + INTRA:          -4.509
REMARK INTER:                  -5.277
REMARK INTRA:                   0.768
REMARK UNBOUND:                -0.099
REMARK SMILES CC1=CCC[C@@H](C)C(=O)C[C@@H](C(C)C)C(=O)C1
REMARK SMILES IDX 8 1 9 2 6 3 7 4 5 5 4 6 3 7 2 8 1 9 10 11 11 12 15 13 16 14
REMARK SMILES IDX 17 15 12 17 13 18 14 19
REMARK H PARENT
REMARK Flexibility Score: 70.00
ROOT
ATOM      1  C   UNL     1      -0.362  16.359  51.206  1.00  0.00     0.136 C 
ATOM      2  O   UNL     1      -0.564  16.214  52.404  1.00  0.00    -0.299 OA
ENDROOT
BRANCH   1   3
ATOM      3  C   UNL     1      -0.834  17.621  50.514  1.00  0.00     0.053 C 
ATOM      4  C   UNL     1      -0.235  18.842  51.218  1.00  0.00     0.016 C 
BRANCH   3   5
ATOM      5  C   UNL     1      -2.378  17.729  50.484  1.00  0.00     0.015 C 
BRANCH   5   6
ATOM      6  C   UNL     1      -3.073  16.572  49.749  1.00  0.00     0.028 C 
BRANCH   6   7
ATOM      7  C   UNL     1      -2.966  16.723  48.250  1.00  0.00    -0.028 C 
ATOM      8  C   UNL     1      -2.162  15.984  47.451  1.00  0.00    -0.070 CG0
ATOM      9  C   UNL     1      -2.194  16.258  45.968  1.00  0.00     0.039 C 
ATOM     10  G   UNL     1      -1.242  14.899  47.980  1.00  0.00     0.000 G0
ENDBRANCH   6   7
ENDBRANCH   5   6
ENDBRANCH   3   5
ENDBRANCH   1   3
BRANCH   1  11
ATOM     11  C   UNL     1       0.404  15.292  50.457  1.00  0.00     0.087 C 
BRANCH  11  12
ATOM     12  C   UNL     1       0.998  15.788  49.115  1.00  0.00     0.066 C 
BRANCH  12  13
ATOM     13  C   UNL     1       0.238  15.218  47.920  1.00  0.00     0.140 C 
ATOM     14  O   UNL     1       0.828  15.063  46.861  1.00  0.00    -0.299 OA
BRANCH  13  15
ATOM     15  C   UNL     1      -1.238  14.875  47.967  1.00  0.00     0.106 CG0
ATOM     16  G   UNL     1      -2.151  15.973  47.452  1.00  0.00     0.000 G0
ENDBRANCH  13  15
ENDBRANCH  12  13
BRANCH  12  17
ATOM     17  C   UNL     1       2.533  15.517  49.033  1.00  0.00    -0.006 C 
ATOM     18  C   UNL     1       3.321  16.495  49.916  1.00  0.00     0.008 C 
ATOM     19  C   UNL     1       3.103  15.532  47.603  1.00  0.00     0.008 C 
ENDBRANCH  12  17
ENDBRANCH  11  12
ENDBRANCH   1  11
TORSDOF 1
ENDMDL
