MODEL 1
REMARK VINA RESULT:    -7.793      0.000      0.000
REMARK INTER + INTRA:         -14.347
REMARK INTER:                 -12.348
REMARK INTRA:                  -1.999
REMARK UNBOUND:                -1.999
REMARK SMILES C[C@@H]1O[C@@H](O[C@H]2[C@@H](Oc3cc(O)c4c(c3)O[C@@H](c3ccc(O)cc3)CC4=O)O[C@@H](CO)[C@H](O)[C@@H]2O)[C@@H](O)[C@H](O)[C@H]1O
REMARK SMILES IDX 6 1 34 2 32 3 29 4 28 5 7 6 5 7 4 8 1 9 2 10 40 11 3 12
REMARK SMILES IDX 38 13 36 14 41 15 39 17 37 19 35 21 8 23 9 24 10 25 15 26
REMARK SMILES IDX 11 27 14 28 13 29 16 30 26 31 17 32 27 33 25 34 12 35 18 37
REMARK SMILES IDX 19 38 24 39 20 40 23 41 21 42 22 43 33 45 30 47 31 48
REMARK H PARENT 41 16 39 18 37 20 35 22 12 36 22 44 33 46 31 49
REMARK Flexibility Score: inf
ROOT
ATOM      1  C   UNL     1     -34.733  41.610   6.075  1.00  0.00     0.221 C 
ATOM      2  C   UNL     1     -33.943  42.906   5.869  1.00  0.00     0.181 C 
ATOM      3  C   UNL     1     -34.790  43.942   5.111  1.00  0.00     0.177 C 
ATOM      4  C   UNL     1     -36.197  44.102   5.743  1.00  0.00     0.179 C 
ATOM      5  O   UNL     1     -36.850  42.857   5.981  1.00  0.00    -0.332 OA
ATOM      6  C   UNL     1     -36.090  41.927   6.741  1.00  0.00     0.339 C 
ENDROOT
BRANCH   1   7
ATOM      7  O   UNL     1     -33.961  40.742   6.890  1.00  0.00    -0.337 OA
BRANCH   7   8
ATOM      8  C   UNL     1     -33.255  39.756   6.142  1.00  0.00     0.282 C 
ATOM      9  C   UNL     1     -35.031  36.770   7.375  1.00  0.00     0.041 C 
ATOM     10  C   UNL     1     -34.164  38.027   7.460  1.00  0.00     0.150 C 
ATOM     11  C   UNL     1     -32.807  37.697   8.124  1.00  0.00     0.174 C 
ATOM     12  O   UNL     1     -33.984  38.536   6.144  1.00  0.00    -0.344 OA
ATOM     13  C   UNL     1     -31.904  38.942   8.115  1.00  0.00     0.179 C 
ATOM     14  C   UNL     1     -31.827  39.511   6.695  1.00  0.00     0.202 C 
BRANCH  11  15
ATOM     15  O   UNL     1     -33.022  37.278   9.447  1.00  0.00    -0.388 OA
ATOM     16  H   UNL     1     -32.309  36.624   9.664  1.00  0.00     0.211 HD
ENDBRANCH  11  15
BRANCH  13  17
ATOM     17  O   UNL     1     -30.609  38.604   8.544  1.00  0.00    -0.387 OA
ATOM     18  H   UNL     1     -29.973  39.105   7.969  1.00  0.00     0.211 HD
ENDBRANCH  13  17
BRANCH  14  19
ATOM     19  O   UNL     1     -31.070  40.692   6.704  1.00  0.00    -0.385 OA
ATOM     20  H   UNL     1     -30.134  40.430   6.916  1.00  0.00     0.211 HD
ENDBRANCH  14  19
ENDBRANCH   7   8
ENDBRANCH   1   7
BRANCH   2  21
ATOM     21  O   UNL     1     -32.763  42.629   5.160  1.00  0.00    -0.387 OA
ATOM     22  H   UNL     1     -32.494  43.472   4.709  1.00  0.00     0.211 HD
ENDBRANCH   2  21
BRANCH   6  23
ATOM     23  O   UNL     1     -35.926  42.399   8.083  1.00  0.00    -0.462 OA
BRANCH  23  24
ATOM     24  C   UNL     1     -36.015  41.647   9.265  1.00  0.00     0.130 A 
ATOM     25  C   UNL     1     -35.815  40.254   9.315  1.00  0.00     0.093 A 
ATOM     26  C   UNL     1     -36.347  42.328  10.439  1.00  0.00     0.094 A 
ATOM     27  C   UNL     1     -35.958  39.554  10.522  1.00  0.00     0.133 A 
ATOM     28  C   UNL     1     -36.465  41.645  11.651  1.00  0.00     0.138 A 
ATOM     29  C   UNL     1     -36.287  40.252  11.703  1.00  0.00     0.102 A 
ATOM     30  O   UNL     1     -36.774  42.360  12.815  1.00  0.00    -0.484 OA
ATOM     31  C   UNL     1     -36.498  39.577  13.006  1.00  0.00     0.174 C 
ATOM     32  C   UNL     1     -36.590  41.806  14.121  1.00  0.00     0.211 C 
ATOM     33  O   UNL     1     -36.237  38.354  13.157  1.00  0.00    -0.294 OA
ATOM     34  C   UNL     1     -37.099  40.350  14.145  1.00  0.00     0.131 C 
BRANCH  27  35
ATOM     35  O   UNL     1     -35.780  38.171  10.543  1.00  0.00    -0.507 OA
ATOM     36  H   UNL     1     -34.975  37.744  10.987  1.00  0.00     0.293 HD
ENDBRANCH  27  35
BRANCH  32  37
ATOM     37  C   UNL     1     -37.229  42.731  15.144  1.00  0.00    -0.007 A 
ATOM     38  C   UNL     1     -36.994  44.123  15.187  1.00  0.00     0.011 A 
ATOM     39  C   UNL     1     -38.116  42.170  16.081  1.00  0.00     0.011 A 
ATOM     40  C   UNL     1     -37.616  44.916  16.155  1.00  0.00     0.046 A 
ATOM     41  C   UNL     1     -38.735  42.968  17.047  1.00  0.00     0.046 A 
ATOM     42  C   UNL     1     -38.486  44.341  17.089  1.00  0.00     0.115 A 
BRANCH  42  43
ATOM     43  O   UNL     1     -39.108  45.124  18.060  1.00  0.00    -0.508 OA
ATOM     44  H   UNL     1     -38.697  45.254  18.976  1.00  0.00     0.293 HD
ENDBRANCH  42  43
ENDBRANCH  32  37
ENDBRANCH  23  24
ENDBRANCH   6  23
BRANCH   3  45
ATOM     45  O   UNL     1     -34.879  43.616   3.743  1.00  0.00    -0.387 OA
ATOM     46  H   UNL     1     -34.609  42.670   3.629  1.00  0.00     0.211 HD
ENDBRANCH   3  45
BRANCH   4  47
ATOM     47  C   UNL     1     -36.209  45.022   6.980  1.00  0.00     0.191 C 
BRANCH  47  48
ATOM     48  O   UNL     1     -37.445  44.921   7.635  1.00  0.00    -0.394 OA
ATOM     49  H   UNL     1     -37.373  45.480   8.452  1.00  0.00     0.210 HD
ENDBRANCH  47  48
ENDBRANCH   4  47
TORSDOF 14
ENDMDL
MODEL 2
REMARK VINA RESULT:    -7.281      2.217      5.163
REMARK INTER + INTRA:         -13.536
REMARK INTER:                 -11.404
REMARK INTRA:                  -2.132
REMARK UNBOUND:                -1.999
REMARK SMILES C[C@@H]1O[C@@H](O[C@H]2[C@@H](Oc3cc(O)c4c(c3)O[C@@H](c3ccc(O)cc3)CC4=O)O[C@@H](CO)[C@H](O)[C@@H]2O)[C@@H](O)[C@H](O)[C@H]1O
REMARK SMILES IDX 6 1 34 2 32 3 29 4 28 5 7 6 5 7 4 8 1 9 2 10 40 11 3 12
REMARK SMILES IDX 38 13 36 14 41 15 39 17 37 19 35 21 8 23 9 24 10 25 15 26
REMARK SMILES IDX 11 27 14 28 13 29 16 30 26 31 17 32 27 33 25 34 12 35 18 37
REMARK SMILES IDX 19 38 24 39 20 40 23 41 21 42 22 43 33 45 30 47 31 48
REMARK H PARENT 41 16 39 18 37 20 35 22 12 36 22 44 33 46 31 49
REMARK Flexibility Score: inf
ROOT
ATOM      1  C   UNL     1     -34.053  38.346   8.062  1.00  0.00     0.221 C 
ATOM      2  C   UNL     1     -34.991  37.476   7.219  1.00  0.00     0.181 C 
ATOM      3  C   UNL     1     -35.134  36.076   7.839  1.00  0.00     0.177 C 
ATOM      4  C   UNL     1     -35.461  36.152   9.353  1.00  0.00     0.179 C 
ATOM      5  O   UNL     1     -34.602  37.036  10.068  1.00  0.00    -0.332 OA
ATOM      6  C   UNL     1     -34.526  38.350   9.532  1.00  0.00     0.339 C 
ENDROOT
BRANCH   1   7
ATOM      7  O   UNL     1     -34.061  39.660   7.525  1.00  0.00    -0.337 OA
BRANCH   7   8
ATOM      8  C   UNL     1     -32.756  40.149   7.227  1.00  0.00     0.282 C 
ATOM      9  C   UNL     1     -32.891  43.272   9.179  1.00  0.00     0.041 C 
ATOM     10  C   UNL     1     -33.294  42.272   8.094  1.00  0.00     0.150 C 
ATOM     11  C   UNL     1     -33.262  42.947   6.704  1.00  0.00     0.174 C 
ATOM     12  O   UNL     1     -32.400  41.167   8.151  1.00  0.00    -0.344 OA
ATOM     13  C   UNL     1     -33.571  41.911   5.611  1.00  0.00     0.179 C 
ATOM     14  C   UNL     1     -32.652  40.697   5.780  1.00  0.00     0.202 C 
BRANCH  11  15
ATOM     15  O   UNL     1     -34.216  43.978   6.662  1.00  0.00    -0.388 OA
ATOM     16  H   UNL     1     -35.046  43.590   6.283  1.00  0.00     0.211 HD
ENDBRANCH  11  15
BRANCH  13  17
ATOM     17  O   UNL     1     -33.360  42.471   4.340  1.00  0.00    -0.387 OA
ATOM     18  H   UNL     1     -33.554  43.442   4.415  1.00  0.00     0.211 HD
ENDBRANCH  13  17
BRANCH  14  19
ATOM     19  O   UNL     1     -32.990  39.718   4.833  1.00  0.00    -0.385 OA
ATOM     20  H   UNL     1     -32.814  38.837   5.258  1.00  0.00     0.211 HD
ENDBRANCH  14  19
ENDBRANCH   7   8
ENDBRANCH   1   7
BRANCH   2  21
ATOM     21  O   UNL     1     -34.493  37.381   5.910  1.00  0.00    -0.387 OA
ATOM     22  H   UNL     1     -33.795  36.675   5.919  1.00  0.00     0.211 HD
ENDBRANCH   2  21
BRANCH   6  23
ATOM     23  O   UNL     1     -35.781  39.021   9.685  1.00  0.00    -0.462 OA
BRANCH  23  24
ATOM     24  C   UNL     1     -36.077  40.081  10.557  1.00  0.00     0.130 A 
ATOM     25  C   UNL     1     -36.024  41.436  10.178  1.00  0.00     0.093 A 
ATOM     26  C   UNL     1     -36.412  39.758  11.875  1.00  0.00     0.094 A 
ATOM     27  C   UNL     1     -36.292  42.451  11.109  1.00  0.00     0.133 A 
ATOM     28  C   UNL     1     -36.708  40.758  12.803  1.00  0.00     0.138 A 
ATOM     29  C   UNL     1     -36.636  42.112  12.434  1.00  0.00     0.102 A 
ATOM     30  O   UNL     1     -37.065  40.400  14.108  1.00  0.00    -0.484 OA
ATOM     31  C   UNL     1     -36.890  43.127  13.485  1.00  0.00     0.174 C 
ATOM     32  C   UNL     1     -37.691  41.321  15.006  1.00  0.00     0.211 C 
ATOM     33  O   UNL     1     -36.966  44.353  13.204  1.00  0.00    -0.294 OA
ATOM     34  C   UNL     1     -36.989  42.691  14.919  1.00  0.00     0.131 C 
BRANCH  27  35
ATOM     35  O   UNL     1     -36.210  43.786  10.717  1.00  0.00    -0.507 OA
ATOM     36  H   UNL     1     -36.971  44.247  10.232  1.00  0.00     0.293 HD
ENDBRANCH  27  35
BRANCH  32  37
ATOM     37  C   UNL     1     -37.735  40.704  16.395  1.00  0.00    -0.007 A 
ATOM     38  C   UNL     1     -36.989  39.563  16.762  1.00  0.00     0.011 A 
ATOM     39  C   UNL     1     -38.545  41.319  17.367  1.00  0.00     0.011 A 
ATOM     40  C   UNL     1     -37.075  39.047  18.059  1.00  0.00     0.046 A 
ATOM     41  C   UNL     1     -38.627  40.800  18.662  1.00  0.00     0.046 A 
ATOM     42  C   UNL     1     -37.896  39.663  19.012  1.00  0.00     0.115 A 
BRANCH  42  43
ATOM     43  O   UNL     1     -37.990  39.155  20.305  1.00  0.00    -0.508 OA
ATOM     44  H   UNL     1     -38.427  39.684  21.050  1.00  0.00     0.293 HD
ENDBRANCH  42  43
ENDBRANCH  32  37
ENDBRANCH  23  24
ENDBRANCH   6  23
BRANCH   3  45
ATOM     45  O   UNL     1     -33.981  35.301   7.604  1.00  0.00    -0.387 OA
ATOM     46  H   UNL     1     -33.801  35.295   6.630  1.00  0.00     0.211 HD
ENDBRANCH   3  45
BRANCH   4  47
ATOM     47  C   UNL     1     -36.952  36.414   9.642  1.00  0.00     0.191 C 
BRANCH  47  48
ATOM     48  O   UNL     1     -37.484  35.353  10.390  1.00  0.00    -0.394 OA
ATOM     49  H   UNL     1     -38.020  34.808   9.757  1.00  0.00     0.210 HD
ENDBRANCH  47  48
ENDBRANCH   4  47
TORSDOF 14
ENDMDL
MODEL 3
REMARK VINA RESULT:    -6.869      1.921      2.917
REMARK INTER + INTRA:         -12.884
REMARK INTER:                 -11.036
REMARK INTRA:                  -1.849
REMARK UNBOUND:                -1.999
REMARK SMILES C[C@@H]1O[C@@H](O[C@H]2[C@@H](Oc3cc(O)c4c(c3)O[C@@H](c3ccc(O)cc3)CC4=O)O[C@@H](CO)[C@H](O)[C@@H]2O)[C@@H](O)[C@H](O)[C@H]1O
REMARK SMILES IDX 6 1 34 2 32 3 29 4 28 5 7 6 5 7 4 8 1 9 2 10 40 11 3 12
REMARK SMILES IDX 38 13 36 14 41 15 39 17 37 19 35 21 8 23 9 24 10 25 15 26
REMARK SMILES IDX 11 27 14 28 13 29 16 30 26 31 17 32 27 33 25 34 12 35 18 37
REMARK SMILES IDX 19 38 24 39 20 40 23 41 21 42 22 43 33 45 30 47 31 48
REMARK H PARENT 41 16 39 18 37 20 35 22 12 36 22 44 33 46 31 49
REMARK Flexibility Score: inf
ROOT
ATOM      1  C   UNL     1     -34.277  42.251   5.340  1.00  0.00     0.221 C 
ATOM      2  C   UNL     1     -34.549  43.563   6.083  1.00  0.00     0.181 C 
ATOM      3  C   UNL     1     -35.252  44.573   5.161  1.00  0.00     0.177 C 
ATOM      4  C   UNL     1     -36.471  43.938   4.443  1.00  0.00     0.179 C 
ATOM      5  O   UNL     1     -36.175  42.683   3.837  1.00  0.00    -0.332 OA
ATOM      6  C   UNL     1     -35.587  41.728   4.711  1.00  0.00     0.339 C 
ENDROOT
BRANCH   1   7
ATOM      7  O   UNL     1     -33.753  41.314   6.268  1.00  0.00    -0.337 OA
BRANCH   7   8
ATOM      8  C   UNL     1     -32.634  40.592   5.759  1.00  0.00     0.282 C 
ATOM      9  C   UNL     1     -32.362  38.065   8.428  1.00  0.00     0.041 C 
ATOM     10  C   UNL     1     -32.360  39.463   7.809  1.00  0.00     0.150 C 
ATOM     11  C   UNL     1     -31.037  40.193   8.137  1.00  0.00     0.174 C 
ATOM     12  O   UNL     1     -32.540  39.330   6.404  1.00  0.00    -0.344 OA
ATOM     13  C   UNL     1     -31.002  41.558   7.428  1.00  0.00     0.179 C 
ATOM     14  C   UNL     1     -31.305  41.370   5.938  1.00  0.00     0.202 C 
BRANCH  11  15
ATOM     15  O   UNL     1     -30.937  40.379   9.526  1.00  0.00    -0.388 OA
ATOM     16  H   UNL     1     -31.179  41.323   9.711  1.00  0.00     0.211 HD
ENDBRANCH  11  15
BRANCH  13  17
ATOM     17  O   UNL     1     -29.732  42.143   7.568  1.00  0.00    -0.387 OA
ATOM     18  H   UNL     1     -29.233  41.597   8.231  1.00  0.00     0.211 HD
ENDBRANCH  13  17
BRANCH  14  19
ATOM     19  O   UNL     1     -31.352  42.623   5.309  1.00  0.00    -0.385 OA
ATOM     20  H   UNL     1     -31.309  43.307   6.030  1.00  0.00     0.211 HD
ENDBRANCH  14  19
ENDBRANCH   7   8
ENDBRANCH   1   7
BRANCH   2  21
ATOM     21  O   UNL     1     -33.337  44.095   6.554  1.00  0.00    -0.387 OA
ATOM     22  H   UNL     1     -33.536  45.008   6.889  1.00  0.00     0.211 HD
ENDBRANCH   2  21
BRANCH   6  23
ATOM     23  O   UNL     1     -36.531  41.322   5.708  1.00  0.00    -0.462 OA
BRANCH  23  24
ATOM     24  C   UNL     1     -36.325  40.402   6.748  1.00  0.00     0.130 A 
ATOM     25  C   UNL     1     -36.037  39.040   6.534  1.00  0.00     0.093 A 
ATOM     26  C   UNL     1     -36.442  40.873   8.059  1.00  0.00     0.094 A 
ATOM     27  C   UNL     1     -35.882  38.163   7.618  1.00  0.00     0.133 A 
ATOM     28  C   UNL     1     -36.262  40.015   9.145  1.00  0.00     0.138 A 
ATOM     29  C   UNL     1     -35.995  38.651   8.936  1.00  0.00     0.102 A 
ATOM     30  O   UNL     1     -36.361  40.523  10.446  1.00  0.00    -0.484 OA
ATOM     31  C   UNL     1     -35.887  37.778  10.130  1.00  0.00     0.174 C 
ATOM     32  C   UNL     1     -35.874  39.805  11.584  1.00  0.00     0.211 C 
ATOM     33  O   UNL     1     -35.529  36.575  10.029  1.00  0.00    -0.294 OA
ATOM     34  C   UNL     1     -36.280  38.321  11.475  1.00  0.00     0.131 C 
BRANCH  27  35
ATOM     35  O   UNL     1     -35.622  36.814   7.381  1.00  0.00    -0.507 OA
ATOM     36  H   UNL     1     -34.691  36.424   7.483  1.00  0.00     0.293 HD
ENDBRANCH  27  35
BRANCH  32  37
ATOM     37  C   UNL     1     -36.336  40.511  12.848  1.00  0.00    -0.007 A 
ATOM     38  C   UNL     1     -36.694  39.831  14.032  1.00  0.00     0.011 A 
ATOM     39  C   UNL     1     -36.388  41.917  12.839  1.00  0.00     0.011 A 
ATOM     40  C   UNL     1     -37.110  40.544  15.160  1.00  0.00     0.046 A 
ATOM     41  C   UNL     1     -36.804  42.625  13.969  1.00  0.00     0.046 A 
ATOM     42  C   UNL     1     -37.169  41.942  15.132  1.00  0.00     0.115 A 
BRANCH  42  43
ATOM     43  O   UNL     1     -37.584  42.661  16.250  1.00  0.00    -0.508 OA
ATOM     44  H   UNL     1     -36.960  43.295  16.733  1.00  0.00     0.293 HD
ENDBRANCH  42  43
ENDBRANCH  32  37
ENDBRANCH  23  24
ENDBRANCH   6  23
BRANCH   3  45
ATOM     45  O   UNL     1     -34.345  45.125   4.234  1.00  0.00    -0.387 OA
ATOM     46  H   UNL     1     -33.427  44.874   4.508  1.00  0.00     0.211 HD
ENDBRANCH   3  45
BRANCH   4  47
ATOM     47  C   UNL     1     -37.737  43.886   5.322  1.00  0.00     0.191 C 
BRANCH  47  48
ATOM     48  O   UNL     1     -38.665  42.994   4.766  1.00  0.00    -0.394 OA
ATOM     49  H   UNL     1     -38.460  42.103   5.151  1.00  0.00     0.210 HD
ENDBRANCH  47  48
ENDBRANCH   4  47
TORSDOF 14
ENDMDL
MODEL 4
REMARK VINA RESULT:    -6.371      2.312      4.156
REMARK INTER + INTRA:         -12.095
REMARK INTER:                 -10.191
REMARK INTRA:                  -1.905
REMARK UNBOUND:                -1.999
REMARK SMILES C[C@@H]1O[C@@H](O[C@H]2[C@@H](Oc3cc(O)c4c(c3)O[C@@H](c3ccc(O)cc3)CC4=O)O[C@@H](CO)[C@H](O)[C@@H]2O)[C@@H](O)[C@H](O)[C@H]1O
REMARK SMILES IDX 6 1 34 2 32 3 29 4 28 5 7 6 5 7 4 8 1 9 2 10 40 11 3 12
REMARK SMILES IDX 38 13 36 14 41 15 39 17 37 19 35 21 8 23 9 24 10 25 15 26
REMARK SMILES IDX 11 27 14 28 13 29 16 30 26 31 17 32 27 33 25 34 12 35 18 37
REMARK SMILES IDX 19 38 24 39 20 40 23 41 21 42 22 43 33 45 30 47 31 48
REMARK H PARENT 41 16 39 18 37 20 35 22 12 36 22 44 33 46 31 49
REMARK Flexibility Score: inf
ROOT
ATOM      1  C   UNL     1     -33.283  39.667   7.184  1.00  0.00     0.221 C 
ATOM      2  C   UNL     1     -31.771  39.586   7.419  1.00  0.00     0.181 C 
ATOM      3  C   UNL     1     -31.011  40.373   6.338  1.00  0.00     0.177 C 
ATOM      4  C   UNL     1     -31.592  41.800   6.158  1.00  0.00     0.179 C 
ATOM      5  O   UNL     1     -33.010  41.816   6.021  1.00  0.00    -0.332 OA
ATOM      6  C   UNL     1     -33.711  41.146   7.059  1.00  0.00     0.339 C 
ENDROOT
BRANCH   1   7
ATOM      7  O   UNL     1     -33.938  39.042   8.276  1.00  0.00    -0.337 OA
BRANCH   7   8
ATOM      8  C   UNL     1     -35.307  38.748   8.012  1.00  0.00     0.282 C 
ATOM      9  C   UNL     1     -36.219  37.396  11.317  1.00  0.00     0.041 C 
ATOM     10  C   UNL     1     -35.472  37.471   9.985  1.00  0.00     0.150 C 
ATOM     11  C   UNL     1     -35.611  36.137   9.217  1.00  0.00     0.174 C 
ATOM     12  O   UNL     1     -36.005  38.556   9.234  1.00  0.00    -0.344 OA
ATOM     13  C   UNL     1     -34.942  36.254   7.837  1.00  0.00     0.179 C 
ATOM     14  C   UNL     1     -35.474  37.495   7.113  1.00  0.00     0.202 C 
BRANCH  11  15
ATOM     15  O   UNL     1     -35.000  35.107   9.952  1.00  0.00    -0.388 OA
ATOM     16  H   UNL     1     -35.095  35.340  10.912  1.00  0.00     0.211 HD
ENDBRANCH  11  15
BRANCH  13  17
ATOM     17  O   UNL     1     -35.225  35.116   7.064  1.00  0.00    -0.387 OA
ATOM     18  H   UNL     1     -36.011  35.338   6.498  1.00  0.00     0.211 HD
ENDBRANCH  13  17
BRANCH  14  19
ATOM     19  O   UNL     1     -34.804  37.646   5.890  1.00  0.00    -0.385 OA
ATOM     20  H   UNL     1     -34.479  38.585   5.855  1.00  0.00     0.211 HD
ENDBRANCH  14  19
ENDBRANCH   7   8
ENDBRANCH   1   7
BRANCH   2  21
ATOM     21  O   UNL     1     -31.368  38.241   7.416  1.00  0.00    -0.387 OA
ATOM     22  H   UNL     1     -30.466  38.213   7.001  1.00  0.00     0.211 HD
ENDBRANCH   2  21
BRANCH   6  23
ATOM     23  O   UNL     1     -33.559  41.851   8.296  1.00  0.00    -0.462 OA
BRANCH  23  24
ATOM     24  C   UNL     1     -34.579  42.356   9.118  1.00  0.00     0.130 A 
ATOM     25  C   UNL     1     -35.337  43.499   8.799  1.00  0.00     0.093 A 
ATOM     26  C   UNL     1     -34.824  41.693  10.324  1.00  0.00     0.094 A 
ATOM     27  C   UNL     1     -36.316  43.976   9.683  1.00  0.00     0.133 A 
ATOM     28  C   UNL     1     -35.815  42.144  11.198  1.00  0.00     0.138 A 
ATOM     29  C   UNL     1     -36.559  43.296  10.894  1.00  0.00     0.102 A 
ATOM     30  O   UNL     1     -36.052  41.443  12.386  1.00  0.00    -0.484 OA
ATOM     31  C   UNL     1     -37.546  43.764  11.898  1.00  0.00     0.174 C 
ATOM     32  C   UNL     1     -37.241  41.634  13.159  1.00  0.00     0.211 C 
ATOM     33  O   UNL     1     -38.334  44.713  11.644  1.00  0.00    -0.294 OA
ATOM     34  C   UNL     1     -37.556  43.140  13.264  1.00  0.00     0.131 C 
BRANCH  27  35
ATOM     35  O   UNL     1     -37.037  45.125   9.359  1.00  0.00    -0.507 OA
ATOM     36  H   UNL     1     -37.194  45.402   8.396  1.00  0.00     0.293 HD
ENDBRANCH  27  35
BRANCH  32  37
ATOM     37  C   UNL     1     -37.088  40.911  14.487  1.00  0.00    -0.007 A 
ATOM     38  C   UNL     1     -36.392  39.691  14.633  1.00  0.00     0.011 A 
ATOM     39  C   UNL     1     -37.653  41.503  15.631  1.00  0.00     0.011 A 
ATOM     40  C   UNL     1     -36.288  39.080  15.886  1.00  0.00     0.046 A 
ATOM     41  C   UNL     1     -37.546  40.888  16.882  1.00  0.00     0.046 A 
ATOM     42  C   UNL     1     -36.867  39.675  17.013  1.00  0.00     0.115 A 
BRANCH  42  43
ATOM     43  O   UNL     1     -36.771  39.072  18.265  1.00  0.00    -0.508 OA
ATOM     44  H   UNL     1     -37.535  39.111  18.930  1.00  0.00     0.293 HD
ENDBRANCH  42  43
ENDBRANCH  32  37
ENDBRANCH  23  24
ENDBRANCH   6  23
BRANCH   3  45
ATOM     45  O   UNL     1     -30.999  39.670   5.117  1.00  0.00    -0.387 OA
ATOM     46  H   UNL     1     -31.108  38.705   5.312  1.00  0.00     0.211 HD
ENDBRANCH   3  45
BRANCH   4  47
ATOM     47  C   UNL     1     -31.088  42.802   7.216  1.00  0.00     0.191 C 
BRANCH  47  48
ATOM     48  O   UNL     1     -31.885  43.956   7.195  1.00  0.00    -0.394 OA
ATOM     49  H   UNL     1     -32.818  43.647   7.056  1.00  0.00     0.210 HD
ENDBRANCH  47  48
ENDBRANCH   4  47
TORSDOF 14
ENDMDL
MODEL 5
REMARK VINA RESULT:    -6.075      3.220      5.855
REMARK INTER + INTRA:         -11.626
REMARK INTER:                 -10.739
REMARK INTRA:                  -0.887
REMARK UNBOUND:                -1.999
REMARK SMILES C[C@@H]1O[C@@H](O[C@H]2[C@@H](Oc3cc(O)c4c(c3)O[C@@H](c3ccc(O)cc3)CC4=O)O[C@@H](CO)[C@H](O)[C@@H]2O)[C@@H](O)[C@H](O)[C@H]1O
REMARK SMILES IDX 6 1 34 2 32 3 29 4 28 5 7 6 5 7 4 8 1 9 2 10 40 11 3 12
REMARK SMILES IDX 38 13 36 14 41 15 39 17 37 19 35 21 8 23 9 24 10 25 15 26
REMARK SMILES IDX 11 27 14 28 13 29 16 30 26 31 17 32 27 33 25 34 12 35 18 37
REMARK SMILES IDX 19 38 24 39 20 40 23 41 21 42 22 43 33 45 30 47 31 48
REMARK H PARENT 41 16 39 18 37 20 35 22 12 36 22 44 33 46 31 49
REMARK Flexibility Score: inf
ROOT
ATOM      1  C   UNL     1     -32.687  42.731   5.741  1.00  0.00     0.221 C 
ATOM      2  C   UNL     1     -31.179  42.515   5.897  1.00  0.00     0.181 C 
ATOM      3  C   UNL     1     -30.410  43.811   5.588  1.00  0.00     0.177 C 
ATOM      4  C   UNL     1     -31.002  45.022   6.354  1.00  0.00     0.179 C 
ATOM      5  O   UNL     1     -32.419  45.125   6.234  1.00  0.00    -0.332 OA
ATOM      6  C   UNL     1     -33.129  43.946   6.587  1.00  0.00     0.339 C 
ENDROOT
BRANCH   1   7
ATOM      7  O   UNL     1     -33.352  41.551   6.165  1.00  0.00    -0.337 OA
BRANCH   7   8
ATOM      8  C   UNL     1     -33.705  40.691   5.086  1.00  0.00     0.282 C 
ATOM      9  C   UNL     1     -37.345  41.269   5.099  1.00  0.00     0.041 C 
ATOM     10  C   UNL     1     -35.989  40.827   5.650  1.00  0.00     0.150 C 
ATOM     11  C   UNL     1     -36.053  39.354   6.116  1.00  0.00     0.174 C 
ATOM     12  O   UNL     1     -35.014  41.002   4.628  1.00  0.00    -0.344 OA
ATOM     13  C   UNL     1     -34.661  38.888   6.574  1.00  0.00     0.179 C 
ATOM     14  C   UNL     1     -33.632  39.194   5.482  1.00  0.00     0.202 C 
BRANCH  11  15
ATOM     15  O   UNL     1     -36.964  39.240   7.180  1.00  0.00    -0.388 OA
ATOM     16  H   UNL     1     -36.663  38.478   7.739  1.00  0.00     0.211 HD
ENDBRANCH  11  15
BRANCH  13  17
ATOM     17  O   UNL     1     -34.671  37.505   6.821  1.00  0.00    -0.387 OA
ATOM     18  H   UNL     1     -35.550  37.290   7.230  1.00  0.00     0.211 HD
ENDBRANCH  13  17
BRANCH  14  19
ATOM     19  O   UNL     1     -32.351  38.842   5.934  1.00  0.00    -0.385 OA
ATOM     20  H   UNL     1     -32.069  39.551   6.572  1.00  0.00     0.211 HD
ENDBRANCH  14  19
ENDBRANCH   7   8
ENDBRANCH   1   7
BRANCH   2  21
ATOM     21  O   UNL     1     -30.761  41.484   5.039  1.00  0.00    -0.387 OA
ATOM     22  H   UNL     1     -29.986  41.834   4.528  1.00  0.00     0.211 HD
ENDBRANCH   2  21
BRANCH   6  23
ATOM     23  O   UNL     1     -33.003  43.692   7.990  1.00  0.00    -0.462 OA
BRANCH  23  24
ATOM     24  C   UNL     1     -33.937  43.062   8.827  1.00  0.00     0.130 A 
ATOM     25  C   UNL     1     -34.744  43.755   9.750  1.00  0.00     0.093 A 
ATOM     26  C   UNL     1     -34.040  41.670   8.747  1.00  0.00     0.094 A 
ATOM     27  C   UNL     1     -35.631  43.062  10.587  1.00  0.00     0.133 A 
ATOM     28  C   UNL     1     -34.939  40.973   9.556  1.00  0.00     0.138 A 
ATOM     29  C   UNL     1     -35.731  41.658  10.492  1.00  0.00     0.102 A 
ATOM     30  O   UNL     1     -35.037  39.582   9.433  1.00  0.00    -0.484 OA
ATOM     31  C   UNL     1     -36.612  40.853  11.372  1.00  0.00     0.174 C 
ATOM     32  C   UNL     1     -36.139  38.845   9.970  1.00  0.00     0.211 C 
ATOM     33  O   UNL     1     -37.439  41.402  12.147  1.00  0.00    -0.294 OA
ATOM     34  C   UNL     1     -36.466  39.358  11.387  1.00  0.00     0.131 C 
BRANCH  27  35
ATOM     35  O   UNL     1     -36.402  43.767  11.510  1.00  0.00    -0.507 OA
ATOM     36  H   UNL     1     -37.141  44.396  11.218  1.00  0.00     0.293 HD
ENDBRANCH  27  35
BRANCH  32  37
ATOM     37  C   UNL     1     -35.832  37.359   9.875  1.00  0.00    -0.007 A 
ATOM     38  C   UNL     1     -36.809  36.380   9.590  1.00  0.00     0.011 A 
ATOM     39  C   UNL     1     -34.501  36.945  10.059  1.00  0.00     0.011 A 
ATOM     40  C   UNL     1     -36.458  35.029   9.515  1.00  0.00     0.046 A 
ATOM     41  C   UNL     1     -34.154  35.593   9.984  1.00  0.00     0.046 A 
ATOM     42  C   UNL     1     -35.130  34.631   9.714  1.00  0.00     0.115 A 
BRANCH  42  43
ATOM     43  O   UNL     1     -34.771  33.287   9.645  1.00  0.00    -0.508 OA
ATOM     44  H   UNL     1     -34.553  32.844   8.761  1.00  0.00     0.293 HD
ENDBRANCH  42  43
ENDBRANCH  32  37
ENDBRANCH  23  24
ENDBRANCH   6  23
BRANCH   3  45
ATOM     45  O   UNL     1     -30.372  44.055   4.200  1.00  0.00    -0.387 OA
ATOM     46  H   UNL     1     -31.295  44.236   3.890  1.00  0.00     0.211 HD
ENDBRANCH   3  45
BRANCH   4  47
ATOM     47  C   UNL     1     -30.526  45.109   7.818  1.00  0.00     0.191 C 
BRANCH  47  48
ATOM     48  O   UNL     1     -30.240  43.824   8.302  1.00  0.00    -0.394 OA
ATOM     49  H   UNL     1     -30.181  43.906   9.289  1.00  0.00     0.210 HD
ENDBRANCH  47  48
ENDBRANCH   4  47
TORSDOF 14
ENDMDL
MODEL 6
REMARK VINA RESULT:    -6.045      2.312      5.479
REMARK INTER + INTRA:         -11.577
REMARK INTER:                 -10.816
REMARK INTRA:                  -0.761
REMARK UNBOUND:                -1.999
REMARK SMILES C[C@@H]1O[C@@H](O[C@H]2[C@@H](Oc3cc(O)c4c(c3)O[C@@H](c3ccc(O)cc3)CC4=O)O[C@@H](CO)[C@H](O)[C@@H]2O)[C@@H](O)[C@H](O)[C@H]1O
REMARK SMILES IDX 6 1 34 2 32 3 29 4 28 5 7 6 5 7 4 8 1 9 2 10 40 11 3 12
REMARK SMILES IDX 38 13 36 14 41 15 39 17 37 19 35 21 8 23 9 24 10 25 15 26
REMARK SMILES IDX 11 27 14 28 13 29 16 30 26 31 17 32 27 33 25 34 12 35 18 37
REMARK SMILES IDX 19 38 24 39 20 40 23 41 21 42 22 43 33 45 30 47 31 48
REMARK H PARENT 41 16 39 18 37 20 35 22 12 36 22 44 33 46 31 49
REMARK Flexibility Score: inf
ROOT
ATOM      1  C   UNL     1     -32.532  40.632   6.483  1.00  0.00     0.221 C 
ATOM      2  C   UNL     1     -32.530  39.724   7.717  1.00  0.00     0.181 C 
ATOM      3  C   UNL     1     -31.113  39.196   7.999  1.00  0.00     0.177 C 
ATOM      4  C   UNL     1     -30.068  40.342   8.001  1.00  0.00     0.179 C 
ATOM      5  O   UNL     1     -30.170  41.198   6.866  1.00  0.00    -0.332 OA
ATOM      6  C   UNL     1     -31.467  41.738   6.649  1.00  0.00     0.339 C 
ENDROOT
BRANCH   1   7
ATOM      7  O   UNL     1     -33.828  41.195   6.346  1.00  0.00    -0.337 OA
BRANCH   7   8
ATOM      8  C   UNL     1     -34.459  40.849   5.117  1.00  0.00     0.282 C 
ATOM      9  C   UNL     1     -35.186  44.253   3.905  1.00  0.00     0.041 C 
ATOM     10  C   UNL     1     -35.259  43.048   4.844  1.00  0.00     0.150 C 
ATOM     11  C   UNL     1     -36.731  42.638   5.077  1.00  0.00     0.174 C 
ATOM     12  O   UNL     1     -34.512  41.985   4.265  1.00  0.00    -0.344 OA
ATOM     13  C   UNL     1     -36.790  41.367   5.940  1.00  0.00     0.179 C 
ATOM     14  C   UNL     1     -35.889  40.289   5.330  1.00  0.00     0.202 C 
BRANCH  11  15
ATOM     15  O   UNL     1     -37.412  43.682   5.725  1.00  0.00    -0.388 OA
ATOM     16  H   UNL     1     -37.704  44.318   5.022  1.00  0.00     0.211 HD
ENDBRANCH  11  15
BRANCH  13  17
ATOM     17  O   UNL     1     -38.108  40.883   5.999  1.00  0.00    -0.387 OA
ATOM     18  H   UNL     1     -38.054  39.924   6.253  1.00  0.00     0.211 HD
ENDBRANCH  13  17
BRANCH  14  19
ATOM     19  O   UNL     1     -35.881  39.159   6.162  1.00  0.00    -0.385 OA
ATOM     20  H   UNL     1     -36.738  38.681   6.003  1.00  0.00     0.211 HD
ENDBRANCH  14  19
ENDBRANCH   7   8
ENDBRANCH   1   7
BRANCH   2  21
ATOM     21  O   UNL     1     -33.416  38.654   7.513  1.00  0.00    -0.387 OA
ATOM     22  H   UNL     1     -32.965  38.022   6.895  1.00  0.00     0.211 HD
ENDBRANCH   2  21
BRANCH   6  23
ATOM     23  O   UNL     1     -31.807  42.651   7.698  1.00  0.00    -0.462 OA
BRANCH  23  24
ATOM     24  C   UNL     1     -33.090  42.946   8.186  1.00  0.00     0.130 A 
ATOM     25  C   UNL     1     -33.948  43.890   7.589  1.00  0.00     0.093 A 
ATOM     26  C   UNL     1     -33.511  42.279   9.339  1.00  0.00     0.094 A 
ATOM     27  C   UNL     1     -35.204  44.168   8.150  1.00  0.00     0.133 A 
ATOM     28  C   UNL     1     -34.769  42.528   9.889  1.00  0.00     0.138 A 
ATOM     29  C   UNL     1     -35.621  43.483   9.310  1.00  0.00     0.102 A 
ATOM     30  O   UNL     1     -35.171  41.824  11.030  1.00  0.00    -0.484 OA
ATOM     31  C   UNL     1     -36.914  43.754   9.984  1.00  0.00     0.174 C 
ATOM     32  C   UNL     1     -36.537  41.775  11.454  1.00  0.00     0.211 C 
ATOM     33  O   UNL     1     -37.779  44.503   9.459  1.00  0.00    -0.294 OA
ATOM     34  C   UNL     1     -37.165  43.180  11.349  1.00  0.00     0.131 C 
BRANCH  27  35
ATOM     35  O   UNL     1     -36.027  45.124   7.557  1.00  0.00    -0.507 OA
ATOM     36  H   UNL     1     -35.647  45.953   7.113  1.00  0.00     0.293 HD
ENDBRANCH  27  35
BRANCH  32  37
ATOM     37  C   UNL     1     -36.604  41.138  12.832  1.00  0.00    -0.007 A 
ATOM     38  C   UNL     1     -36.963  41.845  14.000  1.00  0.00     0.011 A 
ATOM     39  C   UNL     1     -36.313  39.765  12.941  1.00  0.00     0.011 A 
ATOM     40  C   UNL     1     -37.005  41.196  15.237  1.00  0.00     0.046 A 
ATOM     41  C   UNL     1     -36.357  39.121  14.180  1.00  0.00     0.046 A 
ATOM     42  C   UNL     1     -36.700  39.833  15.332  1.00  0.00     0.115 A 
BRANCH  42  43
ATOM     43  O   UNL     1     -36.737  39.178  16.561  1.00  0.00    -0.508 OA
ATOM     44  H   UNL     1     -36.415  39.628  17.409  1.00  0.00     0.293 HD
ENDBRANCH  42  43
ENDBRANCH  32  37
ENDBRANCH  23  24
ENDBRANCH   6  23
BRANCH   3  45
ATOM     45  O   UNL     1     -30.759  38.186   7.083  1.00  0.00    -0.387 OA
ATOM     46  H   UNL     1     -31.183  37.339   7.373  1.00  0.00     0.211 HD
ENDBRANCH   3  45
BRANCH   4  47
ATOM     47  C   UNL     1     -30.023  41.124   9.329  1.00  0.00     0.191 C 
BRANCH  47  48
ATOM     48  O   UNL     1     -29.934  40.229  10.405  1.00  0.00    -0.394 OA
ATOM     49  H   UNL     1     -30.801  39.745  10.436  1.00  0.00     0.210 HD
ENDBRANCH  47  48
ENDBRANCH   4  47
TORSDOF 14
ENDMDL
MODEL 7
REMARK VINA RESULT:    -5.497     14.101     17.765
REMARK INTER + INTRA:         -10.710
REMARK INTER:                  -9.140
REMARK INTRA:                  -1.570
REMARK UNBOUND:                -1.999
REMARK SMILES C[C@@H]1O[C@@H](O[C@H]2[C@@H](Oc3cc(O)c4c(c3)O[C@@H](c3ccc(O)cc3)CC4=O)O[C@@H](CO)[C@H](O)[C@@H]2O)[C@@H](O)[C@H](O)[C@H]1O
REMARK SMILES IDX 6 1 34 2 32 3 29 4 28 5 7 6 5 7 4 8 1 9 2 10 40 11 3 12
REMARK SMILES IDX 38 13 36 14 41 15 39 17 37 19 35 21 8 23 9 24 10 25 15 26
REMARK SMILES IDX 11 27 14 28 13 29 16 30 26 31 17 32 27 33 25 34 12 35 18 37
REMARK SMILES IDX 19 38 24 39 20 40 23 41 21 42 22 43 33 45 30 47 31 48
REMARK H PARENT 41 16 39 18 37 20 35 22 12 36 22 44 33 46 31 49
REMARK Flexibility Score: inf
ROOT
ATOM      1  C   UNL     1     -38.329  28.447  18.887  1.00  0.00     0.221 C 
ATOM      2  C   UNL     1     -39.417  27.554  19.492  1.00  0.00     0.181 C 
ATOM      3  C   UNL     1     -39.427  26.175  18.811  1.00  0.00     0.177 C 
ATOM      4  C   UNL     1     -38.004  25.560  18.750  1.00  0.00     0.179 C 
ATOM      5  O   UNL     1     -37.022  26.464  18.251  1.00  0.00    -0.332 OA
ATOM      6  C   UNL     1     -36.971  27.712  18.928  1.00  0.00     0.339 C 
ENDROOT
BRANCH   1   7
ATOM      7  O   UNL     1     -38.275  29.651  19.636  1.00  0.00    -0.337 OA
BRANCH   7   8
ATOM      8  C   UNL     1     -38.065  30.803  18.824  1.00  0.00     0.282 C 
ATOM      9  C   UNL     1     -36.556  32.995  21.375  1.00  0.00     0.041 C 
ATOM     10  C   UNL     1     -37.637  32.132  20.722  1.00  0.00     0.150 C 
ATOM     11  C   UNL     1     -38.945  32.940  20.563  1.00  0.00     0.174 C 
ATOM     12  O   UNL     1     -37.151  31.684  19.462  1.00  0.00    -0.344 OA
ATOM     13  C   UNL     1     -39.993  32.098  19.817  1.00  0.00     0.179 C 
ATOM     14  C   UNL     1     -39.387  31.555  18.520  1.00  0.00     0.202 C 
BRANCH  11  15
ATOM     15  O   UNL     1     -39.436  33.292  21.831  1.00  0.00    -0.388 OA
ATOM     16  H   UNL     1     -38.657  33.328  22.445  1.00  0.00     0.211 HD
ENDBRANCH  11  15
BRANCH  13  17
ATOM     17  O   UNL     1     -41.113  32.886  19.504  1.00  0.00    -0.387 OA
ATOM     18  H   UNL     1     -41.845  32.604  20.113  1.00  0.00     0.211 HD
ENDBRANCH  13  17
BRANCH  14  19
ATOM     19  O   UNL     1     -40.317  30.721  17.881  1.00  0.00    -0.385 OA
ATOM     20  H   UNL     1     -39.795  30.019  17.409  1.00  0.00     0.211 HD
ENDBRANCH  14  19
ENDBRANCH   7   8
ENDBRANCH   1   7
BRANCH   2  21
ATOM     21  O   UNL     1     -40.668  28.176  19.348  1.00  0.00    -0.387 OA
ATOM     22  H   UNL     1     -41.355  27.468  19.461  1.00  0.00     0.211 HD
ENDBRANCH   2  21
BRANCH   6  23
ATOM     23  O   UNL     1     -36.504  27.531  20.269  1.00  0.00    -0.462 OA
BRANCH  23  24
ATOM     24  C   UNL     1     -35.175  27.368  20.691  1.00  0.00     0.130 A 
ATOM     25  C   UNL     1     -34.740  26.289  21.486  1.00  0.00     0.093 A 
ATOM     26  C   UNL     1     -34.254  28.349  20.316  1.00  0.00     0.094 A 
ATOM     27  C   UNL     1     -33.405  26.205  21.908  1.00  0.00     0.133 A 
ATOM     28  C   UNL     1     -32.917  28.261  20.708  1.00  0.00     0.138 A 
ATOM     29  C   UNL     1     -32.482  27.198  21.518  1.00  0.00     0.102 A 
ATOM     30  O   UNL     1     -32.014  29.248  20.295  1.00  0.00    -0.484 OA
ATOM     31  C   UNL     1     -31.067  27.201  21.960  1.00  0.00     0.174 C 
ATOM     32  C   UNL     1     -30.597  29.063  20.368  1.00  0.00     0.211 C 
ATOM     33  O   UNL     1     -30.576  26.223  22.582  1.00  0.00    -0.294 OA
ATOM     34  C   UNL     1     -30.226  28.423  21.721  1.00  0.00     0.131 C 
BRANCH  27  35
ATOM     35  O   UNL     1     -33.002  25.142  22.715  1.00  0.00    -0.507 OA
ATOM     36  H   UNL     1     -32.395  24.408  22.367  1.00  0.00     0.293 HD
ENDBRANCH  27  35
BRANCH  32  37
ATOM     37  C   UNL     1     -29.911  30.386  20.069  1.00  0.00    -0.007 A 
ATOM     38  C   UNL     1     -29.047  30.583  18.970  1.00  0.00     0.011 A 
ATOM     39  C   UNL     1     -30.170  31.474  20.922  1.00  0.00     0.011 A 
ATOM     40  C   UNL     1     -28.449  31.827  18.752  1.00  0.00     0.046 A 
ATOM     41  C   UNL     1     -29.570  32.716  20.701  1.00  0.00     0.046 A 
ATOM     42  C   UNL     1     -28.707  32.897  19.618  1.00  0.00     0.115 A 
BRANCH  42  43
ATOM     43  O   UNL     1     -28.113  34.140  19.410  1.00  0.00    -0.508 OA
ATOM     44  H   UNL     1     -27.428  34.283  18.679  1.00  0.00     0.293 HD
ENDBRANCH  42  43
ENDBRANCH  32  37
ENDBRANCH  23  24
ENDBRANCH   6  23
BRANCH   3  45
ATOM     45  O   UNL     1     -40.006  26.249  17.529  1.00  0.00    -0.387 OA
ATOM     46  H   UNL     1     -40.883  26.703  17.608  1.00  0.00     0.211 HD
ENDBRANCH   3  45
BRANCH   4  47
ATOM     47  C   UNL     1     -37.573  24.887  20.068  1.00  0.00     0.191 C 
BRANCH  47  48
ATOM     48  O   UNL     1     -38.476  25.220  21.089  1.00  0.00    -0.394 OA
ATOM     49  H   UNL     1     -38.080  24.878  21.932  1.00  0.00     0.210 HD
ENDBRANCH  47  48
ENDBRANCH   4  47
TORSDOF 14
ENDMDL
MODEL 8
REMARK VINA RESULT:    -5.317     14.829     17.898
REMARK INTER + INTRA:         -10.425
REMARK INTER:                  -9.513
REMARK INTRA:                  -0.912
REMARK UNBOUND:                -1.999
REMARK SMILES C[C@@H]1O[C@@H](O[C@H]2[C@@H](Oc3cc(O)c4c(c3)O[C@@H](c3ccc(O)cc3)CC4=O)O[C@@H](CO)[C@H](O)[C@@H]2O)[C@@H](O)[C@H](O)[C@H]1O
REMARK SMILES IDX 6 1 34 2 32 3 29 4 28 5 7 6 5 7 4 8 1 9 2 10 40 11 3 12
REMARK SMILES IDX 38 13 36 14 41 15 39 17 37 19 35 21 8 23 9 24 10 25 15 26
REMARK SMILES IDX 11 27 14 28 13 29 16 30 26 31 17 32 27 33 25 34 12 35 18 37
REMARK SMILES IDX 19 38 24 39 20 40 23 41 21 42 22 43 33 45 30 47 31 48
REMARK H PARENT 41 16 39 18 37 20 35 22 12 36 22 44 33 46 31 49
REMARK Flexibility Score: inf
ROOT
ATOM      1  C   UNL     1     -28.584  29.024  22.040  1.00  0.00     0.221 C 
ATOM      2  C   UNL     1     -28.208  27.926  21.040  1.00  0.00     0.181 C 
ATOM      3  C   UNL     1     -28.537  26.536  21.612  1.00  0.00     0.177 C 
ATOM      4  C   UNL     1     -29.983  26.477  22.169  1.00  0.00     0.179 C 
ATOM      5  O   UNL     1     -30.298  27.567  23.032  1.00  0.00    -0.332 OA
ATOM      6  C   UNL     1     -30.056  28.851  22.474  1.00  0.00     0.339 C 
ENDROOT
BRANCH   1   7
ATOM      7  O   UNL     1     -28.386  30.283  21.415  1.00  0.00    -0.337 OA
BRANCH   7   8
ATOM      8  C   UNL     1     -27.737  30.181  20.150  1.00  0.00     0.282 C 
ATOM      9  C   UNL     1     -25.323  32.936  20.557  1.00  0.00     0.041 C 
ATOM     10  C   UNL     1     -26.697  32.273  20.453  1.00  0.00     0.150 C 
ATOM     11  C   UNL     1     -27.537  32.951  19.346  1.00  0.00     0.174 C 
ATOM     12  O   UNL     1     -26.506  30.890  20.180  1.00  0.00    -0.344 OA
ATOM     13  C   UNL     1     -28.877  32.216  19.180  1.00  0.00     0.179 C 
ATOM     14  C   UNL     1     -28.620  30.717  18.994  1.00  0.00     0.202 C 
BRANCH  11  15
ATOM     15  O   UNL     1     -27.773  34.292  19.693  1.00  0.00    -0.388 OA
ATOM     16  H   UNL     1     -28.529  34.297  20.336  1.00  0.00     0.211 HD
ENDBRANCH  11  15
BRANCH  13  17
ATOM     17  O   UNL     1     -29.563  32.706  18.056  1.00  0.00    -0.387 OA
ATOM     18  H   UNL     1     -30.001  31.928  17.622  1.00  0.00     0.211 HD
ENDBRANCH  13  17
BRANCH  14  19
ATOM     19  O   UNL     1     -29.846  30.037  18.924  1.00  0.00    -0.385 OA
ATOM     20  H   UNL     1     -30.186  30.157  17.998  1.00  0.00     0.211 HD
ENDBRANCH  14  19
ENDBRANCH   7   8
ENDBRANCH   1   7
BRANCH   2  21
ATOM     21  O   UNL     1     -26.839  28.016  20.737  1.00  0.00    -0.387 OA
ATOM     22  H   UNL     1     -26.660  27.351  20.022  1.00  0.00     0.211 HD
ENDBRANCH   2  21
BRANCH   6  23
ATOM     23  O   UNL     1     -30.962  29.101  21.393  1.00  0.00    -0.462 OA
BRANCH  23  24
ATOM     24  C   UNL     1     -32.261  29.627  21.479  1.00  0.00     0.130 A 
ATOM     25  C   UNL     1     -32.593  30.754  22.255  1.00  0.00     0.093 A 
ATOM     26  C   UNL     1     -33.271  28.969  20.771  1.00  0.00     0.094 A 
ATOM     27  C   UNL     1     -33.919  31.206  22.330  1.00  0.00     0.133 A 
ATOM     28  C   UNL     1     -34.589  29.427  20.816  1.00  0.00     0.138 A 
ATOM     29  C   UNL     1     -34.928  30.538  21.606  1.00  0.00     0.102 A 
ATOM     30  O   UNL     1     -35.573  28.761  20.076  1.00  0.00    -0.484 OA
ATOM     31  C   UNL     1     -36.357  30.929  21.669  1.00  0.00     0.174 C 
ATOM     32  C   UNL     1     -36.851  29.345  19.807  1.00  0.00     0.211 C 
ATOM     33  O   UNL     1     -36.720  31.984  22.254  1.00  0.00    -0.294 OA
ATOM     34  C   UNL     1     -37.396  30.014  21.085  1.00  0.00     0.131 C 
BRANCH  27  35
ATOM     35  O   UNL     1     -34.228  32.309  23.124  1.00  0.00    -0.507 OA
ATOM     36  H   UNL     1     -33.609  32.623  23.863  1.00  0.00     0.293 HD
ENDBRANCH  27  35
BRANCH  32  37
ATOM     37  C   UNL     1     -37.756  28.290  19.192  1.00  0.00    -0.007 A 
ATOM     38  C   UNL     1     -37.353  26.957  18.963  1.00  0.00     0.011 A 
ATOM     39  C   UNL     1     -39.071  28.662  18.856  1.00  0.00     0.011 A 
ATOM     40  C   UNL     1     -38.239  26.037  18.394  1.00  0.00     0.046 A 
ATOM     41  C   UNL     1     -39.952  27.739  18.288  1.00  0.00     0.046 A 
ATOM     42  C   UNL     1     -39.540  26.425  18.053  1.00  0.00     0.115 A 
BRANCH  42  43
ATOM     43  O   UNL     1     -40.428  25.516  17.483  1.00  0.00    -0.508 OA
ATOM     44  H   UNL     1     -40.271  25.132  16.559  1.00  0.00     0.293 HD
ENDBRANCH  42  43
ENDBRANCH  32  37
ENDBRANCH  23  24
ENDBRANCH   6  23
BRANCH   3  45
ATOM     45  O   UNL     1     -27.597  26.159  22.592  1.00  0.00    -0.387 OA
ATOM     46  H   UNL     1     -26.730  26.583  22.372  1.00  0.00     0.211 HD
ENDBRANCH   3  45
BRANCH   4  47
ATOM     47  C   UNL     1     -31.049  26.261  21.076  1.00  0.00     0.191 C 
BRANCH  47  48
ATOM     48  O   UNL     1     -30.483  26.478  19.811  1.00  0.00    -0.394 OA
ATOM     49  H   UNL     1     -30.534  27.455  19.648  1.00  0.00     0.210 HD
ENDBRANCH  47  48
ENDBRANCH   4  47
TORSDOF 14
ENDMDL
MODEL 9
REMARK VINA RESULT:    -5.136     15.480     17.784
REMARK INTER + INTRA:         -10.137
REMARK INTER:                  -8.078
REMARK INTRA:                  -2.059
REMARK UNBOUND:                -1.999
REMARK SMILES C[C@@H]1O[C@@H](O[C@H]2[C@@H](Oc3cc(O)c4c(c3)O[C@@H](c3ccc(O)cc3)CC4=O)O[C@@H](CO)[C@H](O)[C@@H]2O)[C@@H](O)[C@H](O)[C@H]1O
REMARK SMILES IDX 6 1 34 2 32 3 29 4 28 5 7 6 5 7 4 8 1 9 2 10 40 11 3 12
REMARK SMILES IDX 38 13 36 14 41 15 39 17 37 19 35 21 8 23 9 24 10 25 15 26
REMARK SMILES IDX 11 27 14 28 13 29 16 30 26 31 17 32 27 33 25 34 12 35 18 37
REMARK SMILES IDX 19 38 24 39 20 40 23 41 21 42 22 43 33 45 30 47 31 48
REMARK H PARENT 41 16 39 18 37 20 35 22 12 36 22 44 33 46 31 49
REMARK Flexibility Score: inf
ROOT
ATOM      1  C   UNL     1     -25.208  32.300  20.431  1.00  0.00     0.221 C 
ATOM      2  C   UNL     1     -25.212  33.383  21.515  1.00  0.00     0.181 C 
ATOM      3  C   UNL     1     -25.864  34.673  20.990  1.00  0.00     0.177 C 
ATOM      4  C   UNL     1     -27.231  34.387  20.315  1.00  0.00     0.179 C 
ATOM      5  O   UNL     1     -27.180  33.319  19.373  1.00  0.00    -0.332 OA
ATOM      6  C   UNL     1     -26.638  32.107  19.883  1.00  0.00     0.339 C 
ENDROOT
BRANCH   1   7
ATOM      7  O   UNL     1     -24.720  31.097  21.005  1.00  0.00    -0.337 OA
BRANCH   7   8
ATOM      8  C   UNL     1     -23.982  30.299  20.084  1.00  0.00     0.282 C 
ATOM      9  C   UNL     1     -25.077  26.977  21.247  1.00  0.00     0.041 C 
ATOM     10  C   UNL     1     -24.413  28.352  21.339  1.00  0.00     0.150 C 
ATOM     11  C   UNL     1     -22.942  28.209  21.790  1.00  0.00     0.174 C 
ATOM     12  O   UNL     1     -24.503  28.978  20.064  1.00  0.00    -0.344 OA
ATOM     13  C   UNL     1     -22.255  29.585  21.783  1.00  0.00     0.179 C 
ATOM     14  C   UNL     1     -22.470  30.259  20.425  1.00  0.00     0.202 C 
BRANCH  11  15
ATOM     15  O   UNL     1     -22.899  27.665  23.085  1.00  0.00    -0.388 OA
ATOM     16  H   UNL     1     -22.977  28.423  23.720  1.00  0.00     0.211 HD
ENDBRANCH  11  15
BRANCH  13  17
ATOM     17  O   UNL     1     -20.876  29.438  22.009  1.00  0.00    -0.387 OA
ATOM     18  H   UNL     1     -20.501  28.967  21.219  1.00  0.00     0.211 HD
ENDBRANCH  13  17
BRANCH  14  19
ATOM     19  O   UNL     1     -21.913  31.546  20.448  1.00  0.00    -0.385 OA
ATOM     20  H   UNL     1     -20.962  31.442  20.719  1.00  0.00     0.211 HD
ENDBRANCH  14  19
ENDBRANCH   7   8
ENDBRANCH   1   7
BRANCH   2  21
ATOM     21  O   UNL     1     -23.894  33.637  21.929  1.00  0.00    -0.387 OA
ATOM     22  H   UNL     1     -23.674  34.559  21.634  1.00  0.00     0.211 HD
ENDBRANCH   2  21
BRANCH   6  23
ATOM     23  O   UNL     1     -27.515  31.548  20.867  1.00  0.00    -0.462 OA
BRANCH  23  24
ATOM     24  C   UNL     1     -28.413  30.482  20.698  1.00  0.00     0.130 A 
ATOM     25  C   UNL     1     -28.020  29.194  20.285  1.00  0.00     0.093 A 
ATOM     26  C   UNL     1     -29.767  30.737  20.929  1.00  0.00     0.094 A 
ATOM     27  C   UNL     1     -28.972  28.182  20.095  1.00  0.00     0.133 A 
ATOM     28  C   UNL     1     -30.721  29.729  20.770  1.00  0.00     0.138 A 
ATOM     29  C   UNL     1     -30.336  28.449  20.338  1.00  0.00     0.102 A 
ATOM     30  O   UNL     1     -32.066  30.010  21.034  1.00  0.00    -0.484 OA
ATOM     31  C   UNL     1     -31.405  27.445  20.118  1.00  0.00     0.174 C 
ATOM     32  C   UNL     1     -33.039  28.976  21.214  1.00  0.00     0.211 C 
ATOM     33  O   UNL     1     -31.128  26.245  19.851  1.00  0.00    -0.294 OA
ATOM     34  C   UNL     1     -32.841  27.883  20.145  1.00  0.00     0.131 C 
BRANCH  27  35
ATOM     35  O   UNL     1     -28.563  26.922  19.661  1.00  0.00    -0.507 OA
ATOM     36  H   UNL     1     -28.709  26.091  20.224  1.00  0.00     0.293 HD
ENDBRANCH  27  35
BRANCH  32  37
ATOM     37  C   UNL     1     -34.424  29.602  21.251  1.00  0.00    -0.007 A 
ATOM     38  C   UNL     1     -35.535  29.074  20.559  1.00  0.00     0.011 A 
ATOM     39  C   UNL     1     -34.607  30.756  22.034  1.00  0.00     0.011 A 
ATOM     40  C   UNL     1     -36.782  29.700  20.637  1.00  0.00     0.046 A 
ATOM     41  C   UNL     1     -35.856  31.379  22.109  1.00  0.00     0.046 A 
ATOM     42  C   UNL     1     -36.946  30.855  21.410  1.00  0.00     0.115 A 
BRANCH  42  43
ATOM     43  O   UNL     1     -38.184  31.488  21.492  1.00  0.00    -0.508 OA
ATOM     44  H   UNL     1     -38.275  32.426  21.865  1.00  0.00     0.293 HD
ENDBRANCH  42  43
ENDBRANCH  32  37
ENDBRANCH  23  24
ENDBRANCH   6  23
BRANCH   3  45
ATOM     45  O   UNL     1     -24.997  35.357  20.115  1.00  0.00    -0.387 OA
ATOM     46  H   UNL     1     -24.941  36.302  20.406  1.00  0.00     0.211 HD
ENDBRANCH   3  45
BRANCH   4  47
ATOM     47  C   UNL     1     -28.388  34.232  21.323  1.00  0.00     0.191 C 
BRANCH  47  48
ATOM     48  O   UNL     1     -28.134  35.011  22.461  1.00  0.00    -0.394 OA
ATOM     49  H   UNL     1     -28.958  34.972  23.013  1.00  0.00     0.210 HD
ENDBRANCH  47  48
ENDBRANCH   4  47
TORSDOF 14
ENDMDL
