MODEL 1
REMARK VINA RESULT:    -4.661      0.000      0.000
REMARK INTER + INTRA:          -5.171
REMARK INTER:                  -4.934
REMARK INTRA:                  -0.237
REMARK UNBOUND:                -0.237
REMARK SMILES O=c1cc(-c2ccccc2)oc2ccccc12
REMARK SMILES IDX 4 1 3 2 2 3 1 4 17 5 16 6 15 7 14 8 13 9 12 10 11 11 5 12
REMARK SMILES IDX 8 13 7 14 9 15 6 16 10 17
REMARK H PARENT
REMARK Flexibility Score: inf
ROOT
ATOM      1  C   UNL     1      -6.079   0.045  -9.369  1.00  0.00     0.138 A 
ATOM      2  C   UNL     1      -4.957   0.891  -9.239  1.00  0.00     0.100 A 
ATOM      3  C   UNL     1      -3.673   0.358  -9.364  1.00  0.00     0.193 A 
ATOM      4  O   UNL     1      -2.671   1.114  -9.247  1.00  0.00    -0.289 OA
ATOM      5  C   UNL     1      -3.517  -1.013  -9.616  1.00  0.00     0.065 A 
ATOM      6  C   UNL     1      -2.253  -1.615  -9.753  1.00  0.00     0.016 A 
ATOM      7  C   UNL     1      -2.155  -2.987 -10.004  1.00  0.00     0.001 A 
ATOM      8  C   UNL     1      -3.310  -3.765 -10.122  1.00  0.00     0.004 A 
ATOM      9  C   UNL     1      -4.570  -3.175  -9.987  1.00  0.00     0.048 A 
ATOM     10  C   UNL     1      -4.680  -1.803  -9.735  1.00  0.00     0.138 A 
ATOM     11  O   UNL     1      -5.883  -1.252  -9.609  1.00  0.00    -0.456 OA
ENDROOT
BRANCH   1  12
ATOM     12  C   UNL     1      -7.487   0.536  -9.250  1.00  0.00     0.017 A 
ATOM     13  C   UNL     1     -10.125   1.528  -9.097  1.00  0.00     0.000 A 
ATOM     14  C   UNL     1      -9.728   0.470  -8.280  1.00  0.00     0.001 A 
ATOM     15  C   UNL     1      -9.217   2.095  -9.991  1.00  0.00     0.001 A 
ATOM     16  C   UNL     1      -8.422  -0.025  -8.352  1.00  0.00     0.012 A 
ATOM     17  C   UNL     1      -7.910   1.605 -10.069  1.00  0.00     0.012 A 
ENDBRANCH   1  12
TORSDOF 1
ENDMDL
MODEL 2
REMARK VINA RESULT:    -4.493      1.330      5.887
REMARK INTER + INTRA:          -4.992
REMARK INTER:                  -4.727
REMARK INTRA:                  -0.265
REMARK UNBOUND:                -0.237
REMARK SMILES O=c1cc(-c2ccccc2)oc2ccccc12
REMARK SMILES IDX 4 1 3 2 2 3 1 4 17 5 16 6 15 7 14 8 13 9 12 10 11 11 5 12
REMARK SMILES IDX 8 13 7 14 9 15 6 16 10 17
REMARK H PARENT
REMARK Flexibility Score: inf
ROOT
ATOM      1  C   UNL     1      -5.388  -0.237  -9.452  1.00  0.00     0.138 A 
ATOM      2  C   UNL     1      -5.297   1.163  -9.302  1.00  0.00     0.100 A 
ATOM      3  C   UNL     1      -6.456   1.909  -9.084  1.00  0.00     0.193 A 
ATOM      4  O   UNL     1      -6.374   3.161  -8.950  1.00  0.00    -0.289 OA
ATOM      5  C   UNL     1      -7.695   1.257  -9.017  1.00  0.00     0.065 A 
ATOM      6  C   UNL     1      -8.901   1.947  -8.800  1.00  0.00     0.016 A 
ATOM      7  C   UNL     1     -10.110   1.246  -8.743  1.00  0.00     0.001 A 
ATOM      8  C   UNL     1     -10.124  -0.142  -8.900  1.00  0.00     0.004 A 
ATOM      9  C   UNL     1      -8.931  -0.837  -9.116  1.00  0.00     0.048 A 
ATOM     10  C   UNL     1      -7.717  -0.146  -9.176  1.00  0.00     0.138 A 
ATOM     11  O   UNL     1      -6.587  -0.816  -9.382  1.00  0.00    -0.456 OA
ENDROOT
BRANCH   1  12
ATOM     12  C   UNL     1      -4.196  -1.109  -9.687  1.00  0.00     0.017 A 
ATOM     13  C   UNL     1      -2.005  -2.835 -10.125  1.00  0.00     0.000 A 
ATOM     14  C   UNL     1      -1.817  -1.454 -10.123  1.00  0.00     0.001 A 
ATOM     15  C   UNL     1      -3.278  -3.363  -9.911  1.00  0.00     0.001 A 
ATOM     16  C   UNL     1      -2.899  -0.594  -9.907  1.00  0.00     0.012 A 
ATOM     17  C   UNL     1      -4.365  -2.511  -9.694  1.00  0.00     0.012 A 
ENDBRANCH   1  12
TORSDOF 1
ENDMDL
MODEL 3
REMARK VINA RESULT:    -3.857      1.213      2.671
REMARK INTER + INTRA:          -4.319
REMARK INTER:                  -4.060
REMARK INTRA:                  -0.259
REMARK UNBOUND:                -0.237
REMARK SMILES O=c1cc(-c2ccccc2)oc2ccccc12
REMARK SMILES IDX 4 1 3 2 2 3 1 4 17 5 16 6 15 7 14 8 13 9 12 10 11 11 5 12
REMARK SMILES IDX 8 13 7 14 9 15 6 16 10 17
REMARK H PARENT
REMARK Flexibility Score: inf
ROOT
ATOM      1  C   UNL     1      -6.535  -0.905  -9.837  1.00  0.00     0.138 A 
ATOM      2  C   UNL     1      -6.584  -2.312  -9.937  1.00  0.00     0.100 A 
ATOM      3  C   UNL     1      -5.395  -3.037 -10.035  1.00  0.00     0.193 A 
ATOM      4  O   UNL     1      -5.440  -4.295 -10.125  1.00  0.00    -0.289 OA
ATOM      5  C   UNL     1      -4.169  -2.358 -10.030  1.00  0.00     0.065 A 
ATOM      6  C   UNL     1      -2.935  -3.027 -10.125  1.00  0.00     0.016 A 
ATOM      7  C   UNL     1      -1.741  -2.299 -10.116  1.00  0.00     0.001 A 
ATOM      8  C   UNL     1      -1.769  -0.906 -10.013  1.00  0.00     0.004 A 
ATOM      9  C   UNL     1      -2.989  -0.232  -9.919  1.00  0.00     0.048 A 
ATOM     10  C   UNL     1      -4.190  -0.950  -9.928  1.00  0.00     0.138 A 
ATOM     11  O   UNL     1      -5.346  -0.300  -9.837  1.00  0.00    -0.456 OA
ENDROOT
BRANCH   1  12
ATOM     12  C   UNL     1      -7.760  -0.054  -9.729  1.00  0.00     0.017 A 
ATOM     13  C   UNL     1     -10.119   1.476  -9.487  1.00  0.00     0.000 A 
ATOM     14  C   UNL     1      -8.957   2.060  -9.990  1.00  0.00     0.001 A 
ATOM     15  C   UNL     1     -10.114   0.136  -9.104  1.00  0.00     0.001 A 
ATOM     16  C   UNL     1      -7.785   1.306 -10.112  1.00  0.00     0.012 A 
ATOM     17  C   UNL     1      -8.947  -0.624  -9.222  1.00  0.00     0.012 A 
ENDBRANCH   1  12
TORSDOF 1
ENDMDL
MODEL 4
REMARK VINA RESULT:    -3.829      4.011      6.658
REMARK INTER + INTRA:          -4.289
REMARK INTER:                  -4.023
REMARK INTRA:                  -0.266
REMARK UNBOUND:                -0.237
REMARK SMILES O=c1cc(-c2ccccc2)oc2ccccc12
REMARK SMILES IDX 4 1 3 2 2 3 1 4 17 5 16 6 15 7 14 8 13 9 12 10 11 11 5 12
REMARK SMILES IDX 8 13 7 14 9 15 6 16 10 17
REMARK H PARENT
REMARK Flexibility Score: inf
ROOT
ATOM      1  C   UNL     1      -5.692  -4.543  -9.492  1.00  0.00     0.138 A 
ATOM      2  C   UNL     1      -5.218  -5.807  -9.084  1.00  0.00     0.100 A 
ATOM      3  C   UNL     1      -6.103  -6.885  -9.015  1.00  0.00     0.193 A 
ATOM      4  O   UNL     1      -5.679  -8.015  -8.650  1.00  0.00    -0.289 OA
ATOM      5  C   UNL     1      -7.450  -6.695  -9.353  1.00  0.00     0.065 A 
ATOM      6  C   UNL     1      -8.394  -7.737  -9.305  1.00  0.00     0.016 A 
ATOM      7  C   UNL     1      -9.726  -7.491  -9.652  1.00  0.00     0.001 A 
ATOM      8  C   UNL     1     -10.125  -6.212 -10.048  1.00  0.00     0.004 A 
ATOM      9  C   UNL     1      -9.194  -5.170 -10.098  1.00  0.00     0.048 A 
ATOM     10  C   UNL     1      -7.859  -5.404  -9.753  1.00  0.00     0.138 A 
ATOM     11  O   UNL     1      -6.982  -4.407  -9.804  1.00  0.00    -0.456 OA
ENDROOT
BRANCH   1  12
ATOM     12  C   UNL     1      -4.812  -3.337  -9.594  1.00  0.00     0.017 A 
ATOM     13  C   UNL     1      -3.229  -1.011  -9.813  1.00  0.00     0.000 A 
ATOM     14  C   UNL     1      -2.654  -2.209  -9.392  1.00  0.00     0.001 A 
ATOM     15  C   UNL     1      -4.587  -0.963 -10.125  1.00  0.00     0.001 A 
ATOM     16  C   UNL     1      -3.434  -3.365  -9.282  1.00  0.00     0.012 A 
ATOM     17  C   UNL     1      -5.373  -2.114 -10.016  1.00  0.00     0.012 A 
ENDBRANCH   1  12
TORSDOF 1
ENDMDL
MODEL 5
REMARK VINA RESULT:    -3.548      2.504      5.573
REMARK INTER + INTRA:          -3.992
REMARK INTER:                  -3.731
REMARK INTRA:                  -0.261
REMARK UNBOUND:                -0.237
REMARK SMILES O=c1cc(-c2ccccc2)oc2ccccc12
REMARK SMILES IDX 4 1 3 2 2 3 1 4 17 5 16 6 15 7 14 8 13 9 12 10 11 11 5 12
REMARK SMILES IDX 8 13 7 14 9 15 6 16 10 17
REMARK H PARENT
REMARK Flexibility Score: inf
ROOT
ATOM      1  C   UNL     1      -5.401  -3.561  -9.612  1.00  0.00     0.138 A 
ATOM      2  C   UNL     1      -4.112  -3.204  -9.165  1.00  0.00     0.100 A 
ATOM      3  C   UNL     1      -3.782  -1.855  -9.023  1.00  0.00     0.193 A 
ATOM      4  O   UNL     1      -2.629  -1.535  -8.624  1.00  0.00    -0.289 OA
ATOM      5  C   UNL     1      -4.737  -0.874  -9.326  1.00  0.00     0.065 A 
ATOM      6  C   UNL     1      -4.471   0.502  -9.204  1.00  0.00     0.016 A 
ATOM      7  C   UNL     1      -5.461   1.437  -9.520  1.00  0.00     0.001 A 
ATOM      8  C   UNL     1      -6.718   1.010  -9.957  1.00  0.00     0.004 A 
ATOM      9  C   UNL     1      -6.992  -0.355 -10.081  1.00  0.00     0.048 A 
ATOM     10  C   UNL     1      -6.008  -1.300  -9.768  1.00  0.00     0.138 A 
ATOM     11  O   UNL     1      -6.279  -2.596  -9.889  1.00  0.00    -0.456 OA
ENDROOT
BRANCH   1  12
ATOM     12  C   UNL     1      -5.836  -4.981  -9.791  1.00  0.00     0.017 A 
ATOM     13  C   UNL     1      -6.750  -7.631 -10.125  1.00  0.00     0.000 A 
ATOM     14  C   UNL     1      -5.382  -7.359 -10.121  1.00  0.00     0.001 A 
ATOM     15  C   UNL     1      -7.666  -6.592  -9.964  1.00  0.00     0.001 A 
ATOM     16  C   UNL     1      -4.924  -6.048  -9.956  1.00  0.00     0.012 A 
ATOM     17  C   UNL     1      -7.216  -5.279  -9.800  1.00  0.00     0.012 A 
ENDBRANCH   1  12
TORSDOF 1
ENDMDL
MODEL 6
REMARK VINA RESULT:    -3.530      1.660      5.291
REMARK INTER + INTRA:          -3.973
REMARK INTER:                  -3.708
REMARK INTRA:                  -0.265
REMARK UNBOUND:                -0.237
REMARK SMILES O=c1cc(-c2ccccc2)oc2ccccc12
REMARK SMILES IDX 4 1 3 2 2 3 1 4 17 5 16 6 15 7 14 8 13 9 12 10 11 11 5 12
REMARK SMILES IDX 8 13 7 14 9 15 6 16 10 17
REMARK H PARENT
REMARK Flexibility Score: inf
ROOT
ATOM      1  C   UNL     1      -5.447  -1.965  -9.802  1.00  0.00     0.138 A 
ATOM      2  C   UNL     1      -4.200  -1.373  -9.510  1.00  0.00     0.100 A 
ATOM      3  C   UNL     1      -4.102   0.017  -9.420  1.00  0.00     0.193 A 
ATOM      4  O   UNL     1      -2.987   0.546  -9.160  1.00  0.00    -0.289 OA
ATOM      5  C   UNL     1      -5.245   0.804  -9.620  1.00  0.00     0.065 A 
ATOM      6  C   UNL     1      -5.217   2.208  -9.543  1.00  0.00     0.016 A 
ATOM      7  C   UNL     1      -6.387   2.945  -9.752  1.00  0.00     0.001 A 
ATOM      8  C   UNL     1      -7.588   2.290 -10.036  1.00  0.00     0.004 A 
ATOM      9  C   UNL     1      -7.626   0.895 -10.115  1.00  0.00     0.048 A 
ATOM     10  C   UNL     1      -6.461   0.148  -9.909  1.00  0.00     0.138 A 
ATOM     11  O   UNL     1      -6.508  -1.178  -9.985  1.00  0.00    -0.456 OA
ENDROOT
BRANCH   1  12
ATOM     12  C   UNL     1      -5.638  -3.445  -9.916  1.00  0.00     0.017 A 
ATOM     13  C   UNL     1      -5.901  -6.247 -10.125  1.00  0.00     0.000 A 
ATOM     14  C   UNL     1      -7.036  -5.437 -10.125  1.00  0.00     0.001 A 
ATOM     15  C   UNL     1      -4.636  -5.671 -10.021  1.00  0.00     0.001 A 
ATOM     16  C   UNL     1      -6.911  -4.048 -10.022  1.00  0.00     0.012 A 
ATOM     17  C   UNL     1      -4.503  -4.283  -9.916  1.00  0.00     0.012 A 
ENDBRANCH   1  12
TORSDOF 1
ENDMDL
MODEL 7
REMARK VINA RESULT:    -3.257     17.561     19.129
REMARK INTER + INTRA:          -3.684
REMARK INTER:                  -3.420
REMARK INTRA:                  -0.263
REMARK UNBOUND:                -0.237
REMARK SMILES O=c1cc(-c2ccccc2)oc2ccccc12
REMARK SMILES IDX 4 1 3 2 2 3 1 4 17 5 16 6 15 7 14 8 13 9 12 10 11 11 5 12
REMARK SMILES IDX 8 13 7 14 9 15 6 16 10 17
REMARK H PARENT
REMARK Flexibility Score: inf
ROOT
ATOM      1  C   UNL     1      -0.126  -8.848   5.627  1.00  0.00     0.138 A 
ATOM      2  C   UNL     1      -0.822  -9.674   6.534  1.00  0.00     0.100 A 
ATOM      3  C   UNL     1      -0.781  -9.386   7.899  1.00  0.00     0.193 A 
ATOM      4  O   UNL     1      -1.403 -10.125   8.710  1.00  0.00    -0.289 OA
ATOM      5  C   UNL     1      -0.048  -8.279   8.349  1.00  0.00     0.065 A 
ATOM      6  C   UNL     1       0.035  -7.932   9.710  1.00  0.00     0.016 A 
ATOM      7  C   UNL     1       0.781  -6.817  10.104  1.00  0.00     0.001 A 
ATOM      8  C   UNL     1       1.446  -6.042   9.149  1.00  0.00     0.004 A 
ATOM      9  C   UNL     1       1.369  -6.379   7.795  1.00  0.00     0.048 A 
ATOM     10  C   UNL     1       0.626  -7.493   7.389  1.00  0.00     0.138 A 
ATOM     11  O   UNL     1       0.559  -7.805   6.099  1.00  0.00    -0.456 OA
ENDROOT
BRANCH   1  12
ATOM     12  C   UNL     1      -0.118  -9.086   4.150  1.00  0.00     0.017 A 
ATOM     13  C   UNL     1      -0.026  -9.475   1.355  1.00  0.00     0.000 A 
ATOM     14  C   UNL     1      -0.994 -10.125   2.120  1.00  0.00     0.001 A 
ATOM     15  C   UNL     1       0.897  -8.633   1.974  1.00  0.00     0.001 A 
ATOM     16  C   UNL     1      -1.045  -9.935   3.505  1.00  0.00     0.012 A 
ATOM     17  C   UNL     1       0.854  -8.439   3.358  1.00  0.00     0.012 A 
ENDBRANCH   1  12
TORSDOF 1
ENDMDL
