MODEL 1
REMARK VINA RESULT:    -5.917      0.000      0.000
REMARK INTER + INTRA:          -6.668
REMARK INTER:                  -6.263
REMARK INTRA:                  -0.405
REMARK UNBOUND:                -0.405
REMARK SMILES C=C(C)[C@H]1CC[C@H](C)[C@@]12CC=C(C)CC2
REMARK SMILES IDX 8 1 7 2 6 3 5 4 4 5 9 6 15 7 14 8 12 9 11 10 10 11 13 12
REMARK SMILES IDX 2 13 1 14 3 15
REMARK H PARENT
REMARK Flexibility Score: inf
ROOT
ATOM      1  C   UNL     1     104.502 103.210 127.883  1.00  0.00     0.008 C 
ATOM      2  C   UNL     1     104.326 104.300 126.812  1.00  0.00    -0.007 C 
ATOM      3  C   UNL     1     104.351 103.727 125.398  1.00  0.00     0.004 C 
ATOM      4  C   UNL     1     103.743 104.822 124.546  1.00  0.00     0.009 C 
ATOM      5  C   UNL     1     102.599 105.358 125.408  1.00  0.00     0.021 C 
ATOM      6  C   UNL     1     103.053 105.224 126.909  1.00  0.00    -0.017 C 
ATOM      7  C   UNL     1     101.856 104.599 127.744  1.00  0.00     0.012 C 
ATOM      8  C   UNL     1     101.652 105.254 129.118  1.00  0.00     0.031 C 
ATOM      9  C   UNL     1     101.494 106.744 128.921  1.00  0.00    -0.077 C 
ATOM     10  C   UNL     1     102.371 107.372 128.123  1.00  0.00    -0.027 C 
ATOM     11  C   UNL     1     103.514 106.590 127.537  1.00  0.00     0.035 C 
ATOM     12  C   UNL     1     100.332 107.494 129.509  1.00  0.00     0.039 C 
ENDROOT
BRANCH   5  13
ATOM     13  C   UNL     1     102.022 106.709 124.976  1.00  0.00    -0.077 C 
ATOM     14  C   UNL     1     100.733 107.045 125.159  1.00  0.00     0.008 C 
ATOM     15  C   UNL     1     102.924 107.715 124.306  1.00  0.00     0.039 C 
ENDBRANCH   5  13
TORSDOF 1
ENDMDL
MODEL 2
REMARK VINA RESULT:    -5.893      6.255      7.883
REMARK INTER + INTRA:          -6.642
REMARK INTER:                  -6.230
REMARK INTRA:                  -0.413
REMARK UNBOUND:                -0.405
REMARK SMILES C=C(C)[C@H]1CC[C@H](C)[C@@]12CC=C(C)CC2
REMARK SMILES IDX 8 1 7 2 6 3 5 4 4 5 9 6 15 7 14 8 12 9 11 10 10 11 13 12
REMARK SMILES IDX 2 13 1 14 3 15
REMARK H PARENT
REMARK Flexibility Score: inf
ROOT
ATOM      1  C   UNL     1     108.453 106.306 123.943  1.00  0.00     0.008 C 
ATOM      2  C   UNL     1     109.391 105.800 125.051  1.00  0.00    -0.007 C 
ATOM      3  C   UNL     1     110.790 105.493 124.526  1.00  0.00     0.004 C 
ATOM      4  C   UNL     1     111.649 105.445 125.772  1.00  0.00     0.009 C 
ATOM      5  C   UNL     1     111.112 106.594 126.626  1.00  0.00     0.021 C 
ATOM      6  C   UNL     1     109.570 106.705 126.328  1.00  0.00    -0.017 C 
ATOM      7  C   UNL     1     109.211 108.235 126.099  1.00  0.00     0.012 C 
ATOM      8  C   UNL     1     107.893 108.667 126.760  1.00  0.00     0.031 C 
ATOM      9  C   UNL     1     107.951 108.307 128.226  1.00  0.00    -0.077 C 
ATOM     10  C   UNL     1     108.372 107.077 128.559  1.00  0.00    -0.027 C 
ATOM     11  C   UNL     1     108.677 106.090 127.466  1.00  0.00     0.035 C 
ATOM     12  C   UNL     1     107.654 109.322 129.295  1.00  0.00     0.039 C 
ENDROOT
BRANCH   5  13
ATOM     13  C   UNL     1     111.534 106.577 128.098  1.00  0.00    -0.077 C 
ATOM     14  C   UNL     1     111.791 107.697 128.797  1.00  0.00     0.008 C 
ATOM     15  C   UNL     1     111.682 105.255 128.808  1.00  0.00     0.039 C 
ENDBRANCH   5  13
TORSDOF 1
ENDMDL
MODEL 3
REMARK VINA RESULT:    -5.854      4.238      5.716
REMARK INTER + INTRA:          -6.601
REMARK INTER:                  -6.193
REMARK INTRA:                  -0.408
REMARK UNBOUND:                -0.405
REMARK SMILES C=C(C)[C@H]1CC[C@H](C)[C@@]12CC=C(C)CC2
REMARK SMILES IDX 8 1 7 2 6 3 5 4 4 5 9 6 15 7 14 8 12 9 11 10 10 11 13 12
REMARK SMILES IDX 2 13 1 14 3 15
REMARK H PARENT
REMARK Flexibility Score: inf
ROOT
ATOM      1  C   UNL     1     103.218 107.908 128.073  1.00  0.00     0.008 C 
ATOM      2  C   UNL     1     104.271 108.048 126.961  1.00  0.00    -0.007 C 
ATOM      3  C   UNL     1     103.650 107.981 125.569  1.00  0.00     0.004 C 
ATOM      4  C   UNL     1     104.716 108.560 124.662  1.00  0.00     0.009 C 
ATOM      5  C   UNL     1     105.281 109.729 125.469  1.00  0.00     0.021 C 
ATOM      6  C   UNL     1     105.198 109.321 126.987  1.00  0.00    -0.017 C 
ATOM      7  C   UNL     1     104.603 110.546 127.805  1.00  0.00     0.012 C 
ATOM      8  C   UNL     1     105.305 110.791 129.149  1.00  0.00     0.031 C 
ATOM      9  C   UNL     1     106.787 110.939 128.897  1.00  0.00    -0.077 C 
ATOM     10  C   UNL     1     107.387 110.037 128.105  1.00  0.00    -0.027 C 
ATOM     11  C   UNL     1     106.584 108.878 127.582  1.00  0.00     0.035 C 
ATOM     12  C   UNL     1     107.558 112.118 129.422  1.00  0.00     0.039 C 
ENDROOT
BRANCH   5  13
ATOM     13  C   UNL     1     106.618 110.289 124.973  1.00  0.00    -0.077 C 
ATOM     14  C   UNL     1     106.955 111.586 125.091  1.00  0.00     0.008 C 
ATOM     15  C   UNL     1     107.607 109.362 124.314  1.00  0.00     0.039 C 
ENDBRANCH   5  13
TORSDOF 1
ENDMDL
MODEL 4
REMARK VINA RESULT:    -5.853      4.519      6.532
REMARK INTER + INTRA:          -6.600
REMARK INTER:                  -6.184
REMARK INTRA:                  -0.415
REMARK UNBOUND:                -0.405
REMARK SMILES C=C(C)[C@H]1CC[C@H](C)[C@@]12CC=C(C)CC2
REMARK SMILES IDX 8 1 7 2 6 3 5 4 4 5 9 6 15 7 14 8 12 9 11 10 10 11 13 12
REMARK SMILES IDX 2 13 1 14 3 15
REMARK H PARENT
REMARK Flexibility Score: inf
ROOT
ATOM      1  C   UNL     1     106.243 103.902 124.032  1.00  0.00     0.008 C 
ATOM      2  C   UNL     1     105.759 102.993 125.174  1.00  0.00    -0.007 C 
ATOM      3  C   UNL     1     105.436 101.583 124.690  1.00  0.00     0.004 C 
ATOM      4  C   UNL     1     105.413 100.754 125.957  1.00  0.00     0.009 C 
ATOM      5  C   UNL     1     106.582 101.308 126.773  1.00  0.00     0.021 C 
ATOM      6  C   UNL     1     106.692 102.841 126.435  1.00  0.00    -0.017 C 
ATOM      7  C   UNL     1     108.217 103.190 126.163  1.00  0.00     0.012 C 
ATOM      8  C   UNL     1     108.667 104.521 126.783  1.00  0.00     0.031 C 
ATOM      9  C   UNL     1     108.340 104.500 128.258  1.00  0.00    -0.077 C 
ATOM     10  C   UNL     1     107.116 104.092 128.627  1.00  0.00    -0.027 C 
ATOM     11  C   UNL     1     106.104 103.764 127.564  1.00  0.00     0.035 C 
ATOM     12  C   UNL     1     109.378 104.820 129.296  1.00  0.00     0.039 C 
ENDROOT
BRANCH   5  13
ATOM     13  C   UNL     1     106.596 100.921 128.254  1.00  0.00    -0.077 C 
ATOM     14  C   UNL     1     107.733 100.715 128.944  1.00  0.00     0.008 C 
ATOM     15  C   UNL     1     105.288 100.752 128.985  1.00  0.00     0.039 C 
ENDBRANCH   5  13
TORSDOF 1
ENDMDL
MODEL 5
REMARK VINA RESULT:    -5.849      1.142      3.752
REMARK INTER + INTRA:          -6.596
REMARK INTER:                  -6.183
REMARK INTRA:                  -0.413
REMARK UNBOUND:                -0.405
REMARK SMILES C=C(C)[C@H]1CC[C@H](C)[C@@]12CC=C(C)CC2
REMARK SMILES IDX 8 1 7 2 6 3 5 4 4 5 9 6 15 7 14 8 12 9 11 10 10 11 13 12
REMARK SMILES IDX 2 13 1 14 3 15
REMARK H PARENT
REMARK Flexibility Score: inf
ROOT
ATOM      1  C   UNL     1     104.185 106.105 123.865  1.00  0.00     0.008 C 
ATOM      2  C   UNL     1     103.246 106.614 124.971  1.00  0.00    -0.007 C 
ATOM      3  C   UNL     1     101.857 106.951 124.437  1.00  0.00     0.004 C 
ATOM      4  C   UNL     1     100.988 107.000 125.676  1.00  0.00     0.009 C 
ATOM      5  C   UNL     1     101.498 105.834 126.523  1.00  0.00     0.021 C 
ATOM      6  C   UNL     1     103.040 105.699 126.236  1.00  0.00    -0.017 C 
ATOM      7  C   UNL     1     103.375 104.165 125.993  1.00  0.00     0.012 C 
ATOM      8  C   UNL     1     104.680 103.704 126.661  1.00  0.00     0.031 C 
ATOM      9  C   UNL     1     104.615 104.049 128.131  1.00  0.00    -0.077 C 
ATOM     10  C   UNL     1     104.213 105.282 128.473  1.00  0.00    -0.027 C 
ATOM     11  C   UNL     1     103.934 106.286 127.389  1.00  0.00     0.035 C 
ATOM     12  C   UNL     1     104.886 103.018 129.191  1.00  0.00     0.039 C 
ENDROOT
BRANCH   5  13
ATOM     13  C   UNL     1     101.064 105.842 127.991  1.00  0.00    -0.077 C 
ATOM     14  C   UNL     1     100.782 104.718 128.676  1.00  0.00     0.008 C 
ATOM     15  C   UNL     1     100.933 107.158 128.714  1.00  0.00     0.039 C 
ENDBRANCH   5  13
TORSDOF 1
ENDMDL
MODEL 6
REMARK VINA RESULT:    -5.848      4.129      5.797
REMARK INTER + INTRA:          -6.594
REMARK INTER:                  -6.180
REMARK INTRA:                  -0.414
REMARK UNBOUND:                -0.405
REMARK SMILES C=C(C)[C@H]1CC[C@H](C)[C@@]12CC=C(C)CC2
REMARK SMILES IDX 8 1 7 2 6 3 5 4 4 5 9 6 15 7 14 8 12 9 11 10 10 11 13 12
REMARK SMILES IDX 2 13 1 14 3 15
REMARK H PARENT
REMARK Flexibility Score: inf
ROOT
ATOM      1  C   UNL     1     106.073 108.451 123.923  1.00  0.00     0.008 C 
ATOM      2  C   UNL     1     106.601 109.373 125.035  1.00  0.00    -0.007 C 
ATOM      3  C   UNL     1     106.911 110.776 124.522  1.00  0.00     0.004 C 
ATOM      4  C   UNL     1     106.982 111.620 125.777  1.00  0.00     0.009 C 
ATOM      5  C   UNL     1     105.842 111.080 126.642  1.00  0.00     0.021 C 
ATOM      6  C   UNL     1     105.716 109.543 126.327  1.00  0.00    -0.017 C 
ATOM      7  C   UNL     1     104.180 109.196 126.115  1.00  0.00     0.012 C 
ATOM      8  C   UNL     1     103.749 107.874 126.767  1.00  0.00     0.031 C 
ATOM      9  C   UNL     1     104.130 107.912 128.228  1.00  0.00    -0.077 C 
ATOM     10  C   UNL     1     105.367 108.320 128.548  1.00  0.00    -0.027 C 
ATOM     11  C   UNL     1     106.341 108.632 127.445  1.00  0.00     0.035 C 
ATOM     12  C   UNL     1     103.129 107.608 129.308  1.00  0.00     0.039 C 
ENDROOT
BRANCH   5  13
ATOM     13  C   UNL     1     105.883 111.484 128.118  1.00  0.00    -0.077 C 
ATOM     14  C   UNL     1     104.774 111.739 128.836  1.00  0.00     0.008 C 
ATOM     15  C   UNL     1     107.216 111.616 128.810  1.00  0.00     0.039 C 
ENDBRANCH   5  13
TORSDOF 1
ENDMDL
MODEL 7
REMARK VINA RESULT:    -5.773      4.233      5.817
REMARK INTER + INTRA:          -6.515
REMARK INTER:                  -6.100
REMARK INTRA:                  -0.416
REMARK UNBOUND:                -0.405
REMARK SMILES C=C(C)[C@H]1CC[C@H](C)[C@@]12CC=C(C)CC2
REMARK SMILES IDX 8 1 7 2 6 3 5 4 4 5 9 6 15 7 14 8 12 9 11 10 10 11 13 12
REMARK SMILES IDX 2 13 1 14 3 15
REMARK H PARENT
REMARK Flexibility Score: inf
ROOT
ATOM      1  C   UNL     1     109.212 104.403 128.812  1.00  0.00     0.008 C 
ATOM      2  C   UNL     1     108.204 104.406 127.650  1.00  0.00    -0.007 C 
ATOM      3  C   UNL     1     108.881 104.636 126.302  1.00  0.00     0.004 C 
ATOM      4  C   UNL     1     107.851 104.179 125.290  1.00  0.00     0.009 C 
ATOM      5  C   UNL     1     107.250 102.925 125.927  1.00  0.00     0.021 C 
ATOM      6  C   UNL     1     107.273 103.146 127.485  1.00  0.00    -0.017 C 
ATOM      7  C   UNL     1     107.831 101.827 128.173  1.00  0.00     0.012 C 
ATOM      8  C   UNL     1     107.075 101.427 129.448  1.00  0.00     0.031 C 
ATOM      9  C   UNL     1     105.604 101.322 129.122  1.00  0.00    -0.077 C 
ATOM     10  C   UNL     1     105.039 102.317 128.422  1.00  0.00    -0.027 C 
ATOM     11  C   UNL     1     105.865 103.525 128.075  1.00  0.00     0.035 C 
ATOM     12  C   UNL     1     104.809 100.094 129.470  1.00  0.00     0.039 C 
ENDROOT
BRANCH   5  13
ATOM     13  C   UNL     1     105.933 102.439 125.315  1.00  0.00    -0.077 C 
ATOM     14  C   UNL     1     105.018 103.275 124.791  1.00  0.00     0.008 C 
ATOM     15  C   UNL     1     105.628 100.963 125.299  1.00  0.00     0.039 C 
ENDBRANCH   5  13
TORSDOF 1
ENDMDL
MODEL 8
REMARK VINA RESULT:    -5.562      2.786      5.586
REMARK INTER + INTRA:          -6.292
REMARK INTER:                  -5.907
REMARK INTRA:                  -0.385
REMARK UNBOUND:                -0.405
REMARK SMILES C=C(C)[C@H]1CC[C@H](C)[C@@]12CC=C(C)CC2
REMARK SMILES IDX 8 1 7 2 6 3 5 4 4 5 9 6 15 7 14 8 12 9 11 10 10 11 13 12
REMARK SMILES IDX 2 13 1 14 3 15
REMARK H PARENT
REMARK Flexibility Score: inf
ROOT
ATOM      1  C   UNL     1     105.984 102.513 123.283  1.00  0.00     0.008 C 
ATOM      2  C   UNL     1     105.674 103.531 124.392  1.00  0.00    -0.007 C 
ATOM      3  C   UNL     1     104.313 104.193 124.203  1.00  0.00     0.004 C 
ATOM      4  C   UNL     1     104.003 104.794 125.558  1.00  0.00     0.009 C 
ATOM      5  C   UNL     1     104.490 103.732 126.544  1.00  0.00     0.021 C 
ATOM      6  C   UNL     1     105.735 103.029 125.884  1.00  0.00    -0.017 C 
ATOM      7  C   UNL     1     105.573 101.458 126.051  1.00  0.00     0.012 C 
ATOM      8  C   UNL     1     106.878 100.739 126.426  1.00  0.00     0.031 C 
ATOM      9  C   UNL     1     107.447 101.389 127.665  1.00  0.00    -0.077 C 
ATOM     10  C   UNL     1     107.512 102.729 127.702  1.00  0.00    -0.027 C 
ATOM     11  C   UNL     1     107.105 103.513 126.485  1.00  0.00     0.035 C 
ATOM     12  C   UNL     1     107.831 100.578 128.871  1.00  0.00     0.039 C 
ENDROOT
BRANCH   5  13
ATOM     13  C   UNL     1     104.645 104.198 127.995  1.00  0.00    -0.077 C 
ATOM     14  C   UNL     1     104.505 103.370 129.046  1.00  0.00     0.008 C 
ATOM     15  C   UNL     1     104.958 105.645 128.275  1.00  0.00     0.039 C 
ENDBRANCH   5  13
TORSDOF 1
ENDMDL
MODEL 9
REMARK VINA RESULT:    -5.560      1.707      3.599
REMARK INTER + INTRA:          -6.290
REMARK INTER:                  -5.918
REMARK INTRA:                  -0.372
REMARK UNBOUND:                -0.405
REMARK SMILES C=C(C)[C@H]1CC[C@H](C)[C@@]12CC=C(C)CC2
REMARK SMILES IDX 8 1 7 2 6 3 5 4 4 5 9 6 15 7 14 8 12 9 11 10 10 11 13 12
REMARK SMILES IDX 2 13 1 14 3 15
REMARK H PARENT
REMARK Flexibility Score: inf
ROOT
ATOM      1  C   UNL     1     102.589 106.392 123.468  1.00  0.00     0.008 C 
ATOM      2  C   UNL     1     103.571 106.717 124.606  1.00  0.00    -0.007 C 
ATOM      3  C   UNL     1     104.221 108.086 124.432  1.00  0.00     0.004 C 
ATOM      4  C   UNL     1     104.778 108.406 125.804  1.00  0.00     0.009 C 
ATOM      5  C   UNL     1     103.694 107.907 126.760  1.00  0.00     0.021 C 
ATOM      6  C   UNL     1     103.027 106.652 126.083  1.00  0.00    -0.017 C 
ATOM      7  C   UNL     1     101.449 106.794 126.204  1.00  0.00     0.012 C 
ATOM      8  C   UNL     1     100.736 105.481 126.560  1.00  0.00     0.031 C 
ATOM      9  C   UNL     1     101.358 104.922 127.818  1.00  0.00    -0.077 C 
ATOM     10  C   UNL     1     102.696 104.874 127.895  1.00  0.00    -0.027 C 
ATOM     11  C   UNL     1     103.510 105.290 126.700  1.00  0.00     0.035 C 
ATOM     12  C   UNL     1     100.517 104.530 129.001  1.00  0.00     0.039 C 
ENDROOT
BRANCH   5  13
ATOM     13  C   UNL     1     104.120 107.761 128.224  1.00  0.00    -0.077 C 
ATOM     14  C   UNL     1     103.257 107.873 129.250  1.00  0.00     0.008 C 
ATOM     15  C   UNL     1     105.567 107.487 128.547  1.00  0.00     0.039 C 
ENDBRANCH   5  13
TORSDOF 1
ENDMDL
