MODEL 1
REMARK VINA RESULT:     0.507      0.000      0.000
REMARK INTER + INTRA:           0.500
REMARK INTER:                   0.536
REMARK INTRA:                  -0.036
REMARK UNBOUND:                -0.036
REMARK SMILES COc1ccc2ccc(=O)oc2c1
REMARK SMILES IDX 3 1 13 2 12 3 6 4 5 5 4 6 7 7 8 8 9 9 10 10 11 11 2 12 1 13
REMARK H PARENT
REMARK Flexibility Score: inf
ROOT
ATOM      1  C   UNL     1      26.919  26.743   1.601  1.00  0.00     0.122 A 
ATOM      2  C   UNL     1      27.231  27.929   0.905  1.00  0.00     0.094 A 
ATOM      3  C   UNL     1      27.605  29.080   1.606  1.00  0.00     0.142 A 
ATOM      4  C   UNL     1      27.670  29.055   3.016  1.00  0.00     0.018 A 
ATOM      5  C   UNL     1      27.361  27.877   3.708  1.00  0.00     0.016 A 
ATOM      6  C   UNL     1      26.988  26.731   3.001  1.00  0.00     0.047 A 
ATOM      7  C   UNL     1      28.047  30.222   3.687  1.00  0.00     0.019 A 
ATOM      8  C   UNL     1      28.345  31.369   2.952  1.00  0.00     0.094 A 
ATOM      9  C   UNL     1      28.258  31.321   1.557  1.00  0.00     0.336 A 
ATOM     10  O   UNL     1      28.524  32.345   0.875  1.00  0.00    -0.246 OA
ATOM     11  O   UNL     1      27.897  30.196   0.942  1.00  0.00    -0.423 OA
ENDROOT
BRANCH   1  12
ATOM     12  O   UNL     1      26.540  25.563   0.944  1.00  0.00    -0.497 OA
ATOM     13  C   UNL     1      26.995  24.262   1.302  1.00  0.00     0.278 C 
ENDBRANCH   1  12
TORSDOF 1
ENDMDL
MODEL 2
REMARK VINA RESULT:     2.594      1.941      4.953
REMARK INTER + INTRA:           2.709
REMARK INTER:                   2.744
REMARK INTRA:                  -0.035
REMARK UNBOUND:                -0.036
REMARK SMILES COc1ccc2ccc(=O)oc2c1
REMARK SMILES IDX 3 1 13 2 12 3 6 4 5 5 4 6 7 7 8 8 9 9 10 10 11 11 2 12 1 13
REMARK H PARENT
REMARK Flexibility Score: inf
ROOT
ATOM      1  C   UNL     1      29.434  29.519   2.643  1.00  0.00     0.122 A 
ATOM      2  C   UNL     1      29.420  28.133   2.388  1.00  0.00     0.094 A 
ATOM      3  C   UNL     1      28.210  27.472   2.149  1.00  0.00     0.142 A 
ATOM      4  C   UNL     1      26.999  28.197   2.161  1.00  0.00     0.018 A 
ATOM      5  C   UNL     1      27.012  29.574   2.413  1.00  0.00     0.016 A 
ATOM      6  C   UNL     1      28.225  30.228   2.652  1.00  0.00     0.047 A 
ATOM      7  C   UNL     1      25.807  27.508   1.918  1.00  0.00     0.019 A 
ATOM      8  C   UNL     1      25.847  26.136   1.672  1.00  0.00     0.094 A 
ATOM      9  C   UNL     1      27.084  25.483   1.675  1.00  0.00     0.336 A 
ATOM     10  O   UNL     1      27.142  24.245   1.455  1.00  0.00    -0.246 OA
ATOM     11  O   UNL     1      28.205  26.163   1.909  1.00  0.00    -0.423 OA
ENDROOT
BRANCH   1  12
ATOM     12  O   UNL     1      30.620  30.227   2.889  1.00  0.00    -0.497 OA
ATOM     13  C   UNL     1      31.544  29.912   3.926  1.00  0.00     0.278 C 
ENDBRANCH   1  12
TORSDOF 1
ENDMDL
MODEL 3
REMARK VINA RESULT:     2.929      2.199      2.533
REMARK INTER + INTRA:           3.064
REMARK INTER:                   3.098
REMARK INTRA:                  -0.034
REMARK UNBOUND:                -0.036
REMARK SMILES COc1ccc2ccc(=O)oc2c1
REMARK SMILES IDX 3 1 13 2 12 3 6 4 5 5 4 6 7 7 8 8 9 9 10 10 11 11 2 12 1 13
REMARK H PARENT
REMARK Flexibility Score: inf
ROOT
ATOM      1  C   UNL     1      27.465  27.600   1.484  1.00  0.00     0.122 A 
ATOM      2  C   UNL     1      28.734  27.712   2.088  1.00  0.00     0.094 A 
ATOM      3  C   UNL     1      29.127  28.916   2.683  1.00  0.00     0.142 A 
ATOM      4  C   UNL     1      28.250  30.022   2.679  1.00  0.00     0.018 A 
ATOM      5  C   UNL     1      26.989  29.910   2.080  1.00  0.00     0.016 A 
ATOM      6  C   UNL     1      26.603  28.704   1.487  1.00  0.00     0.047 A 
ATOM      7  C   UNL     1      28.672  31.210   3.282  1.00  0.00     0.019 A 
ATOM      8  C   UNL     1      29.938  31.270   3.865  1.00  0.00     0.094 A 
ATOM      9  C   UNL     1      30.754  30.134   3.831  1.00  0.00     0.336 A 
ATOM     10  O   UNL     1      31.899  30.168   4.352  1.00  0.00    -0.246 OA
ATOM     11  O   UNL     1      30.327  29.015   3.250  1.00  0.00    -0.423 OA
ENDROOT
BRANCH   1  12
ATOM     12  O   UNL     1      27.025  26.415   0.875  1.00  0.00    -0.497 OA
ATOM     13  C   UNL     1      26.794  25.192   1.569  1.00  0.00     0.278 C 
ENDBRANCH   1  12
TORSDOF 1
ENDMDL
