MODEL 1
REMARK VINA RESULT:    -2.802      0.000      0.000
REMARK INTER + INTRA:          -8.332
REMARK INTER:                  -5.095
REMARK INTRA:                  -3.237
REMARK UNBOUND:                -3.237
REMARK SMILES CCCCCC=CCC=CCCCCCCCC(=O)[O-]
REMARK SMILES IDX 11 1 12 2 13 3 14 4 15 5 16 6 17 7 18 8 19 9 20 10 10 11
REMARK SMILES IDX 9 12 8 13 7 14 6 15 5 16 4 17 3 18 2 19 1 20
REMARK H PARENT
REMARK Flexibility Score: inf
ROOT
ATOM      1  C   UNL     1     -11.883 -48.612  96.140  1.00  0.00     0.027 C 
ENDROOT
BRANCH   1   2
ATOM      2  C   UNL     1     -11.652 -47.374  95.262  1.00  0.00     0.004 C 
BRANCH   2   3
ATOM      3  C   UNL     1     -12.220 -47.559  93.844  1.00  0.00     0.000 C 
BRANCH   3   4
ATOM      4  C   UNL     1     -13.017 -46.336  93.356  1.00  0.00     0.000 C 
BRANCH   4   5
ATOM      5  C   UNL     1     -14.522 -46.582  93.126  1.00  0.00     0.000 C 
BRANCH   5   6
ATOM      6  C   UNL     1     -15.300 -47.062  94.364  1.00  0.00     0.006 C 
BRANCH   6   7
ATOM      7  C   UNL     1     -15.135 -46.126  95.569  1.00  0.00     0.053 C 
BRANCH   7   8
ATOM      8  C   UNL     1     -15.377 -46.869  96.845  1.00  0.00     0.041 C 
ATOM      9  O   UNL     1     -14.515 -46.849  97.765  1.00  0.00    -0.550 OA
ATOM     10  O   UNL     1     -16.566 -47.562  97.033  1.00  0.00    -0.550 OA
ENDBRANCH   7   8
ENDBRANCH   6   7
ENDBRANCH   5   6
ENDBRANCH   4   5
ENDBRANCH   3   4
ENDBRANCH   2   3
ENDBRANCH   1   2
BRANCH   1  11
ATOM     11  C   UNL     1     -12.751 -49.638  95.464  1.00  0.00    -0.031 C 
ATOM     12  C   UNL     1     -13.859 -50.117  96.051  1.00  0.00    -0.027 C 
BRANCH  12  13
ATOM     13  C   UNL     1     -14.725 -51.143  95.376  1.00  0.00     0.054 C 
BRANCH  13  14
ATOM     14  C   UNL     1     -15.833 -50.497  94.581  1.00  0.00    -0.027 C 
ATOM     15  C   UNL     1     -15.915 -50.524  93.238  1.00  0.00    -0.031 C 
BRANCH  15  16
ATOM     16  C   UNL     1     -14.887 -51.192  92.354  1.00  0.00     0.027 C 
BRANCH  16  17
ATOM     17  C   UNL     1     -13.803 -50.211  91.878  1.00  0.00     0.004 C 
BRANCH  17  18
ATOM     18  C   UNL     1     -12.382 -50.806  91.884  1.00  0.00     0.000 C 
BRANCH  18  19
ATOM     19  C   UNL     1     -12.282 -52.083  92.731  1.00  0.00    -0.003 C 
ATOM     20  C   UNL     1     -11.200 -53.015  92.192  1.00  0.00     0.004 C 
ENDBRANCH  18  19
ENDBRANCH  17  18
ENDBRANCH  16  17
ENDBRANCH  15  16
ENDBRANCH  13  14
ENDBRANCH  12  13
ENDBRANCH   1  11
TORSDOF 14
ENDMDL
MODEL 2
REMARK VINA RESULT:    -2.790      1.986      3.913
REMARK INTER + INTRA:          -8.310
REMARK INTER:                  -5.447
REMARK INTRA:                  -2.863
REMARK UNBOUND:                -3.237
REMARK SMILES CCCCCC=CCC=CCCCCCCCC(=O)[O-]
REMARK SMILES IDX 11 1 12 2 13 3 14 4 15 5 16 6 17 7 18 8 19 9 20 10 10 11
REMARK SMILES IDX 9 12 8 13 7 14 6 15 5 16 4 17 3 18 2 19 1 20
REMARK H PARENT
REMARK Flexibility Score: inf
ROOT
ATOM      1  C   UNL     1     -13.933 -45.022  94.063  1.00  0.00     0.027 C 
ENDROOT
BRANCH   1   2
ATOM      2  C   UNL     1     -15.221 -45.616  93.473  1.00  0.00     0.004 C 
BRANCH   2   3
ATOM      3  C   UNL     1     -15.152 -47.150  93.367  1.00  0.00     0.000 C 
BRANCH   3   4
ATOM      4  C   UNL     1     -16.283 -47.854  94.136  1.00  0.00     0.000 C 
BRANCH   4   5
ATOM      5  C   UNL     1     -16.676 -47.196  95.474  1.00  0.00     0.000 C 
BRANCH   5   6
ATOM      6  C   UNL     1     -16.016 -47.813  96.720  1.00  0.00     0.006 C 
BRANCH   6   7
ATOM      7  C   UNL     1     -15.288 -46.774  97.583  1.00  0.00     0.053 C 
BRANCH   7   8
ATOM      8  C   UNL     1     -16.172 -46.304  98.694  1.00  0.00     0.041 C 
ATOM      9  O   UNL     1     -15.852 -45.295  99.378  1.00  0.00    -0.550 OA
ATOM     10  O   UNL     1     -17.367 -46.962  98.958  1.00  0.00    -0.550 OA
ENDBRANCH   7   8
ENDBRANCH   6   7
ENDBRANCH   5   6
ENDBRANCH   4   5
ENDBRANCH   3   4
ENDBRANCH   2   3
ENDBRANCH   1   2
BRANCH   1  11
ATOM     11  C   UNL     1     -13.155 -46.030  94.866  1.00  0.00    -0.031 C 
ATOM     12  C   UNL     1     -11.880 -46.328  94.571  1.00  0.00    -0.027 C 
BRANCH  12  13
ATOM     13  C   UNL     1     -11.103 -47.336  95.372  1.00  0.00     0.054 C 
BRANCH  13  14
ATOM     14  C   UNL     1     -11.980 -48.034  96.383  1.00  0.00    -0.027 C 
ATOM     15  C   UNL     1     -12.700 -49.140  96.124  1.00  0.00    -0.031 C 
BRANCH  15  16
ATOM     16  C   UNL     1     -12.736 -49.812  94.771  1.00  0.00     0.027 C 
BRANCH  16  17
ATOM     17  C   UNL     1     -13.874 -50.841  94.662  1.00  0.00     0.004 C 
BRANCH  17  18
ATOM     18  C   UNL     1     -14.637 -51.066  95.981  1.00  0.00     0.000 C 
BRANCH  18  19
ATOM     19  C   UNL     1     -16.073 -51.560  95.755  1.00  0.00    -0.003 C 
ATOM     20  C   UNL     1     -16.394 -51.649  94.265  1.00  0.00     0.004 C 
ENDBRANCH  18  19
ENDBRANCH  17  18
ENDBRANCH  16  17
ENDBRANCH  15  16
ENDBRANCH  13  14
ENDBRANCH  12  13
ENDBRANCH   1  11
TORSDOF 14
ENDMDL
MODEL 3
REMARK VINA RESULT:    -2.780      2.840      6.025
REMARK INTER + INTRA:          -8.292
REMARK INTER:                  -5.350
REMARK INTRA:                  -2.942
REMARK UNBOUND:                -3.237
REMARK SMILES CCCCCC=CCC=CCCCCCCCC(=O)[O-]
REMARK SMILES IDX 11 1 12 2 13 3 14 4 15 5 16 6 17 7 18 8 19 9 20 10 10 11
REMARK SMILES IDX 9 12 8 13 7 14 6 15 5 16 4 17 3 18 2 19 1 20
REMARK H PARENT
REMARK Flexibility Score: inf
ROOT
ATOM      1  C   UNL     1     -17.818 -48.420  95.849  1.00  0.00     0.027 C 
ENDROOT
BRANCH   1   2
ATOM      2  C   UNL     1     -17.961 -49.828  96.445  1.00  0.00     0.004 C 
BRANCH   2   3
ATOM      3  C   UNL     1     -17.257 -50.892  95.586  1.00  0.00     0.000 C 
BRANCH   3   4
ATOM      4  C   UNL     1     -16.151 -51.641  96.350  1.00  0.00     0.000 C 
BRANCH   4   5
ATOM      5  C   UNL     1     -14.709 -51.235  95.985  1.00  0.00     0.000 C 
BRANCH   5   6
ATOM      6  C   UNL     1     -14.505 -50.801  94.522  1.00  0.00     0.006 C 
BRANCH   6   7
ATOM      7  C   UNL     1     -13.053 -50.957  94.054  1.00  0.00     0.053 C 
BRANCH   7   8
ATOM      8  C   UNL     1     -13.002 -51.648  92.728  1.00  0.00     0.041 C 
ATOM      9  O   UNL     1     -13.969 -52.360  92.345  1.00  0.00    -0.550 OA
ATOM     10  O   UNL     1     -11.899 -51.485  91.899  1.00  0.00    -0.550 OA
ENDBRANCH   7   8
ENDBRANCH   6   7
ENDBRANCH   5   6
ENDBRANCH   4   5
ENDBRANCH   3   4
ENDBRANCH   2   3
ENDBRANCH   1   2
BRANCH   1  11
ATOM     11  C   UNL     1     -16.408 -47.901  95.941  1.00  0.00    -0.031 C 
ATOM     12  C   UNL     1     -15.887 -47.489  97.107  1.00  0.00    -0.027 C 
BRANCH  12  13
ATOM     13  C   UNL     1     -14.480 -46.969  97.199  1.00  0.00     0.054 C 
BRANCH  13  14
ATOM     14  C   UNL     1     -13.472 -48.091  97.169  1.00  0.00    -0.027 C 
ATOM     15  C   UNL     1     -12.422 -48.142  96.329  1.00  0.00    -0.031 C 
BRANCH  15  16
ATOM     16  C   UNL     1     -12.134 -47.084  95.290  1.00  0.00     0.027 C 
BRANCH  16  17
ATOM     17  C   UNL     1     -12.790 -47.402  93.936  1.00  0.00     0.004 C 
BRANCH  17  18
ATOM     18  C   UNL     1     -13.765 -46.314  93.448  1.00  0.00     0.000 C 
BRANCH  18  19
ATOM     19  C   UNL     1     -13.680 -45.028  94.285  1.00  0.00    -0.003 C 
ATOM     20  C   UNL     1     -15.070 -44.472  94.579  1.00  0.00     0.004 C 
ENDBRANCH  18  19
ENDBRANCH  17  18
ENDBRANCH  16  17
ENDBRANCH  15  16
ENDBRANCH  13  14
ENDBRANCH  12  13
ENDBRANCH   1  11
TORSDOF 14
ENDMDL
MODEL 4
REMARK VINA RESULT:    -2.744      2.938      6.159
REMARK INTER + INTRA:          -8.226
REMARK INTER:                  -5.144
REMARK INTRA:                  -3.082
REMARK UNBOUND:                -3.237
REMARK SMILES CCCCCC=CCC=CCCCCCCCC(=O)[O-]
REMARK SMILES IDX 11 1 12 2 13 3 14 4 15 5 16 6 17 7 18 8 19 9 20 10 10 11
REMARK SMILES IDX 9 12 8 13 7 14 6 15 5 16 4 17 3 18 2 19 1 20
REMARK H PARENT
REMARK Flexibility Score: inf
ROOT
ATOM      1  C   UNL     1     -16.067 -47.680  92.879  1.00  0.00     0.027 C 
ENDROOT
BRANCH   1   2
ATOM      2  C   UNL     1     -17.004 -48.794  93.367  1.00  0.00     0.004 C 
BRANCH   2   3
ATOM      3  C   UNL     1     -16.647 -49.266  94.788  1.00  0.00     0.000 C 
BRANCH   3   4
ATOM      4  C   UNL     1     -16.497 -50.794  94.890  1.00  0.00     0.000 C 
BRANCH   4   5
ATOM      5  C   UNL     1     -15.049 -51.318  94.816  1.00  0.00     0.000 C 
BRANCH   5   6
ATOM      6  C   UNL     1     -14.542 -51.634  93.397  1.00  0.00     0.006 C 
BRANCH   6   7
ATOM      7  C   UNL     1     -13.039 -51.375  93.231  1.00  0.00     0.053 C 
BRANCH   7   8
ATOM      8  C   UNL     1     -12.433 -52.386  92.309  1.00  0.00     0.041 C 
ATOM      9  O   UNL     1     -11.292 -52.863  92.551  1.00  0.00    -0.550 OA
ATOM     10  O   UNL     1     -13.139 -52.822  91.195  1.00  0.00    -0.550 OA
ENDBRANCH   7   8
ENDBRANCH   6   7
ENDBRANCH   5   6
ENDBRANCH   4   5
ENDBRANCH   3   4
ENDBRANCH   2   3
ENDBRANCH   1   2
BRANCH   1  11
ATOM     11  C   UNL     1     -14.618 -48.000  93.131  1.00  0.00    -0.031 C 
ATOM     12  C   UNL     1     -13.643 -47.137  92.808  1.00  0.00    -0.027 C 
BRANCH  12  13
ATOM     13  C   UNL     1     -12.195 -47.458  93.058  1.00  0.00     0.054 C 
BRANCH  13  14
ATOM     14  C   UNL     1     -11.691 -46.796  94.316  1.00  0.00    -0.027 C 
ATOM     15  C   UNL     1     -11.637 -47.398  95.518  1.00  0.00    -0.031 C 
BRANCH  15  16
ATOM     16  C   UNL     1     -12.099 -48.816  95.760  1.00  0.00     0.027 C 
BRANCH  16  17
ATOM     17  C   UNL     1     -13.401 -48.874  96.576  1.00  0.00     0.004 C 
BRANCH  17  18
ATOM     18  C   UNL     1     -13.653 -47.618  97.432  1.00  0.00     0.000 C 
BRANCH  18  19
ATOM     19  C   UNL     1     -15.072 -47.057  97.252  1.00  0.00    -0.003 C 
ATOM     20  C   UNL     1     -15.116 -46.027  96.126  1.00  0.00     0.004 C 
ENDBRANCH  18  19
ENDBRANCH  17  18
ENDBRANCH  16  17
ENDBRANCH  15  16
ENDBRANCH  13  14
ENDBRANCH  12  13
ENDBRANCH   1  11
TORSDOF 14
ENDMDL
MODEL 5
REMARK VINA RESULT:    -2.722      2.780      4.501
REMARK INTER + INTRA:          -8.186
REMARK INTER:                  -5.107
REMARK INTRA:                  -3.078
REMARK UNBOUND:                -3.237
REMARK SMILES CCCCCC=CCC=CCCCCCCCC(=O)[O-]
REMARK SMILES IDX 11 1 12 2 13 3 14 4 15 5 16 6 17 7 18 8 19 9 20 10 10 11
REMARK SMILES IDX 9 12 8 13 7 14 6 15 5 16 4 17 3 18 2 19 1 20
REMARK H PARENT
REMARK Flexibility Score: inf
ROOT
ATOM      1  C   UNL     1     -12.351 -49.093  96.008  1.00  0.00     0.027 C 
ENDROOT
BRANCH   1   2
ATOM      2  C   UNL     1     -12.625 -50.147  94.925  1.00  0.00     0.004 C 
BRANCH   2   3
ATOM      3  C   UNL     1     -13.301 -49.537  93.685  1.00  0.00     0.000 C 
BRANCH   3   4
ATOM      4  C   UNL     1     -12.547 -48.315  93.133  1.00  0.00     0.000 C 
BRANCH   4   5
ATOM      5  C   UNL     1     -13.308 -46.977  93.226  1.00  0.00     0.000 C 
BRANCH   5   6
ATOM      6  C   UNL     1     -12.556 -45.851  93.959  1.00  0.00     0.006 C 
BRANCH   6   7
ATOM      7  C   UNL     1     -13.419 -44.599  94.166  1.00  0.00     0.053 C 
BRANCH   7   8
ATOM      8  C   UNL     1     -12.701 -43.382  93.673  1.00  0.00     0.041 C 
ATOM      9  O   UNL     1     -12.923 -42.938  92.515  1.00  0.00    -0.550 OA
ATOM     10  O   UNL     1     -11.805 -42.720  94.503  1.00  0.00    -0.550 OA
ENDBRANCH   7   8
ENDBRANCH   6   7
ENDBRANCH   5   6
ENDBRANCH   4   5
ENDBRANCH   3   4
ENDBRANCH   2   3
ENDBRANCH   1   2
BRANCH   1  11
ATOM     11  C   UNL     1     -13.617 -48.597  96.655  1.00  0.00    -0.031 C 
ATOM     12  C   UNL     1     -13.736 -47.330  97.082  1.00  0.00    -0.027 C 
BRANCH  12  13
ATOM     13  C   UNL     1     -14.999 -46.835  97.729  1.00  0.00     0.054 C 
BRANCH  13  14
ATOM     14  C   UNL     1     -15.725 -45.851  96.846  1.00  0.00    -0.027 C 
ATOM     15  C   UNL     1     -16.733 -46.178  96.017  1.00  0.00    -0.031 C 
BRANCH  15  16
ATOM     16  C   UNL     1     -17.250 -47.589  95.852  1.00  0.00     0.027 C 
BRANCH  16  17
ATOM     17  C   UNL     1     -16.655 -48.287  94.618  1.00  0.00     0.004 C 
BRANCH  17  18
ATOM     18  C   UNL     1     -16.790 -49.821  94.648  1.00  0.00     0.000 C 
BRANCH  18  19
ATOM     19  C   UNL     1     -16.732 -50.390  96.074  1.00  0.00    -0.003 C 
ATOM     20  C   UNL     1     -15.829 -51.618  96.138  1.00  0.00     0.004 C 
ENDBRANCH  18  19
ENDBRANCH  17  18
ENDBRANCH  16  17
ENDBRANCH  15  16
ENDBRANCH  13  14
ENDBRANCH  12  13
ENDBRANCH   1  11
TORSDOF 14
ENDMDL
MODEL 6
REMARK VINA RESULT:    -2.715      1.651      3.256
REMARK INTER + INTRA:          -8.174
REMARK INTER:                  -5.270
REMARK INTRA:                  -2.904
REMARK UNBOUND:                -3.237
REMARK SMILES CCCCCC=CCC=CCCCCCCCC(=O)[O-]
REMARK SMILES IDX 11 1 12 2 13 3 14 4 15 5 16 6 17 7 18 8 19 9 20 10 10 11
REMARK SMILES IDX 9 12 8 13 7 14 6 15 5 16 4 17 3 18 2 19 1 20
REMARK H PARENT
REMARK Flexibility Score: inf
ROOT
ATOM      1  C   UNL     1     -13.705 -46.443  92.967  1.00  0.00     0.027 C 
ENDROOT
BRANCH   1   2
ATOM      2  C   UNL     1     -12.576 -47.266  93.602  1.00  0.00     0.004 C 
BRANCH   2   3
ATOM      3  C   UNL     1     -12.215 -46.760  95.010  1.00  0.00     0.000 C 
BRANCH   3   4
ATOM      4  C   UNL     1     -12.141 -47.890  96.051  1.00  0.00     0.000 C 
BRANCH   4   5
ATOM      5  C   UNL     1     -13.374 -48.021  96.968  1.00  0.00     0.000 C 
BRANCH   5   6
ATOM      6  C   UNL     1     -14.360 -46.840  96.904  1.00  0.00     0.006 C 
BRANCH   6   7
ATOM      7  C   UNL     1     -15.259 -46.750  98.145  1.00  0.00     0.053 C 
BRANCH   7   8
ATOM      8  C   UNL     1     -15.932 -45.415  98.206  1.00  0.00     0.041 C 
ATOM      9  O   UNL     1     -16.151 -44.864  99.319  1.00  0.00    -0.550 OA
ATOM     10  O   UNL     1     -16.294 -44.763  97.034  1.00  0.00    -0.550 OA
ENDBRANCH   7   8
ENDBRANCH   6   7
ENDBRANCH   5   6
ENDBRANCH   4   5
ENDBRANCH   3   4
ENDBRANCH   2   3
ENDBRANCH   1   2
BRANCH   1  11
ATOM     11  C   UNL     1     -15.067 -46.895  93.421  1.00  0.00    -0.031 C 
ATOM     12  C   UNL     1     -15.506 -48.142  93.187  1.00  0.00    -0.027 C 
BRANCH  12  13
ATOM     13  C   UNL     1     -16.867 -48.593  93.639  1.00  0.00     0.054 C 
BRANCH  13  14
ATOM     14  C   UNL     1     -17.028 -48.457  95.133  1.00  0.00    -0.027 C 
ATOM     15  C   UNL     1     -16.936 -49.481  96.000  1.00  0.00    -0.031 C 
BRANCH  15  16
ATOM     16  C   UNL     1     -16.681 -50.910  95.578  1.00  0.00     0.027 C 
BRANCH  16  17
ATOM     17  C   UNL     1     -15.311 -51.421  96.052  1.00  0.00     0.004 C 
BRANCH  17  18
ATOM     18  C   UNL     1     -14.126 -50.875  95.233  1.00  0.00     0.000 C 
BRANCH  18  19
ATOM     19  C   UNL     1     -14.153 -51.347  93.772  1.00  0.00    -0.003 C 
ATOM     20  C   UNL     1     -12.908 -50.883  93.022  1.00  0.00     0.004 C 
ENDBRANCH  18  19
ENDBRANCH  17  18
ENDBRANCH  16  17
ENDBRANCH  15  16
ENDBRANCH  13  14
ENDBRANCH  12  13
ENDBRANCH   1  11
TORSDOF 14
ENDMDL
MODEL 7
REMARK VINA RESULT:    -2.700      2.050      3.833
REMARK INTER + INTRA:          -8.147
REMARK INTER:                  -5.489
REMARK INTRA:                  -2.658
REMARK UNBOUND:                -3.237
REMARK SMILES CCCCCC=CCC=CCCCCCCCC(=O)[O-]
REMARK SMILES IDX 11 1 12 2 13 3 14 4 15 5 16 6 17 7 18 8 19 9 20 10 10 11
REMARK SMILES IDX 9 12 8 13 7 14 6 15 5 16 4 17 3 18 2 19 1 20
REMARK H PARENT
REMARK Flexibility Score: inf
ROOT
ATOM      1  C   UNL     1     -11.556 -45.677  94.849  1.00  0.00     0.027 C 
ENDROOT
BRANCH   1   2
ATOM      2  C   UNL     1     -12.490 -44.999  93.836  1.00  0.00     0.004 C 
BRANCH   2   3
ATOM      3  C   UNL     1     -13.425 -46.009  93.148  1.00  0.00     0.000 C 
BRANCH   3   4
ATOM      4  C   UNL     1     -14.888 -45.876  93.605  1.00  0.00     0.000 C 
BRANCH   4   5
ATOM      5  C   UNL     1     -15.275 -46.734  94.827  1.00  0.00     0.000 C 
BRANCH   5   6
ATOM      6  C   UNL     1     -15.152 -46.023  96.187  1.00  0.00     0.006 C 
BRANCH   6   7
ATOM      7  C   UNL     1     -15.117 -47.002  97.367  1.00  0.00     0.053 C 
BRANCH   7   8
ATOM      8  C   UNL     1     -15.960 -46.493  98.494  1.00  0.00     0.041 C 
ATOM      9  O   UNL     1     -15.618 -45.458  99.126  1.00  0.00    -0.550 OA
ATOM     10  O   UNL     1     -17.139 -47.146  98.830  1.00  0.00    -0.550 OA
ENDBRANCH   7   8
ENDBRANCH   6   7
ENDBRANCH   5   6
ENDBRANCH   4   5
ENDBRANCH   3   4
ENDBRANCH   2   3
ENDBRANCH   1   2
BRANCH   1  11
ATOM     11  C   UNL     1     -11.774 -47.165  94.920  1.00  0.00    -0.031 C 
ATOM     12  C   UNL     1     -11.608 -47.844  96.065  1.00  0.00    -0.027 C 
BRANCH  12  13
ATOM     13  C   UNL     1     -11.824 -49.330  96.136  1.00  0.00     0.054 C 
BRANCH  13  14
ATOM     14  C   UNL     1     -12.547 -49.843  94.915  1.00  0.00    -0.027 C 
ATOM     15  C   UNL     1     -13.796 -50.341  94.930  1.00  0.00    -0.031 C 
BRANCH  15  16
ATOM     16  C   UNL     1     -14.627 -50.469  96.186  1.00  0.00     0.027 C 
BRANCH  16  17
ATOM     17  C   UNL     1     -15.510 -51.728  96.175  1.00  0.00     0.004 C 
BRANCH  17  18
ATOM     18  C   UNL     1     -17.005 -51.436  95.950  1.00  0.00     0.000 C 
BRANCH  18  19
ATOM     19  C   UNL     1     -17.438 -50.087  96.544  1.00  0.00    -0.003 C 
ATOM     20  C   UNL     1     -18.038 -49.182  95.472  1.00  0.00     0.004 C 
ENDBRANCH  18  19
ENDBRANCH  17  18
ENDBRANCH  16  17
ENDBRANCH  15  16
ENDBRANCH  13  14
ENDBRANCH  12  13
ENDBRANCH   1  11
TORSDOF 14
ENDMDL
MODEL 8
REMARK VINA RESULT:    -2.682      1.852      4.261
REMARK INTER + INTRA:          -8.114
REMARK INTER:                  -5.146
REMARK INTRA:                  -2.967
REMARK UNBOUND:                -3.237
REMARK SMILES CCCCCC=CCC=CCCCCCCCC(=O)[O-]
REMARK SMILES IDX 11 1 12 2 13 3 14 4 15 5 16 6 17 7 18 8 19 9 20 10 10 11
REMARK SMILES IDX 9 12 8 13 7 14 6 15 5 16 4 17 3 18 2 19 1 20
REMARK H PARENT
REMARK Flexibility Score: inf
ROOT
ATOM      1  C   UNL     1     -14.028 -51.038  94.641  1.00  0.00     0.027 C 
ENDROOT
BRANCH   1   2
ATOM      2  C   UNL     1     -15.554 -51.201  94.650  1.00  0.00     0.004 C 
BRANCH   2   3
ATOM      3  C   UNL     1     -16.167 -50.816  96.008  1.00  0.00     0.000 C 
BRANCH   3   4
ATOM      4  C   UNL     1     -17.445 -49.971  95.868  1.00  0.00     0.000 C 
BRANCH   4   5
ATOM      5  C   UNL     1     -17.423 -48.619  96.608  1.00  0.00     0.000 C 
BRANCH   5   6
ATOM      6  C   UNL     1     -16.311 -47.652  96.163  1.00  0.00     0.006 C 
BRANCH   6   7
ATOM      7  C   UNL     1     -15.365 -47.266  97.309  1.00  0.00     0.053 C 
BRANCH   7   8
ATOM      8  C   UNL     1     -15.700 -45.904  97.827  1.00  0.00     0.041 C 
ATOM      9  O   UNL     1     -15.630 -45.658  99.061  1.00  0.00    -0.550 OA
ATOM     10  O   UNL     1     -16.065 -44.894  96.945  1.00  0.00    -0.550 OA
ENDBRANCH   7   8
ENDBRANCH   6   7
ENDBRANCH   5   6
ENDBRANCH   4   5
ENDBRANCH   3   4
ENDBRANCH   2   3
ENDBRANCH   1   2
BRANCH   1  11
ATOM     11  C   UNL     1     -13.570 -49.899  95.512  1.00  0.00    -0.031 C 
ATOM     12  C   UNL     1     -12.308 -49.445  95.467  1.00  0.00    -0.027 C 
BRANCH  12  13
ATOM     13  C   UNL     1     -11.850 -48.308  96.338  1.00  0.00     0.054 C 
BRANCH  13  14
ATOM     14  C   UNL     1     -11.057 -47.293  95.553  1.00  0.00    -0.027 C 
ATOM     15  C   UNL     1     -11.605 -46.292  94.840  1.00  0.00    -0.031 C 
BRANCH  15  16
ATOM     16  C   UNL     1     -13.096 -46.074  94.721  1.00  0.00     0.027 C 
BRANCH  16  17
ATOM     17  C   UNL     1     -13.595 -46.231  93.275  1.00  0.00     0.004 C 
BRANCH  17  18
ATOM     18  C   UNL     1     -14.454 -47.489  93.048  1.00  0.00     0.000 C 
BRANCH  18  19
ATOM     19  C   UNL     1     -13.898 -48.388  91.933  1.00  0.00    -0.003 C 
ATOM     20  C   UNL     1     -12.375 -48.465  91.998  1.00  0.00     0.004 C 
ENDBRANCH  18  19
ENDBRANCH  17  18
ENDBRANCH  16  17
ENDBRANCH  15  16
ENDBRANCH  13  14
ENDBRANCH  12  13
ENDBRANCH   1  11
TORSDOF 14
ENDMDL
MODEL 9
REMARK VINA RESULT:    -2.653      2.611      4.373
REMARK INTER + INTRA:          -8.061
REMARK INTER:                  -5.176
REMARK INTRA:                  -2.885
REMARK UNBOUND:                -3.237
REMARK SMILES CCCCCC=CCC=CCCCCCCCC(=O)[O-]
REMARK SMILES IDX 11 1 12 2 13 3 14 4 15 5 16 6 17 7 18 8 19 9 20 10 10 11
REMARK SMILES IDX 9 12 8 13 7 14 6 15 5 16 4 17 3 18 2 19 1 20
REMARK H PARENT
REMARK Flexibility Score: inf
ROOT
ATOM      1  C   UNL     1     -15.279 -46.770  97.666  1.00  0.00     0.027 C 
ENDROOT
BRANCH   1   2
ATOM      2  C   UNL     1     -16.556 -47.047  96.859  1.00  0.00     0.004 C 
BRANCH   2   3
ATOM      3  C   UNL     1     -16.691 -46.104  95.651  1.00  0.00     0.000 C 
BRANCH   3   4
ATOM      4  C   UNL     1     -16.709 -46.852  94.307  1.00  0.00     0.000 C 
BRANCH   4   5
ATOM      5  C   UNL     1     -15.412 -46.750  93.481  1.00  0.00     0.000 C 
BRANCH   5   6
ATOM      6  C   UNL     1     -14.587 -45.473  93.719  1.00  0.00     0.006 C 
BRANCH   6   7
ATOM      7  C   UNL     1     -13.947 -44.931  92.434  1.00  0.00     0.053 C 
BRANCH   7   8
ATOM      8  C   UNL     1     -12.456 -45.028  92.511  1.00  0.00     0.041 C 
ATOM      9  O   UNL     1     -11.855 -46.008  91.996  1.00  0.00    -0.550 OA
ATOM     10  O   UNL     1     -11.724 -44.022  93.129  1.00  0.00    -0.550 OA
ENDBRANCH   7   8
ENDBRANCH   6   7
ENDBRANCH   5   6
ENDBRANCH   4   5
ENDBRANCH   3   4
ENDBRANCH   2   3
ENDBRANCH   1   2
BRANCH   1  11
ATOM     11  C   UNL     1     -14.031 -47.108  96.895  1.00  0.00    -0.031 C 
ATOM     12  C   UNL     1     -13.332 -48.225  97.148  1.00  0.00    -0.027 C 
BRANCH  12  13
ATOM     13  C   UNL     1     -12.085 -48.562  96.379  1.00  0.00     0.054 C 
BRANCH  13  14
ATOM     14  C   UNL     1     -12.162 -48.070  94.955  1.00  0.00    -0.027 C 
ATOM     15  C   UNL     1     -12.530 -48.834  93.910  1.00  0.00    -0.031 C 
BRANCH  15  16
ATOM     16  C   UNL     1     -12.891 -50.296  94.033  1.00  0.00     0.027 C 
BRANCH  16  17
ATOM     17  C   UNL     1     -14.372 -50.559  93.714  1.00  0.00     0.004 C 
BRANCH  17  18
ATOM     18  C   UNL     1     -15.319 -50.300  94.902  1.00  0.00     0.000 C 
BRANCH  18  19
ATOM     19  C   UNL     1     -15.020 -51.210  96.103  1.00  0.00    -0.003 C 
ATOM     20  C   UNL     1     -16.255 -52.011  96.505  1.00  0.00     0.004 C 
ENDBRANCH  18  19
ENDBRANCH  17  18
ENDBRANCH  16  17
ENDBRANCH  15  16
ENDBRANCH  13  14
ENDBRANCH  12  13
ENDBRANCH   1  11
TORSDOF 14
ENDMDL
