MODEL 1
REMARK VINA RESULT:    -5.054      0.000      0.000
REMARK INTER + INTRA:         -10.733
REMARK INTER:                  -9.485
REMARK INTRA:                  -1.247
REMARK UNBOUND:                -1.247
REMARK SMILES CCCCCCCCC=CCCCCCCCC(=O)[O-]
REMARK SMILES IDX 10 1 9 2 11 3 12 4 13 5 14 6 15 7 16 8 17 9 18 10 19 11
REMARK SMILES IDX 20 12 8 13 7 14 6 15 5 16 4 17 3 18 2 19 1 20
REMARK H PARENT
REMARK Flexibility Score: inf
ROOT
ATOM      1  C   UNL     1      -1.880  -8.277   2.679  1.00  0.00    -0.031 C 
ATOM      2  C   UNL     1      -1.841  -7.616   1.507  1.00  0.00    -0.031 C 
ENDROOT
BRANCH   1   3
ATOM      3  C   UNL     1      -3.127  -8.536   3.489  1.00  0.00     0.027 C 
BRANCH   3   4
ATOM      4  C   UNL     1      -2.799  -9.057   4.897  1.00  0.00     0.004 C 
BRANCH   4   5
ATOM      5  C   UNL     1      -1.293  -9.029   5.228  1.00  0.00     0.000 C 
BRANCH   5   6
ATOM      6  C   UNL     1      -0.968  -8.116   6.423  1.00  0.00     0.000 C 
BRANCH   6   7
ATOM      7  C   UNL     1       0.211  -7.171   6.143  1.00  0.00     0.000 C 
BRANCH   7   8
ATOM      8  C   UNL     1       0.944  -6.740   7.425  1.00  0.00     0.006 C 
BRANCH   8   9
ATOM      9  C   UNL     1       1.240  -5.234   7.446  1.00  0.00     0.053 C 
BRANCH   9  10
ATOM     10  C   UNL     1       2.711  -4.954   7.523  1.00  0.00     0.041 C 
ATOM     11  O   UNL     1       3.536  -5.745   6.995  1.00  0.00    -0.550 OA
ATOM     12  O   UNL     1       3.168  -3.809   8.164  1.00  0.00    -0.550 OA
ENDBRANCH   9  10
ENDBRANCH   8   9
ENDBRANCH   7   8
ENDBRANCH   6   7
ENDBRANCH   5   6
ENDBRANCH   4   5
ENDBRANCH   3   4
ENDBRANCH   1   3
BRANCH   2  13
ATOM     13  C   UNL     1      -3.034  -6.997   0.821  1.00  0.00     0.027 C 
BRANCH  13  14
ATOM     14  C   UNL     1      -2.813  -6.798  -0.691  1.00  0.00     0.004 C 
BRANCH  14  15
ATOM     15  C   UNL     1      -2.588  -5.332  -1.101  1.00  0.00     0.000 C 
BRANCH  15  16
ATOM     16  C   UNL     1      -1.142  -5.049  -1.542  1.00  0.00     0.000 C 
BRANCH  16  17
ATOM     17  C   UNL     1      -0.238  -4.671  -0.354  1.00  0.00    -0.000 C 
BRANCH  17  18
ATOM     18  C   UNL     1      -0.988  -3.919   0.768  1.00  0.00    -0.000 C 
BRANCH  18  19
ATOM     19  C   UNL     1      -0.090  -2.963   1.570  1.00  0.00    -0.003 C 
ATOM     20  C   UNL     1      -0.539  -1.505   1.480  1.00  0.00     0.004 C 
ENDBRANCH  18  19
ENDBRANCH  17  18
ENDBRANCH  16  17
ENDBRANCH  15  16
ENDBRANCH  14  15
ENDBRANCH  13  14
ENDBRANCH   2  13
TORSDOF 15
ENDMDL
MODEL 2
REMARK VINA RESULT:    -4.944      2.398      3.441
REMARK INTER + INTRA:         -10.527
REMARK INTER:                  -9.375
REMARK INTRA:                  -1.151
REMARK UNBOUND:                -1.247
REMARK SMILES CCCCCCCCC=CCCCCCCCC(=O)[O-]
REMARK SMILES IDX 10 1 9 2 11 3 12 4 13 5 14 6 15 7 16 8 17 9 18 10 19 11
REMARK SMILES IDX 20 12 8 13 7 14 6 15 5 16 4 17 3 18 2 19 1 20
REMARK H PARENT
REMARK Flexibility Score: inf
ROOT
ATOM      1  C   UNL     1      -2.685  -8.085   1.105  1.00  0.00    -0.031 C 
ATOM      2  C   UNL     1      -3.056  -7.092   0.275  1.00  0.00    -0.031 C 
ENDROOT
BRANCH   1   3
ATOM      3  C   UNL     1      -1.749  -7.932   2.279  1.00  0.00     0.027 C 
BRANCH   3   4
ATOM      4  C   UNL     1      -2.275  -8.652   3.530  1.00  0.00     0.004 C 
BRANCH   4   5
ATOM      5  C   UNL     1      -3.729  -8.283   3.887  1.00  0.00     0.000 C 
BRANCH   5   6
ATOM      6  C   UNL     1      -4.134  -8.764   5.291  1.00  0.00     0.000 C 
BRANCH   6   7
ATOM      7  C   UNL     1      -4.028  -7.655   6.350  1.00  0.00     0.000 C 
BRANCH   7   8
ATOM      8  C   UNL     1      -3.256  -8.103   7.603  1.00  0.00     0.006 C 
BRANCH   8   9
ATOM      9  C   UNL     1      -2.117  -9.076   7.267  1.00  0.00     0.053 C 
BRANCH   9  10
ATOM     10  C   UNL     1      -0.775  -8.412   7.337  1.00  0.00     0.041 C 
ATOM     11  O   UNL     1      -0.153  -8.355   8.430  1.00  0.00    -0.550 OA
ATOM     12  O   UNL     1      -0.205  -7.874   6.190  1.00  0.00    -0.550 OA
ENDBRANCH   9  10
ENDBRANCH   8   9
ENDBRANCH   7   8
ENDBRANCH   6   7
ENDBRANCH   5   6
ENDBRANCH   4   5
ENDBRANCH   3   4
ENDBRANCH   1   3
BRANCH   2  13
ATOM     13  C   UNL     1      -2.573  -5.665   0.361  1.00  0.00     0.027 C 
BRANCH  13  14
ATOM     14  C   UNL     1      -1.187  -5.468  -0.284  1.00  0.00     0.004 C 
BRANCH  14  15
ATOM     15  C   UNL     1      -0.570  -4.082  -0.025  1.00  0.00     0.000 C 
BRANCH  15  16
ATOM     16  C   UNL     1      -0.607  -3.680   1.460  1.00  0.00     0.000 C 
BRANCH  16  17
ATOM     17  C   UNL     1       0.034  -2.301   1.701  1.00  0.00    -0.000 C 
BRANCH  17  18
ATOM     18  C   UNL     1      -0.754  -1.140   1.054  1.00  0.00    -0.000 C 
BRANCH  18  19
ATOM     19  C   UNL     1       0.140   0.025   0.596  1.00  0.00    -0.003 C 
ATOM     20  C   UNL     1      -0.364   0.698  -0.679  1.00  0.00     0.004 C 
ENDBRANCH  18  19
ENDBRANCH  17  18
ENDBRANCH  16  17
ENDBRANCH  15  16
ENDBRANCH  14  15
ENDBRANCH  13  14
ENDBRANCH   2  13
TORSDOF 15
ENDMDL
MODEL 3
REMARK VINA RESULT:    -4.905      5.620      7.721
REMARK INTER + INTRA:         -10.454
REMARK INTER:                  -8.769
REMARK INTRA:                  -1.685
REMARK UNBOUND:                -1.247
REMARK SMILES CCCCCCCCC=CCCCCCCCC(=O)[O-]
REMARK SMILES IDX 10 1 9 2 11 3 12 4 13 5 14 6 15 7 16 8 17 9 18 10 19 11
REMARK SMILES IDX 20 12 8 13 7 14 6 15 5 16 4 17 3 18 2 19 1 20
REMARK H PARENT
REMARK Flexibility Score: inf
ROOT
ATOM      1  C   UNL     1      -2.263  -8.233   1.575  1.00  0.00    -0.031 C 
ATOM      2  C   UNL     1      -1.525  -7.114   1.449  1.00  0.00    -0.031 C 
ENDROOT
BRANCH   1   3
ATOM      3  C   UNL     1      -3.629  -8.445   0.970  1.00  0.00     0.027 C 
BRANCH   3   4
ATOM      4  C   UNL     1      -3.736  -9.802   0.256  1.00  0.00     0.004 C 
BRANCH   4   5
ATOM      5  C   UNL     1      -2.855  -9.906  -1.005  1.00  0.00     0.000 C 
BRANCH   5   6
ATOM      6  C   UNL     1      -3.571  -9.404  -2.270  1.00  0.00     0.000 C 
BRANCH   6   7
ATOM      7  C   UNL     1      -2.984  -8.086  -2.800  1.00  0.00     0.000 C 
BRANCH   7   8
ATOM      8  C   UNL     1      -3.828  -6.861  -2.410  1.00  0.00     0.006 C 
BRANCH   8   9
ATOM      9  C   UNL     1      -3.454  -5.615  -3.226  1.00  0.00     0.053 C 
BRANCH   9  10
ATOM     10  C   UNL     1      -3.448  -5.893  -4.699  1.00  0.00     0.041 C 
ATOM     11  O   UNL     1      -2.365  -5.891  -5.340  1.00  0.00    -0.550 OA
ATOM     12  O   UNL     1      -4.638  -6.173  -5.358  1.00  0.00    -0.550 OA
ENDBRANCH   9  10
ENDBRANCH   8   9
ENDBRANCH   7   8
ENDBRANCH   6   7
ENDBRANCH   5   6
ENDBRANCH   4   5
ENDBRANCH   3   4
ENDBRANCH   1   3
BRANCH   2  13
ATOM     13  C   UNL     1      -1.954  -5.872   0.708  1.00  0.00     0.027 C 
BRANCH  13  14
ATOM     14  C   UNL     1      -0.943  -5.447  -0.375  1.00  0.00     0.004 C 
BRANCH  14  15
ATOM     15  C   UNL     1      -0.301  -4.072  -0.123  1.00  0.00     0.000 C 
BRANCH  15  16
ATOM     16  C   UNL     1      -0.788  -3.414   1.180  1.00  0.00     0.000 C 
BRANCH  16  17
ATOM     17  C   UNL     1       0.201  -2.352   1.696  1.00  0.00    -0.000 C 
BRANCH  17  18
ATOM     18  C   UNL     1      -0.303  -0.905   1.503  1.00  0.00    -0.000 C 
BRANCH  18  19
ATOM     19  C   UNL     1      -0.341  -0.461   0.031  1.00  0.00    -0.003 C 
ATOM     20  C   UNL     1       0.023   1.011  -0.158  1.00  0.00     0.004 C 
ENDBRANCH  18  19
ENDBRANCH  17  18
ENDBRANCH  16  17
ENDBRANCH  15  16
ENDBRANCH  14  15
ENDBRANCH  13  14
ENDBRANCH   2  13
TORSDOF 15
ENDMDL
MODEL 4
REMARK VINA RESULT:    -4.890      1.430      2.515
REMARK INTER + INTRA:         -10.425
REMARK INTER:                  -9.213
REMARK INTRA:                  -1.212
REMARK UNBOUND:                -1.247
REMARK SMILES CCCCCCCCC=CCCCCCCCC(=O)[O-]
REMARK SMILES IDX 10 1 9 2 11 3 12 4 13 5 14 6 15 7 16 8 17 9 18 10 19 11
REMARK SMILES IDX 20 12 8 13 7 14 6 15 5 16 4 17 3 18 2 19 1 20
REMARK H PARENT
REMARK Flexibility Score: inf
ROOT
ATOM      1  C   UNL     1      -5.283  -8.701   4.583  1.00  0.00    -0.031 C 
ATOM      2  C   UNL     1      -5.653  -8.311   3.348  1.00  0.00    -0.031 C 
ENDROOT
BRANCH   1   3
ATOM      3  C   UNL     1      -3.882  -8.611   5.137  1.00  0.00     0.027 C 
BRANCH   3   4
ATOM      4  C   UNL     1      -3.808  -7.680   6.358  1.00  0.00     0.004 C 
BRANCH   4   5
ATOM      5  C   UNL     1      -2.534  -7.875   7.205  1.00  0.00     0.000 C 
BRANCH   5   6
ATOM      6  C   UNL     1      -1.267  -8.017   6.343  1.00  0.00     0.000 C 
BRANCH   6   7
ATOM      7  C   UNL     1       0.020  -7.723   7.129  1.00  0.00     0.000 C 
BRANCH   7   8
ATOM      8  C   UNL     1       0.881  -6.631   6.472  1.00  0.00     0.006 C 
BRANCH   8   9
ATOM      9  C   UNL     1       1.246  -5.510   7.455  1.00  0.00     0.053 C 
BRANCH   9  10
ATOM     10  C   UNL     1       2.712  -5.199   7.429  1.00  0.00     0.041 C 
ATOM     11  O   UNL     1       3.541  -6.078   7.077  1.00  0.00    -0.550 OA
ATOM     12  O   UNL     1       3.159  -3.930   7.774  1.00  0.00    -0.550 OA
ENDBRANCH   9  10
ENDBRANCH   8   9
ENDBRANCH   7   8
ENDBRANCH   6   7
ENDBRANCH   5   6
ENDBRANCH   4   5
ENDBRANCH   3   4
ENDBRANCH   1   3
BRANCH   2  13
ATOM     13  C   UNL     1      -4.724  -7.749   2.302  1.00  0.00     0.027 C 
BRANCH  13  14
ATOM     14  C   UNL     1      -3.971  -8.846   1.524  1.00  0.00     0.004 C 
BRANCH  14  15
ATOM     15  C   UNL     1      -2.464  -8.906   1.831  1.00  0.00     0.000 C 
BRANCH  15  16
ATOM     16  C   UNL     1      -1.801  -7.517   1.847  1.00  0.00     0.000 C 
BRANCH  16  17
ATOM     17  C   UNL     1      -1.703  -6.907   0.437  1.00  0.00    -0.000 C 
BRANCH  17  18
ATOM     18  C   UNL     1      -1.980  -5.387   0.409  1.00  0.00    -0.000 C 
BRANCH  18  19
ATOM     19  C   UNL     1      -0.710  -4.537   0.243  1.00  0.00    -0.003 C 
ATOM     20  C   UNL     1      -0.591  -3.431   1.290  1.00  0.00     0.004 C 
ENDBRANCH  18  19
ENDBRANCH  17  18
ENDBRANCH  16  17
ENDBRANCH  15  16
ENDBRANCH  14  15
ENDBRANCH  13  14
ENDBRANCH   2  13
TORSDOF 15
ENDMDL
MODEL 5
REMARK VINA RESULT:    -4.682      4.818      8.965
REMARK INTER + INTRA:         -10.035
REMARK INTER:                  -8.454
REMARK INTRA:                  -1.580
REMARK UNBOUND:                -1.247
REMARK SMILES CCCCCCCCC=CCCCCCCCC(=O)[O-]
REMARK SMILES IDX 10 1 9 2 11 3 12 4 13 5 14 6 15 7 16 8 17 9 18 10 19 11
REMARK SMILES IDX 20 12 8 13 7 14 6 15 5 16 4 17 3 18 2 19 1 20
REMARK H PARENT
REMARK Flexibility Score: inf
ROOT
ATOM      1  C   UNL     1      -2.513  -5.949   0.257  1.00  0.00    -0.031 C 
ATOM      2  C   UNL     1      -2.682  -7.160   0.821  1.00  0.00    -0.031 C 
ENDROOT
BRANCH   1   3
ATOM      3  C   UNL     1      -1.368  -5.009   0.547  1.00  0.00     0.027 C 
BRANCH   3   4
ATOM      4  C   UNL     1      -0.416  -4.878  -0.653  1.00  0.00     0.004 C 
BRANCH   4   5
ATOM      5  C   UNL     1      -1.088  -4.293  -1.911  1.00  0.00     0.000 C 
BRANCH   5   6
ATOM      6  C   UNL     1      -0.764  -5.098  -3.182  1.00  0.00     0.000 C 
BRANCH   6   7
ATOM      7  C   UNL     1      -0.611  -6.602  -2.908  1.00  0.00     0.000 C 
BRANCH   7   8
ATOM      8  C   UNL     1      -1.919  -7.381  -3.127  1.00  0.00     0.006 C 
BRANCH   8   9
ATOM      9  C   UNL     1      -2.519  -7.130  -4.517  1.00  0.00     0.053 C 
BRANCH   9  10
ATOM     10  C   UNL     1      -3.963  -6.734  -4.440  1.00  0.00     0.041 C 
ATOM     11  O   UNL     1      -4.496  -6.094  -5.383  1.00  0.00    -0.550 OA
ATOM     12  O   UNL     1      -4.722  -7.090  -3.333  1.00  0.00    -0.550 OA
ENDBRANCH   9  10
ENDBRANCH   8   9
ENDBRANCH   7   8
ENDBRANCH   6   7
ENDBRANCH   5   6
ENDBRANCH   4   5
ENDBRANCH   3   4
ENDBRANCH   1   3
BRANCH   2  13
ATOM     13  C   UNL     1      -1.773  -7.767   1.860  1.00  0.00     0.027 C 
BRANCH  13  14
ATOM     14  C   UNL     1      -2.544  -8.323   3.073  1.00  0.00     0.004 C 
BRANCH  14  15
ATOM     15  C   UNL     1      -2.118  -9.742   3.487  1.00  0.00     0.000 C 
BRANCH  15  16
ATOM     16  C   UNL     1      -1.557  -9.805   4.918  1.00  0.00     0.000 C 
BRANCH  16  17
ATOM     17  C   UNL     1      -0.846  -8.500   5.319  1.00  0.00    -0.000 C 
BRANCH  17  18
ATOM     18  C   UNL     1      -1.357  -7.912   6.654  1.00  0.00    -0.000 C 
BRANCH  18  19
ATOM     19  C   UNL     1      -2.756  -8.416   7.048  1.00  0.00    -0.003 C 
ATOM     20  C   UNL     1      -3.858  -7.396   6.770  1.00  0.00     0.004 C 
ENDBRANCH  18  19
ENDBRANCH  17  18
ENDBRANCH  16  17
ENDBRANCH  15  16
ENDBRANCH  14  15
ENDBRANCH  13  14
ENDBRANCH   2  13
TORSDOF 15
ENDMDL
MODEL 6
REMARK VINA RESULT:    -4.624      4.841      7.351
REMARK INTER + INTRA:          -9.927
REMARK INTER:                  -7.155
REMARK INTRA:                  -2.772
REMARK UNBOUND:                -1.247
REMARK SMILES CCCCCCCCC=CCCCCCCCC(=O)[O-]
REMARK SMILES IDX 10 1 9 2 11 3 12 4 13 5 14 6 15 7 16 8 17 9 18 10 19 11
REMARK SMILES IDX 20 12 8 13 7 14 6 15 5 16 4 17 3 18 2 19 1 20
REMARK H PARENT
REMARK Flexibility Score: inf
ROOT
ATOM      1  C   UNL     1      -3.470  -4.337  -3.207  1.00  0.00    -0.031 C 
ATOM      2  C   UNL     1      -3.412  -4.544  -4.536  1.00  0.00    -0.031 C 
ENDROOT
BRANCH   1   3
ATOM      3  C   UNL     1      -2.684  -5.107  -2.173  1.00  0.00     0.027 C 
BRANCH   3   4
ATOM      4  C   UNL     1      -1.294  -4.495  -1.937  1.00  0.00     0.004 C 
BRANCH   4   5
ATOM      5  C   UNL     1      -0.550  -5.105  -0.732  1.00  0.00     0.000 C 
BRANCH   5   6
ATOM      6  C   UNL     1      -1.456  -5.267   0.501  1.00  0.00     0.000 C 
BRANCH   6   7
ATOM      7  C   UNL     1      -1.328  -6.653   1.151  1.00  0.00     0.000 C 
BRANCH   7   8
ATOM      8  C   UNL     1      -2.404  -7.639   0.664  1.00  0.00     0.006 C 
BRANCH   8   9
ATOM      9  C   UNL     1      -3.825  -7.089   0.856  1.00  0.00     0.053 C 
BRANCH   9  10
ATOM     10  C   UNL     1      -4.516  -7.723   2.025  1.00  0.00     0.041 C 
ATOM     11  O   UNL     1      -3.885  -8.495   2.793  1.00  0.00    -0.550 OA
ATOM     12  O   UNL     1      -5.854  -7.446   2.275  1.00  0.00    -0.550 OA
ENDBRANCH   9  10
ENDBRANCH   8   9
ENDBRANCH   7   8
ENDBRANCH   6   7
ENDBRANCH   5   6
ENDBRANCH   4   5
ENDBRANCH   3   4
ENDBRANCH   1   3
BRANCH   2  13
ATOM     13  C   UNL     1      -2.576  -5.602  -5.213  1.00  0.00     0.027 C 
BRANCH  13  14
ATOM     14  C   UNL     1      -1.199  -5.074  -5.662  1.00  0.00     0.004 C 
BRANCH  14  15
ATOM     15  C   UNL     1      -0.029  -6.014  -5.323  1.00  0.00     0.000 C 
BRANCH  15  16
ATOM     16  C   UNL     1      -0.346  -7.491  -5.616  1.00  0.00     0.000 C 
BRANCH  16  17
ATOM     17  C   UNL     1       0.031  -8.408  -4.437  1.00  0.00    -0.000 C 
BRANCH  17  18
ATOM     18  C   UNL     1      -0.632  -7.992  -3.105  1.00  0.00    -0.000 C 
BRANCH  18  19
ATOM     19  C   UNL     1      -1.731  -8.962  -2.639  1.00  0.00    -0.003 C 
ATOM     20  C   UNL     1      -3.123  -8.566  -3.130  1.00  0.00     0.004 C 
ENDBRANCH  18  19
ENDBRANCH  17  18
ENDBRANCH  16  17
ENDBRANCH  15  16
ENDBRANCH  14  15
ENDBRANCH  13  14
ENDBRANCH   2  13
TORSDOF 15
ENDMDL
MODEL 7
REMARK VINA RESULT:    -4.598      2.548      4.404
REMARK INTER + INTRA:          -9.878
REMARK INTER:                  -8.375
REMARK INTRA:                  -1.503
REMARK UNBOUND:                -1.247
REMARK SMILES CCCCCCCCC=CCCCCCCCC(=O)[O-]
REMARK SMILES IDX 10 1 9 2 11 3 12 4 13 5 14 6 15 7 16 8 17 9 18 10 19 11
REMARK SMILES IDX 20 12 8 13 7 14 6 15 5 16 4 17 3 18 2 19 1 20
REMARK H PARENT
REMARK Flexibility Score: inf
ROOT
ATOM      1  C   UNL     1      -2.522  -7.318   0.855  1.00  0.00    -0.031 C 
ATOM      2  C   UNL     1      -2.433  -6.132   0.224  1.00  0.00    -0.031 C 
ENDROOT
BRANCH   1   3
ATOM      3  C   UNL     1      -1.716  -7.719   2.067  1.00  0.00     0.027 C 
BRANCH   3   4
ATOM      4  C   UNL     1      -2.502  -8.663   2.991  1.00  0.00     0.004 C 
BRANCH   4   5
ATOM      5  C   UNL     1      -4.031  -8.547   2.834  1.00  0.00     0.000 C 
BRANCH   5   6
ATOM      6  C   UNL     1      -4.737  -8.202   4.156  1.00  0.00     0.000 C 
BRANCH   6   7
ATOM      7  C   UNL     1      -4.042  -8.822   5.378  1.00  0.00     0.000 C 
BRANCH   7   8
ATOM      8  C   UNL     1      -3.528  -7.764   6.369  1.00  0.00     0.006 C 
BRANCH   8   9
ATOM      9  C   UNL     1      -2.456  -8.326   7.313  1.00  0.00     0.053 C 
BRANCH   9  10
ATOM     10  C   UNL     1      -1.103  -8.354   6.668  1.00  0.00     0.041 C 
ATOM     11  O   UNL     1      -0.736  -9.361   6.007  1.00  0.00    -0.550 OA
ATOM     12  O   UNL     1      -0.255  -7.259   6.783  1.00  0.00    -0.550 OA
ENDBRANCH   9  10
ENDBRANCH   8   9
ENDBRANCH   7   8
ENDBRANCH   6   7
ENDBRANCH   5   6
ENDBRANCH   4   5
ENDBRANCH   3   4
ENDBRANCH   1   3
BRANCH   2  13
ATOM     13  C   UNL     1      -1.490  -5.017   0.603  1.00  0.00     0.027 C 
BRANCH  13  14
ATOM     14  C   UNL     1      -0.154  -5.083  -0.161  1.00  0.00     0.004 C 
BRANCH  14  15
ATOM     15  C   UNL     1      -0.296  -5.519  -1.630  1.00  0.00     0.000 C 
BRANCH  15  16
ATOM     16  C   UNL     1      -0.715  -4.365  -2.558  1.00  0.00     0.000 C 
BRANCH  16  17
ATOM     17  C   UNL     1      -1.705  -4.826  -3.643  1.00  0.00    -0.000 C 
BRANCH  17  18
ATOM     18  C   UNL     1      -3.180  -4.770  -3.187  1.00  0.00    -0.000 C 
BRANCH  18  19
ATOM     19  C   UNL     1      -3.963  -6.058  -3.492  1.00  0.00    -0.003 C 
ATOM     20  C   UNL     1      -4.230  -6.254  -4.984  1.00  0.00     0.004 C 
ENDBRANCH  18  19
ENDBRANCH  17  18
ENDBRANCH  16  17
ENDBRANCH  15  16
ENDBRANCH  14  15
ENDBRANCH  13  14
ENDBRANCH   2  13
TORSDOF 15
ENDMDL
MODEL 8
REMARK VINA RESULT:    -4.578      5.002      8.761
REMARK INTER + INTRA:          -9.840
REMARK INTER:                  -8.297
REMARK INTRA:                  -1.543
REMARK UNBOUND:                -1.247
REMARK SMILES CCCCCCCCC=CCCCCCCCC(=O)[O-]
REMARK SMILES IDX 10 1 9 2 11 3 12 4 13 5 14 6 15 7 16 8 17 9 18 10 19 11
REMARK SMILES IDX 20 12 8 13 7 14 6 15 5 16 4 17 3 18 2 19 1 20
REMARK H PARENT
REMARK Flexibility Score: inf
ROOT
ATOM      1  C   UNL     1      -1.757  -7.604   2.104  1.00  0.00    -0.031 C 
ATOM      2  C   UNL     1      -1.980  -8.500   3.083  1.00  0.00    -0.031 C 
ENDROOT
BRANCH   1   3
ATOM      3  C   UNL     1      -2.388  -7.640   0.734  1.00  0.00     0.027 C 
BRANCH   3   4
ATOM      4  C   UNL     1      -2.581  -6.229   0.154  1.00  0.00     0.004 C 
BRANCH   4   5
ATOM      5  C   UNL     1      -1.441  -5.255   0.512  1.00  0.00     0.000 C 
BRANCH   5   6
ATOM      6  C   UNL     1      -0.867  -4.538  -0.722  1.00  0.00     0.000 C 
BRANCH   6   7
ATOM      7  C   UNL     1      -0.780  -5.453  -1.953  1.00  0.00     0.000 C 
BRANCH   7   8
ATOM      8  C   UNL     1      -1.625  -4.944  -3.133  1.00  0.00     0.006 C 
BRANCH   8   9
ATOM      9  C   UNL     1      -2.595  -6.013  -3.657  1.00  0.00     0.053 C 
BRANCH   9  10
ATOM     10  C   UNL     1      -3.352  -5.538  -4.860  1.00  0.00     0.041 C 
ATOM     11  O   UNL     1      -2.951  -4.536  -5.508  1.00  0.00    -0.550 OA
ATOM     12  O   UNL     1      -4.492  -6.216  -5.275  1.00  0.00    -0.550 OA
ENDBRANCH   9  10
ENDBRANCH   8   9
ENDBRANCH   7   8
ENDBRANCH   6   7
ENDBRANCH   5   6
ENDBRANCH   4   5
ENDBRANCH   3   4
ENDBRANCH   1   3
BRANCH   2  13
ATOM     13  C   UNL     1      -2.876  -9.708   2.964  1.00  0.00     0.027 C 
BRANCH  13  14
ATOM     14  C   UNL     1      -4.334  -9.408   3.361  1.00  0.00     0.004 C 
BRANCH  14  15
ATOM     15  C   UNL     1      -4.482  -8.260   4.376  1.00  0.00     0.000 C 
BRANCH  15  16
ATOM     16  C   UNL     1      -5.235  -8.681   5.649  1.00  0.00     0.000 C 
BRANCH  16  17
ATOM     17  C   UNL     1      -4.562  -8.141   6.925  1.00  0.00    -0.000 C 
BRANCH  17  18
ATOM     18  C   UNL     1      -3.182  -7.498   6.661  1.00  0.00    -0.000 C 
BRANCH  18  19
ATOM     19  C   UNL     1      -2.007  -8.467   6.871  1.00  0.00    -0.003 C 
ATOM     20  C   UNL     1      -0.644  -7.796   6.705  1.00  0.00     0.004 C 
ENDBRANCH  18  19
ENDBRANCH  17  18
ENDBRANCH  16  17
ENDBRANCH  15  16
ENDBRANCH  14  15
ENDBRANCH  13  14
ENDBRANCH   2  13
TORSDOF 15
ENDMDL
MODEL 9
REMARK VINA RESULT:    -4.576      2.657      5.079
REMARK INTER + INTRA:          -9.836
REMARK INTER:                  -7.673
REMARK INTRA:                  -2.163
REMARK UNBOUND:                -1.247
REMARK SMILES CCCCCCCCC=CCCCCCCCC(=O)[O-]
REMARK SMILES IDX 10 1 9 2 11 3 12 4 13 5 14 6 15 7 16 8 17 9 18 10 19 11
REMARK SMILES IDX 20 12 8 13 7 14 6 15 5 16 4 17 3 18 2 19 1 20
REMARK H PARENT
REMARK Flexibility Score: inf
ROOT
ATOM      1  C   UNL     1      -0.919  -4.492  -0.455  1.00  0.00    -0.031 C 
ATOM      2  C   UNL     1      -0.262  -5.015  -1.507  1.00  0.00    -0.031 C 
ENDROOT
BRANCH   1   3
ATOM      3  C   UNL     1      -1.381  -5.268   0.754  1.00  0.00     0.027 C 
BRANCH   3   4
ATOM      4  C   UNL     1      -2.702  -6.009   0.489  1.00  0.00     0.004 C 
BRANCH   4   5
ATOM      5  C   UNL     1      -2.622  -7.525   0.755  1.00  0.00     0.000 C 
BRANCH   5   6
ATOM      6  C   UNL     1      -1.879  -7.857   2.061  1.00  0.00     0.000 C 
BRANCH   6   7
ATOM      7  C   UNL     1      -2.763  -8.605   3.071  1.00  0.00     0.000 C 
BRANCH   7   8
ATOM      8  C   UNL     1      -1.948  -9.483   4.037  1.00  0.00     0.006 C 
BRANCH   8   9
ATOM      9  C   UNL     1      -2.154  -9.079   5.503  1.00  0.00     0.053 C 
BRANCH   9  10
ATOM     10  C   UNL     1      -0.988  -8.304   6.038  1.00  0.00     0.041 C 
ATOM     11  O   UNL     1      -0.944  -7.982   7.254  1.00  0.00    -0.550 OA
ATOM     12  O   UNL     1       0.059  -7.953   5.195  1.00  0.00    -0.550 OA
ENDBRANCH   9  10
ENDBRANCH   8   9
ENDBRANCH   7   8
ENDBRANCH   6   7
ENDBRANCH   5   6
ENDBRANCH   4   5
ENDBRANCH   3   4
ENDBRANCH   1   3
BRANCH   2  13
ATOM     13  C   UNL     1       0.095  -6.472  -1.668  1.00  0.00     0.027 C 
BRANCH  13  14
ATOM     14  C   UNL     1      -0.501  -7.092  -2.947  1.00  0.00     0.004 C 
BRANCH  14  15
ATOM     15  C   UNL     1      -1.868  -7.767  -2.735  1.00  0.00     0.000 C 
BRANCH  15  16
ATOM     16  C   UNL     1      -2.989  -7.121  -3.569  1.00  0.00     0.000 C 
BRANCH  16  17
ATOM     17  C   UNL     1      -3.304  -5.688  -3.104  1.00  0.00    -0.000 C 
BRANCH  17  18
ATOM     18  C   UNL     1      -3.289  -4.656  -4.254  1.00  0.00    -0.000 C 
BRANCH  18  19
ATOM     19  C   UNL     1      -2.428  -5.089  -5.452  1.00  0.00    -0.003 C 
ATOM     20  C   UNL     1      -1.017  -4.504  -5.415  1.00  0.00     0.004 C 
ENDBRANCH  18  19
ENDBRANCH  17  18
ENDBRANCH  16  17
ENDBRANCH  15  16
ENDBRANCH  14  15
ENDBRANCH  13  14
ENDBRANCH   2  13
TORSDOF 15
ENDMDL
