MODEL 1
REMARK VINA RESULT:    -4.897      0.000      0.000
REMARK INTER + INTRA:          -5.681
REMARK INTER:                  -5.469
REMARK INTRA:                  -0.212
REMARK UNBOUND:                -0.212
REMARK SMILES CC(C)c1ccc(C(=O)[O-])cc1
REMARK SMILES IDX 7 1 6 2 11 3 5 4 12 5 4 6 8 7 9 8 10 9 2 10 1 11 3 12
REMARK H PARENT
REMARK Flexibility Score: inf
ROOT
ATOM      1  C   UNL     1      18.879  44.144   1.379  1.00  0.00    -0.003 A 
ATOM      2  C   UNL     1      17.893  43.859   2.336  1.00  0.00     0.010 A 
ATOM      3  C   UNL     1      18.496  44.724   0.157  1.00  0.00     0.010 A 
ATOM      4  C   UNL     1      16.549  44.147   2.079  1.00  0.00     0.004 A 
ATOM      5  C   UNL     1      17.153  45.013  -0.100  1.00  0.00     0.004 A 
ATOM      6  C   UNL     1      16.163  44.728   0.859  1.00  0.00    -0.045 A 
ENDROOT
BRANCH   1   7
ATOM      7  C   UNL     1      20.300  43.837   1.655  1.00  0.00     0.071 C 
ATOM      8  O   UNL     1      20.991  44.598   2.383  1.00  0.00    -0.545 OA
ATOM      9  O   UNL     1      20.893  42.703   1.112  1.00  0.00    -0.545 OA
ENDBRANCH   1   7
BRANCH   6  10
ATOM     10  C   UNL     1      14.702  45.035   0.594  1.00  0.00     0.013 C 
ATOM     11  C   UNL     1      13.992  45.493   1.874  1.00  0.00     0.012 C 
ATOM     12  C   UNL     1      14.550  46.075  -0.522  1.00  0.00     0.012 C 
ENDBRANCH   6  10
TORSDOF 2
ENDMDL
MODEL 2
REMARK VINA RESULT:    -4.857      0.088      1.681
REMARK INTER + INTRA:          -5.637
REMARK INTER:                  -5.425
REMARK INTRA:                  -0.213
REMARK UNBOUND:                -0.212
REMARK SMILES CC(C)c1ccc(C(=O)[O-])cc1
REMARK SMILES IDX 7 1 6 2 11 3 5 4 12 5 4 6 8 7 9 8 10 9 2 10 1 11 3 12
REMARK H PARENT
REMARK Flexibility Score: inf
ROOT
ATOM      1  C   UNL     1      18.832  44.135   1.386  1.00  0.00    -0.003 A 
ATOM      2  C   UNL     1      18.458  44.698   0.156  1.00  0.00     0.010 A 
ATOM      3  C   UNL     1      17.838  43.866   2.343  1.00  0.00     0.010 A 
ATOM      4  C   UNL     1      17.118  44.988  -0.114  1.00  0.00     0.004 A 
ATOM      5  C   UNL     1      16.498  44.155   2.073  1.00  0.00     0.004 A 
ATOM      6  C   UNL     1      16.122  44.720   0.840  1.00  0.00    -0.045 A 
ENDROOT
BRANCH   1   7
ATOM      7  C   UNL     1      20.252  43.829   1.668  1.00  0.00     0.071 C 
ATOM      8  O   UNL     1      20.772  42.759   1.253  1.00  0.00    -0.545 OA
ATOM      9  O   UNL     1      21.032  44.719   2.397  1.00  0.00    -0.545 OA
ENDBRANCH   1   7
BRANCH   6  10
ATOM     10  C   UNL     1      14.671  45.040   0.533  1.00  0.00     0.013 C 
ATOM     11  C   UNL     1      13.932  45.513   1.791  1.00  0.00     0.012 C 
ATOM     12  C   UNL     1      14.560  46.075  -0.593  1.00  0.00     0.012 C 
ENDBRANCH   6  10
TORSDOF 2
ENDMDL
MODEL 3
REMARK VINA RESULT:    -4.834      0.821      1.928
REMARK INTER + INTRA:          -5.611
REMARK INTER:                  -5.398
REMARK INTRA:                  -0.214
REMARK UNBOUND:                -0.212
REMARK SMILES CC(C)c1ccc(C(=O)[O-])cc1
REMARK SMILES IDX 7 1 6 2 11 3 5 4 12 5 4 6 8 7 9 8 10 9 2 10 1 11 3 12
REMARK H PARENT
REMARK Flexibility Score: inf
ROOT
ATOM      1  C   UNL     1      19.033  43.589   1.000  1.00  0.00    -0.003 A 
ATOM      2  C   UNL     1      18.544  44.425  -0.016  1.00  0.00     0.010 A 
ATOM      3  C   UNL     1      18.220  43.325   2.115  1.00  0.00     0.010 A 
ATOM      4  C   UNL     1      17.267  44.986   0.078  1.00  0.00     0.004 A 
ATOM      5  C   UNL     1      16.943  43.885   2.210  1.00  0.00     0.004 A 
ATOM      6  C   UNL     1      16.452  44.723   1.192  1.00  0.00    -0.045 A 
ENDROOT
BRANCH   1   7
ATOM      7  C   UNL     1      20.385  42.997   0.896  1.00  0.00     0.071 C 
ATOM      8  O   UNL     1      21.305  43.357   1.678  1.00  0.00    -0.545 OA
ATOM      9  O   UNL     1      20.660  42.035  -0.069  1.00  0.00    -0.545 OA
ENDBRANCH   1   7
BRANCH   6  10
ATOM     10  C   UNL     1      15.068  45.339   1.281  1.00  0.00     0.013 C 
ATOM     11  C   UNL     1      14.500  45.625  -0.114  1.00  0.00     0.012 C 
ATOM     12  C   UNL     1      14.119  44.448   2.091  1.00  0.00     0.012 C 
ENDBRANCH   6  10
TORSDOF 2
ENDMDL
MODEL 4
REMARK VINA RESULT:    -4.791      3.114      5.220
REMARK INTER + INTRA:          -5.564
REMARK INTER:                  -5.357
REMARK INTRA:                  -0.207
REMARK UNBOUND:                -0.212
REMARK SMILES CC(C)c1ccc(C(=O)[O-])cc1
REMARK SMILES IDX 7 1 6 2 11 3 5 4 12 5 4 6 8 7 9 8 10 9 2 10 1 11 3 12
REMARK H PARENT
REMARK Flexibility Score: inf
ROOT
ATOM      1  C   UNL     1      15.889  44.897   0.784  1.00  0.00    -0.003 A 
ATOM      2  C   UNL     1      16.931  45.012  -0.149  1.00  0.00     0.010 A 
ATOM      3  C   UNL     1      16.154  44.305   2.031  1.00  0.00     0.010 A 
ATOM      4  C   UNL     1      18.213  44.547   0.156  1.00  0.00     0.004 A 
ATOM      5  C   UNL     1      17.436  43.840   2.337  1.00  0.00     0.004 A 
ATOM      6  C   UNL     1      18.481  43.955   1.402  1.00  0.00    -0.045 A 
ENDROOT
BRANCH   1   7
ATOM      7  C   UNL     1      14.533  45.391   0.457  1.00  0.00     0.071 C 
ATOM      8  O   UNL     1      13.898  46.110   1.274  1.00  0.00    -0.545 OA
ATOM      9  O   UNL     1      13.941  45.069  -0.758  1.00  0.00    -0.545 OA
ENDBRANCH   1   7
BRANCH   6  10
ATOM     10  C   UNL     1      19.877  43.454   1.720  1.00  0.00     0.013 C 
ATOM     11  C   UNL     1      20.524  42.805   0.491  1.00  0.00     0.012 C 
ATOM     12  C   UNL     1      20.755  44.581   2.275  1.00  0.00     0.012 C 
ENDBRANCH   6  10
TORSDOF 2
ENDMDL
MODEL 5
REMARK VINA RESULT:    -4.777      3.090      5.102
REMARK INTER + INTRA:          -5.548
REMARK INTER:                  -5.342
REMARK INTRA:                  -0.206
REMARK UNBOUND:                -0.212
REMARK SMILES CC(C)c1ccc(C(=O)[O-])cc1
REMARK SMILES IDX 7 1 6 2 11 3 5 4 12 5 4 6 8 7 9 8 10 9 2 10 1 11 3 12
REMARK H PARENT
REMARK Flexibility Score: inf
ROOT
ATOM      1  C   UNL     1      15.966  44.899   0.732  1.00  0.00    -0.003 A 
ATOM      2  C   UNL     1      16.209  44.299   1.977  1.00  0.00     0.010 A 
ATOM      3  C   UNL     1      17.024  45.016  -0.186  1.00  0.00     0.010 A 
ATOM      4  C   UNL     1      17.483  43.823   2.301  1.00  0.00     0.004 A 
ATOM      5  C   UNL     1      18.298  44.540   0.137  1.00  0.00     0.004 A 
ATOM      6  C   UNL     1      18.542  43.938   1.385  1.00  0.00    -0.045 A 
ENDROOT
BRANCH   1   7
ATOM      7  C   UNL     1      14.616  45.400   0.393  1.00  0.00     0.071 C 
ATOM      8  O   UNL     1      14.120  45.188  -0.746  1.00  0.00    -0.545 OA
ATOM      9  O   UNL     1      13.875  46.114   1.328  1.00  0.00    -0.545 OA
ENDBRANCH   1   7
BRANCH   6  10
ATOM     10  C   UNL     1      19.920  43.418   1.750  1.00  0.00     0.013 C 
ATOM     11  C   UNL     1      20.591  42.742   0.548  1.00  0.00     0.012 C 
ATOM     12  C   UNL     1      20.801  44.538   2.315  1.00  0.00     0.012 C 
ENDBRANCH   6  10
TORSDOF 2
ENDMDL
MODEL 6
REMARK VINA RESULT:    -4.602     22.412     23.925
REMARK INTER + INTRA:          -5.352
REMARK INTER:                  -5.148
REMARK INTRA:                  -0.204
REMARK UNBOUND:                -0.212
REMARK SMILES CC(C)c1ccc(C(=O)[O-])cc1
REMARK SMILES IDX 7 1 6 2 11 3 5 4 12 5 4 6 8 7 9 8 10 9 2 10 1 11 3 12
REMARK H PARENT
REMARK Flexibility Score: inf
ROOT
ATOM      1  C   UNL     1      29.716  58.895 -11.594  1.00  0.00    -0.003 A 
ATOM      2  C   UNL     1      29.588  58.002 -12.669  1.00  0.00     0.010 A 
ATOM      3  C   UNL     1      31.001  59.230 -11.135  1.00  0.00     0.010 A 
ATOM      4  C   UNL     1      30.722  57.455 -13.276  1.00  0.00     0.004 A 
ATOM      5  C   UNL     1      32.135  58.684 -11.742  1.00  0.00     0.004 A 
ATOM      6  C   UNL     1      32.009  57.789 -12.820  1.00  0.00    -0.045 A 
ENDROOT
BRANCH   1   7
ATOM      7  C   UNL     1      28.513  59.472 -10.954  1.00  0.00     0.071 C 
ATOM      8  O   UNL     1      28.476  60.692 -10.642  1.00  0.00    -0.545 OA
ATOM      9  O   UNL     1      27.405  58.675 -10.689  1.00  0.00    -0.545 OA
ENDBRANCH   1   7
BRANCH   6  10
ATOM     10  C   UNL     1      33.231  57.187 -13.488  1.00  0.00     0.013 C 
ATOM     11  C   UNL     1      34.018  58.251 -14.261  1.00  0.00     0.012 C 
ATOM     12  C   UNL     1      34.124  56.475 -12.466  1.00  0.00     0.012 C 
ENDBRANCH   6  10
TORSDOF 2
ENDMDL
MODEL 7
REMARK VINA RESULT:    -4.448     22.605     23.576
REMARK INTER + INTRA:          -5.181
REMARK INTER:                  -4.962
REMARK INTRA:                  -0.219
REMARK UNBOUND:                -0.212
REMARK SMILES CC(C)c1ccc(C(=O)[O-])cc1
REMARK SMILES IDX 7 1 6 2 11 3 5 4 12 5 4 6 8 7 9 8 10 9 2 10 1 11 3 12
REMARK H PARENT
REMARK Flexibility Score: inf
ROOT
ATOM      1  C   UNL     1      30.249  59.609 -10.343  1.00  0.00    -0.003 A 
ATOM      2  C   UNL     1      29.498  59.268 -11.479  1.00  0.00     0.010 A 
ATOM      3  C   UNL     1      31.596  59.214 -10.274  1.00  0.00     0.010 A 
ATOM      4  C   UNL     1      30.079  58.548 -12.526  1.00  0.00     0.004 A 
ATOM      5  C   UNL     1      32.178  58.494 -11.321  1.00  0.00     0.004 A 
ATOM      6  C   UNL     1      31.426  58.152 -12.460  1.00  0.00    -0.045 A 
ENDROOT
BRANCH   1   7
ATOM      7  C   UNL     1      29.629  60.372  -9.238  1.00  0.00     0.071 C 
ATOM      8  O   UNL     1      30.295  60.664  -8.208  1.00  0.00    -0.545 OA
ATOM      9  O   UNL     1      28.302  60.777  -9.319  1.00  0.00    -0.545 OA
ENDBRANCH   1   7
BRANCH   6  10
ATOM     10  C   UNL     1      32.044  57.370 -13.604  1.00  0.00     0.013 C 
ATOM     11  C   UNL     1      33.506  57.017 -13.305  1.00  0.00     0.012 C 
ATOM     12  C   UNL     1      31.227  56.112 -13.918  1.00  0.00     0.012 C 
ENDBRANCH   6  10
TORSDOF 2
ENDMDL
MODEL 8
REMARK VINA RESULT:    -4.403     22.490     23.962
REMARK INTER + INTRA:          -5.130
REMARK INTER:                  -4.926
REMARK INTRA:                  -0.204
REMARK UNBOUND:                -0.212
REMARK SMILES CC(C)c1ccc(C(=O)[O-])cc1
REMARK SMILES IDX 7 1 6 2 11 3 5 4 12 5 4 6 8 7 9 8 10 9 2 10 1 11 3 12
REMARK H PARENT
REMARK Flexibility Score: inf
ROOT
ATOM      1  C   UNL     1      29.723  59.236 -11.326  1.00  0.00    -0.003 A 
ATOM      2  C   UNL     1      30.889  59.559 -10.614  1.00  0.00     0.010 A 
ATOM      3  C   UNL     1      29.837  58.514 -12.527  1.00  0.00     0.010 A 
ATOM      4  C   UNL     1      32.144  59.169 -11.090  1.00  0.00     0.004 A 
ATOM      5  C   UNL     1      31.091  58.123 -13.003  1.00  0.00     0.004 A 
ATOM      6  C   UNL     1      32.260  58.447 -12.290  1.00  0.00    -0.045 A 
ENDROOT
BRANCH   1   7
ATOM      7  C   UNL     1      28.397  59.650 -10.818  1.00  0.00     0.071 C 
ATOM      8  O   UNL     1      28.160  60.860 -10.557  1.00  0.00    -0.545 OA
ATOM      9  O   UNL     1      27.393  58.709 -10.620  1.00  0.00    -0.545 OA
ENDBRANCH   1   7
BRANCH   6  10
ATOM     10  C   UNL     1      33.628  58.030 -12.796  1.00  0.00     0.013 C 
ATOM     11  C   UNL     1      33.975  56.607 -12.340  1.00  0.00     0.012 C 
ATOM     12  C   UNL     1      33.716  58.157 -14.321  1.00  0.00     0.012 C 
ENDBRANCH   6  10
TORSDOF 2
ENDMDL
MODEL 9
REMARK VINA RESULT:    -4.315     22.186     23.317
REMARK INTER + INTRA:          -5.032
REMARK INTER:                  -4.824
REMARK INTRA:                  -0.208
REMARK UNBOUND:                -0.212
REMARK SMILES CC(C)c1ccc(C(=O)[O-])cc1
REMARK SMILES IDX 7 1 6 2 11 3 5 4 12 5 4 6 8 7 9 8 10 9 2 10 1 11 3 12
REMARK H PARENT
REMARK Flexibility Score: inf
ROOT
ATOM      1  C   UNL     1      31.979  57.969 -12.286  1.00  0.00    -0.003 A 
ATOM      2  C   UNL     1      32.012  58.717 -11.099  1.00  0.00     0.010 A 
ATOM      3  C   UNL     1      30.772  57.879 -13.000  1.00  0.00     0.010 A 
ATOM      4  C   UNL     1      30.864  59.364 -10.633  1.00  0.00     0.004 A 
ATOM      5  C   UNL     1      29.623  58.526 -12.536  1.00  0.00     0.004 A 
ATOM      6  C   UNL     1      29.656  59.276 -11.346  1.00  0.00    -0.045 A 
ENDROOT
BRANCH   1   7
ATOM      7  C   UNL     1      33.197  57.287 -12.775  1.00  0.00     0.071 C 
ATOM      8  O   UNL     1      33.729  56.365 -12.103  1.00  0.00    -0.545 OA
ATOM      9  O   UNL     1      33.772  57.656 -13.986  1.00  0.00    -0.545 OA
ENDBRANCH   1   7
BRANCH   6  10
ATOM     10  C   UNL     1      28.417  59.982 -10.829  1.00  0.00     0.013 C 
ATOM     11  C   UNL     1      27.359  58.974 -10.365  1.00  0.00     0.012 C 
ATOM     12  C   UNL     1      28.769  60.966  -9.707  1.00  0.00     0.012 C 
ENDBRANCH   6  10
TORSDOF 2
ENDMDL
