MODEL 1
REMARK VINA RESULT:    -5.582      0.000      0.000
REMARK INTER + INTRA:          -6.079
REMARK INTER:                  -5.909
REMARK INTRA:                  -0.170
REMARK UNBOUND:                -0.170
REMARK SMILES C=C1CC=C(C(C)C)CC1
REMARK SMILES IDX 5 1 4 2 3 3 2 4 1 5 10 6 9 7 6 8 7 9 8 10
REMARK H PARENT
REMARK Flexibility Score: inf
ROOT
ATOM      1  C   UNL     1       1.013  12.933   5.842  1.00  0.00    -0.071 C 
ATOM      2  C   UNL     1       2.068  13.558   6.404  1.00  0.00    -0.023 C 
ATOM      3  C   UNL     1       3.418  13.563   5.734  1.00  0.00     0.057 C 
ATOM      4  C   UNL     1       3.273  13.653   4.229  1.00  0.00    -0.073 C 
ATOM      5  C   UNL     1       4.250  14.196   3.490  1.00  0.00     0.008 C 
ATOM      6  C   UNL     1       2.038  13.096   3.552  1.00  0.00     0.035 C 
ATOM      7  C   UNL     1       1.212  12.230   4.514  1.00  0.00     0.035 C 
ENDROOT
BRANCH   1   8
ATOM      8  C   UNL     1      -0.358  13.002   6.500  1.00  0.00     0.008 C 
ATOM      9  C   UNL     1      -1.209  14.108   5.869  1.00  0.00     0.012 C 
ATOM     10  C   UNL     1      -1.072  11.648   6.433  1.00  0.00     0.012 C 
ENDBRANCH   1   8
TORSDOF 1
ENDMDL
MODEL 2
REMARK VINA RESULT:    -5.366      0.974      2.101
REMARK INTER + INTRA:          -5.850
REMARK INTER:                  -5.691
REMARK INTRA:                  -0.159
REMARK UNBOUND:                -0.170
REMARK SMILES C=C1CC=C(C(C)C)CC1
REMARK SMILES IDX 5 1 4 2 3 3 2 4 1 5 10 6 9 7 6 8 7 9 8 10
REMARK H PARENT
REMARK Flexibility Score: inf
ROOT
ATOM      1  C   UNL     1       0.407  13.627   4.969  1.00  0.00    -0.071 C 
ATOM      2  C   UNL     1       0.658  13.826   3.658  1.00  0.00    -0.023 C 
ATOM      3  C   UNL     1       2.044  14.171   3.174  1.00  0.00     0.057 C 
ATOM      4  C   UNL     1       3.096  13.442   3.983  1.00  0.00    -0.073 C 
ATOM      5  C   UNL     1       4.288  13.160   3.440  1.00  0.00     0.008 C 
ATOM      6  C   UNL     1       2.815  13.063   5.423  1.00  0.00     0.035 C 
ATOM      7  C   UNL     1       1.553  13.759   5.952  1.00  0.00     0.035 C 
ENDROOT
BRANCH   1   8
ATOM      8  C   UNL     1      -0.981  13.209   5.428  1.00  0.00     0.008 C 
ATOM      9  C   UNL     1      -0.910  11.951   6.299  1.00  0.00     0.012 C 
ATOM     10  C   UNL     1      -1.689  14.352   6.163  1.00  0.00     0.012 C 
ENDBRANCH   1   8
TORSDOF 1
ENDMDL
MODEL 3
REMARK VINA RESULT:    -5.353      1.191      4.226
REMARK INTER + INTRA:          -5.836
REMARK INTER:                  -5.672
REMARK INTRA:                  -0.164
REMARK UNBOUND:                -0.170
REMARK SMILES C=C1CC=C(C(C)C)CC1
REMARK SMILES IDX 5 1 4 2 3 3 2 4 1 5 10 6 9 7 6 8 7 9 8 10
REMARK H PARENT
REMARK Flexibility Score: inf
ROOT
ATOM      1  C   UNL     1       2.301  13.459   4.769  1.00  0.00    -0.071 C 
ATOM      2  C   UNL     1       2.025  13.308   6.081  1.00  0.00    -0.023 C 
ATOM      3  C   UNL     1       0.679  13.693   6.642  1.00  0.00     0.057 C 
ATOM      4  C   UNL     1      -0.426  13.384   5.655  1.00  0.00    -0.073 C 
ATOM      5  C   UNL     1      -1.668  13.131   6.092  1.00  0.00     0.008 C 
ATOM      6  C   UNL     1      -0.139  13.397   4.168  1.00  0.00     0.035 C 
ATOM      7  C   UNL     1       1.227  14.028   3.864  1.00  0.00     0.035 C 
ENDROOT
BRANCH   1   8
ATOM      8  C   UNL     1       3.639  12.997   4.210  1.00  0.00     0.008 C 
ATOM      9  C   UNL     1       3.456  11.778   3.299  1.00  0.00     0.012 C 
ATOM     10  C   UNL     1       4.355  14.135   3.475  1.00  0.00     0.012 C 
ENDBRANCH   1   8
TORSDOF 1
ENDMDL
MODEL 4
REMARK VINA RESULT:    -5.296      1.241      4.514
REMARK INTER + INTRA:          -5.776
REMARK INTER:                  -5.637
REMARK INTRA:                  -0.139
REMARK UNBOUND:                -0.170
REMARK SMILES C=C1CC=C(C(C)C)CC1
REMARK SMILES IDX 5 1 4 2 3 3 2 4 1 5 10 6 9 7 6 8 7 9 8 10
REMARK H PARENT
REMARK Flexibility Score: inf
ROOT
ATOM      1  C   UNL     1       1.600  13.406   4.353  1.00  0.00    -0.071 C 
ATOM      2  C   UNL     1       0.662  14.021   3.604  1.00  0.00    -0.023 C 
ATOM      3  C   UNL     1      -0.791  14.004   4.007  1.00  0.00     0.057 C 
ATOM      4  C   UNL     1      -0.935  14.084   5.513  1.00  0.00    -0.073 C 
ATOM      5  C   UNL     1      -2.042  14.609   6.056  1.00  0.00     0.008 C 
ATOM      6  C   UNL     1       0.158  13.537   6.408  1.00  0.00     0.035 C 
ATOM      7  C   UNL     1       1.163  12.690   5.615  1.00  0.00     0.035 C 
ENDROOT
BRANCH   1   8
ATOM      8  C   UNL     1       3.069  13.497   3.967  1.00  0.00     0.008 C 
ATOM      9  C   UNL     1       3.631  12.112   3.634  1.00  0.00     0.012 C 
ATOM     10  C   UNL     1       3.276  14.473   2.804  1.00  0.00     0.012 C 
ENDBRANCH   1   8
TORSDOF 1
ENDMDL
MODEL 5
REMARK VINA RESULT:    -5.239      1.932      4.274
REMARK INTER + INTRA:          -5.716
REMARK INTER:                  -5.530
REMARK INTRA:                  -0.186
REMARK UNBOUND:                -0.170
REMARK SMILES C=C1CC=C(C(C)C)CC1
REMARK SMILES IDX 5 1 4 2 3 3 2 4 1 5 10 6 9 7 6 8 7 9 8 10
REMARK H PARENT
REMARK Flexibility Score: inf
ROOT
ATOM      1  C   UNL     1       1.841  14.009   2.745  1.00  0.00    -0.071 C 
ATOM      2  C   UNL     1       0.715  14.137   3.477  1.00  0.00    -0.023 C 
ATOM      3  C   UNL     1       0.557  13.422   4.795  1.00  0.00     0.057 C 
ATOM      4  C   UNL     1       1.873  13.368   5.541  1.00  0.00    -0.073 C 
ATOM      5  C   UNL     1       1.886  13.288   6.879  1.00  0.00     0.008 C 
ATOM      6  C   UNL     1       3.179  13.367   4.774  1.00  0.00     0.035 C 
ATOM      7  C   UNL     1       2.951  13.124   3.275  1.00  0.00     0.035 C 
ENDROOT
BRANCH   1   8
ATOM      8  C   UNL     1       2.009  14.797   1.454  1.00  0.00     0.008 C 
ATOM      9  C   UNL     1       0.656  15.306   0.947  1.00  0.00     0.012 C 
ATOM     10  C   UNL     1       3.002  15.950   1.635  1.00  0.00     0.012 C 
ENDBRANCH   1   8
TORSDOF 1
ENDMDL
MODEL 6
REMARK VINA RESULT:    -5.226      1.445      2.436
REMARK INTER + INTRA:          -5.702
REMARK INTER:                  -5.509
REMARK INTRA:                  -0.192
REMARK UNBOUND:                -0.170
REMARK SMILES C=C1CC=C(C(C)C)CC1
REMARK SMILES IDX 5 1 4 2 3 3 2 4 1 5 10 6 9 7 6 8 7 9 8 10
REMARK H PARENT
REMARK Flexibility Score: inf
ROOT
ATOM      1  C   UNL     1       2.064  13.289   4.220  1.00  0.00    -0.071 C 
ATOM      2  C   UNL     1       3.340  13.717   4.310  1.00  0.00    -0.023 C 
ATOM      3  C   UNL     1       4.024  14.382   3.142  1.00  0.00     0.057 C 
ATOM      4  C   UNL     1       3.050  15.246   2.368  1.00  0.00    -0.073 C 
ATOM      5  C   UNL     1       3.493  16.302   1.671  1.00  0.00     0.008 C 
ATOM      6  C   UNL     1       1.577  14.895   2.348  1.00  0.00     0.035 C 
ATOM      7  C   UNL     1       1.325  13.489   2.911  1.00  0.00     0.035 C 
ENDROOT
BRANCH   1   8
ATOM      8  C   UNL     1       1.371  12.687   5.432  1.00  0.00     0.008 C 
ATOM      9  C   UNL     1       1.849  13.360   6.723  1.00  0.00     0.012 C 
ATOM     10  C   UNL     1      -0.154  12.770   5.296  1.00  0.00     0.012 C 
ENDBRANCH   1   8
TORSDOF 1
ENDMDL
MODEL 7
REMARK VINA RESULT:    -5.113      1.904      3.025
REMARK INTER + INTRA:          -5.583
REMARK INTER:                  -5.398
REMARK INTRA:                  -0.185
REMARK UNBOUND:                -0.170
REMARK SMILES C=C1CC=C(C(C)C)CC1
REMARK SMILES IDX 5 1 4 2 3 3 2 4 1 5 10 6 9 7 6 8 7 9 8 10
REMARK H PARENT
REMARK Flexibility Score: inf
ROOT
ATOM      1  C   UNL     1       0.692  13.792   4.376  1.00  0.00    -0.071 C 
ATOM      2  C   UNL     1      -0.233  14.142   3.459  1.00  0.00    -0.023 C 
ATOM      3  C   UNL     1       0.160  14.466   2.041  1.00  0.00     0.057 C 
ATOM      4  C   UNL     1       1.300  13.582   1.580  1.00  0.00    -0.073 C 
ATOM      5  C   UNL     1       1.453  13.305   0.278  1.00  0.00     0.008 C 
ATOM      6  C   UNL     1       2.291  13.039   2.588  1.00  0.00     0.035 C 
ATOM      7  C   UNL     1       2.146  13.732   3.950  1.00  0.00     0.035 C 
ENDROOT
BRANCH   1   8
ATOM      8  C   UNL     1       0.266  13.398   5.783  1.00  0.00     0.008 C 
ATOM      9  C   UNL     1      -0.534  12.092   5.763  1.00  0.00     0.012 C 
ATOM     10  C   UNL     1       1.476  13.292   6.718  1.00  0.00     0.012 C 
ENDBRANCH   1   8
TORSDOF 1
ENDMDL
MODEL 8
REMARK VINA RESULT:    -5.019      3.238      5.111
REMARK INTER + INTRA:          -5.483
REMARK INTER:                  -5.297
REMARK INTRA:                  -0.187
REMARK UNBOUND:                -0.170
REMARK SMILES C=C1CC=C(C(C)C)CC1
REMARK SMILES IDX 5 1 4 2 3 3 2 4 1 5 10 6 9 7 6 8 7 9 8 10
REMARK H PARENT
REMARK Flexibility Score: inf
ROOT
ATOM      1  C   UNL     1       2.988  15.494   2.273  1.00  0.00    -0.071 C 
ATOM      2  C   UNL     1       4.059  15.093   2.988  1.00  0.00    -0.023 C 
ATOM      3  C   UNL     1       3.992  13.876   3.875  1.00  0.00     0.057 C 
ATOM      4  C   UNL     1       3.127  12.801   3.251  1.00  0.00    -0.073 C 
ATOM      5  C   UNL     1       3.339  11.511   3.545  1.00  0.00     0.008 C 
ATOM      6  C   UNL     1       1.995  13.185   2.321  1.00  0.00     0.035 C 
ATOM      7  C   UNL     1       1.706  14.692   2.378  1.00  0.00     0.035 C 
ENDROOT
BRANCH   1   8
ATOM      8  C   UNL     1       3.099  16.683   1.329  1.00  0.00     0.008 C 
ATOM      9  C   UNL     1       4.345  17.516   1.647  1.00  0.00     0.012 C 
ATOM     10  C   UNL     1       3.094  16.230  -0.135  1.00  0.00     0.012 C 
ENDBRANCH   1   8
TORSDOF 1
ENDMDL
MODEL 9
REMARK VINA RESULT:    -4.828      2.394      4.158
REMARK INTER + INTRA:          -5.281
REMARK INTER:                  -5.132
REMARK INTRA:                  -0.149
REMARK UNBOUND:                -0.170
REMARK SMILES C=C1CC=C(C(C)C)CC1
REMARK SMILES IDX 5 1 4 2 3 3 2 4 1 5 10 6 9 7 6 8 7 9 8 10
REMARK H PARENT
REMARK Flexibility Score: inf
ROOT
ATOM      1  C   UNL     1       1.396  13.591   3.769  1.00  0.00    -0.071 C 
ATOM      2  C   UNL     1       0.081  13.696   4.048  1.00  0.00    -0.023 C 
ATOM      3  C   UNL     1      -0.852  14.450   3.134  1.00  0.00     0.057 C 
ATOM      4  C   UNL     1      -0.459  14.258   1.684  1.00  0.00    -0.073 C 
ATOM      5  C   UNL     1      -1.382  14.356   0.718  1.00  0.00     0.008 C 
ATOM      6  C   UNL     1       0.988  13.992   1.321  1.00  0.00     0.035 C 
ATOM      7  C   UNL     1       1.924  14.250   2.510  1.00  0.00     0.035 C 
ENDROOT
BRANCH   1   8
ATOM      8  C   UNL     1       2.306  12.764   4.666  1.00  0.00     0.008 C 
ATOM      9  C   UNL     1       3.621  12.437   3.953  1.00  0.00     0.012 C 
ATOM     10  C   UNL     1       2.561  13.474   6.000  1.00  0.00     0.012 C 
ENDBRANCH   1   8
TORSDOF 1
ENDMDL
