MODEL 1
REMARK VINA RESULT:    -3.212      0.000      0.000
REMARK INTER + INTRA:          -7.858
REMARK INTER:                  -5.652
REMARK INTRA:                  -2.205
REMARK UNBOUND:                -2.205
REMARK SMILES CCCCCCCCCCCCCCC(=O)[O-]
REMARK SMILES IDX 9 1 10 2 11 3 12 4 13 5 14 6 15 7 16 8 17 9 8 10 7 11 6 12
REMARK SMILES IDX 5 13 4 14 3 15 2 16 1 17
REMARK H PARENT
REMARK Flexibility Score: inf
ROOT
ATOM      1  C   UNL     1      43.226  28.735  89.375  1.00  0.00     0.000 C 
ENDROOT
BRANCH   1   2
ATOM      2  C   UNL     1      42.852  29.604  90.581  1.00  0.00     0.000 C 
BRANCH   2   3
ATOM      3  C   UNL     1      43.709  29.247  91.805  1.00  0.00     0.000 C 
BRANCH   3   4
ATOM      4  C   UNL     1      44.588  30.416  92.274  1.00  0.00     0.000 C 
BRANCH   4   5
ATOM      5  C   UNL     1      44.819  31.463  91.171  1.00  0.00     0.006 C 
BRANCH   5   6
ATOM      6  C   UNL     1      46.261  31.443  90.646  1.00  0.00     0.053 C 
BRANCH   6   7
ATOM      7  C   UNL     1      46.400  30.567  89.441  1.00  0.00     0.041 C 
ATOM      8  O   UNL     1      46.691  29.348  89.573  1.00  0.00    -0.550 OA
ATOM      9  O   UNL     1      46.175  31.086  88.172  1.00  0.00    -0.550 OA
ENDBRANCH   6   7
ENDBRANCH   5   6
ENDBRANCH   4   5
ENDBRANCH   3   4
ENDBRANCH   2   3
ENDBRANCH   1   2
BRANCH   1  10
ATOM     10  C   UNL     1      43.048  29.506  88.062  1.00  0.00     0.000 C 
BRANCH  10  11
ATOM     11  C   UNL     1      42.515  30.920  88.322  1.00  0.00    -0.000 C 
BRANCH  11  12
ATOM     12  C   UNL     1      41.157  31.130  87.636  1.00  0.00    -0.000 C 
BRANCH  12  13
ATOM     13  C   UNL     1      39.976  30.617  88.478  1.00  0.00    -0.000 C 
BRANCH  13  14
ATOM     14  C   UNL     1      39.217  29.415  87.877  1.00  0.00    -0.000 C 
BRANCH  14  15
ATOM     15  C   UNL     1      39.685  28.034  88.372  1.00  0.00    -0.000 C 
BRANCH  15  16
ATOM     16  C   UNL     1      39.652  27.907  89.901  1.00  0.00    -0.003 C 
ATOM     17  C   UNL     1      40.336  26.623  90.360  1.00  0.00     0.004 C 
ENDBRANCH  15  16
ENDBRANCH  14  15
ENDBRANCH  13  14
ENDBRANCH  12  13
ENDBRANCH  11  12
ENDBRANCH  10  11
ENDBRANCH   1  10
TORSDOF 13
ENDMDL
MODEL 2
REMARK VINA RESULT:    -3.204      1.287      2.319
REMARK INTER + INTRA:          -7.845
REMARK INTER:                  -5.268
REMARK INTRA:                  -2.577
REMARK UNBOUND:                -2.205
REMARK SMILES CCCCCCCCCCCCCCC(=O)[O-]
REMARK SMILES IDX 9 1 10 2 11 3 12 4 13 5 14 6 15 7 16 8 17 9 8 10 7 11 6 12
REMARK SMILES IDX 5 13 4 14 3 15 2 16 1 17
REMARK H PARENT
REMARK Flexibility Score: inf
ROOT
ATOM      1  C   UNL     1      43.900  27.965  88.915  1.00  0.00     0.000 C 
ENDROOT
BRANCH   1   2
ATOM      2  C   UNL     1      42.761  27.325  89.717  1.00  0.00     0.000 C 
BRANCH   2   3
ATOM      3  C   UNL     1      42.730  27.864  91.155  1.00  0.00     0.000 C 
BRANCH   3   4
ATOM      4  C   UNL     1      42.672  29.398  91.212  1.00  0.00     0.000 C 
BRANCH   4   5
ATOM      5  C   UNL     1      43.757  29.999  92.122  1.00  0.00     0.006 C 
BRANCH   5   6
ATOM      6  C   UNL     1      44.513  31.148  91.441  1.00  0.00     0.053 C 
BRANCH   6   7
ATOM      7  C   UNL     1      45.839  30.703  90.909  1.00  0.00     0.041 C 
ATOM      8  O   UNL     1      46.250  29.533  91.132  1.00  0.00    -0.550 OA
ATOM      9  O   UNL     1      46.607  31.566  90.139  1.00  0.00    -0.550 OA
ENDBRANCH   6   7
ENDBRANCH   5   6
ENDBRANCH   4   5
ENDBRANCH   3   4
ENDBRANCH   2   3
ENDBRANCH   1   2
BRANCH   1  10
ATOM     10  C   UNL     1      43.612  27.913  87.410  1.00  0.00     0.000 C 
BRANCH  10  11
ATOM     11  C   UNL     1      43.594  29.321  86.803  1.00  0.00    -0.000 C 
BRANCH  11  12
ATOM     12  C   UNL     1      43.901  30.382  87.869  1.00  0.00    -0.000 C 
BRANCH  12  13
ATOM     13  C   UNL     1      42.736  31.363  88.090  1.00  0.00    -0.000 C 
BRANCH  13  14
ATOM     14  C   UNL     1      41.377  30.903  87.524  1.00  0.00    -0.000 C 
BRANCH  14  15
ATOM     15  C   UNL     1      40.306  30.578  88.581  1.00  0.00    -0.000 C 
BRANCH  15  16
ATOM     16  C   UNL     1      39.823  29.122  88.510  1.00  0.00    -0.003 C 
ATOM     17  C   UNL     1      39.960  28.567  87.096  1.00  0.00     0.004 C 
ENDBRANCH  15  16
ENDBRANCH  14  15
ENDBRANCH  13  14
ENDBRANCH  12  13
ENDBRANCH  11  12
ENDBRANCH  10  11
ENDBRANCH   1  10
TORSDOF 13
ENDMDL
MODEL 3
REMARK VINA RESULT:    -3.171      3.032      6.452
REMARK INTER + INTRA:          -7.786
REMARK INTER:                  -5.744
REMARK INTRA:                  -2.042
REMARK UNBOUND:                -2.205
REMARK SMILES CCCCCCCCCCCCCCC(=O)[O-]
REMARK SMILES IDX 9 1 10 2 11 3 12 4 13 5 14 6 15 7 16 8 17 9 8 10 7 11 6 12
REMARK SMILES IDX 5 13 4 14 3 15 2 16 1 17
REMARK H PARENT
REMARK Flexibility Score: inf
ROOT
ATOM      1  C   UNL     1      43.685  29.979  87.954  1.00  0.00     0.000 C 
ENDROOT
BRANCH   1   2
ATOM      2  C   UNL     1      42.872  31.249  88.226  1.00  0.00     0.000 C 
BRANCH   2   3
ATOM      3  C   UNL     1      41.554  31.238  87.436  1.00  0.00     0.000 C 
BRANCH   3   4
ATOM      4  C   UNL     1      40.356  30.796  88.290  1.00  0.00     0.000 C 
BRANCH   4   5
ATOM      5  C   UNL     1      40.019  29.306  88.111  1.00  0.00     0.006 C 
BRANCH   5   6
ATOM      6  C   UNL     1      40.116  28.527  89.430  1.00  0.00     0.053 C 
BRANCH   6   7
ATOM      7  C   UNL     1      39.132  27.400  89.483  1.00  0.00     0.041 C 
ATOM      8  O   UNL     1      38.538  27.028  88.436  1.00  0.00    -0.550 OA
ATOM      9  O   UNL     1      38.896  26.736  90.680  1.00  0.00    -0.550 OA
ENDBRANCH   6   7
ENDBRANCH   5   6
ENDBRANCH   4   5
ENDBRANCH   3   4
ENDBRANCH   2   3
ENDBRANCH   1   2
BRANCH   1  10
ATOM     10  C   UNL     1      43.813  29.124  89.221  1.00  0.00     0.000 C 
BRANCH  10  11
ATOM     11  C   UNL     1      43.385  29.913  90.464  1.00  0.00    -0.000 C 
BRANCH  11  12
ATOM     12  C   UNL     1      44.577  30.143  91.405  1.00  0.00    -0.000 C 
BRANCH  12  13
ATOM     13  C   UNL     1      45.326  31.455  91.111  1.00  0.00    -0.000 C 
BRANCH  13  14
ATOM     14  C   UNL     1      46.679  31.290  90.389  1.00  0.00    -0.000 C 
BRANCH  14  15
ATOM     15  C   UNL     1      46.740  31.891  88.973  1.00  0.00    -0.000 C 
BRANCH  15  16
ATOM     16  C   UNL     1      47.228  30.885  87.920  1.00  0.00    -0.003 C 
ATOM     17  C   UNL     1      47.483  29.517  88.545  1.00  0.00     0.004 C 
ENDBRANCH  15  16
ENDBRANCH  14  15
ENDBRANCH  13  14
ENDBRANCH  12  13
ENDBRANCH  11  12
ENDBRANCH  10  11
ENDBRANCH   1  10
TORSDOF 13
ENDMDL
MODEL 4
REMARK VINA RESULT:    -3.103      4.734      6.306
REMARK INTER + INTRA:          -7.667
REMARK INTER:                  -6.986
REMARK INTRA:                  -0.681
REMARK UNBOUND:                -2.205
REMARK SMILES CCCCCCCCCCCCCCC(=O)[O-]
REMARK SMILES IDX 9 1 10 2 11 3 12 4 13 5 14 6 15 7 16 8 17 9 8 10 7 11 6 12
REMARK SMILES IDX 5 13 4 14 3 15 2 16 1 17
REMARK H PARENT
REMARK Flexibility Score: inf
ROOT
ATOM      1  C   UNL     1      47.305  31.208  87.485  1.00  0.00     0.000 C 
ENDROOT
BRANCH   1   2
ATOM      2  C   UNL     1      48.235  31.995  86.555  1.00  0.00     0.000 C 
BRANCH   2   3
ATOM      3  C   UNL     1      48.570  33.372  87.148  1.00  0.00     0.000 C 
BRANCH   3   4
ATOM      4  C   UNL     1      49.222  34.315  86.126  1.00  0.00     0.000 C 
BRANCH   4   5
ATOM      5  C   UNL     1      50.198  35.310  86.776  1.00  0.00     0.006 C 
BRANCH   5   6
ATOM      6  C   UNL     1      51.429  34.610  87.368  1.00  0.00     0.053 C 
BRANCH   6   7
ATOM      7  C   UNL     1      52.699  35.098  86.743  1.00  0.00     0.041 C 
ATOM      8  O   UNL     1      53.623  35.560  87.465  1.00  0.00    -0.550 OA
ATOM      9  O   UNL     1      52.878  35.012  85.368  1.00  0.00    -0.550 OA
ENDBRANCH   6   7
ENDBRANCH   5   6
ENDBRANCH   4   5
ENDBRANCH   3   4
ENDBRANCH   2   3
ENDBRANCH   1   2
BRANCH   1  10
ATOM     10  C   UNL     1      47.494  31.636  88.945  1.00  0.00     0.000 C 
BRANCH  10  11
ATOM     11  C   UNL     1      46.167  31.581  89.712  1.00  0.00    -0.000 C 
BRANCH  11  12
ATOM     12  C   UNL     1      45.155  30.677  88.994  1.00  0.00    -0.000 C 
BRANCH  12  13
ATOM     13  C   UNL     1      43.776  31.338  88.826  1.00  0.00    -0.000 C 
BRANCH  13  14
ATOM     14  C   UNL     1      42.778  30.558  87.945  1.00  0.00    -0.000 C 
BRANCH  14  15
ATOM     15  C   UNL     1      41.472  31.305  87.619  1.00  0.00    -0.000 C 
BRANCH  15  16
ATOM     16  C   UNL     1      40.229  30.605  88.186  1.00  0.00    -0.003 C 
ATOM     17  C   UNL     1      40.531  29.957  89.533  1.00  0.00     0.004 C 
ENDBRANCH  15  16
ENDBRANCH  14  15
ENDBRANCH  13  14
ENDBRANCH  12  13
ENDBRANCH  11  12
ENDBRANCH  10  11
ENDBRANCH   1  10
TORSDOF 13
ENDMDL
MODEL 5
REMARK VINA RESULT:    -3.090      1.460      2.649
REMARK INTER + INTRA:          -7.644
REMARK INTER:                  -5.616
REMARK INTRA:                  -2.029
REMARK UNBOUND:                -2.205
REMARK SMILES CCCCCCCCCCCCCCC(=O)[O-]
REMARK SMILES IDX 9 1 10 2 11 3 12 4 13 5 14 6 15 7 16 8 17 9 8 10 7 11 6 12
REMARK SMILES IDX 5 13 4 14 3 15 2 16 1 17
REMARK H PARENT
REMARK Flexibility Score: inf
ROOT
ATOM      1  C   UNL     1      42.654  29.441  90.586  1.00  0.00     0.000 C 
ENDROOT
BRANCH   1   2
ATOM      2  C   UNL     1      43.142  29.384  92.038  1.00  0.00     0.000 C 
BRANCH   2   3
ATOM      3  C   UNL     1      44.390  30.259  92.234  1.00  0.00     0.000 C 
BRANCH   3   4
ATOM      4  C   UNL     1      44.565  31.299  91.116  1.00  0.00     0.000 C 
BRANCH   4   5
ATOM      5  C   UNL     1      45.980  31.288  90.514  1.00  0.00     0.006 C 
BRANCH   5   6
ATOM      6  C   UNL     1      46.609  29.888  90.538  1.00  0.00     0.053 C 
BRANCH   6   7
ATOM      7  C   UNL     1      48.045  29.918  90.116  1.00  0.00     0.041 C 
ATOM      8  O   UNL     1      48.533  28.958  89.463  1.00  0.00    -0.550 OA
ATOM      9  O   UNL     1      48.836  31.021  90.412  1.00  0.00    -0.550 OA
ENDBRANCH   6   7
ENDBRANCH   5   6
ENDBRANCH   4   5
ENDBRANCH   3   4
ENDBRANCH   2   3
ENDBRANCH   1   2
BRANCH   1  10
ATOM     10  C   UNL     1      42.386  28.034  90.038  1.00  0.00     0.000 C 
BRANCH  10  11
ATOM     11  C   UNL     1      42.967  27.872  88.629  1.00  0.00    -0.000 C 
BRANCH  11  12
ATOM     12  C   UNL     1      43.765  29.117  88.217  1.00  0.00    -0.000 C 
BRANCH  12  13
ATOM     13  C   UNL     1      43.318  29.692  86.862  1.00  0.00    -0.000 C 
BRANCH  13  14
ATOM     14  C   UNL     1      41.802  29.946  86.726  1.00  0.00    -0.000 C 
BRANCH  14  15
ATOM     15  C   UNL     1      41.260  31.121  87.559  1.00  0.00    -0.000 C 
BRANCH  15  16
ATOM     16  C   UNL     1      40.002  30.754  88.358  1.00  0.00    -0.003 C 
ATOM     17  C   UNL     1      39.501  29.362  87.985  1.00  0.00     0.004 C 
ENDBRANCH  15  16
ENDBRANCH  14  15
ENDBRANCH  13  14
ENDBRANCH  12  13
ENDBRANCH  11  12
ENDBRANCH  10  11
ENDBRANCH   1  10
TORSDOF 13
ENDMDL
MODEL 6
REMARK VINA RESULT:    -3.073      2.615      6.201
REMARK INTER + INTRA:          -7.614
REMARK INTER:                  -5.720
REMARK INTRA:                  -1.894
REMARK UNBOUND:                -2.205
REMARK SMILES CCCCCCCCCCCCCCC(=O)[O-]
REMARK SMILES IDX 9 1 10 2 11 3 12 4 13 5 14 6 15 7 16 8 17 9 8 10 7 11 6 12
REMARK SMILES IDX 5 13 4 14 3 15 2 16 1 17
REMARK H PARENT
REMARK Flexibility Score: inf
ROOT
ATOM      1  C   UNL     1      43.505  30.112  87.790  1.00  0.00     0.000 C 
ENDROOT
BRANCH   1   2
ATOM      2  C   UNL     1      42.618  31.324  88.098  1.00  0.00     0.000 C 
BRANCH   2   3
ATOM      3  C   UNL     1      41.256  31.200  87.399  1.00  0.00     0.000 C 
BRANCH   3   4
ATOM      4  C   UNL     1      40.119  30.858  88.374  1.00  0.00     0.000 C 
BRANCH   4   5
ATOM      5  C   UNL     1      39.353  29.587  87.969  1.00  0.00     0.006 C 
BRANCH   5   6
ATOM      6  C   UNL     1      40.106  28.308  88.360  1.00  0.00     0.053 C 
BRANCH   6   7
ATOM      7  C   UNL     1      40.420  27.462  87.165  1.00  0.00     0.041 C 
ATOM      8  O   UNL     1      39.495  27.079  86.400  1.00  0.00    -0.550 OA
ATOM      9  O   UNL     1      41.736  27.125  86.875  1.00  0.00    -0.550 OA
ENDBRANCH   6   7
ENDBRANCH   5   6
ENDBRANCH   4   5
ENDBRANCH   3   4
ENDBRANCH   2   3
ENDBRANCH   1   2
BRANCH   1  10
ATOM     10  C   UNL     1      43.576  29.161  88.991  1.00  0.00     0.000 C 
BRANCH  10  11
ATOM     11  C   UNL     1      43.142  29.869  90.280  1.00  0.00    -0.000 C 
BRANCH  11  12
ATOM     12  C   UNL     1      43.652  29.117  91.518  1.00  0.00    -0.000 C 
BRANCH  12  13
ATOM     13  C   UNL     1      45.038  29.598  91.981  1.00  0.00    -0.000 C 
BRANCH  13  14
ATOM     14  C   UNL     1      46.235  28.886  91.317  1.00  0.00    -0.000 C 
BRANCH  14  15
ATOM     15  C   UNL     1      47.195  29.807  90.542  1.00  0.00    -0.000 C 
BRANCH  15  16
ATOM     16  C   UNL     1      46.646  31.231  90.372  1.00  0.00    -0.003 C 
ATOM     17  C   UNL     1      46.670  31.657  88.908  1.00  0.00     0.004 C 
ENDBRANCH  15  16
ENDBRANCH  14  15
ENDBRANCH  13  14
ENDBRANCH  12  13
ENDBRANCH  11  12
ENDBRANCH  10  11
ENDBRANCH   1  10
TORSDOF 13
ENDMDL
MODEL 7
REMARK VINA RESULT:    -3.071      2.839      5.385
REMARK INTER + INTRA:          -7.611
REMARK INTER:                  -5.509
REMARK INTRA:                  -2.102
REMARK UNBOUND:                -2.205
REMARK SMILES CCCCCCCCCCCCCCC(=O)[O-]
REMARK SMILES IDX 9 1 10 2 11 3 12 4 13 5 14 6 15 7 16 8 17 9 8 10 7 11 6 12
REMARK SMILES IDX 5 13 4 14 3 15 2 16 1 17
REMARK H PARENT
REMARK Flexibility Score: inf
ROOT
ATOM      1  C   UNL     1      45.153  30.893  89.190  1.00  0.00     0.000 C 
ENDROOT
BRANCH   1   2
ATOM      2  C   UNL     1      43.778  31.534  88.967  1.00  0.00     0.000 C 
BRANCH   2   3
ATOM      3  C   UNL     1      42.840  30.576  88.216  1.00  0.00     0.000 C 
BRANCH   3   4
ATOM      4  C   UNL     1      41.647  31.299  87.573  1.00  0.00     0.000 C 
BRANCH   4   5
ATOM      5  C   UNL     1      40.321  31.014  88.297  1.00  0.00     0.006 C 
BRANCH   5   6
ATOM      6  C   UNL     1      40.207  29.549  88.742  1.00  0.00     0.053 C 
BRANCH   6   7
ATOM      7  C   UNL     1      39.530  28.706  87.707  1.00  0.00     0.041 C 
ATOM      8  O   UNL     1      38.272  28.664  87.648  1.00  0.00    -0.550 OA
ATOM      9  O   UNL     1      40.285  27.993  86.785  1.00  0.00    -0.550 OA
ENDBRANCH   6   7
ENDBRANCH   5   6
ENDBRANCH   4   5
ENDBRANCH   3   4
ENDBRANCH   2   3
ENDBRANCH   1   2
BRANCH   1  10
ATOM     10  C   UNL     1      45.726  31.281  90.558  1.00  0.00     0.000 C 
BRANCH  10  11
ATOM     11  C   UNL     1      44.616  31.396  91.609  1.00  0.00    -0.000 C 
BRANCH  11  12
ATOM     12  C   UNL     1      44.377  30.049  92.305  1.00  0.00    -0.000 C 
BRANCH  12  13
ATOM     13  C   UNL     1      43.046  29.392  91.896  1.00  0.00    -0.000 C 
BRANCH  13  14
ATOM     14  C   UNL     1      43.175  27.988  91.268  1.00  0.00    -0.000 C 
BRANCH  14  15
ATOM     15  C   UNL     1      44.582  27.629  90.756  1.00  0.00    -0.000 C 
BRANCH  15  16
ATOM     16  C   UNL     1      44.581  27.166  89.292  1.00  0.00    -0.003 C 
ATOM     17  C   UNL     1      43.158  27.037  88.758  1.00  0.00     0.004 C 
ENDBRANCH  15  16
ENDBRANCH  14  15
ENDBRANCH  13  14
ENDBRANCH  12  13
ENDBRANCH  11  12
ENDBRANCH  10  11
ENDBRANCH   1  10
TORSDOF 13
ENDMDL
MODEL 8
REMARK VINA RESULT:    -3.063      3.130      5.183
REMARK INTER + INTRA:          -7.597
REMARK INTER:                  -6.254
REMARK INTRA:                  -1.343
REMARK UNBOUND:                -2.205
REMARK SMILES CCCCCCCCCCCCCCC(=O)[O-]
REMARK SMILES IDX 9 1 10 2 11 3 12 4 13 5 14 6 15 7 16 8 17 9 8 10 7 11 6 12
REMARK SMILES IDX 5 13 4 14 3 15 2 16 1 17
REMARK H PARENT
REMARK Flexibility Score: inf
ROOT
ATOM      1  C   UNL     1      47.976  30.425  89.818  1.00  0.00     0.000 C 
ENDROOT
BRANCH   1   2
ATOM      2  C   UNL     1      47.828  29.913  88.380  1.00  0.00     0.000 C 
BRANCH   2   3
ATOM      3  C   UNL     1      47.095  30.940  87.504  1.00  0.00     0.000 C 
BRANCH   3   4
ATOM      4  C   UNL     1      47.901  31.339  86.258  1.00  0.00     0.000 C 
BRANCH   4   5
ATOM      5  C   UNL     1      49.057  32.300  86.583  1.00  0.00     0.006 C 
BRANCH   5   6
ATOM      6  C   UNL     1      48.567  33.584  87.267  1.00  0.00     0.053 C 
BRANCH   6   7
ATOM      7  C   UNL     1      48.984  34.808  86.513  1.00  0.00     0.041 C 
ATOM      8  O   UNL     1      49.290  34.727  85.293  1.00  0.00    -0.550 OA
ATOM      9  O   UNL     1      49.001  36.045  87.145  1.00  0.00    -0.550 OA
ENDBRANCH   6   7
ENDBRANCH   5   6
ENDBRANCH   4   5
ENDBRANCH   3   4
ENDBRANCH   2   3
ENDBRANCH   1   2
BRANCH   1  10
ATOM     10  C   UNL     1      46.914  31.484  90.138  1.00  0.00     0.000 C 
BRANCH  10  11
ATOM     11  C   UNL     1      45.725  30.866  90.882  1.00  0.00    -0.000 C 
BRANCH  11  12
ATOM     12  C   UNL     1      44.399  31.240  90.205  1.00  0.00    -0.000 C 
BRANCH  12  13
ATOM     13  C   UNL     1      43.836  30.109  89.326  1.00  0.00    -0.000 C 
BRANCH  13  14
ATOM     14  C   UNL     1      43.473  30.519  87.884  1.00  0.00    -0.000 C 
BRANCH  14  15
ATOM     15  C   UNL     1      42.034  31.032  87.694  1.00  0.00    -0.000 C 
BRANCH  15  16
ATOM     16  C   UNL     1      41.057  30.460  88.730  1.00  0.00    -0.003 C 
ATOM     17  C   UNL     1      39.610  30.703  88.312  1.00  0.00     0.004 C 
ENDBRANCH  15  16
ENDBRANCH  14  15
ENDBRANCH  13  14
ENDBRANCH  12  13
ENDBRANCH  11  12
ENDBRANCH  10  11
ENDBRANCH   1  10
TORSDOF 13
ENDMDL
MODEL 9
REMARK VINA RESULT:    -3.059      2.764      5.711
REMARK INTER + INTRA:          -7.589
REMARK INTER:                  -5.455
REMARK INTRA:                  -2.134
REMARK UNBOUND:                -2.205
REMARK SMILES CCCCCCCCCCCCCCC(=O)[O-]
REMARK SMILES IDX 9 1 10 2 11 3 12 4 13 5 14 6 15 7 16 8 17 9 8 10 7 11 6 12
REMARK SMILES IDX 5 13 4 14 3 15 2 16 1 17
REMARK H PARENT
REMARK Flexibility Score: inf
ROOT
ATOM      1  C   UNL     1      42.824  31.276  88.227  1.00  0.00     0.000 C 
ENDROOT
BRANCH   1   2
ATOM      2  C   UNL     1      41.452  31.143  87.556  1.00  0.00     0.000 C 
BRANCH   2   3
ATOM      3  C   UNL     1      40.399  30.637  88.553  1.00  0.00     0.000 C 
BRANCH   3   4
ATOM      4  C   UNL     1      39.600  29.441  88.013  1.00  0.00     0.000 C 
BRANCH   4   5
ATOM      5  C   UNL     1      40.429  28.146  87.970  1.00  0.00     0.006 C 
BRANCH   5   6
ATOM      6  C   UNL     1      39.611  26.920  88.398  1.00  0.00     0.053 C 
BRANCH   6   7
ATOM      7  C   UNL     1      39.869  26.553  89.826  1.00  0.00     0.041 C 
ATOM      8  O   UNL     1      39.298  27.184  90.756  1.00  0.00    -0.550 OA
ATOM      9  O   UNL     1      40.712  25.491  90.133  1.00  0.00    -0.550 OA
ENDBRANCH   6   7
ENDBRANCH   5   6
ENDBRANCH   4   5
ENDBRANCH   3   4
ENDBRANCH   2   3
ENDBRANCH   1   2
BRANCH   1  10
ATOM     10  C   UNL     1      43.783  30.181  87.744  1.00  0.00     0.000 C 
BRANCH  10  11
ATOM     11  C   UNL     1      45.170  30.344  88.377  1.00  0.00    -0.000 C 
BRANCH  11  12
ATOM     12  C   UNL     1      45.145  31.403  89.489  1.00  0.00    -0.000 C 
BRANCH  12  13
ATOM     13  C   UNL     1      45.821  30.923  90.786  1.00  0.00    -0.000 C 
BRANCH  13  14
ATOM     14  C   UNL     1      45.064  29.816  91.548  1.00  0.00    -0.000 C 
BRANCH  14  15
ATOM     15  C   UNL     1      43.620  30.169  91.947  1.00  0.00    -0.000 C 
BRANCH  15  16
ATOM     16  C   UNL     1      42.577  29.283  91.252  1.00  0.00    -0.003 C 
ATOM     17  C   UNL     1      43.218  28.017  90.692  1.00  0.00     0.004 C 
ENDBRANCH  15  16
ENDBRANCH  14  15
ENDBRANCH  13  14
ENDBRANCH  12  13
ENDBRANCH  11  12
ENDBRANCH  10  11
ENDBRANCH   1  10
TORSDOF 13
ENDMDL
