MODEL 1
REMARK VINA RESULT:    -6.501      0.000      0.000
REMARK INTER + INTRA:          -7.924
REMARK INTER:                  -7.641
REMARK INTRA:                  -0.284
REMARK UNBOUND:                -0.284
REMARK SMILES O=c1cc(-c2ccc(O)c(O)c2)oc2cc(O)cc(O)c12
REMARK SMILES IDX 4 1 3 2 2 3 1 4 21 5 19 6 18 7 16 8 15 9 14 10 13 11 5 12
REMARK SMILES IDX 6 13 7 14 8 15 12 16 10 17 9 18 11 20 20 22 17 24
REMARK H PARENT 9 19 11 21 20 23 17 25
REMARK Flexibility Score: inf
ROOT
ATOM      1  C   UNL     1      51.733  13.595  25.535  1.00  0.00     0.138 A 
ATOM      2  C   UNL     1      51.524  12.242  25.852  1.00  0.00     0.100 A 
ATOM      3  C   UNL     1      52.220  11.672  26.919  1.00  0.00     0.197 A 
ATOM      4  O   UNL     1      52.024  10.458  27.196  1.00  0.00    -0.289 OA
ATOM      5  C   UNL     1      53.118  12.460  27.664  1.00  0.00     0.107 A 
ATOM      6  C   UNL     1      53.863  11.960  28.758  1.00  0.00     0.134 A 
ATOM      7  C   UNL     1      54.734  12.813  29.454  1.00  0.00     0.093 A 
ATOM      8  C   UNL     1      54.873  14.150  29.077  1.00  0.00     0.123 A 
ATOM      9  C   UNL     1      54.140  14.650  27.995  1.00  0.00     0.094 A 
ATOM     10  C   UNL     1      53.267  13.817  27.290  1.00  0.00     0.146 A 
ATOM     11  O   UNL     1      52.582  14.315  26.265  1.00  0.00    -0.456 OA
ENDROOT
BRANCH   1  12
ATOM     12  C   UNL     1      51.021  14.256  24.412  1.00  0.00     0.021 A 
ATOM     13  C   UNL     1      51.612  15.298  23.671  1.00  0.00     0.016 A 
ATOM     14  C   UNL     1      50.916  15.907  22.625  1.00  0.00     0.051 A 
ATOM     15  C   UNL     1      49.619  15.498  22.304  1.00  0.00     0.157 A 
ATOM     16  C   UNL     1      49.710  13.857  24.092  1.00  0.00     0.062 A 
ATOM     17  C   UNL     1      49.011  14.468  23.042  1.00  0.00     0.158 A 
BRANCH  15  18
ATOM     18  O   UNL     1      48.950  16.125  21.253  1.00  0.00    -0.504 OA
ATOM     19  H   UNL     1      47.941  16.224  21.241  1.00  0.00     0.293 HD
ENDBRANCH  15  18
BRANCH  17  20
ATOM     20  O   UNL     1      47.717  14.056  22.729  1.00  0.00    -0.504 OA
ATOM     21  H   UNL     1      47.051  14.682  22.290  1.00  0.00     0.293 HD
ENDBRANCH  17  20
ENDBRANCH   1  12
BRANCH   6  22
ATOM     22  O   UNL     1      53.745  10.629  29.158  1.00  0.00    -0.507 OA
ATOM     23  H   UNL     1      53.688  10.370  30.136  1.00  0.00     0.293 HD
ENDBRANCH   6  22
BRANCH   8  24
ATOM     24  O   UNL     1      55.745  14.976  29.784  1.00  0.00    -0.508 OA
ATOM     25  H   UNL     1      56.730  14.756  29.872  1.00  0.00     0.293 HD
ENDBRANCH   8  24
TORSDOF 5
ENDMDL
MODEL 2
REMARK VINA RESULT:    -6.438      1.916      6.856
REMARK INTER + INTRA:          -7.850
REMARK INTER:                  -7.558
REMARK INTRA:                  -0.292
REMARK UNBOUND:                -0.284
REMARK SMILES O=c1cc(-c2ccc(O)c(O)c2)oc2cc(O)cc(O)c12
REMARK SMILES IDX 4 1 3 2 2 3 1 4 21 5 19 6 18 7 16 8 15 9 14 10 13 11 5 12
REMARK SMILES IDX 6 13 7 14 8 15 12 16 10 17 9 18 11 20 20 22 17 24
REMARK H PARENT 9 19 11 21 20 23 17 25
REMARK Flexibility Score: inf
ROOT
ATOM      1  C   UNL     1      52.403  14.584  26.018  1.00  0.00     0.138 A 
ATOM      2  C   UNL     1      51.400  13.941  26.763  1.00  0.00     0.100 A 
ATOM      3  C   UNL     1      50.117  13.824  26.228  1.00  0.00     0.197 A 
ATOM      4  O   UNL     1      49.224  13.243  26.903  1.00  0.00    -0.289 OA
ATOM      5  C   UNL     1      49.846  14.348  24.949  1.00  0.00     0.107 A 
ATOM      6  C   UNL     1      48.573  14.273  24.335  1.00  0.00     0.134 A 
ATOM      7  C   UNL     1      48.386  14.815  23.054  1.00  0.00     0.093 A 
ATOM      8  C   UNL     1      49.443  15.429  22.379  1.00  0.00     0.123 A 
ATOM      9  C   UNL     1      50.703  15.507  22.982  1.00  0.00     0.094 A 
ATOM     10  C   UNL     1      50.910  14.973  24.257  1.00  0.00     0.146 A 
ATOM     11  O   UNL     1      52.116  15.060  24.808  1.00  0.00    -0.456 OA
ENDROOT
BRANCH   1  12
ATOM     12  C   UNL     1      53.786  14.738  26.535  1.00  0.00     0.021 A 
ATOM     13  C   UNL     1      54.863  15.061  25.686  1.00  0.00     0.016 A 
ATOM     14  C   UNL     1      56.155  15.191  26.199  1.00  0.00     0.051 A 
ATOM     15  C   UNL     1      56.401  14.993  27.560  1.00  0.00     0.157 A 
ATOM     16  C   UNL     1      54.042  14.527  27.903  1.00  0.00     0.062 A 
ATOM     17  C   UNL     1      55.340  14.658  28.417  1.00  0.00     0.158 A 
BRANCH  15  18
ATOM     18  O   UNL     1      57.702  15.132  28.042  1.00  0.00    -0.504 OA
ATOM     19  H   UNL     1      58.384  14.385  27.972  1.00  0.00     0.293 HD
ENDBRANCH  15  18
BRANCH  17  20
ATOM     20  O   UNL     1      55.577  14.456  29.776  1.00  0.00    -0.504 OA
ATOM     21  H   UNL     1      55.595  15.228  30.433  1.00  0.00     0.293 HD
ENDBRANCH  17  20
ENDBRANCH   1  12
BRANCH   6  22
ATOM     22  O   UNL     1      47.497  13.665  24.985  1.00  0.00    -0.507 OA
ATOM     23  H   UNL     1      47.177  13.981  25.893  1.00  0.00     0.293 HD
ENDBRANCH   6  22
BRANCH   8  24
ATOM     24  O   UNL     1      49.230  15.960  21.109  1.00  0.00    -0.508 OA
ATOM     25  H   UNL     1      48.441  16.564  20.911  1.00  0.00     0.293 HD
ENDBRANCH   8  24
TORSDOF 5
ENDMDL
MODEL 3
REMARK VINA RESULT:    -6.261      2.666      6.534
REMARK INTER + INTRA:          -7.643
REMARK INTER:                  -7.327
REMARK INTRA:                  -0.317
REMARK UNBOUND:                -0.284
REMARK SMILES O=c1cc(-c2ccc(O)c(O)c2)oc2cc(O)cc(O)c12
REMARK SMILES IDX 4 1 3 2 2 3 1 4 21 5 19 6 18 7 16 8 15 9 14 10 13 11 5 12
REMARK SMILES IDX 6 13 7 14 8 15 12 16 10 17 9 18 11 20 20 22 17 24
REMARK H PARENT 9 19 11 21 20 23 17 25
REMARK Flexibility Score: inf
ROOT
ATOM      1  C   UNL     1      52.217  14.259  26.634  1.00  0.00     0.138 A 
ATOM      2  C   UNL     1      51.782  14.159  25.301  1.00  0.00     0.100 A 
ATOM      3  C   UNL     1      50.429  13.943  25.035  1.00  0.00     0.197 A 
ATOM      4  O   UNL     1      50.048  13.857  23.837  1.00  0.00    -0.289 OA
ATOM      5  C   UNL     1      49.519  13.831  26.105  1.00  0.00     0.107 A 
ATOM      6  C   UNL     1      48.133  13.611  25.923  1.00  0.00     0.134 A 
ATOM      7  C   UNL     1      47.291  13.517  27.041  1.00  0.00     0.093 A 
ATOM      8  C   UNL     1      47.807  13.638  28.334  1.00  0.00     0.123 A 
ATOM      9  C   UNL     1      49.177  13.856  28.520  1.00  0.00     0.094 A 
ATOM     10  C   UNL     1      50.032  13.952  27.419  1.00  0.00     0.146 A 
ATOM     11  O   UNL     1      51.329  14.158  27.621  1.00  0.00    -0.456 OA
ENDROOT
BRANCH   1  12
ATOM     12  C   UNL     1      53.643  14.488  26.977  1.00  0.00     0.021 A 
ATOM     13  C   UNL     1      54.597  14.821  25.996  1.00  0.00     0.016 A 
ATOM     14  C   UNL     1      55.934  15.023  26.347  1.00  0.00     0.051 A 
ATOM     15  C   UNL     1      56.345  14.889  27.676  1.00  0.00     0.157 A 
ATOM     16  C   UNL     1      54.066  14.343  28.311  1.00  0.00     0.062 A 
ATOM     17  C   UNL     1      55.408  14.546  28.664  1.00  0.00     0.158 A 
BRANCH  15  18
ATOM     18  O   UNL     1      57.687  15.099  27.995  1.00  0.00    -0.504 OA
ATOM     19  H   UNL     1      58.369  15.371  27.296  1.00  0.00     0.293 HD
ENDBRANCH  15  18
BRANCH  17  20
ATOM     20  O   UNL     1      55.812  14.408  29.991  1.00  0.00    -0.504 OA
ATOM     21  H   UNL     1      56.752  14.643  30.287  1.00  0.00     0.293 HD
ENDBRANCH  17  20
ENDBRANCH   1  12
BRANCH   6  22
ATOM     22  O   UNL     1      47.588  13.486  24.644  1.00  0.00    -0.507 OA
ATOM     23  H   UNL     1      46.595  13.591  24.476  1.00  0.00     0.293 HD
ENDBRANCH   6  22
BRANCH   8  24
ATOM     24  O   UNL     1      46.950  13.541  29.427  1.00  0.00    -0.508 OA
ATOM     25  H   UNL     1      45.989  13.859  29.378  1.00  0.00     0.293 HD
ENDBRANCH   8  24
TORSDOF 5
ENDMDL
MODEL 4
REMARK VINA RESULT:    -6.221      2.204      6.848
REMARK INTER + INTRA:          -7.596
REMARK INTER:                  -7.278
REMARK INTRA:                  -0.318
REMARK UNBOUND:                -0.284
REMARK SMILES O=c1cc(-c2ccc(O)c(O)c2)oc2cc(O)cc(O)c12
REMARK SMILES IDX 4 1 3 2 2 3 1 4 21 5 19 6 18 7 16 8 15 9 14 10 13 11 5 12
REMARK SMILES IDX 6 13 7 14 8 15 12 16 10 17 9 18 11 20 20 22 17 24
REMARK H PARENT 9 19 11 21 20 23 17 25
REMARK Flexibility Score: inf
ROOT
ATOM      1  C   UNL     1      52.464  14.627  26.180  1.00  0.00     0.138 A 
ATOM      2  C   UNL     1      51.449  14.086  26.988  1.00  0.00     0.100 A 
ATOM      3  C   UNL     1      50.150  13.990  26.486  1.00  0.00     0.197 A 
ATOM      4  O   UNL     1      49.247  13.502  27.217  1.00  0.00    -0.289 OA
ATOM      5  C   UNL     1      49.876  14.434  25.177  1.00  0.00     0.107 A 
ATOM      6  C   UNL     1      48.588  14.375  24.593  1.00  0.00     0.134 A 
ATOM      7  C   UNL     1      48.399  14.833  23.281  1.00  0.00     0.093 A 
ATOM      8  C   UNL     1      49.468  15.348  22.544  1.00  0.00     0.123 A 
ATOM      9  C   UNL     1      50.743  15.409  23.117  1.00  0.00     0.094 A 
ATOM     10  C   UNL     1      50.953  14.958  24.423  1.00  0.00     0.146 A 
ATOM     11  O   UNL     1      52.173  15.028  24.945  1.00  0.00    -0.456 OA
ENDROOT
BRANCH   1  12
ATOM     12  C   UNL     1      53.863  14.752  26.660  1.00  0.00     0.021 A 
ATOM     13  C   UNL     1      54.254  14.292  27.933  1.00  0.00     0.016 A 
ATOM     14  C   UNL     1      55.576  14.431  28.361  1.00  0.00     0.051 A 
ATOM     15  C   UNL     1      56.528  15.038  27.537  1.00  0.00     0.157 A 
ATOM     16  C   UNL     1      54.824  15.373  25.841  1.00  0.00     0.062 A 
ATOM     17  C   UNL     1      56.151  15.513  26.271  1.00  0.00     0.158 A 
BRANCH  15  18
ATOM     18  O   UNL     1      57.840  15.160  27.993  1.00  0.00    -0.504 OA
ATOM     19  H   UNL     1      58.077  15.716  28.808  1.00  0.00     0.293 HD
ENDBRANCH  15  18
BRANCH  17  20
ATOM     20  O   UNL     1      57.094  16.122  25.444  1.00  0.00    -0.504 OA
ATOM     21  H   UNL     1      57.695  16.865  25.781  1.00  0.00     0.293 HD
ENDBRANCH  17  20
ENDBRANCH   1  12
BRANCH   6  22
ATOM     22  O   UNL     1      47.501  13.866  25.304  1.00  0.00    -0.507 OA
ATOM     23  H   UNL     1      47.606  13.105  25.965  1.00  0.00     0.293 HD
ENDBRANCH   6  22
BRANCH   8  24
ATOM     24  O   UNL     1      49.253  15.796  21.243  1.00  0.00    -0.508 OA
ATOM     25  H   UNL     1      48.994  16.756  21.048  1.00  0.00     0.293 HD
ENDBRANCH   8  24
TORSDOF 5
ENDMDL
MODEL 5
REMARK VINA RESULT:    -5.952      1.918      3.438
REMARK INTER + INTRA:          -7.280
REMARK INTER:                  -6.990
REMARK INTRA:                  -0.290
REMARK UNBOUND:                -0.284
REMARK SMILES O=c1cc(-c2ccc(O)c(O)c2)oc2cc(O)cc(O)c12
REMARK SMILES IDX 4 1 3 2 2 3 1 4 21 5 19 6 18 7 16 8 15 9 14 10 13 11 5 12
REMARK SMILES IDX 6 13 7 14 8 15 12 16 10 17 9 18 11 20 20 22 17 24
REMARK H PARENT 9 19 11 21 20 23 17 25
REMARK Flexibility Score: inf
ROOT
ATOM      1  C   UNL     1      52.601  14.970  24.768  1.00  0.00     0.138 A 
ATOM      2  C   UNL     1      53.679  15.497  24.036  1.00  0.00     0.100 A 
ATOM      3  C   UNL     1      54.918  15.654  24.657  1.00  0.00     0.197 A 
ATOM      4  O   UNL     1      55.880  16.125  23.992  1.00  0.00    -0.289 OA
ATOM      5  C   UNL     1      55.072  15.280  26.006  1.00  0.00     0.107 A 
ATOM      6  C   UNL     1      56.293  15.407  26.711  1.00  0.00     0.134 A 
ATOM      7  C   UNL     1      56.366  15.006  28.054  1.00  0.00     0.093 A 
ATOM      8  C   UNL     1      55.246  14.482  28.703  1.00  0.00     0.123 A 
ATOM      9  C   UNL     1      54.036  14.354  28.011  1.00  0.00     0.094 A 
ATOM     10  C   UNL     1      53.943  14.748  26.673  1.00  0.00     0.146 A 
ATOM     11  O   UNL     1      52.782  14.618  26.038  1.00  0.00    -0.456 OA
ENDROOT
BRANCH   1  12
ATOM     12  C   UNL     1      51.259  14.780  24.160  1.00  0.00     0.021 A 
ATOM     13  C   UNL     1      50.324  13.876  24.699  1.00  0.00     0.016 A 
ATOM     14  C   UNL     1      49.072  13.711  24.101  1.00  0.00     0.051 A 
ATOM     15  C   UNL     1      48.734  14.434  22.953  1.00  0.00     0.157 A 
ATOM     16  C   UNL     1      50.918  15.495  22.997  1.00  0.00     0.062 A 
ATOM     17  C   UNL     1      49.662  15.329  22.397  1.00  0.00     0.158 A 
BRANCH  15  18
ATOM     18  O   UNL     1      47.476  14.248  22.381  1.00  0.00    -0.504 OA
ATOM     19  H   UNL     1      46.623  14.309  22.925  1.00  0.00     0.293 HD
ENDBRANCH  15  18
BRANCH  17  20
ATOM     20  O   UNL     1      49.333  16.052  21.251  1.00  0.00    -0.504 OA
ATOM     21  H   UNL     1      49.227  17.060  21.270  1.00  0.00     0.293 HD
ENDBRANCH  17  20
ENDBRANCH   1  12
BRANCH   6  22
ATOM     22  O   UNL     1      57.429  15.927  26.090  1.00  0.00    -0.507 OA
ATOM     23  H   UNL     1      58.331  15.471  26.162  1.00  0.00     0.293 HD
ENDBRANCH   6  22
BRANCH   8  24
ATOM     24  O   UNL     1      55.345  14.091  30.036  1.00  0.00    -0.508 OA
ATOM     25  H   UNL     1      55.119  14.726  30.793  1.00  0.00     0.293 HD
ENDBRANCH   8  24
TORSDOF 5
ENDMDL
MODEL 6
REMARK VINA RESULT:    -5.837      1.132      2.658
REMARK INTER + INTRA:          -7.145
REMARK INTER:                  -6.836
REMARK INTRA:                  -0.309
REMARK UNBOUND:                -0.284
REMARK SMILES O=c1cc(-c2ccc(O)c(O)c2)oc2cc(O)cc(O)c12
REMARK SMILES IDX 4 1 3 2 2 3 1 4 21 5 19 6 18 7 16 8 15 9 14 10 13 11 5 12
REMARK SMILES IDX 6 13 7 14 8 15 12 16 10 17 9 18 11 20 20 22 17 24
REMARK H PARENT 9 19 11 21 20 23 17 25
REMARK Flexibility Score: inf
ROOT
ATOM      1  C   UNL     1      51.987  14.175  25.489  1.00  0.00     0.138 A 
ATOM      2  C   UNL     1      53.006  14.937  26.086  1.00  0.00     0.100 A 
ATOM      3  C   UNL     1      53.715  14.409  27.166  1.00  0.00     0.197 A 
ATOM      4  O   UNL     1      54.628  15.100  27.694  1.00  0.00    -0.289 OA
ATOM      5  C   UNL     1      53.403  13.120  27.639  1.00  0.00     0.107 A 
ATOM      6  C   UNL     1      54.071  12.511  28.728  1.00  0.00     0.134 A 
ATOM      7  C   UNL     1      53.705  11.220  29.135  1.00  0.00     0.093 A 
ATOM      8  C   UNL     1      52.685  10.528  28.477  1.00  0.00     0.123 A 
ATOM      9  C   UNL     1      52.020  11.124  27.400  1.00  0.00     0.094 A 
ATOM     10  C   UNL     1      52.371  12.410  26.979  1.00  0.00     0.146 A 
ATOM     11  O   UNL     1      51.724  12.956  25.955  1.00  0.00    -0.456 OA
ENDROOT
BRANCH   1  12
ATOM     12  C   UNL     1      51.200  14.684  24.338  1.00  0.00     0.021 A 
ATOM     13  C   UNL     1      51.719  15.652  23.456  1.00  0.00     0.016 A 
ATOM     14  C   UNL     1      50.952  16.119  22.386  1.00  0.00     0.051 A 
ATOM     15  C   UNL     1      49.655  15.640  22.181  1.00  0.00     0.157 A 
ATOM     16  C   UNL     1      49.889  14.215  24.133  1.00  0.00     0.062 A 
ATOM     17  C   UNL     1      49.120  14.684  23.059  1.00  0.00     0.158 A 
BRANCH  15  18
ATOM     18  O   UNL     1      48.916  16.125  21.103  1.00  0.00    -0.504 OA
ATOM     19  H   UNL     1      49.000  17.082  20.780  1.00  0.00     0.293 HD
ENDBRANCH  15  18
BRANCH  17  20
ATOM     20  O   UNL     1      47.826  14.203  22.863  1.00  0.00    -0.504 OA
ATOM     21  H   UNL     1      47.630  13.461  22.201  1.00  0.00     0.293 HD
ENDBRANCH  17  20
ENDBRANCH   1  12
BRANCH   6  22
ATOM     22  O   UNL     1      55.093  13.178  29.405  1.00  0.00    -0.507 OA
ATOM     23  H   UNL     1      55.835  13.659  28.910  1.00  0.00     0.293 HD
ENDBRANCH   6  22
BRANCH   8  24
ATOM     24  O   UNL     1      52.340   9.246  28.901  1.00  0.00    -0.508 OA
ATOM     25  H   UNL     1      51.703   8.665  28.370  1.00  0.00     0.293 HD
ENDBRANCH   8  24
TORSDOF 5
ENDMDL
MODEL 7
REMARK VINA RESULT:    -5.707      3.278      4.877
REMARK INTER + INTRA:          -6.992
REMARK INTER:                  -6.676
REMARK INTRA:                  -0.316
REMARK UNBOUND:                -0.284
REMARK SMILES O=c1cc(-c2ccc(O)c(O)c2)oc2cc(O)cc(O)c12
REMARK SMILES IDX 4 1 3 2 2 3 1 4 21 5 19 6 18 7 16 8 15 9 14 10 13 11 5 12
REMARK SMILES IDX 6 13 7 14 8 15 12 16 10 17 9 18 11 20 20 22 17 24
REMARK H PARENT 9 19 11 21 20 23 17 25
REMARK Flexibility Score: inf
ROOT
ATOM      1  C   UNL     1      51.011  14.428  26.415  1.00  0.00     0.138 A 
ATOM      2  C   UNL     1      51.112  14.753  25.052  1.00  0.00     0.100 A 
ATOM      3  C   UNL     1      52.359  15.071  24.513  1.00  0.00     0.197 A 
ATOM      4  O   UNL     1      52.439  15.360  23.288  1.00  0.00    -0.289 OA
ATOM      5  C   UNL     1      53.498  15.060  25.341  1.00  0.00     0.107 A 
ATOM      6  C   UNL     1      54.797  15.372  24.876  1.00  0.00     0.134 A 
ATOM      7  C   UNL     1      55.882  15.332  25.764  1.00  0.00     0.093 A 
ATOM      8  C   UNL     1      55.693  14.988  27.105  1.00  0.00     0.123 A 
ATOM      9  C   UNL     1      54.411  14.679  27.571  1.00  0.00     0.094 A 
ATOM     10  C   UNL     1      53.317  14.713  26.702  1.00  0.00     0.146 A 
ATOM     11  O   UNL     1      52.108  14.417  27.169  1.00  0.00    -0.456 OA
ENDROOT
BRANCH   1  12
ATOM     12  C   UNL     1      49.711  14.079  27.044  1.00  0.00     0.021 A 
ATOM     13  C   UNL     1      48.565  13.807  26.272  1.00  0.00     0.016 A 
ATOM     14  C   UNL     1      47.353  13.491  26.890  1.00  0.00     0.051 A 
ATOM     15  C   UNL     1      47.259  13.449  28.284  1.00  0.00     0.157 A 
ATOM     16  C   UNL     1      49.606  14.048  28.446  1.00  0.00     0.062 A 
ATOM     17  C   UNL     1      48.390  13.730  29.067  1.00  0.00     0.158 A 
BRANCH  15  18
ATOM     18  O   UNL     1      46.035  13.129  28.872  1.00  0.00    -0.504 OA
ATOM     19  H   UNL     1      45.714  13.576  29.723  1.00  0.00     0.293 HD
ENDBRANCH  15  18
BRANCH  17  20
ATOM     20  O   UNL     1      48.303  13.693  30.458  1.00  0.00    -0.504 OA
ATOM     21  H   UNL     1      49.106  13.469  31.035  1.00  0.00     0.293 HD
ENDBRANCH  17  20
ENDBRANCH   1  12
BRANCH   6  22
ATOM     22  O   UNL     1      55.018  15.719  23.542  1.00  0.00    -0.507 OA
ATOM     23  H   UNL     1      55.248  16.667  23.270  1.00  0.00     0.293 HD
ENDBRANCH   6  22
BRANCH   8  24
ATOM     24  O   UNL     1      56.787  14.955  27.966  1.00  0.00    -0.508 OA
ATOM     25  H   UNL     1      56.707  14.605  28.914  1.00  0.00     0.293 HD
ENDBRANCH   8  24
TORSDOF 5
ENDMDL
MODEL 8
REMARK VINA RESULT:    -5.117      3.023      6.589
REMARK INTER + INTRA:          -6.298
REMARK INTER:                  -5.987
REMARK INTRA:                  -0.311
REMARK UNBOUND:                -0.284
REMARK SMILES O=c1cc(-c2ccc(O)c(O)c2)oc2cc(O)cc(O)c12
REMARK SMILES IDX 4 1 3 2 2 3 1 4 21 5 19 6 18 7 16 8 15 9 14 10 13 11 5 12
REMARK SMILES IDX 6 13 7 14 8 15 12 16 10 17 9 18 11 20 20 22 17 24
REMARK H PARENT 9 19 11 21 20 23 17 25
REMARK Flexibility Score: inf
ROOT
ATOM      1  C   UNL     1      51.631  14.427  27.070  1.00  0.00     0.138 A 
ATOM      2  C   UNL     1      50.963  14.111  28.265  1.00  0.00     0.100 A 
ATOM      3  C   UNL     1      49.579  14.266  28.339  1.00  0.00     0.197 A 
ATOM      4  O   UNL     1      48.989  13.978  29.415  1.00  0.00    -0.289 OA
ATOM      5  C   UNL     1      48.870  14.734  27.216  1.00  0.00     0.107 A 
ATOM      6  C   UNL     1      47.467  14.920  27.207  1.00  0.00     0.134 A 
ATOM      7  C   UNL     1      46.835  15.384  26.044  1.00  0.00     0.093 A 
ATOM      8  C   UNL     1      47.575  15.665  24.894  1.00  0.00     0.123 A 
ATOM      9  C   UNL     1      48.963  15.483  24.896  1.00  0.00     0.094 A 
ATOM     10  C   UNL     1      49.612  15.021  26.045  1.00  0.00     0.146 A 
ATOM     11  O   UNL     1      50.930  14.857  26.023  1.00  0.00    -0.456 OA
ENDROOT
BRANCH   1  12
ATOM     12  C   UNL     1      53.102  14.281  26.932  1.00  0.00     0.021 A 
ATOM     13  C   UNL     1      53.844  13.426  27.770  1.00  0.00     0.016 A 
ATOM     14  C   UNL     1      55.228  13.316  27.623  1.00  0.00     0.051 A 
ATOM     15  C   UNL     1      55.899  14.059  26.648  1.00  0.00     0.157 A 
ATOM     16  C   UNL     1      53.785  15.036  25.960  1.00  0.00     0.062 A 
ATOM     17  C   UNL     1      55.175  14.925  25.813  1.00  0.00     0.158 A 
BRANCH  15  18
ATOM     18  O   UNL     1      57.282  13.925  26.525  1.00  0.00    -0.504 OA
ATOM     19  H   UNL     1      57.760  13.058  26.742  1.00  0.00     0.293 HD
ENDBRANCH  15  18
BRANCH  17  20
ATOM     20  O   UNL     1      55.837  15.672  24.839  1.00  0.00    -0.504 OA
ATOM     21  H   UNL     1      56.600  15.282  24.298  1.00  0.00     0.293 HD
ENDBRANCH  17  20
ENDBRANCH   1  12
BRANCH   6  22
ATOM     22  O   UNL     1      46.700  14.649  28.341  1.00  0.00    -0.507 OA
ATOM     23  H   UNL     1      45.972  15.279  28.655  1.00  0.00     0.293 HD
ENDBRANCH   6  22
BRANCH   8  24
ATOM     24  O   UNL     1      46.923  16.125  23.752  1.00  0.00    -0.508 OA
ATOM     25  H   UNL     1      47.343  16.046  22.833  1.00  0.00     0.293 HD
ENDBRANCH   8  24
TORSDOF 5
ENDMDL
MODEL 9
REMARK VINA RESULT:    -3.842      2.027      7.121
REMARK INTER + INTRA:          -4.800
REMARK INTER:                  -4.535
REMARK INTRA:                  -0.265
REMARK UNBOUND:                -0.284
REMARK SMILES O=c1cc(-c2ccc(O)c(O)c2)oc2cc(O)cc(O)c12
REMARK SMILES IDX 4 1 3 2 2 3 1 4 21 5 19 6 18 7 16 8 15 9 14 10 13 11 5 12
REMARK SMILES IDX 6 13 7 14 8 15 12 16 10 17 9 18 11 20 20 22 17 24
REMARK H PARENT 9 19 11 21 20 23 17 25
REMARK Flexibility Score: inf
ROOT
ATOM      1  C   UNL     1      50.634  13.844  26.635  1.00  0.00     0.138 A 
ATOM      2  C   UNL     1      49.430  14.121  27.304  1.00  0.00     0.100 A 
ATOM      3  C   UNL     1      48.399  14.768  26.621  1.00  0.00     0.197 A 
ATOM      4  O   UNL     1      47.322  15.010  27.229  1.00  0.00    -0.289 OA
ATOM      5  C   UNL     1      48.579  15.131  25.272  1.00  0.00     0.107 A 
ATOM      6  C   UNL     1      47.587  15.790  24.508  1.00  0.00     0.134 A 
ATOM      7  C   UNL     1      47.843  16.113  23.167  1.00  0.00     0.093 A 
ATOM      8  C   UNL     1      49.067  15.791  22.577  1.00  0.00     0.123 A 
ATOM      9  C   UNL     1      50.052  15.140  23.328  1.00  0.00     0.094 A 
ATOM     10  C   UNL     1      49.817  14.809  24.665  1.00  0.00     0.146 A 
ATOM     11  O   UNL     1      50.769  14.192  25.357  1.00  0.00    -0.456 OA
ENDROOT
BRANCH   1  12
ATOM     12  C   UNL     1      51.765  13.157  27.310  1.00  0.00     0.021 A 
ATOM     13  C   UNL     1      52.988  13.812  27.555  1.00  0.00     0.016 A 
ATOM     14  C   UNL     1      54.038  13.139  28.184  1.00  0.00     0.051 A 
ATOM     15  C   UNL     1      53.893  11.803  28.571  1.00  0.00     0.157 A 
ATOM     16  C   UNL     1      51.630  11.810  27.691  1.00  0.00     0.062 A 
ATOM     17  C   UNL     1      52.684  11.134  28.322  1.00  0.00     0.158 A 
BRANCH  15  18
ATOM     18  O   UNL     1      54.960  11.159  29.198  1.00  0.00    -0.504 OA
ATOM     19  H   UNL     1      55.550  11.631  29.874  1.00  0.00     0.293 HD
ENDBRANCH  15  18
BRANCH  17  20
ATOM     20  O   UNL     1      52.532   9.802  28.703  1.00  0.00    -0.504 OA
ATOM     21  H   UNL     1      51.655   9.450  29.069  1.00  0.00     0.293 HD
ENDBRANCH  17  20
ENDBRANCH   1  12
BRANCH   6  22
ATOM     22  O   UNL     1      46.354  16.125  25.070  1.00  0.00    -0.507 OA
ATOM     23  H   UNL     1      46.257  16.896  25.719  1.00  0.00     0.293 HD
ENDBRANCH   6  22
BRANCH   8  24
ATOM     24  O   UNL     1      49.295  16.123  21.244  1.00  0.00    -0.508 OA
ATOM     25  H   UNL     1      48.867  16.937  20.819  1.00  0.00     0.293 HD
ENDBRANCH   8  24
TORSDOF 5
ENDMDL
