MODEL 1
REMARK VINA RESULT:    -3.736      0.000      0.000
REMARK INTER + INTRA:          -4.496
REMARK INTER:                  -4.392
REMARK INTRA:                  -0.104
REMARK UNBOUND:                -0.104
REMARK SMILES CCCCC(=O)[O-]
REMARK SMILES IDX 4 1 5 2 6 3 7 4 3 5 2 6 1 7
REMARK H PARENT
REMARK Flexibility Score: inf
ROOT
ATOM      1  C   UNL     1      13.404  33.569  13.576  1.00  0.00     0.053 C 
ENDROOT
BRANCH   1   2
ATOM      2  C   UNL     1      14.199  34.807  13.303  1.00  0.00     0.041 C 
ATOM      3  O   UNL     1      15.414  34.863  13.626  1.00  0.00    -0.550 OA
ATOM      4  O   UNL     1      13.610  35.881  12.647  1.00  0.00    -0.550 OA
ENDBRANCH   1   2
BRANCH   1   5
ATOM      5  C   UNL     1      13.667  32.515  12.493  1.00  0.00     0.006 C 
BRANCH   5   6
ATOM      6  C   UNL     1      14.463  31.312  13.022  1.00  0.00    -0.003 C 
ATOM      7  C   UNL     1      15.972  31.479  12.846  1.00  0.00     0.004 C 
ENDBRANCH   5   6
ENDBRANCH   1   5
TORSDOF 3
ENDMDL
MODEL 2
REMARK VINA RESULT:    -3.632      1.519      1.983
REMARK INTER + INTRA:          -4.374
REMARK INTER:                  -4.305
REMARK INTRA:                  -0.069
REMARK UNBOUND:                -0.104
REMARK SMILES CCCCC(=O)[O-]
REMARK SMILES IDX 4 1 5 2 6 3 7 4 3 5 2 6 1 7
REMARK H PARENT
REMARK Flexibility Score: inf
ROOT
ATOM      1  C   UNL     1      14.550  34.898  13.233  1.00  0.00     0.053 C 
ENDROOT
BRANCH   1   2
ATOM      2  C   UNL     1      13.679  36.002  12.722  1.00  0.00     0.041 C 
ATOM      3  O   UNL     1      12.761  36.470  13.444  1.00  0.00    -0.550 OA
ATOM      4  O   UNL     1      13.914  36.547  11.466  1.00  0.00    -0.550 OA
ENDBRANCH   1   2
BRANCH   1   5
ATOM      5  C   UNL     1      13.708  33.853  13.977  1.00  0.00     0.006 C 
BRANCH   5   6
ATOM      6  C   UNL     1      13.192  32.742  13.050  1.00  0.00    -0.003 C 
ATOM      7  C   UNL     1      14.317  31.892  12.463  1.00  0.00     0.004 C 
ENDBRANCH   5   6
ENDBRANCH   1   5
TORSDOF 3
ENDMDL
MODEL 3
REMARK VINA RESULT:    -3.554      1.030      1.539
REMARK INTER + INTRA:          -4.282
REMARK INTER:                  -4.240
REMARK INTRA:                  -0.042
REMARK UNBOUND:                -0.104
REMARK SMILES CCCCC(=O)[O-]
REMARK SMILES IDX 4 1 5 2 6 3 7 4 3 5 2 6 1 7
REMARK H PARENT
REMARK Flexibility Score: inf
ROOT
ATOM      1  C   UNL     1      13.356  33.646  13.310  1.00  0.00     0.053 C 
ENDROOT
BRANCH   1   2
ATOM      2  C   UNL     1      14.146  34.915  13.247  1.00  0.00     0.041 C 
ATOM      3  O   UNL     1      15.350  34.930  13.615  1.00  0.00    -0.550 OA
ATOM      4  O   UNL     1      13.568  36.070  12.734  1.00  0.00    -0.550 OA
ENDBRANCH   1   2
BRANCH   1   5
ATOM      5  C   UNL     1      14.239  32.446  12.947  1.00  0.00     0.006 C 
BRANCH   5   6
ATOM      6  C   UNL     1      13.692  31.122  13.501  1.00  0.00    -0.003 C 
ATOM      7  C   UNL     1      12.340  31.285  14.194  1.00  0.00     0.004 C 
ENDBRANCH   5   6
ENDBRANCH   1   5
TORSDOF 3
ENDMDL
MODEL 4
REMARK VINA RESULT:    -3.516     12.324     13.750
REMARK INTER + INTRA:          -4.237
REMARK INTER:                  -4.214
REMARK INTRA:                  -0.023
REMARK UNBOUND:                -0.104
REMARK SMILES CCCCC(=O)[O-]
REMARK SMILES IDX 4 1 5 2 6 3 7 4 3 5 2 6 1 7
REMARK H PARENT
REMARK Flexibility Score: inf
ROOT
ATOM      1  C   UNL     1       2.823  40.879  12.480  1.00  0.00     0.053 C 
ENDROOT
BRANCH   1   2
ATOM      2  C   UNL     1       3.574  39.637  12.846  1.00  0.00     0.041 C 
ATOM      3  O   UNL     1       4.732  39.718  13.333  1.00  0.00    -0.550 OA
ATOM      4  O   UNL     1       2.974  38.393  12.695  1.00  0.00    -0.550 OA
ENDBRANCH   1   2
BRANCH   1   5
ATOM      5  C   UNL     1       3.760  41.894  11.813  1.00  0.00     0.006 C 
BRANCH   5   6
ATOM      6  C   UNL     1       3.202  43.325  11.851  1.00  0.00    -0.003 C 
ATOM      7  C   UNL     1       4.182  44.324  12.464  1.00  0.00     0.004 C 
ENDBRANCH   5   6
ENDBRANCH   1   5
TORSDOF 3
ENDMDL
MODEL 5
REMARK VINA RESULT:    -3.513     15.147     16.130
REMARK INTER + INTRA:          -4.234
REMARK INTER:                  -4.213
REMARK INTRA:                  -0.021
REMARK UNBOUND:                -0.104
REMARK SMILES CCCCC(=O)[O-]
REMARK SMILES IDX 4 1 5 2 6 3 7 4 3 5 2 6 1 7
REMARK H PARENT
REMARK Flexibility Score: inf
ROOT
ATOM      1  C   UNL     1       4.086  45.953  10.903  1.00  0.00     0.053 C 
ENDROOT
BRANCH   1   2
ATOM      2  C   UNL     1       4.182  44.560  11.440  1.00  0.00     0.041 C 
ATOM      3  O   UNL     1       4.309  44.365  12.678  1.00  0.00    -0.550 OA
ATOM      4  O   UNL     1       4.080  43.474  10.579  1.00  0.00    -0.550 OA
ENDBRANCH   1   2
BRANCH   1   5
ATOM      5  C   UNL     1       4.592  46.006   9.456  1.00  0.00     0.006 C 
BRANCH   5   6
ATOM      6  C   UNL     1       4.970  47.428   9.015  1.00  0.00    -0.003 C 
ATOM      7  C   UNL     1       6.449  47.742   9.235  1.00  0.00     0.004 C 
ENDBRANCH   5   6
ENDBRANCH   1   5
TORSDOF 3
ENDMDL
MODEL 6
REMARK VINA RESULT:    -3.500      2.058      3.736
REMARK INTER + INTRA:          -4.218
REMARK INTER:                  -4.218
REMARK INTRA:                  -0.000
REMARK UNBOUND:                -0.104
REMARK SMILES CCCCC(=O)[O-]
REMARK SMILES IDX 4 1 5 2 6 3 7 4 3 5 2 6 1 7
REMARK H PARENT
REMARK Flexibility Score: inf
ROOT
ATOM      1  C   UNL     1      13.443  32.780  12.847  1.00  0.00     0.053 C 
ENDROOT
BRANCH   1   2
ATOM      2  C   UNL     1      14.712  31.994  12.747  1.00  0.00     0.041 C 
ATOM      3  O   UNL     1      14.763  30.962  12.027  1.00  0.00    -0.550 OA
ATOM      4  O   UNL     1      15.853  32.429  13.410  1.00  0.00    -0.550 OA
ENDBRANCH   1   2
BRANCH   1   5
ATOM      5  C   UNL     1      13.634  33.991  13.768  1.00  0.00     0.006 C 
BRANCH   5   6
ATOM      6  C   UNL     1      14.055  35.254  13.002  1.00  0.00    -0.003 C 
ATOM      7  C   UNL     1      13.047  36.394  13.143  1.00  0.00     0.004 C 
ENDBRANCH   5   6
ENDBRANCH   1   5
TORSDOF 3
ENDMDL
MODEL 7
REMARK VINA RESULT:    -3.410     14.634     15.512
REMARK INTER + INTRA:          -4.113
REMARK INTER:                  -4.003
REMARK INTRA:                  -0.109
REMARK UNBOUND:                -0.104
REMARK SMILES CCCCC(=O)[O-]
REMARK SMILES IDX 4 1 5 2 6 3 7 4 3 5 2 6 1 7
REMARK H PARENT
REMARK Flexibility Score: inf
ROOT
ATOM      1  C   UNL     1       2.860  43.733  12.101  1.00  0.00     0.053 C 
ENDROOT
BRANCH   1   2
ATOM      2  C   UNL     1       2.882  42.454  11.324  1.00  0.00     0.041 C 
ATOM      3  O   UNL     1       3.000  41.352  11.921  1.00  0.00    -0.550 OA
ATOM      4  O   UNL     1       2.722  42.477   9.944  1.00  0.00    -0.550 OA
ENDBRANCH   1   2
BRANCH   1   5
ATOM      5  C   UNL     1       4.133  44.545  11.833  1.00  0.00     0.006 C 
BRANCH   5   6
ATOM      6  C   UNL     1       3.865  45.799  10.988  1.00  0.00    -0.003 C 
ATOM      7  C   UNL     1       4.393  45.672   9.559  1.00  0.00     0.004 C 
ENDBRANCH   5   6
ENDBRANCH   1   5
TORSDOF 3
ENDMDL
MODEL 8
REMARK VINA RESULT:    -3.365     14.683     15.625
REMARK INTER + INTRA:          -4.059
REMARK INTER:                  -3.992
REMARK INTRA:                  -0.067
REMARK UNBOUND:                -0.104
REMARK SMILES CCCCC(=O)[O-]
REMARK SMILES IDX 4 1 5 2 6 3 7 4 3 5 2 6 1 7
REMARK H PARENT
REMARK Flexibility Score: inf
ROOT
ATOM      1  C   UNL     1       3.757  45.637  11.139  1.00  0.00     0.053 C 
ENDROOT
BRANCH   1   2
ATOM      2  C   UNL     1       4.303  45.476   9.756  1.00  0.00     0.041 C 
ATOM      3  O   UNL     1       4.156  44.388   9.139  1.00  0.00    -0.550 OA
ATOM      4  O   UNL     1       4.932  46.544   9.128  1.00  0.00    -0.550 OA
ENDBRANCH   1   2
BRANCH   1   5
ATOM      5  C   UNL     1       4.024  44.375  11.970  1.00  0.00     0.006 C 
BRANCH   5   6
ATOM      6  C   UNL     1       2.769  43.505  12.141  1.00  0.00    -0.003 C 
ATOM      7  C   UNL     1       3.006  42.046  11.754  1.00  0.00     0.004 C 
ENDBRANCH   5   6
ENDBRANCH   1   5
TORSDOF 3
ENDMDL
MODEL 9
REMARK VINA RESULT:    -3.352     15.511     16.404
REMARK INTER + INTRA:          -4.044
REMARK INTER:                  -4.019
REMARK INTRA:                  -0.025
REMARK UNBOUND:                -0.104
REMARK SMILES CCCCC(=O)[O-]
REMARK SMILES IDX 4 1 5 2 6 3 7 4 3 5 2 6 1 7
REMARK H PARENT
REMARK Flexibility Score: inf
ROOT
ATOM      1  C   UNL     1       4.825  46.453  10.186  1.00  0.00     0.053 C 
ENDROOT
BRANCH   1   2
ATOM      2  C   UNL     1       5.173  47.373   9.059  1.00  0.00     0.041 C 
ATOM      3  O   UNL     1       4.282  47.756   8.256  1.00  0.00    -0.550 OA
ATOM      4  O   UNL     1       6.472  47.848   8.925  1.00  0.00    -0.550 OA
ENDBRANCH   1   2
BRANCH   1   5
ATOM      5  C   UNL     1       4.069  45.225   9.662  1.00  0.00     0.006 C 
BRANCH   5   6
ATOM      6  C   UNL     1       4.107  44.046  10.645  1.00  0.00    -0.003 C 
ATOM      7  C   UNL     1       4.070  44.493  12.106  1.00  0.00     0.004 C 
ENDBRANCH   5   6
ENDBRANCH   1   5
TORSDOF 3
ENDMDL
