MODEL 1
REMARK VINA RESULT:    -4.821      0.000      0.000
REMARK INTER + INTRA:          -5.370
REMARK INTER:                  -5.244
REMARK INTRA:                  -0.126
REMARK UNBOUND:                -0.126
REMARK SMILES Cc1ccc(C(C)C)cc1O
REMARK SMILES IDX 1 1 2 2 10 3 9 4 5 5 4 6 3 7 11 8 6 10 7 11 8 12
REMARK H PARENT 11 9
REMARK Flexibility Score: inf
ROOT
ATOM      1  C   UNL     1    -106.312 -13.562  51.901  1.00  0.00     0.048 C 
ATOM      2  C   UNL     1    -107.412 -14.054  52.797  1.00  0.00    -0.009 A 
ATOM      3  C   UNL     1    -107.572 -13.515  54.085  1.00  0.00     0.118 A 
ATOM      4  C   UNL     1    -108.601 -13.979  54.917  1.00  0.00     0.050 A 
ATOM      5  C   UNL     1    -109.480 -14.984  54.478  1.00  0.00    -0.042 A 
ATOM      6  C   UNL     1    -109.312 -15.518  53.188  1.00  0.00     0.004 A 
ATOM      7  C   UNL     1    -108.288 -15.058  52.357  1.00  0.00     0.007 A 
ENDROOT
BRANCH   3   8
ATOM      8  O   UNL     1    -106.707 -12.516  54.536  1.00  0.00    -0.508 OA
ATOM      9  H   UNL     1    -107.056 -11.639  54.906  1.00  0.00     0.293 HD
ENDBRANCH   3   8
BRANCH   5  10
ATOM     10  C   UNL     1    -110.588 -15.475  55.391  1.00  0.00     0.013 C 
ATOM     11  C   UNL     1    -111.910 -15.618  54.629  1.00  0.00     0.012 C 
ATOM     12  C   UNL     1    -110.199 -16.793  56.073  1.00  0.00     0.012 C 
ENDBRANCH   5  10
TORSDOF 2
ENDMDL
MODEL 2
REMARK VINA RESULT:    -4.472      2.061      4.043
REMARK INTER + INTRA:          -4.990
REMARK INTER:                  -4.867
REMARK INTRA:                  -0.123
REMARK UNBOUND:                -0.126
REMARK SMILES Cc1ccc(C(C)C)cc1O
REMARK SMILES IDX 1 1 2 2 10 3 9 4 5 5 4 6 3 7 11 8 6 10 7 11 8 12
REMARK H PARENT 11 9
REMARK Flexibility Score: inf
ROOT
ATOM      1  C   UNL     1    -109.019 -13.222  54.593  1.00  0.00     0.048 C 
ATOM      2  C   UNL     1    -108.599 -14.216  53.548  1.00  0.00    -0.009 A 
ATOM      3  C   UNL     1    -107.429 -14.004  52.797  1.00  0.00     0.118 A 
ATOM      4  C   UNL     1    -107.042 -14.936  51.823  1.00  0.00     0.050 A 
ATOM      5  C   UNL     1    -107.815 -16.086  51.585  1.00  0.00    -0.042 A 
ATOM      6  C   UNL     1    -108.983 -16.290  52.340  1.00  0.00     0.004 A 
ATOM      7  C   UNL     1    -109.370 -15.363  53.311  1.00  0.00     0.007 A 
ENDROOT
BRANCH   3   8
ATOM      8  O   UNL     1    -106.652 -12.866  53.022  1.00  0.00    -0.508 OA
ATOM      9  H   UNL     1    -106.825 -11.998  52.528  1.00  0.00     0.293 HD
ENDBRANCH   3   8
BRANCH   5  10
ATOM     10  C   UNL     1    -107.382 -17.084  50.527  1.00  0.00     0.013 C 
ATOM     11  C   UNL     1    -105.955 -16.798  50.048  1.00  0.00     0.012 C 
ATOM     12  C   UNL     1    -107.515 -18.524  51.038  1.00  0.00     0.012 C 
ENDBRANCH   5  10
TORSDOF 2
ENDMDL
MODEL 3
REMARK VINA RESULT:    -4.397      1.854      3.453
REMARK INTER + INTRA:          -4.908
REMARK INTER:                  -4.782
REMARK INTRA:                  -0.126
REMARK UNBOUND:                -0.126
REMARK SMILES Cc1ccc(C(C)C)cc1O
REMARK SMILES IDX 1 1 2 2 10 3 9 4 5 5 4 6 3 7 11 8 6 10 7 11 8 12
REMARK H PARENT 11 9
REMARK Flexibility Score: inf
ROOT
ATOM      1  C   UNL     1    -107.406 -12.211  54.876  1.00  0.00     0.048 C 
ATOM      2  C   UNL     1    -107.639 -13.361  53.938  1.00  0.00    -0.009 A 
ATOM      3  C   UNL     1    -106.837 -13.518  52.795  1.00  0.00     0.118 A 
ATOM      4  C   UNL     1    -107.060 -14.593  51.923  1.00  0.00     0.050 A 
ATOM      5  C   UNL     1    -108.084 -15.522  52.179  1.00  0.00    -0.042 A 
ATOM      6  C   UNL     1    -108.882 -15.358  53.325  1.00  0.00     0.004 A 
ATOM      7  C   UNL     1    -108.662 -14.287  54.195  1.00  0.00     0.007 A 
ENDROOT
BRANCH   3   8
ATOM      8  O   UNL     1    -105.817 -12.603  52.528  1.00  0.00    -0.508 OA
ATOM      9  H   UNL     1    -104.893 -12.706  52.931  1.00  0.00     0.293 HD
ENDBRANCH   3   8
BRANCH   5  10
ATOM     10  C   UNL     1    -108.312 -16.681  51.225  1.00  0.00     0.013 C 
ATOM     11  C   UNL     1    -107.017 -17.064  50.501  1.00  0.00     0.012 C 
ATOM     12  C   UNL     1    -108.914 -17.887  51.956  1.00  0.00     0.012 C 
ENDBRANCH   5  10
TORSDOF 2
ENDMDL
MODEL 4
REMARK VINA RESULT:    -4.297      3.120      4.758
REMARK INTER + INTRA:          -4.800
REMARK INTER:                  -4.679
REMARK INTRA:                  -0.121
REMARK UNBOUND:                -0.126
REMARK SMILES Cc1ccc(C(C)C)cc1O
REMARK SMILES IDX 1 1 2 2 10 3 9 4 5 5 4 6 3 7 11 8 6 10 7 11 8 12
REMARK H PARENT 11 9
REMARK Flexibility Score: inf
ROOT
ATOM      1  C   UNL     1    -107.856 -19.334  50.211  1.00  0.00     0.048 C 
ATOM      2  C   UNL     1    -107.812 -17.963  50.825  1.00  0.00    -0.009 A 
ATOM      3  C   UNL     1    -106.700 -17.129  50.616  1.00  0.00     0.118 A 
ATOM      4  C   UNL     1    -106.665 -15.850  51.191  1.00  0.00     0.050 A 
ATOM      5  C   UNL     1    -107.734 -15.389  51.980  1.00  0.00    -0.042 A 
ATOM      6  C   UNL     1    -108.842 -16.231  52.183  1.00  0.00     0.004 A 
ATOM      7  C   UNL     1    -108.880 -17.505  51.612  1.00  0.00     0.007 A 
ENDROOT
BRANCH   3   8
ATOM      8  O   UNL     1    -105.631 -17.572  49.836  1.00  0.00    -0.508 OA
ATOM      9  H   UNL     1    -105.358 -17.090  48.987  1.00  0.00     0.293 HD
ENDBRANCH   3   8
BRANCH   5  10
ATOM     10  C   UNL     1    -107.680 -14.003  52.595  1.00  0.00     0.013 C 
ATOM     11  C   UNL     1    -108.009 -14.050  54.092  1.00  0.00     0.012 C 
ATOM     12  C   UNL     1    -106.319 -13.342  52.349  1.00  0.00     0.012 C 
ENDBRANCH   5  10
TORSDOF 2
ENDMDL
MODEL 5
REMARK VINA RESULT:    -4.288     12.824     15.406
REMARK INTER + INTRA:          -4.790
REMARK INTER:                  -4.664
REMARK INTRA:                  -0.126
REMARK UNBOUND:                -0.126
REMARK SMILES Cc1ccc(C(C)C)cc1O
REMARK SMILES IDX 1 1 2 2 10 3 9 4 5 5 4 6 3 7 11 8 6 10 7 11 8 12
REMARK H PARENT 11 9
REMARK Flexibility Score: inf
ROOT
ATOM      1  C   UNL     1     -98.843  -0.875  47.514  1.00  0.00     0.048 C 
ATOM      2  C   UNL     1    -100.083  -1.715  47.626  1.00  0.00    -0.009 A 
ATOM      3  C   UNL     1    -100.772  -2.121  46.470  1.00  0.00     0.118 A 
ATOM      4  C   UNL     1    -101.929  -2.904  46.582  1.00  0.00     0.050 A 
ATOM      5  C   UNL     1    -102.414  -3.291  47.844  1.00  0.00    -0.042 A 
ATOM      6  C   UNL     1    -101.719  -2.880  48.995  1.00  0.00     0.004 A 
ATOM      7  C   UNL     1    -100.566  -2.100  48.886  1.00  0.00     0.007 A 
ENDROOT
BRANCH   3   8
ATOM      8  O   UNL     1    -100.303  -1.744  45.210  1.00  0.00    -0.508 OA
ATOM      9  H   UNL     1    -100.922  -1.357  44.507  1.00  0.00     0.293 HD
ENDBRANCH   3   8
BRANCH   5  10
ATOM     10  C   UNL     1    -103.669  -4.139  47.947  1.00  0.00     0.013 C 
ATOM     11  C   UNL     1    -103.726  -4.879  49.288  1.00  0.00     0.012 C 
ATOM     12  C   UNL     1    -104.928  -3.292  47.729  1.00  0.00     0.012 C 
ENDBRANCH   5  10
TORSDOF 2
ENDMDL
MODEL 6
REMARK VINA RESULT:    -4.152     12.817     15.037
REMARK INTER + INTRA:          -4.642
REMARK INTER:                  -4.515
REMARK INTRA:                  -0.127
REMARK UNBOUND:                -0.126
REMARK SMILES Cc1ccc(C(C)C)cc1O
REMARK SMILES IDX 1 1 2 2 10 3 9 4 5 5 4 6 3 7 11 8 6 10 7 11 8 12
REMARK H PARENT 11 9
REMARK Flexibility Score: inf
ROOT
ATOM      1  C   UNL     1    -106.115  -3.486  48.855  1.00  0.00     0.048 C 
ATOM      2  C   UNL     1    -104.693  -3.315  48.402  1.00  0.00    -0.009 A 
ATOM      3  C   UNL     1    -103.696  -2.943  49.319  1.00  0.00     0.118 A 
ATOM      4  C   UNL     1    -102.370  -2.786  48.890  1.00  0.00     0.050 A 
ATOM      5  C   UNL     1    -102.024  -2.995  47.543  1.00  0.00    -0.042 A 
ATOM      6  C   UNL     1    -103.028  -3.368  46.632  1.00  0.00     0.004 A 
ATOM      7  C   UNL     1    -104.349  -3.525  47.058  1.00  0.00     0.007 A 
ENDROOT
BRANCH   3   8
ATOM      8  O   UNL     1    -104.025  -2.731  50.659  1.00  0.00    -0.508 OA
ATOM      9  H   UNL     1    -103.463  -2.134  51.256  1.00  0.00     0.293 HD
ENDBRANCH   3   8
BRANCH   5  10
ATOM     10  C   UNL     1    -100.584  -2.821  47.095  1.00  0.00     0.013 C 
ATOM     11  C   UNL     1    -100.502  -2.584  45.583  1.00  0.00     0.012 C 
ATOM     12  C   UNL     1     -99.898  -1.689  47.869  1.00  0.00     0.012 C 
ENDBRANCH   5  10
TORSDOF 2
ENDMDL
MODEL 7
REMARK VINA RESULT:    -4.147     14.064     15.027
REMARK INTER + INTRA:          -4.637
REMARK INTER:                  -4.512
REMARK INTRA:                  -0.125
REMARK UNBOUND:                -0.126
REMARK SMILES Cc1ccc(C(C)C)cc1O
REMARK SMILES IDX 1 1 2 2 10 3 9 4 5 5 4 6 3 7 11 8 6 10 7 11 8 12
REMARK H PARENT 11 9
REMARK Flexibility Score: inf
ROOT
ATOM      1  C   UNL     1    -100.260  -1.654  48.702  1.00  0.00     0.048 C 
ATOM      2  C   UNL     1    -101.213  -2.428  47.837  1.00  0.00    -0.009 A 
ATOM      3  C   UNL     1    -102.418  -2.917  48.371  1.00  0.00     0.118 A 
ATOM      4  C   UNL     1    -103.304  -3.639  47.559  1.00  0.00     0.050 A 
ATOM      5  C   UNL     1    -103.001  -3.883  46.208  1.00  0.00    -0.042 A 
ATOM      6  C   UNL     1    -101.793  -3.391  45.682  1.00  0.00     0.004 A 
ATOM      7  C   UNL     1    -100.909  -2.671  46.489  1.00  0.00     0.007 A 
ENDROOT
BRANCH   3   8
ATOM      8  O   UNL     1    -102.733  -2.682  49.711  1.00  0.00    -0.508 OA
ATOM      9  H   UNL     1    -102.610  -1.769  50.133  1.00  0.00     0.293 HD
ENDBRANCH   3   8
BRANCH   5  10
ATOM     10  C   UNL     1    -103.970  -4.667  45.343  1.00  0.00     0.013 C 
ATOM     11  C   UNL     1    -105.053  -3.752  44.759  1.00  0.00     0.012 C 
ATOM     12  C   UNL     1    -103.232  -5.425  44.234  1.00  0.00     0.012 C 
ENDBRANCH   5  10
TORSDOF 2
ENDMDL
MODEL 8
REMARK VINA RESULT:    -4.128     12.163     14.597
REMARK INTER + INTRA:          -4.615
REMARK INTER:                  -4.490
REMARK INTRA:                  -0.126
REMARK UNBOUND:                -0.126
REMARK SMILES Cc1ccc(C(C)C)cc1O
REMARK SMILES IDX 1 1 2 2 10 3 9 4 5 5 4 6 3 7 11 8 6 10 7 11 8 12
REMARK H PARENT 11 9
REMARK Flexibility Score: inf
ROOT
ATOM      1  C   UNL     1    -100.335  -2.650  44.697  1.00  0.00     0.048 C 
ATOM      2  C   UNL     1    -101.221  -2.973  45.866  1.00  0.00    -0.009 A 
ATOM      3  C   UNL     1    -100.773  -2.746  47.179  1.00  0.00     0.118 A 
ATOM      4  C   UNL     1    -101.605  -3.049  48.266  1.00  0.00     0.050 A 
ATOM      5  C   UNL     1    -102.889  -3.582  48.060  1.00  0.00    -0.042 A 
ATOM      6  C   UNL     1    -103.329  -3.806  46.743  1.00  0.00     0.004 A 
ATOM      7  C   UNL     1    -102.503  -3.505  45.658  1.00  0.00     0.007 A 
ENDROOT
BRANCH   3   8
ATOM      8  O   UNL     1     -99.500  -2.218  47.400  1.00  0.00    -0.508 OA
ATOM      9  H   UNL     1     -99.322  -1.221  47.346  1.00  0.00     0.293 HD
ENDBRANCH   3   8
BRANCH   5  10
ATOM     10  C   UNL     1    -103.777  -3.904  49.248  1.00  0.00     0.013 C 
ATOM     11  C   UNL     1    -105.230  -3.500  48.977  1.00  0.00     0.012 C 
ATOM     12  C   UNL     1    -103.678  -5.387  49.625  1.00  0.00     0.012 C 
ENDBRANCH   5  10
TORSDOF 2
ENDMDL
MODEL 9
REMARK VINA RESULT:    -4.016     12.735     15.651
REMARK INTER + INTRA:          -4.494
REMARK INTER:                  -4.369
REMARK INTRA:                  -0.125
REMARK UNBOUND:                -0.126
REMARK SMILES Cc1ccc(C(C)C)cc1O
REMARK SMILES IDX 1 1 2 2 10 3 9 4 5 5 4 6 3 7 11 8 6 10 7 11 8 12
REMARK H PARENT 11 9
REMARK Flexibility Score: inf
ROOT
ATOM      1  C   UNL     1    -104.161  -4.244  49.216  1.00  0.00     0.048 C 
ATOM      2  C   UNL     1    -103.293  -3.848  48.056  1.00  0.00    -0.009 A 
ATOM      3  C   UNL     1    -102.175  -3.019  48.256  1.00  0.00     0.118 A 
ATOM      4  C   UNL     1    -101.369  -2.653  47.169  1.00  0.00     0.050 A 
ATOM      5  C   UNL     1    -101.667  -3.105  45.872  1.00  0.00    -0.042 A 
ATOM      6  C   UNL     1    -102.787  -3.934  45.680  1.00  0.00     0.004 A 
ATOM      7  C   UNL     1    -103.591  -4.300  46.761  1.00  0.00     0.007 A 
ENDROOT
BRANCH   3   8
ATOM      8  O   UNL     1    -101.867  -2.562  49.539  1.00  0.00    -0.508 OA
ATOM      9  H   UNL     1    -102.579  -2.465  50.254  1.00  0.00     0.293 HD
ENDBRANCH   3   8
BRANCH   5  10
ATOM     10  C   UNL     1    -100.784  -2.700  44.706  1.00  0.00     0.013 C 
ATOM     11  C   UNL     1    -100.203  -3.929  43.998  1.00  0.00     0.012 C 
ATOM     12  C   UNL     1    -101.546  -1.805  43.721  1.00  0.00     0.012 C 
ENDBRANCH   5  10
TORSDOF 2
ENDMDL
