MODEL 1
REMARK VINA RESULT:    -5.701      0.000      0.000
REMARK INTER + INTRA:          -7.395
REMARK INTER:                  -7.034
REMARK INTRA:                  -0.361
REMARK UNBOUND:                -0.361
REMARK SMILES O=c1c(O)c(-c2cc(O)c(O)c(O)c2)oc2cc(O)cc(O)c12
REMARK SMILES IDX 5 1 3 2 2 3 1 4 23 5 21 6 20 7 18 8 17 9 16 10 15 11 6 12
REMARK SMILES IDX 7 13 8 14 14 15 10 16 12 17 9 18 11 20 13 22 4 24 22 26
REMARK SMILES IDX 19 28
REMARK H PARENT 9 19 11 21 13 23 4 25 22 27 19 29
REMARK Flexibility Score: inf
ROOT
ATOM      1  C   UNL     1      22.340  29.855  21.179  1.00  0.00     0.180 A 
ATOM      2  C   UNL     1      23.225  30.737  21.822  1.00  0.00     0.208 A 
ATOM      3  C   UNL     1      23.164  30.866  23.218  1.00  0.00     0.238 A 
ATOM      4  O   UNL     1      23.922  31.699  23.782  1.00  0.00    -0.285 OA
ATOM      5  C   UNL     1      22.230  30.100  23.956  1.00  0.00     0.111 A 
ATOM      6  C   UNL     1      22.108  30.121  25.378  1.00  0.00     0.134 A 
ATOM      7  C   UNL     1      21.061  29.421  25.992  1.00  0.00     0.093 A 
ATOM      8  C   UNL     1      20.174  28.648  25.240  1.00  0.00     0.123 A 
ATOM      9  C   UNL     1      20.322  28.573  23.857  1.00  0.00     0.094 A 
ATOM     10  C   UNL     1      21.333  29.290  23.212  1.00  0.00     0.146 A 
ATOM     11  O   UNL     1      21.432  29.199  21.892  1.00  0.00    -0.452 OA
ENDROOT
BRANCH   1  12
ATOM     12  C   UNL     1      22.361  29.647  19.713  1.00  0.00     0.029 A 
ATOM     13  C   UNL     1      23.112  28.612  19.133  1.00  0.00     0.062 A 
ATOM     14  C   UNL     1      23.107  28.408  17.747  1.00  0.00     0.162 A 
ATOM     15  C   UNL     1      21.570  30.458  18.889  1.00  0.00     0.062 A 
ATOM     16  C   UNL     1      22.325  29.250  16.921  1.00  0.00     0.200 A 
ATOM     17  C   UNL     1      21.557  30.268  17.502  1.00  0.00     0.162 A 
BRANCH  14  18
ATOM     18  O   UNL     1      23.880  27.361  17.242  1.00  0.00    -0.504 OA
ATOM     19  H   UNL     1      24.889  27.338  17.270  1.00  0.00     0.293 HD
ENDBRANCH  14  18
BRANCH  16  20
ATOM     20  O   UNL     1      22.283  29.108  15.532  1.00  0.00    -0.502 OA
ATOM     21  H   UNL     1      23.069  29.278  14.920  1.00  0.00     0.293 HD
ENDBRANCH  16  20
BRANCH  17  22
ATOM     22  O   UNL     1      20.778  31.091  16.689  1.00  0.00    -0.504 OA
ATOM     23  H   UNL     1      20.468  30.793  15.772  1.00  0.00     0.293 HD
ENDBRANCH  17  22
ENDBRANCH   1  12
BRANCH   2  24
ATOM     24  O   UNL     1      24.125  31.500  21.071  1.00  0.00    -0.502 OA
ATOM     25  H   UNL     1      24.342  32.463  21.298  1.00  0.00     0.293 HD
ENDBRANCH   2  24
BRANCH   6  26
ATOM     26  O   UNL     1      22.997  30.786  26.228  1.00  0.00    -0.507 OA
ATOM     27  H   UNL     1      23.999  30.786  26.124  1.00  0.00     0.293 HD
ENDBRANCH   6  26
BRANCH   8  28
ATOM     28  O   UNL     1      19.146  27.941  25.861  1.00  0.00    -0.508 OA
ATOM     29  H   UNL     1      19.241  27.587  26.805  1.00  0.00     0.293 HD
ENDBRANCH   8  28
TORSDOF 7
ENDMDL
MODEL 2
REMARK VINA RESULT:    -5.698      0.082      1.761
REMARK INTER + INTRA:          -7.391
REMARK INTER:                  -7.034
REMARK INTRA:                  -0.357
REMARK UNBOUND:                -0.361
REMARK SMILES O=c1c(O)c(-c2cc(O)c(O)c(O)c2)oc2cc(O)cc(O)c12
REMARK SMILES IDX 5 1 3 2 2 3 1 4 23 5 21 6 20 7 18 8 17 9 16 10 15 11 6 12
REMARK SMILES IDX 7 13 8 14 14 15 10 16 12 17 9 18 11 20 13 22 4 24 22 26
REMARK SMILES IDX 19 28
REMARK H PARENT 9 19 11 21 13 23 4 25 22 27 19 29
REMARK Flexibility Score: inf
ROOT
ATOM      1  C   UNL     1      22.276  29.856  21.164  1.00  0.00     0.180 A 
ATOM      2  C   UNL     1      23.210  30.699  21.790  1.00  0.00     0.208 A 
ATOM      3  C   UNL     1      23.185  30.825  23.188  1.00  0.00     0.238 A 
ATOM      4  O   UNL     1      23.988  31.623  23.737  1.00  0.00    -0.285 OA
ATOM      5  C   UNL     1      22.235  30.095  23.944  1.00  0.00     0.111 A 
ATOM      6  C   UNL     1      22.145  30.116  25.368  1.00  0.00     0.134 A 
ATOM      7  C   UNL     1      21.084  29.458  26.003  1.00  0.00     0.093 A 
ATOM      8  C   UNL     1      20.149  28.724  25.268  1.00  0.00     0.123 A 
ATOM      9  C   UNL     1      20.264  28.649  23.882  1.00  0.00     0.094 A 
ATOM     10  C   UNL     1      21.290  29.326  23.217  1.00  0.00     0.146 A 
ATOM     11  O   UNL     1      21.356  29.236  21.895  1.00  0.00    -0.452 OA
ENDROOT
BRANCH   1  12
ATOM     12  C   UNL     1      22.256  29.653  19.697  1.00  0.00     0.029 A 
ATOM     13  C   UNL     1      21.525  30.504  18.852  1.00  0.00     0.062 A 
ATOM     14  C   UNL     1      21.532  30.319  17.464  1.00  0.00     0.162 A 
ATOM     15  C   UNL     1      23.029  28.631  19.131  1.00  0.00     0.062 A 
ATOM     16  C   UNL     1      22.294  29.266  16.904  1.00  0.00     0.200 A 
ATOM     17  C   UNL     1      23.042  28.432  17.745  1.00  0.00     0.162 A 
BRANCH  14  18
ATOM     18  O   UNL     1      20.779  31.203  16.688  1.00  0.00    -0.504 OA
ATOM     19  H   UNL     1      20.222  31.955  17.066  1.00  0.00     0.293 HD
ENDBRANCH  14  18
BRANCH  16  20
ATOM     20  O   UNL     1      22.336  29.020  15.529  1.00  0.00    -0.502 OA
ATOM     21  H   UNL     1      22.657  28.156  15.117  1.00  0.00     0.293 HD
ENDBRANCH  16  20
BRANCH  17  22
ATOM     22  O   UNL     1      23.802  27.401  17.193  1.00  0.00    -0.504 OA
ATOM     23  H   UNL     1      24.444  27.566  16.426  1.00  0.00     0.293 HD
ENDBRANCH  17  22
ENDBRANCH   1  12
BRANCH   2  24
ATOM     24  O   UNL     1      24.124  31.427  21.022  1.00  0.00    -0.502 OA
ATOM     25  H   UNL     1      24.086  32.435  20.943  1.00  0.00     0.293 HD
ENDBRANCH   2  24
BRANCH   6  26
ATOM     26  O   UNL     1      23.079  30.740  26.200  1.00  0.00    -0.507 OA
ATOM     27  H   UNL     1      23.440  30.347  27.055  1.00  0.00     0.293 HD
ENDBRANCH   6  26
BRANCH   8  28
ATOM     28  O   UNL     1      19.106  28.059  25.909  1.00  0.00    -0.508 OA
ATOM     29  H   UNL     1      18.195  27.962  25.476  1.00  0.00     0.293 HD
ENDBRANCH   8  28
TORSDOF 7
ENDMDL
MODEL 3
REMARK VINA RESULT:    -5.583      1.248      7.134
REMARK INTER + INTRA:          -7.250
REMARK INTER:                  -6.893
REMARK INTRA:                  -0.356
REMARK UNBOUND:                -0.361
REMARK SMILES O=c1c(O)c(-c2cc(O)c(O)c(O)c2)oc2cc(O)cc(O)c12
REMARK SMILES IDX 5 1 3 2 2 3 1 4 23 5 21 6 20 7 18 8 17 9 16 10 15 11 6 12
REMARK SMILES IDX 7 13 8 14 14 15 10 16 12 17 9 18 11 20 13 22 4 24 22 26
REMARK SMILES IDX 19 28
REMARK H PARENT 9 19 11 21 13 23 4 25 22 27 19 29
REMARK Flexibility Score: inf
ROOT
ATOM      1  C   UNL     1      22.523  29.293  21.251  1.00  0.00     0.180 A 
ATOM      2  C   UNL     1      23.326  28.248  20.762  1.00  0.00     0.208 A 
ATOM      3  C   UNL     1      23.448  28.074  19.374  1.00  0.00     0.238 A 
ATOM      4  O   UNL     1      24.125  27.103  18.944  1.00  0.00    -0.285 OA
ATOM      5  C   UNL     1      22.778  28.956  18.493  1.00  0.00     0.111 A 
ATOM      6  C   UNL     1      22.862  28.897  17.069  1.00  0.00     0.134 A 
ATOM      7  C   UNL     1      22.053  29.737  16.293  1.00  0.00     0.093 A 
ATOM      8  C   UNL     1      21.212  30.679  16.891  1.00  0.00     0.123 A 
ATOM      9  C   UNL     1      21.168  30.784  18.279  1.00  0.00     0.094 A 
ATOM     10  C   UNL     1      21.936  29.935  19.080  1.00  0.00     0.146 A 
ATOM     11  O   UNL     1      21.855  30.062  20.399  1.00  0.00    -0.452 OA
ENDROOT
BRANCH   1  12
ATOM     12  C   UNL     1      22.366  29.554  22.699  1.00  0.00     0.029 A 
ATOM     13  C   UNL     1      23.167  30.497  23.363  1.00  0.00     0.062 A 
ATOM     14  C   UNL     1      22.995  30.755  24.728  1.00  0.00     0.162 A 
ATOM     15  C   UNL     1      21.359  28.893  23.415  1.00  0.00     0.062 A 
ATOM     16  C   UNL     1      21.992  30.063  25.448  1.00  0.00     0.200 A 
ATOM     17  C   UNL     1      21.177  29.139  24.782  1.00  0.00     0.162 A 
BRANCH  14  18
ATOM     18  O   UNL     1      23.830  31.705  25.320  1.00  0.00    -0.504 OA
ATOM     19  H   UNL     1      23.503  32.457  25.910  1.00  0.00     0.293 HD
ENDBRANCH  14  18
BRANCH  16  20
ATOM     20  O   UNL     1      21.775  30.265  26.814  1.00  0.00    -0.502 OA
ATOM     21  H   UNL     1      21.298  31.068  27.199  1.00  0.00     0.293 HD
ENDBRANCH  16  20
BRANCH  17  22
ATOM     22  O   UNL     1      20.182  28.464  25.488  1.00  0.00    -0.504 OA
ATOM     23  H   UNL     1      20.179  27.454  25.569  1.00  0.00     0.293 HD
ENDBRANCH  17  22
ENDBRANCH   1  12
BRANCH   2  24
ATOM     24  O   UNL     1      23.962  27.376  21.651  1.00  0.00    -0.502 OA
ATOM     25  H   UNL     1      23.736  26.390  21.700  1.00  0.00     0.293 HD
ENDBRANCH   2  24
BRANCH   6  26
ATOM     26  O   UNL     1      23.737  28.057  16.373  1.00  0.00    -0.507 OA
ATOM     27  H   UNL     1      24.568  28.365  15.891  1.00  0.00     0.293 HD
ENDBRANCH   6  26
BRANCH   8  28
ATOM     28  O   UNL     1      20.423  31.522  16.112  1.00  0.00    -0.508 OA
ATOM     29  H   UNL     1      20.088  32.410  16.466  1.00  0.00     0.293 HD
ENDBRANCH   8  28
TORSDOF 7
ENDMDL
MODEL 4
REMARK VINA RESULT:    -5.558      1.231      7.120
REMARK INTER + INTRA:          -7.219
REMARK INTER:                  -6.871
REMARK INTRA:                  -0.347
REMARK UNBOUND:                -0.361
REMARK SMILES O=c1c(O)c(-c2cc(O)c(O)c(O)c2)oc2cc(O)cc(O)c12
REMARK SMILES IDX 5 1 3 2 2 3 1 4 23 5 21 6 20 7 18 8 17 9 16 10 15 11 6 12
REMARK SMILES IDX 7 13 8 14 14 15 10 16 12 17 9 18 11 20 13 22 4 24 22 26
REMARK SMILES IDX 19 28
REMARK H PARENT 9 19 11 21 13 23 4 25 22 27 19 29
REMARK Flexibility Score: inf
ROOT
ATOM      1  C   UNL     1      22.442  29.341  21.268  1.00  0.00     0.180 A 
ATOM      2  C   UNL     1      23.270  28.327  20.757  1.00  0.00     0.208 A 
ATOM      3  C   UNL     1      23.407  28.195  19.366  1.00  0.00     0.238 A 
ATOM      4  O   UNL     1      24.107  27.251  18.915  1.00  0.00    -0.285 OA
ATOM      5  C   UNL     1      22.726  29.087  18.504  1.00  0.00     0.111 A 
ATOM      6  C   UNL     1      22.823  29.071  17.080  1.00  0.00     0.134 A 
ATOM      7  C   UNL     1      22.003  29.916  16.321  1.00  0.00     0.093 A 
ATOM      8  C   UNL     1      21.138  30.823  16.938  1.00  0.00     0.123 A 
ATOM      9  C   UNL     1      21.081  30.888  18.328  1.00  0.00     0.094 A 
ATOM     10  C   UNL     1      21.859  30.032  19.112  1.00  0.00     0.146 A 
ATOM     11  O   UNL     1      21.766  30.120  20.432  1.00  0.00    -0.452 OA
ENDROOT
BRANCH   1  12
ATOM     12  C   UNL     1      22.268  29.558  22.722  1.00  0.00     0.029 A 
ATOM     13  C   UNL     1      21.329  28.822  23.463  1.00  0.00     0.062 A 
ATOM     14  C   UNL     1      21.188  29.017  24.843  1.00  0.00     0.162 A 
ATOM     15  C   UNL     1      23.095  30.472  23.388  1.00  0.00     0.062 A 
ATOM     16  C   UNL     1      22.011  29.962  25.502  1.00  0.00     0.200 A 
ATOM     17  C   UNL     1      22.963  30.679  24.767  1.00  0.00     0.162 A 
BRANCH  14  18
ATOM     18  O   UNL     1      20.232  28.250  25.512  1.00  0.00    -0.504 OA
ATOM     19  H   UNL     1      19.809  28.514  26.391  1.00  0.00     0.293 HD
ENDBRANCH  14  18
BRANCH  16  20
ATOM     20  O   UNL     1      21.914  30.212  26.873  1.00  0.00    -0.502 OA
ATOM     21  H   UNL     1      22.531  30.829  27.382  1.00  0.00     0.293 HD
ENDBRANCH  16  20
BRANCH  17  22
ATOM     22  O   UNL     1      23.781  31.603  25.417  1.00  0.00    -0.504 OA
ATOM     23  H   UNL     1      24.119  32.436  24.950  1.00  0.00     0.293 HD
ENDBRANCH  17  22
ENDBRANCH   1  12
BRANCH   2  24
ATOM     24  O   UNL     1      23.917  27.443  21.627  1.00  0.00    -0.502 OA
ATOM     25  H   UNL     1      23.654  27.349  22.600  1.00  0.00     0.293 HD
ENDBRANCH   2  24
BRANCH   6  26
ATOM     26  O   UNL     1      23.720  28.269  16.368  1.00  0.00    -0.507 OA
ATOM     27  H   UNL     1      23.868  28.317  15.372  1.00  0.00     0.293 HD
ENDBRANCH   6  26
BRANCH   8  28
ATOM     28  O   UNL     1      20.338  31.672  16.177  1.00  0.00    -0.508 OA
ATOM     29  H   UNL     1      20.151  32.625  16.466  1.00  0.00     0.293 HD
ENDBRANCH   8  28
TORSDOF 7
ENDMDL
MODEL 5
REMARK VINA RESULT:    -5.072      5.485      7.822
REMARK INTER + INTRA:          -6.619
REMARK INTER:                  -6.275
REMARK INTRA:                  -0.344
REMARK UNBOUND:                -0.361
REMARK SMILES O=c1c(O)c(-c2cc(O)c(O)c(O)c2)oc2cc(O)cc(O)c12
REMARK SMILES IDX 5 1 3 2 2 3 1 4 23 5 21 6 20 7 18 8 17 9 16 10 15 11 6 12
REMARK SMILES IDX 7 13 8 14 14 15 10 16 12 17 9 18 11 20 13 22 4 24 22 26
REMARK SMILES IDX 19 28
REMARK H PARENT 9 19 11 21 13 23 4 25 22 27 19 29
REMARK Flexibility Score: inf
ROOT
ATOM      1  C   UNL     1      21.407  29.827  28.221  1.00  0.00     0.180 A 
ATOM      2  C   UNL     1      22.309  30.884  28.426  1.00  0.00     0.208 A 
ATOM      3  C   UNL     1      21.907  31.983  29.201  1.00  0.00     0.238 A 
ATOM      4  O   UNL     1      22.701  32.951  29.336  1.00  0.00    -0.285 OA
ATOM      5  C   UNL     1      20.612  32.006  29.773  1.00  0.00     0.111 A 
ATOM      6  C   UNL     1      20.112  33.050  30.607  1.00  0.00     0.134 A 
ATOM      7  C   UNL     1      18.771  33.031  31.010  1.00  0.00     0.093 A 
ATOM      8  C   UNL     1      17.930  31.971  30.663  1.00  0.00     0.123 A 
ATOM      9  C   UNL     1      18.425  30.918  29.898  1.00  0.00     0.094 A 
ATOM     10  C   UNL     1      19.749  30.926  29.450  1.00  0.00     0.146 A 
ATOM     11  O   UNL     1      20.177  29.908  28.715  1.00  0.00    -0.452 OA
ENDROOT
BRANCH   1  12
ATOM     12  C   UNL     1      21.767  28.624  27.436  1.00  0.00     0.029 A 
ATOM     13  C   UNL     1      21.452  28.521  26.072  1.00  0.00     0.062 A 
ATOM     14  C   UNL     1      21.818  27.389  25.332  1.00  0.00     0.162 A 
ATOM     15  C   UNL     1      22.490  27.592  28.049  1.00  0.00     0.062 A 
ATOM     16  C   UNL     1      22.525  26.339  25.967  1.00  0.00     0.200 A 
ATOM     17  C   UNL     1      22.860  26.453  27.322  1.00  0.00     0.162 A 
BRANCH  14  18
ATOM     18  O   UNL     1      21.469  27.356  23.980  1.00  0.00    -0.504 OA
ATOM     19  H   UNL     1      21.496  28.159  23.369  1.00  0.00     0.293 HD
ENDBRANCH  14  18
BRANCH  16  20
ATOM     20  O   UNL     1      22.911  25.180  25.290  1.00  0.00    -0.502 OA
ATOM     21  H   UNL     1      23.247  25.164  24.337  1.00  0.00     0.293 HD
ENDBRANCH  16  20
BRANCH  17  22
ATOM     22  O   UNL     1      23.565  25.424  27.945  1.00  0.00    -0.504 OA
ATOM     23  H   UNL     1      23.347  24.450  27.774  1.00  0.00     0.293 HD
ENDBRANCH  17  22
ENDBRANCH   1  12
BRANCH   2  24
ATOM     24  O   UNL     1      23.576  30.851  27.835  1.00  0.00    -0.502 OA
ATOM     25  H   UNL     1      23.723  31.050  26.853  1.00  0.00     0.293 HD
ENDBRANCH   2  24
BRANCH   6  26
ATOM     26  O   UNL     1      20.893  34.106  31.088  1.00  0.00    -0.507 OA
ATOM     27  H   UNL     1      20.993  35.000  30.632  1.00  0.00     0.293 HD
ENDBRANCH   6  26
BRANCH   8  28
ATOM     28  O   UNL     1      16.602  31.952  31.082  1.00  0.00    -0.508 OA
ATOM     29  H   UNL     1      15.913  31.361  30.631  1.00  0.00     0.293 HD
ENDBRANCH   8  28
TORSDOF 7
ENDMDL
MODEL 6
REMARK VINA RESULT:    -5.060      5.358      9.714
REMARK INTER + INTRA:          -6.604
REMARK INTER:                  -6.271
REMARK INTRA:                  -0.333
REMARK UNBOUND:                -0.361
REMARK SMILES O=c1c(O)c(-c2cc(O)c(O)c(O)c2)oc2cc(O)cc(O)c12
REMARK SMILES IDX 5 1 3 2 2 3 1 4 23 5 21 6 20 7 18 8 17 9 16 10 15 11 6 12
REMARK SMILES IDX 7 13 8 14 14 15 10 16 12 17 9 18 11 20 13 22 4 24 22 26
REMARK SMILES IDX 19 28
REMARK H PARENT 9 19 11 21 13 23 4 25 22 27 19 29
REMARK Flexibility Score: inf
ROOT
ATOM      1  C   UNL     1      21.297  29.425  28.913  1.00  0.00     0.180 A 
ATOM      2  C   UNL     1      21.869  28.437  29.734  1.00  0.00     0.208 A 
ATOM      3  C   UNL     1      22.440  27.302  29.137  1.00  0.00     0.238 A 
ATOM      4  O   UNL     1      22.902  26.397  29.880  1.00  0.00    -0.285 OA
ATOM      5  C   UNL     1      22.446  27.176  27.727  1.00  0.00     0.111 A 
ATOM      6  C   UNL     1      23.033  26.087  27.014  1.00  0.00     0.134 A 
ATOM      7  C   UNL     1      22.865  26.000  25.626  1.00  0.00     0.093 A 
ATOM      8  C   UNL     1      22.188  26.996  24.919  1.00  0.00     0.123 A 
ATOM      9  C   UNL     1      21.663  28.092  25.599  1.00  0.00     0.094 A 
ATOM     10  C   UNL     1      21.783  28.189  26.988  1.00  0.00     0.146 A 
ATOM     11  O   UNL     1      21.259  29.245  27.598  1.00  0.00    -0.452 OA
ENDROOT
BRANCH   1  12
ATOM     12  C   UNL     1      20.698  30.660  29.467  1.00  0.00     0.029 A 
ATOM     13  C   UNL     1      19.313  30.770  29.677  1.00  0.00     0.062 A 
ATOM     14  C   UNL     1      18.758  31.933  30.225  1.00  0.00     0.162 A 
ATOM     15  C   UNL     1      21.530  31.721  29.848  1.00  0.00     0.062 A 
ATOM     16  C   UNL     1      19.605  33.010  30.581  1.00  0.00     0.200 A 
ATOM     17  C   UNL     1      20.988  32.891  30.393  1.00  0.00     0.162 A 
BRANCH  14  18
ATOM     18  O   UNL     1      17.373  31.970  30.402  1.00  0.00    -0.504 OA
ATOM     19  H   UNL     1      16.920  32.022  31.303  1.00  0.00     0.293 HD
ENDBRANCH  14  18
BRANCH  16  20
ATOM     20  O   UNL     1      19.115  34.201  31.121  1.00  0.00    -0.502 OA
ATOM     21  H   UNL     1      18.508  34.251  31.927  1.00  0.00     0.293 HD
ENDBRANCH  16  20
BRANCH  17  22
ATOM     22  O   UNL     1      21.824  33.948  30.754  1.00  0.00    -0.504 OA
ATOM     23  H   UNL     1      22.599  34.237  30.168  1.00  0.00     0.293 HD
ENDBRANCH  17  22
ENDBRANCH   1  12
BRANCH   2  24
ATOM     24  O   UNL     1      21.833  28.573  31.125  1.00  0.00    -0.502 OA
ATOM     25  H   UNL     1      22.648  28.422  31.707  1.00  0.00     0.293 HD
ENDBRANCH   2  24
BRANCH   6  26
ATOM     26  O   UNL     1      23.807  25.089  27.613  1.00  0.00    -0.507 OA
ATOM     27  H   UNL     1      23.469  24.172  27.862  1.00  0.00     0.293 HD
ENDBRANCH   6  26
BRANCH   8  28
ATOM     28  O   UNL     1      22.039  26.910  23.536  1.00  0.00    -0.508 OA
ATOM     29  H   UNL     1      22.806  26.626  22.938  1.00  0.00     0.293 HD
ENDBRANCH   8  28
TORSDOF 7
ENDMDL
MODEL 7
REMARK VINA RESULT:    -5.009      4.453      6.932
REMARK INTER + INTRA:          -6.541
REMARK INTER:                  -6.200
REMARK INTRA:                  -0.342
REMARK UNBOUND:                -0.361
REMARK SMILES O=c1c(O)c(-c2cc(O)c(O)c(O)c2)oc2cc(O)cc(O)c12
REMARK SMILES IDX 5 1 3 2 2 3 1 4 23 5 21 6 20 7 18 8 17 9 16 10 15 11 6 12
REMARK SMILES IDX 7 13 8 14 14 15 10 16 12 17 9 18 11 20 13 22 4 24 22 26
REMARK SMILES IDX 19 28
REMARK H PARENT 9 19 11 21 13 23 4 25 22 27 19 29
REMARK Flexibility Score: inf
ROOT
ATOM      1  C   UNL     1      21.180  30.399  27.546  1.00  0.00     0.180 A 
ATOM      2  C   UNL     1      22.083  31.433  27.849  1.00  0.00     0.208 A 
ATOM      3  C   UNL     1      21.736  32.376  28.829  1.00  0.00     0.238 A 
ATOM      4  O   UNL     1      22.526  33.329  29.056  1.00  0.00    -0.285 OA
ATOM      5  C   UNL     1      20.496  32.266  29.504  1.00  0.00     0.111 A 
ATOM      6  C   UNL     1      20.059  33.143  30.542  1.00  0.00     0.134 A 
ATOM      7  C   UNL     1      18.759  33.019  31.050  1.00  0.00     0.093 A 
ATOM      8  C   UNL     1      17.905  32.008  30.602  1.00  0.00     0.123 A 
ATOM      9  C   UNL     1      18.345  31.111  29.632  1.00  0.00     0.094 A 
ATOM     10  C   UNL     1      19.623  31.232  29.080  1.00  0.00     0.146 A 
ATOM     11  O   UNL     1      19.998  30.362  28.151  1.00  0.00    -0.452 OA
ENDROOT
BRANCH   1  12
ATOM     12  C   UNL     1      21.485  29.354  26.543  1.00  0.00     0.029 A 
ATOM     13  C   UNL     1      21.967  28.092  26.927  1.00  0.00     0.062 A 
ATOM     14  C   UNL     1      22.231  27.101  25.973  1.00  0.00     0.162 A 
ATOM     15  C   UNL     1      21.234  29.603  25.188  1.00  0.00     0.062 A 
ATOM     16  C   UNL     1      21.998  27.372  24.604  1.00  0.00     0.200 A 
ATOM     17  C   UNL     1      21.496  28.623  24.222  1.00  0.00     0.162 A 
BRANCH  14  18
ATOM     18  O   UNL     1      22.710  25.872  26.430  1.00  0.00    -0.504 OA
ATOM     19  H   UNL     1      22.776  25.043  25.857  1.00  0.00     0.293 HD
ENDBRANCH  14  18
BRANCH  16  20
ATOM     20  O   UNL     1      22.250  26.432  23.601  1.00  0.00    -0.502 OA
ATOM     21  H   UNL     1      22.747  25.565  23.748  1.00  0.00     0.293 HD
ENDBRANCH  16  20
BRANCH  17  22
ATOM     22  O   UNL     1      21.257  28.886  22.874  1.00  0.00    -0.504 OA
ATOM     23  H   UNL     1      22.015  29.000  22.212  1.00  0.00     0.293 HD
ENDBRANCH  17  22
ENDBRANCH   1  12
BRANCH   2  24
ATOM     24  O   UNL     1      23.292  31.534  27.154  1.00  0.00    -0.502 OA
ATOM     25  H   UNL     1      23.971  32.259  27.349  1.00  0.00     0.293 HD
ENDBRANCH   2  24
BRANCH   6  26
ATOM     26  O   UNL     1      20.865  34.126  31.125  1.00  0.00    -0.507 OA
ATOM     27  H   UNL     1      20.527  34.869  31.717  1.00  0.00     0.293 HD
ENDBRANCH   6  26
BRANCH   8  28
ATOM     28  O   UNL     1      16.620  31.882  31.124  1.00  0.00    -0.508 OA
ATOM     29  H   UNL     1      15.802  32.139  30.584  1.00  0.00     0.293 HD
ENDBRANCH   8  28
TORSDOF 7
ENDMDL
MODEL 8
REMARK VINA RESULT:    -4.709      3.679      8.983
REMARK INTER + INTRA:          -6.171
REMARK INTER:                  -5.839
REMARK INTRA:                  -0.332
REMARK UNBOUND:                -0.361
REMARK SMILES O=c1c(O)c(-c2cc(O)c(O)c(O)c2)oc2cc(O)cc(O)c12
REMARK SMILES IDX 5 1 3 2 2 3 1 4 23 5 21 6 20 7 18 8 17 9 16 10 15 11 6 12
REMARK SMILES IDX 7 13 8 14 14 15 10 16 12 17 9 18 11 20 13 22 4 24 22 26
REMARK SMILES IDX 19 28
REMARK H PARENT 9 19 11 21 13 23 4 25 22 27 19 29
REMARK Flexibility Score: inf
ROOT
ATOM      1  C   UNL     1      21.359  29.669  27.511  1.00  0.00     0.180 A 
ATOM      2  C   UNL     1      21.672  28.361  27.919  1.00  0.00     0.208 A 
ATOM      3  C   UNL     1      22.123  27.438  26.963  1.00  0.00     0.238 A 
ATOM      4  O   UNL     1      22.350  26.254  27.325  1.00  0.00    -0.285 OA
ATOM      5  C   UNL     1      22.269  27.838  25.612  1.00  0.00     0.111 A 
ATOM      6  C   UNL     1      22.756  26.998  24.566  1.00  0.00     0.134 A 
ATOM      7  C   UNL     1      22.735  27.458  23.243  1.00  0.00     0.093 A 
ATOM      8  C   UNL     1      22.307  28.753  22.939  1.00  0.00     0.123 A 
ATOM      9  C   UNL     1      21.887  29.601  23.960  1.00  0.00     0.094 A 
ATOM     10  C   UNL     1      21.861  29.157  25.285  1.00  0.00     0.146 A 
ATOM     11  O   UNL     1      21.444  29.994  26.227  1.00  0.00    -0.452 OA
ENDROOT
BRANCH   1  12
ATOM     12  C   UNL     1      20.901  30.704  28.466  1.00  0.00     0.029 A 
ATOM     13  C   UNL     1      21.779  31.682  28.958  1.00  0.00     0.062 A 
ATOM     14  C   UNL     1      21.332  32.672  29.842  1.00  0.00     0.162 A 
ATOM     15  C   UNL     1      19.552  30.748  28.842  1.00  0.00     0.062 A 
ATOM     16  C   UNL     1      19.973  32.693  30.237  1.00  0.00     0.200 A 
ATOM     17  C   UNL     1      19.091  31.730  29.728  1.00  0.00     0.162 A 
BRANCH  14  18
ATOM     18  O   UNL     1      22.263  33.611  30.292  1.00  0.00    -0.504 OA
ATOM     19  H   UNL     1      23.177  33.374  30.651  1.00  0.00     0.293 HD
ENDBRANCH  14  18
BRANCH  16  20
ATOM     20  O   UNL     1      19.464  33.645  31.124  1.00  0.00    -0.502 OA
ATOM     21  H   UNL     1      19.550  34.643  30.995  1.00  0.00     0.293 HD
ENDBRANCH  16  20
BRANCH  17  22
ATOM     22  O   UNL     1      17.750  31.756  30.108  1.00  0.00    -0.504 OA
ATOM     23  H   UNL     1      17.146  32.536  29.875  1.00  0.00     0.293 HD
ENDBRANCH  17  22
ENDBRANCH   1  12
BRANCH   2  24
ATOM     24  O   UNL     1      21.500  27.981  29.254  1.00  0.00    -0.502 OA
ATOM     25  H   UNL     1      20.636  27.581  29.598  1.00  0.00     0.293 HD
ENDBRANCH   2  24
BRANCH   6  26
ATOM     26  O   UNL     1      23.291  25.723  24.775  1.00  0.00    -0.507 OA
ATOM     27  H   UNL     1      24.274  25.522  24.876  1.00  0.00     0.293 HD
ENDBRANCH   6  26
BRANCH   8  28
ATOM     28  O   UNL     1      22.305  29.209  21.623  1.00  0.00    -0.508 OA
ATOM     29  H   UNL     1      23.023  28.929  20.964  1.00  0.00     0.293 HD
ENDBRANCH   8  28
TORSDOF 7
ENDMDL
MODEL 9
REMARK VINA RESULT:    -4.663      3.689      9.035
REMARK INTER + INTRA:          -6.114
REMARK INTER:                  -5.788
REMARK INTRA:                  -0.326
REMARK UNBOUND:                -0.361
REMARK SMILES O=c1c(O)c(-c2cc(O)c(O)c(O)c2)oc2cc(O)cc(O)c12
REMARK SMILES IDX 5 1 3 2 2 3 1 4 23 5 21 6 20 7 18 8 17 9 16 10 15 11 6 12
REMARK SMILES IDX 7 13 8 14 14 15 10 16 12 17 9 18 11 20 13 22 4 24 22 26
REMARK SMILES IDX 19 28
REMARK H PARENT 9 19 11 21 13 23 4 25 22 27 19 29
REMARK Flexibility Score: inf
ROOT
ATOM      1  C   UNL     1      21.392  29.666  27.491  1.00  0.00     0.180 A 
ATOM      2  C   UNL     1      21.705  28.367  27.926  1.00  0.00     0.208 A 
ATOM      3  C   UNL     1      22.185  27.433  26.994  1.00  0.00     0.238 A 
ATOM      4  O   UNL     1      22.411  26.256  27.379  1.00  0.00    -0.285 OA
ATOM      5  C   UNL     1      22.360  27.815  25.642  1.00  0.00     0.111 A 
ATOM      6  C   UNL     1      22.878  26.963  24.620  1.00  0.00     0.134 A 
ATOM      7  C   UNL     1      22.885  27.403  23.291  1.00  0.00     0.093 A 
ATOM      8  C   UNL     1      22.456  28.690  22.957  1.00  0.00     0.123 A 
ATOM      9  C   UNL     1      22.006  29.550  23.955  1.00  0.00     0.094 A 
ATOM     10  C   UNL     1      21.951  29.126  25.286  1.00  0.00     0.146 A 
ATOM     11  O   UNL     1      21.506  29.974  26.204  1.00  0.00    -0.452 OA
ENDROOT
BRANCH   1  12
ATOM     12  C   UNL     1      20.905  30.712  28.419  1.00  0.00     0.029 A 
ATOM     13  C   UNL     1      19.562  30.757  28.828  1.00  0.00     0.062 A 
ATOM     14  C   UNL     1      19.115  31.735  29.725  1.00  0.00     0.162 A 
ATOM     15  C   UNL     1      21.810  31.640  28.951  1.00  0.00     0.062 A 
ATOM     16  C   UNL     1      20.032  32.685  30.235  1.00  0.00     0.200 A 
ATOM     17  C   UNL     1      21.377  32.625  29.846  1.00  0.00     0.162 A 
BRANCH  14  18
ATOM     18  O   UNL     1      17.765  31.720  30.083  1.00  0.00    -0.504 OA
ATOM     19  H   UNL     1      17.387  31.165  30.838  1.00  0.00     0.293 HD
ENDBRANCH  14  18
BRANCH  16  20
ATOM     20  O   UNL     1      19.650  33.693  31.125  1.00  0.00    -0.502 OA
ATOM     21  H   UNL     1      19.407  34.633  30.846  1.00  0.00     0.293 HD
ENDBRANCH  16  20
BRANCH  17  22
ATOM     22  O   UNL     1      22.282  33.554  30.357  1.00  0.00    -0.504 OA
ATOM     23  H   UNL     1      23.264  33.532  30.108  1.00  0.00     0.293 HD
ENDBRANCH  17  22
ENDBRANCH   1  12
BRANCH   2  24
ATOM     24  O   UNL     1      21.503  28.006  29.262  1.00  0.00    -0.502 OA
ATOM     25  H   UNL     1      22.244  28.040  29.952  1.00  0.00     0.293 HD
ENDBRANCH   2  24
BRANCH   6  26
ATOM     26  O   UNL     1      23.417  25.695  24.860  1.00  0.00    -0.507 OA
ATOM     27  H   UNL     1      24.347  25.523  25.210  1.00  0.00     0.293 HD
ENDBRANCH   6  26
BRANCH   8  28
ATOM     28  O   UNL     1      22.483  29.127  21.634  1.00  0.00    -0.508 OA
ATOM     29  H   UNL     1      22.074  30.012  21.360  1.00  0.00     0.293 HD
ENDBRANCH   8  28
TORSDOF 7
ENDMDL
