MODEL 1
REMARK VINA RESULT:    -3.575      0.000      0.000
REMARK INTER + INTRA:          -5.045
REMARK INTER:                  -4.829
REMARK INTRA:                  -0.217
REMARK UNBOUND:                -0.217
REMARK SMILES CCCCCCCC(=O)[O-]
REMARK SMILES IDX 5 1 6 2 7 3 8 4 9 5 10 6 4 7 3 8 2 9 1 10
REMARK H PARENT
REMARK Flexibility Score: inf
ROOT
ATOM      1  C   UNL     1      56.792  27.981  50.453  1.00  0.00     0.000 C 
ENDROOT
BRANCH   1   2
ATOM      2  C   UNL     1      57.973  28.965  50.420  1.00  0.00     0.006 C 
BRANCH   2   3
ATOM      3  C   UNL     1      58.829  28.820  49.155  1.00  0.00     0.053 C 
BRANCH   3   4
ATOM      4  C   UNL     1      59.888  27.784  49.357  1.00  0.00     0.041 C 
ATOM      5  O   UNL     1      61.055  28.126  49.684  1.00  0.00    -0.550 OA
ATOM      6  O   UNL     1      59.601  26.443  49.136  1.00  0.00    -0.550 OA
ENDBRANCH   3   4
ENDBRANCH   2   3
ENDBRANCH   1   2
BRANCH   1   7
ATOM      7  C   UNL     1      55.430  28.696  50.435  1.00  0.00     0.000 C 
BRANCH   7   8
ATOM      8  C   UNL     1      54.263  27.753  50.089  1.00  0.00    -0.000 C 
BRANCH   8   9
ATOM      9  C   UNL     1      54.680  26.335  49.658  1.00  0.00    -0.003 C 
ATOM     10  C   UNL     1      53.562  25.572  48.950  1.00  0.00     0.004 C 
ENDBRANCH   8   9
ENDBRANCH   7   8
ENDBRANCH   1   7
TORSDOF 6
ENDMDL
MODEL 2
REMARK VINA RESULT:    -3.502     12.598     14.334
REMARK INTER + INTRA:          -4.947
REMARK INTER:                  -4.711
REMARK INTRA:                  -0.236
REMARK UNBOUND:                -0.217
REMARK SMILES CCCCCCCC(=O)[O-]
REMARK SMILES IDX 5 1 6 2 7 3 8 4 9 5 10 6 4 7 3 8 2 9 1 10
REMARK H PARENT
REMARK Flexibility Score: inf
ROOT
ATOM      1  C   UNL     1      62.192  33.049  60.398  1.00  0.00     0.000 C 
ENDROOT
BRANCH   1   2
ATOM      2  C   UNL     1      61.100  31.969  60.471  1.00  0.00     0.006 C 
BRANCH   2   3
ATOM      3  C   UNL     1      61.098  31.217  61.809  1.00  0.00     0.053 C 
BRANCH   3   4
ATOM      4  C   UNL     1      61.971  30.006  61.727  1.00  0.00     0.041 C 
ATOM      5  O   UNL     1      63.206  30.098  61.956  1.00  0.00    -0.550 OA
ATOM      6  O   UNL     1      61.432  28.783  61.348  1.00  0.00    -0.550 OA
ENDBRANCH   3   4
ENDBRANCH   2   3
ENDBRANCH   1   2
BRANCH   1   7
ATOM      7  C   UNL     1      61.619  34.473  60.503  1.00  0.00     0.000 C 
BRANCH   7   8
ATOM      8  C   UNL     1      62.628  35.483  61.079  1.00  0.00    -0.000 C 
BRANCH   8   9
ATOM      9  C   UNL     1      64.015  34.901  61.410  1.00  0.00    -0.003 C 
ATOM     10  C   UNL     1      64.954  35.919  62.051  1.00  0.00     0.004 C 
ENDBRANCH   8   9
ENDBRANCH   7   8
ENDBRANCH   1   7
TORSDOF 6
ENDMDL
MODEL 3
REMARK VINA RESULT:    -3.419      3.212      5.156
REMARK INTER + INTRA:          -4.835
REMARK INTER:                  -4.499
REMARK INTRA:                  -0.337
REMARK UNBOUND:                -0.217
REMARK SMILES CCCCCCCC(=O)[O-]
REMARK SMILES IDX 5 1 6 2 7 3 8 4 9 5 10 6 4 7 3 8 2 9 1 10
REMARK H PARENT
REMARK Flexibility Score: inf
ROOT
ATOM      1  C   UNL     1      57.354  27.993  50.805  1.00  0.00     0.000 C 
ENDROOT
BRANCH   1   2
ATOM      2  C   UNL     1      55.897  27.780  50.361  1.00  0.00     0.006 C 
BRANCH   2   3
ATOM      3  C   UNL     1      55.627  26.348  49.882  1.00  0.00     0.053 C 
BRANCH   3   4
ATOM      4  C   UNL     1      54.198  26.199  49.465  1.00  0.00     0.041 C 
ATOM      5  O   UNL     1      53.465  27.215  49.340  1.00  0.00    -0.550 OA
ATOM      6  O   UNL     1      53.660  24.934  49.264  1.00  0.00    -0.550 OA
ENDBRANCH   3   4
ENDBRANCH   2   3
ENDBRANCH   1   2
BRANCH   1   7
ATOM      7  C   UNL     1      58.094  29.018  49.927  1.00  0.00     0.000 C 
BRANCH   7   8
ATOM      8  C   UNL     1      59.324  28.421  49.220  1.00  0.00    -0.000 C 
BRANCH   8   9
ATOM      9  C   UNL     1      59.458  26.891  49.327  1.00  0.00    -0.003 C 
ATOM     10  C   UNL     1      60.818  26.445  49.858  1.00  0.00     0.004 C 
ENDBRANCH   8   9
ENDBRANCH   7   8
ENDBRANCH   1   7
TORSDOF 6
ENDMDL
MODEL 4
REMARK VINA RESULT:    -3.396      0.725      1.431
REMARK INTER + INTRA:          -4.804
REMARK INTER:                  -4.575
REMARK INTRA:                  -0.229
REMARK UNBOUND:                -0.217
REMARK SMILES CCCCCCCC(=O)[O-]
REMARK SMILES IDX 5 1 6 2 7 3 8 4 9 5 10 6 4 7 3 8 2 9 1 10
REMARK H PARENT
REMARK Flexibility Score: inf
ROOT
ATOM      1  C   UNL     1      57.481  28.807  50.580  1.00  0.00     0.000 C 
ENDROOT
BRANCH   1   2
ATOM      2  C   UNL     1      58.482  28.937  49.420  1.00  0.00     0.006 C 
BRANCH   2   3
ATOM      3  C   UNL     1      59.933  28.700  49.859  1.00  0.00     0.053 C 
BRANCH   3   4
ATOM      4  C   UNL     1      60.425  27.385  49.344  1.00  0.00     0.041 C 
ATOM      5  O   UNL     1      59.615  26.444  49.133  1.00  0.00    -0.550 OA
ATOM      6  O   UNL     1      61.785  27.180  49.145  1.00  0.00    -0.550 OA
ENDBRANCH   3   4
ENDBRANCH   2   3
ENDBRANCH   1   2
BRANCH   1   7
ATOM      7  C   UNL     1      56.445  27.695  50.342  1.00  0.00     0.000 C 
BRANCH   7   8
ATOM      8  C   UNL     1      54.996  28.216  50.345  1.00  0.00    -0.000 C 
BRANCH   8   9
ATOM      9  C   UNL     1      53.931  27.176  49.953  1.00  0.00    -0.003 C 
ATOM     10  C   UNL     1      54.515  25.962  49.234  1.00  0.00     0.004 C 
ENDBRANCH   8   9
ENDBRANCH   7   8
ENDBRANCH   1   7
TORSDOF 6
ENDMDL
MODEL 5
REMARK VINA RESULT:    -3.318     13.575     14.377
REMARK INTER + INTRA:          -4.699
REMARK INTER:                  -4.402
REMARK INTRA:                  -0.297
REMARK UNBOUND:                -0.217
REMARK SMILES CCCCCCCC(=O)[O-]
REMARK SMILES IDX 5 1 6 2 7 3 8 4 9 5 10 6 4 7 3 8 2 9 1 10
REMARK H PARENT
REMARK Flexibility Score: inf
ROOT
ATOM      1  C   UNL     1      62.313  32.484  60.290  1.00  0.00     0.000 C 
ENDROOT
BRANCH   1   2
ATOM      2  C   UNL     1      62.614  33.924  60.738  1.00  0.00     0.006 C 
BRANCH   2   3
ATOM      3  C   UNL     1      64.043  34.094  61.270  1.00  0.00     0.053 C 
BRANCH   3   4
ATOM      4  C   UNL     1      64.307  35.527  61.606  1.00  0.00     0.041 C 
ATOM      5  O   UNL     1      65.488  35.931  61.772  1.00  0.00    -0.550 OA
ATOM      6  O   UNL     1      63.247  36.407  61.784  1.00  0.00    -0.550 OA
ENDBRANCH   3   4
ENDBRANCH   2   3
ENDBRANCH   1   2
BRANCH   1   7
ATOM      7  C   UNL     1      61.091  31.887  61.008  1.00  0.00     0.000 C 
BRANCH   7   8
ATOM      8  C   UNL     1      61.464  30.757  61.985  1.00  0.00    -0.000 C 
BRANCH   8   9
ATOM      9  C   UNL     1      62.834  30.102  61.730  1.00  0.00    -0.003 C 
ATOM     10  C   UNL     1      62.755  28.583  61.593  1.00  0.00     0.004 C 
ENDBRANCH   8   9
ENDBRANCH   7   8
ENDBRANCH   1   7
TORSDOF 6
ENDMDL
MODEL 6
REMARK VINA RESULT:    -3.268     13.410     14.535
REMARK INTER + INTRA:          -4.631
REMARK INTER:                  -4.192
REMARK INTRA:                  -0.439
REMARK UNBOUND:                -0.217
REMARK SMILES CCCCCCCC(=O)[O-]
REMARK SMILES IDX 5 1 6 2 7 3 8 4 9 5 10 6 4 7 3 8 2 9 1 10
REMARK H PARENT
REMARK Flexibility Score: inf
ROOT
ATOM      1  C   UNL     1      64.229  33.923  60.414  1.00  0.00     0.000 C 
ENDROOT
BRANCH   1   2
ATOM      2  C   UNL     1      63.861  32.510  60.894  1.00  0.00     0.006 C 
BRANCH   2   3
ATOM      3  C   UNL     1      62.358  32.221  60.790  1.00  0.00     0.053 C 
BRANCH   3   4
ATOM      4  C   UNL     1      61.999  31.023  61.610  1.00  0.00     0.041 C 
ATOM      5  O   UNL     1      60.842  30.910  62.095  1.00  0.00    -0.550 OA
ATOM      6  O   UNL     1      62.956  30.054  61.882  1.00  0.00    -0.550 OA
ENDBRANCH   3   4
ENDBRANCH   2   3
ENDBRANCH   1   2
BRANCH   1   7
ATOM      7  C   UNL     1      64.408  34.913  61.578  1.00  0.00     0.000 C 
BRANCH   7   8
ATOM      8  C   UNL     1      63.337  36.019  61.593  1.00  0.00    -0.000 C 
BRANCH   8   9
ATOM      9  C   UNL     1      62.469  36.101  60.324  1.00  0.00    -0.003 C 
ATOM     10  C   UNL     1      60.986  35.860  60.596  1.00  0.00     0.004 C 
ENDBRANCH   8   9
ENDBRANCH   7   8
ENDBRANCH   1   7
TORSDOF 6
ENDMDL
MODEL 7
REMARK VINA RESULT:    -3.256      3.311      5.295
REMARK INTER + INTRA:          -4.615
REMARK INTER:                  -4.167
REMARK INTRA:                  -0.448
REMARK UNBOUND:                -0.217
REMARK SMILES CCCCCCCC(=O)[O-]
REMARK SMILES IDX 5 1 6 2 7 3 8 4 9 5 10 6 4 7 3 8 2 9 1 10
REMARK H PARENT
REMARK Flexibility Score: inf
ROOT
ATOM      1  C   UNL     1      57.099  25.735  50.910  1.00  0.00     0.000 C 
ENDROOT
BRANCH   1   2
ATOM      2  C   UNL     1      56.014  26.256  49.954  1.00  0.00     0.006 C 
BRANCH   2   3
ATOM      3  C   UNL     1      55.547  27.675  50.304  1.00  0.00     0.053 C 
BRANCH   3   4
ATOM      4  C   UNL     1      54.116  27.866  49.911  1.00  0.00     0.041 C 
ATOM      5  O   UNL     1      53.490  26.939  49.332  1.00  0.00    -0.550 OA
ATOM      6  O   UNL     1      53.488  29.084  50.138  1.00  0.00    -0.550 OA
ENDBRANCH   3   4
ENDBRANCH   2   3
ENDBRANCH   1   2
BRANCH   1   7
ATOM      7  C   UNL     1      58.474  25.615  50.230  1.00  0.00     0.000 C 
BRANCH   7   8
ATOM      8  C   UNL     1      59.356  26.860  50.440  1.00  0.00    -0.000 C 
BRANCH   8   9
ATOM      9  C   UNL     1      59.587  27.712  49.179  1.00  0.00    -0.003 C 
ATOM     10  C   UNL     1      58.881  29.065  49.234  1.00  0.00     0.004 C 
ENDBRANCH   8   9
ENDBRANCH   7   8
ENDBRANCH   1   7
TORSDOF 6
ENDMDL
MODEL 8
REMARK VINA RESULT:    -3.228      1.215      2.011
REMARK INTER + INTRA:          -4.577
REMARK INTER:                  -4.222
REMARK INTRA:                  -0.355
REMARK UNBOUND:                -0.217
REMARK SMILES CCCCCCCC(=O)[O-]
REMARK SMILES IDX 5 1 6 2 7 3 8 4 9 5 10 6 4 7 3 8 2 9 1 10
REMARK H PARENT
REMARK Flexibility Score: inf
ROOT
ATOM      1  C   UNL     1      56.489  26.364  50.141  1.00  0.00     0.000 C 
ENDROOT
BRANCH   1   2
ATOM      2  C   UNL     1      56.905  27.659  50.859  1.00  0.00     0.006 C 
BRANCH   2   3
ATOM      3  C   UNL     1      57.776  28.569  49.982  1.00  0.00     0.053 C 
BRANCH   3   4
ATOM      4  C   UNL     1      59.189  28.079  49.963  1.00  0.00     0.041 C 
ATOM      5  O   UNL     1      59.759  27.830  48.868  1.00  0.00    -0.550 OA
ATOM      6  O   UNL     1      59.861  27.848  51.157  1.00  0.00    -0.550 OA
ENDBRANCH   3   4
ENDBRANCH   2   3
ENDBRANCH   1   2
BRANCH   1   7
ATOM      7  C   UNL     1      55.050  25.939  50.481  1.00  0.00     0.000 C 
BRANCH   7   8
ATOM      8  C   UNL     1      54.143  25.851  49.240  1.00  0.00    -0.000 C 
BRANCH   8   9
ATOM      9  C   UNL     1      52.979  26.859  49.213  1.00  0.00    -0.003 C 
ATOM     10  C   UNL     1      53.328  28.193  49.868  1.00  0.00     0.004 C 
ENDBRANCH   8   9
ENDBRANCH   7   8
ENDBRANCH   1   7
TORSDOF 6
ENDMDL
MODEL 9
REMARK VINA RESULT:    -3.226     13.046     14.548
REMARK INTER + INTRA:          -4.575
REMARK INTER:                  -4.161
REMARK INTRA:                  -0.413
REMARK UNBOUND:                -0.217
REMARK SMILES CCCCCCCC(=O)[O-]
REMARK SMILES IDX 5 1 6 2 7 3 8 4 9 5 10 6 4 7 3 8 2 9 1 10
REMARK H PARENT
REMARK Flexibility Score: inf
ROOT
ATOM      1  C   UNL     1      61.753  33.620  59.933  1.00  0.00     0.000 C 
ENDROOT
BRANCH   1   2
ATOM      2  C   UNL     1      62.279  32.540  60.892  1.00  0.00     0.006 C 
BRANCH   2   3
ATOM      3  C   UNL     1      63.792  32.318  60.763  1.00  0.00     0.053 C 
BRANCH   3   4
ATOM      4  C   UNL     1      64.149  30.918  61.152  1.00  0.00     0.041 C 
ATOM      5  O   UNL     1      63.378  30.251  61.891  1.00  0.00    -0.550 OA
ATOM      6  O   UNL     1      65.356  30.368  60.740  1.00  0.00    -0.550 OA
ENDBRANCH   3   4
ENDBRANCH   2   3
ENDBRANCH   1   2
BRANCH   1   7
ATOM      7  C   UNL     1      61.583  34.986  60.621  1.00  0.00     0.000 C 
BRANCH   7   8
ATOM      8  C   UNL     1      62.799  35.910  60.427  1.00  0.00    -0.000 C 
BRANCH   8   9
ATOM      9  C   UNL     1      63.508  36.332  61.727  1.00  0.00    -0.003 C 
ATOM     10  C   UNL     1      64.856  35.641  61.925  1.00  0.00     0.004 C 
ENDBRANCH   8   9
ENDBRANCH   7   8
ENDBRANCH   1   7
TORSDOF 6
ENDMDL
