MODEL 1
REMARK VINA RESULT:    -5.383      0.000      0.000
REMARK INTER + INTRA:          -6.061
REMARK INTER:                  -6.012
REMARK INTRA:                  -0.049
REMARK UNBOUND:                -0.049
REMARK SMILES COc1cc2ccc(=O)oc2c(O)c1O
REMARK SMILES IDX 3 1 14 2 12 3 11 4 5 5 4 6 6 7 7 8 8 9 9 10 10 11 2 12 1 13
REMARK SMILES IDX 15 14 13 16
REMARK H PARENT 15 15 13 17
REMARK Flexibility Score: inf
ROOT
ATOM      1  C   UNL     1     -24.120  10.339   1.876  1.00  0.00     0.165 A 
ATOM      2  C   UNL     1     -24.977  11.164   2.632  1.00  0.00     0.204 A 
ATOM      3  C   UNL     1     -26.176  11.639   2.080  1.00  0.00     0.205 A 
ATOM      4  C   UNL     1     -26.529  11.295   0.765  1.00  0.00     0.184 A 
ATOM      5  C   UNL     1     -25.674  10.469   0.004  1.00  0.00     0.025 A 
ATOM      6  C   UNL     1     -24.478   9.996   0.558  1.00  0.00     0.062 A 
ATOM      7  C   UNL     1     -26.051  10.142  -1.303  1.00  0.00     0.020 A 
ATOM      8  C   UNL     1     -27.250  10.635  -1.814  1.00  0.00     0.094 A 
ATOM      9  C   UNL     1     -28.048  11.448  -1.003  1.00  0.00     0.336 A 
ATOM     10  O   UNL     1     -29.135  11.903  -1.445  1.00  0.00    -0.246 OA
ATOM     11  O   UNL     1     -27.665  11.743   0.236  1.00  0.00    -0.419 OA
ENDROOT
BRANCH   1  12
ATOM     12  O   UNL     1     -22.929   9.884   2.463  1.00  0.00    -0.493 OA
ATOM     13  C   UNL     1     -21.896   9.195   1.767  1.00  0.00     0.278 C 
ENDBRANCH   1  12
BRANCH   2  14
ATOM     14  O   UNL     1     -24.650  11.522   3.941  1.00  0.00    -0.502 OA
ATOM     15  H   UNL     1     -24.997  12.369   4.373  1.00  0.00     0.293 HD
ENDBRANCH   2  14
BRANCH   3  16
ATOM     16  O   UNL     1     -27.003  12.454   2.854  1.00  0.00    -0.502 OA
ATOM     17  H   UNL     1     -26.832  13.447   2.965  1.00  0.00     0.293 HD
ENDBRANCH   3  16
TORSDOF 3
ENDMDL
MODEL 2
REMARK VINA RESULT:    -5.184     18.719     19.671
REMARK INTER + INTRA:          -5.839
REMARK INTER:                  -5.789
REMARK INTRA:                  -0.049
REMARK UNBOUND:                -0.049
REMARK SMILES COc1cc2ccc(=O)oc2c(O)c1O
REMARK SMILES IDX 3 1 14 2 12 3 11 4 5 5 4 6 6 7 7 8 8 9 9 10 10 11 2 12 1 13
REMARK SMILES IDX 15 14 13 16
REMARK H PARENT 15 15 13 17
REMARK Flexibility Score: inf
ROOT
ATOM      1  C   UNL     1     -37.943  23.089  -8.016  1.00  0.00     0.165 A 
ATOM      2  C   UNL     1     -37.366  23.680  -6.874  1.00  0.00     0.204 A 
ATOM      3  C   UNL     1     -36.254  24.526  -6.997  1.00  0.00     0.205 A 
ATOM      4  C   UNL     1     -35.707  24.788  -8.264  1.00  0.00     0.184 A 
ATOM      5  C   UNL     1     -36.281  24.198  -9.410  1.00  0.00     0.025 A 
ATOM      6  C   UNL     1     -37.392  23.355  -9.284  1.00  0.00     0.062 A 
ATOM      7  C   UNL     1     -35.716  24.477 -10.659  1.00  0.00     0.020 A 
ATOM      8  C   UNL     1     -34.612  25.323 -10.738  1.00  0.00     0.094 A 
ATOM      9  C   UNL     1     -34.094  25.873  -9.561  1.00  0.00     0.336 A 
ATOM     10  O   UNL     1     -33.098  26.639  -9.610  1.00  0.00    -0.246 OA
ATOM     11  O   UNL     1     -34.651  25.590  -8.386  1.00  0.00    -0.419 OA
ENDROOT
BRANCH   1  12
ATOM     12  O   UNL     1     -39.055  22.248  -7.852  1.00  0.00    -0.493 OA
ATOM     13  C   UNL     1     -38.980  20.845  -7.616  1.00  0.00     0.278 C 
ENDBRANCH   1  12
BRANCH   2  14
ATOM     14  O   UNL     1     -37.889  23.436  -5.604  1.00  0.00    -0.502 OA
ATOM     15  H   UNL     1     -38.694  23.935  -5.245  1.00  0.00     0.293 HD
ENDBRANCH   2  14
BRANCH   3  16
ATOM     16  O   UNL     1     -35.705  25.097  -5.848  1.00  0.00    -0.502 OA
ATOM     17  H   UNL     1     -35.888  26.058  -5.583  1.00  0.00     0.293 HD
ENDBRANCH   3  16
TORSDOF 3
ENDMDL
MODEL 3
REMARK VINA RESULT:    -5.045     18.567     21.014
REMARK INTER + INTRA:          -5.683
REMARK INTER:                  -5.621
REMARK INTRA:                  -0.062
REMARK UNBOUND:                -0.049
REMARK SMILES COc1cc2ccc(=O)oc2c(O)c1O
REMARK SMILES IDX 3 1 14 2 12 3 11 4 5 5 4 6 6 7 7 8 8 9 9 10 10 11 2 12 1 13
REMARK SMILES IDX 15 14 13 16
REMARK H PARENT 15 15 13 17
REMARK Flexibility Score: inf
ROOT
ATOM      1  C   UNL     1     -36.737  24.636  -7.848  1.00  0.00     0.165 A 
ATOM      2  C   UNL     1     -35.367  24.963  -7.798  1.00  0.00     0.204 A 
ATOM      3  C   UNL     1     -34.798  25.792  -8.777  1.00  0.00     0.205 A 
ATOM      4  C   UNL     1     -35.594  26.301  -9.816  1.00  0.00     0.184 A 
ATOM      5  C   UNL     1     -36.966  25.976  -9.870  1.00  0.00     0.025 A 
ATOM      6  C   UNL     1     -37.531  25.149  -8.891  1.00  0.00     0.062 A 
ATOM      7  C   UNL     1     -37.735  26.497 -10.916  1.00  0.00     0.020 A 
ATOM      8  C   UNL     1     -37.132  27.317 -11.868  1.00  0.00     0.094 A 
ATOM      9  C   UNL     1     -35.767  27.597 -11.752  1.00  0.00     0.336 A 
ATOM     10  O   UNL     1     -35.202  28.334 -12.601  1.00  0.00    -0.246 OA
ATOM     11  O   UNL     1     -35.059  27.088 -10.748  1.00  0.00    -0.419 OA
ENDROOT
BRANCH   1  12
ATOM     12  O   UNL     1     -37.269  23.804  -6.851  1.00  0.00    -0.493 OA
ATOM     13  C   UNL     1     -37.888  22.545  -7.094  1.00  0.00     0.278 C 
ENDBRANCH   1  12
BRANCH   2  14
ATOM     14  O   UNL     1     -34.553  24.471  -6.777  1.00  0.00    -0.502 OA
ATOM     15  H   UNL     1     -34.549  24.872  -5.848  1.00  0.00     0.293 HD
ENDBRANCH   2  14
BRANCH   3  16
ATOM     16  O   UNL     1     -33.439  26.098  -8.701  1.00  0.00    -0.502 OA
ATOM     17  H   UNL     1     -32.733  25.386  -8.551  1.00  0.00     0.293 HD
ENDBRANCH   3  16
TORSDOF 3
ENDMDL
MODEL 4
REMARK VINA RESULT:    -5.024     20.194     20.800
REMARK INTER + INTRA:          -5.660
REMARK INTER:                  -5.611
REMARK INTRA:                  -0.050
REMARK UNBOUND:                -0.049
REMARK SMILES COc1cc2ccc(=O)oc2c(O)c1O
REMARK SMILES IDX 3 1 14 2 12 3 11 4 5 5 4 6 6 7 7 8 8 9 9 10 10 11 2 12 1 13
REMARK SMILES IDX 15 14 13 16
REMARK H PARENT 15 15 13 17
REMARK Flexibility Score: inf
ROOT
ATOM      1  C   UNL     1     -36.522  23.670 -10.263  1.00  0.00     0.165 A 
ATOM      2  C   UNL     1     -36.955  24.351  -9.107  1.00  0.00     0.204 A 
ATOM      3  C   UNL     1     -36.303  25.519  -8.686  1.00  0.00     0.205 A 
ATOM      4  C   UNL     1     -35.211  26.017  -9.415  1.00  0.00     0.184 A 
ATOM      5  C   UNL     1     -34.774  25.338 -10.572  1.00  0.00     0.025 A 
ATOM      6  C   UNL     1     -35.427  24.172 -10.991  1.00  0.00     0.062 A 
ATOM      7  C   UNL     1     -33.683  25.856 -11.280  1.00  0.00     0.020 A 
ATOM      8  C   UNL     1     -33.064  27.019 -10.827  1.00  0.00     0.094 A 
ATOM      9  C   UNL     1     -33.549  27.639  -9.672  1.00  0.00     0.336 A 
ATOM     10  O   UNL     1     -33.004  28.690  -9.247  1.00  0.00    -0.246 OA
ATOM     11  O   UNL     1     -34.588  27.125  -9.019  1.00  0.00    -0.419 OA
ENDROOT
BRANCH   1  12
ATOM     12  O   UNL     1     -37.200  22.504 -10.652  1.00  0.00    -0.493 OA
ATOM     13  C   UNL     1     -37.193  21.967 -11.971  1.00  0.00     0.278 C 
ENDBRANCH   1  12
BRANCH   2  14
ATOM     14  O   UNL     1     -38.037  23.879  -8.364  1.00  0.00    -0.502 OA
ATOM     15  H   UNL     1     -38.714  23.230  -8.747  1.00  0.00     0.293 HD
ENDBRANCH   2  14
BRANCH   3  16
ATOM     16  O   UNL     1     -36.754  26.172  -7.538  1.00  0.00    -0.502 OA
ATOM     17  H   UNL     1     -36.717  27.180  -7.441  1.00  0.00     0.293 HD
ENDBRANCH   3  16
TORSDOF 3
ENDMDL
MODEL 5
REMARK VINA RESULT:    -4.976     18.387     19.496
REMARK INTER + INTRA:          -5.607
REMARK INTER:                  -5.542
REMARK INTRA:                  -0.064
REMARK UNBOUND:                -0.049
REMARK SMILES COc1cc2ccc(=O)oc2c(O)c1O
REMARK SMILES IDX 3 1 14 2 12 3 11 4 5 5 4 6 6 7 7 8 8 9 9 10 10 11 2 12 1 13
REMARK SMILES IDX 15 14 13 16
REMARK H PARENT 15 15 13 17
REMARK Flexibility Score: inf
ROOT
ATOM      1  C   UNL     1     -36.356  24.404  -9.613  1.00  0.00     0.165 A 
ATOM      2  C   UNL     1     -36.042  25.045  -8.398  1.00  0.00     0.204 A 
ATOM      3  C   UNL     1     -36.559  24.563  -7.186  1.00  0.00     0.205 A 
ATOM      4  C   UNL     1     -37.398  23.437  -7.179  1.00  0.00     0.184 A 
ATOM      5  C   UNL     1     -37.715  22.792  -8.393  1.00  0.00     0.025 A 
ATOM      6  C   UNL     1     -37.196  23.274  -9.601  1.00  0.00     0.062 A 
ATOM      7  C   UNL     1     -38.553  21.672  -8.356  1.00  0.00     0.020 A 
ATOM      8  C   UNL     1     -39.046  21.226  -7.131  1.00  0.00     0.094 A 
ATOM      9  C   UNL     1     -38.690  21.913  -5.967  1.00  0.00     0.336 A 
ATOM     10  O   UNL     1     -39.125  21.527  -4.851  1.00  0.00    -0.246 OA
ATOM     11  O   UNL     1     -37.892  22.976  -6.031  1.00  0.00    -0.419 OA
ENDROOT
BRANCH   1  12
ATOM     12  O   UNL     1     -35.818  24.915 -10.805  1.00  0.00    -0.493 OA
ATOM     13  C   UNL     1     -34.911  24.214 -11.649  1.00  0.00     0.278 C 
ENDBRANCH   1  12
BRANCH   2  14
ATOM     14  O   UNL     1     -35.211  26.166  -8.377  1.00  0.00    -0.502 OA
ATOM     15  H   UNL     1     -35.511  27.068  -8.727  1.00  0.00     0.293 HD
ENDBRANCH   2  14
BRANCH   3  16
ATOM     16  O   UNL     1     -36.230  25.219  -6.000  1.00  0.00    -0.502 OA
ATOM     17  H   UNL     1     -35.534  24.856  -5.358  1.00  0.00     0.293 HD
ENDBRANCH   3  16
TORSDOF 3
ENDMDL
MODEL 6
REMARK VINA RESULT:    -4.967      1.651      5.428
REMARK INTER + INTRA:          -5.596
REMARK INTER:                  -5.543
REMARK INTRA:                  -0.053
REMARK UNBOUND:                -0.049
REMARK SMILES COc1cc2ccc(=O)oc2c(O)c1O
REMARK SMILES IDX 3 1 14 2 12 3 11 4 5 5 4 6 6 7 7 8 8 9 9 10 10 11 2 12 1 13
REMARK SMILES IDX 15 14 13 16
REMARK H PARENT 15 15 13 17
REMARK Flexibility Score: inf
ROOT
ATOM      1  C   UNL     1     -27.295  11.191  -0.190  1.00  0.00     0.165 A 
ATOM      2  C   UNL     1     -26.489  10.302  -0.927  1.00  0.00     0.204 A 
ATOM      3  C   UNL     1     -25.331   9.753  -0.357  1.00  0.00     0.205 A 
ATOM      4  C   UNL     1     -24.967  10.091   0.957  1.00  0.00     0.184 A 
ATOM      5  C   UNL     1     -25.772  10.981   1.700  1.00  0.00     0.025 A 
ATOM      6  C   UNL     1     -26.928  11.527   1.128  1.00  0.00     0.062 A 
ATOM      7  C   UNL     1     -25.386  11.299   3.006  1.00  0.00     0.020 A 
ATOM      8  C   UNL     1     -24.228  10.733   3.536  1.00  0.00     0.094 A 
ATOM      9  C   UNL     1     -23.479   9.858   2.743  1.00  0.00     0.336 A 
ATOM     10  O   UNL     1     -22.430   9.336   3.203  1.00  0.00    -0.246 OA
ATOM     11  O   UNL     1     -23.869   9.573   1.504  1.00  0.00    -0.419 OA
ENDROOT
BRANCH   1  12
ATOM     12  O   UNL     1     -28.446  11.719  -0.796  1.00  0.00    -0.493 OA
ATOM     13  C   UNL     1     -29.735  11.117  -0.744  1.00  0.00     0.278 C 
ENDBRANCH   1  12
BRANCH   2  14
ATOM     14  O   UNL     1     -26.826   9.950  -2.234  1.00  0.00    -0.502 OA
ATOM     15  H   UNL     1     -27.746   9.605  -2.482  1.00  0.00     0.293 HD
ENDBRANCH   2  14
BRANCH   3  16
ATOM     16  O   UNL     1     -24.552   8.875  -1.111  1.00  0.00    -0.502 OA
ATOM     17  H   UNL     1     -23.784   8.351  -0.708  1.00  0.00     0.293 HD
ENDBRANCH   3  16
TORSDOF 3
ENDMDL
MODEL 7
REMARK VINA RESULT:    -4.875     17.528     19.701
REMARK INTER + INTRA:          -5.494
REMARK INTER:                  -5.424
REMARK INTRA:                  -0.069
REMARK UNBOUND:                -0.049
REMARK SMILES COc1cc2ccc(=O)oc2c(O)c1O
REMARK SMILES IDX 3 1 14 2 12 3 11 4 5 5 4 6 6 7 7 8 8 9 9 10 10 11 2 12 1 13
REMARK SMILES IDX 15 14 13 16
REMARK H PARENT 15 15 13 17
REMARK Flexibility Score: inf
ROOT
ATOM      1  C   UNL     1     -37.332  23.378  -6.930  1.00  0.00     0.165 A 
ATOM      2  C   UNL     1     -36.473  24.492  -7.013  1.00  0.00     0.204 A 
ATOM      3  C   UNL     1     -36.019  24.948  -8.260  1.00  0.00     0.205 A 
ATOM      4  C   UNL     1     -36.419  24.293  -9.436  1.00  0.00     0.184 A 
ATOM      5  C   UNL     1     -37.279  23.176  -9.357  1.00  0.00     0.025 A 
ATOM      6  C   UNL     1     -37.731  22.724  -8.111  1.00  0.00     0.062 A 
ATOM      7  C   UNL     1     -37.661  22.543 -10.545  1.00  0.00     0.020 A 
ATOM      8  C   UNL     1     -37.188  23.027 -11.763  1.00  0.00     0.094 A 
ATOM      9  C   UNL     1     -36.339  24.137 -11.766  1.00  0.00     0.336 A 
ATOM     10  O   UNL     1     -35.901  24.590 -12.855  1.00  0.00    -0.246 OA
ATOM     11  O   UNL     1     -35.991  24.721 -10.622  1.00  0.00    -0.419 OA
ENDROOT
BRANCH   1  12
ATOM     12  O   UNL     1     -37.764  22.952  -5.664  1.00  0.00    -0.493 OA
ATOM     13  C   UNL     1     -37.188  21.875  -4.933  1.00  0.00     0.278 C 
ENDBRANCH   1  12
BRANCH   2  14
ATOM     14  O   UNL     1     -36.060  25.162  -5.861  1.00  0.00    -0.502 OA
ATOM     15  H   UNL     1     -35.128  25.057  -5.479  1.00  0.00     0.293 HD
ENDBRANCH   2  14
BRANCH   3  16
ATOM     16  O   UNL     1     -35.170  26.054  -8.311  1.00  0.00    -0.502 OA
ATOM     17  H   UNL     1     -34.722  26.351  -9.170  1.00  0.00     0.293 HD
ENDBRANCH   3  16
TORSDOF 3
ENDMDL
MODEL 8
REMARK VINA RESULT:    -4.825     17.207     18.106
REMARK INTER + INTRA:          -5.437
REMARK INTER:                  -5.389
REMARK INTRA:                  -0.049
REMARK UNBOUND:                -0.049
REMARK SMILES COc1cc2ccc(=O)oc2c(O)c1O
REMARK SMILES IDX 3 1 14 2 12 3 11 4 5 5 4 6 6 7 7 8 8 9 9 10 10 11 2 12 1 13
REMARK SMILES IDX 15 14 13 16
REMARK H PARENT 15 15 13 17
REMARK Flexibility Score: inf
ROOT
ATOM      1  C   UNL     1     -29.947  21.121 -12.625  1.00  0.00     0.165 A 
ATOM      2  C   UNL     1     -29.442  19.926 -13.177  1.00  0.00     0.204 A 
ATOM      3  C   UNL     1     -30.306  18.997 -13.774  1.00  0.00     0.205 A 
ATOM      4  C   UNL     1     -31.686  19.253 -13.824  1.00  0.00     0.184 A 
ATOM      5  C   UNL     1     -32.197  20.447 -13.273  1.00  0.00     0.025 A 
ATOM      6  C   UNL     1     -31.332  21.374 -12.678  1.00  0.00     0.062 A 
ATOM      7  C   UNL     1     -33.576  20.676 -13.336  1.00  0.00     0.020 A 
ATOM      8  C   UNL     1     -34.401  19.728 -13.938  1.00  0.00     0.094 A 
ATOM      9  C   UNL     1     -33.826  18.567 -14.464  1.00  0.00     0.336 A 
ATOM     10  O   UNL     1     -34.553  17.698 -15.011  1.00  0.00    -0.246 OA
ATOM     11  O   UNL     1     -32.512  18.374 -14.389  1.00  0.00    -0.419 OA
ENDROOT
BRANCH   1  12
ATOM     12  O   UNL     1     -29.050  22.025 -12.036  1.00  0.00    -0.493 OA
ATOM     13  C   UNL     1     -29.409  23.308 -11.533  1.00  0.00     0.278 C 
ENDBRANCH   1  12
BRANCH   2  14
ATOM     14  O   UNL     1     -28.075  19.647 -13.140  1.00  0.00    -0.502 OA
ATOM     15  H   UNL     1     -27.440  19.955 -13.867  1.00  0.00     0.293 HD
ENDBRANCH   2  14
BRANCH   3  16
ATOM     16  O   UNL     1     -29.776  17.824 -14.311  1.00  0.00    -0.502 OA
ATOM     17  H   UNL     1     -29.253  17.817 -15.180  1.00  0.00     0.293 HD
ENDBRANCH   3  16
TORSDOF 3
ENDMDL
MODEL 9
REMARK VINA RESULT:    -4.672     12.136     13.818
REMARK INTER + INTRA:          -5.267
REMARK INTER:                  -5.217
REMARK INTRA:                  -0.050
REMARK UNBOUND:                -0.049
REMARK SMILES COc1cc2ccc(=O)oc2c(O)c1O
REMARK SMILES IDX 3 1 14 2 12 3 11 4 5 5 4 6 6 7 7 8 8 9 9 10 10 11 2 12 1 13
REMARK SMILES IDX 15 14 13 16
REMARK H PARENT 15 15 13 17
REMARK Flexibility Score: inf
ROOT
ATOM      1  C   UNL     1     -20.922  11.928 -13.529  1.00  0.00     0.165 A 
ATOM      2  C   UNL     1     -20.490  12.964 -12.678  1.00  0.00     0.204 A 
ATOM      3  C   UNL     1     -20.883  12.988 -11.331  1.00  0.00     0.205 A 
ATOM      4  C   UNL     1     -21.712  11.975 -10.824  1.00  0.00     0.184 A 
ATOM      5  C   UNL     1     -22.147  10.935 -11.672  1.00  0.00     0.025 A 
ATOM      6  C   UNL     1     -21.754  10.914 -13.016  1.00  0.00     0.062 A 
ATOM      7  C   UNL     1     -22.973   9.939 -11.139  1.00  0.00     0.020 A 
ATOM      8  C   UNL     1     -23.340   9.999  -9.796  1.00  0.00     0.094 A 
ATOM      9  C   UNL     1     -22.872  11.059  -9.014  1.00  0.00     0.336 A 
ATOM     10  O   UNL     1     -23.192  11.132  -7.799  1.00  0.00    -0.246 OA
ATOM     11  O   UNL     1     -22.088  11.993  -9.546  1.00  0.00    -0.419 OA
ENDROOT
BRANCH   1  12
ATOM     12  O   UNL     1     -20.508  11.939 -14.870  1.00  0.00    -0.493 OA
ATOM     13  C   UNL     1     -20.353  10.777 -15.678  1.00  0.00     0.278 C 
ENDBRANCH   1  12
BRANCH   2  14
ATOM     14  O   UNL     1     -19.666  13.983 -13.157  1.00  0.00    -0.502 OA
ATOM     15  H   UNL     1     -18.784  13.794 -13.617  1.00  0.00     0.293 HD
ENDBRANCH   2  14
BRANCH   3  16
ATOM     16  O   UNL     1     -20.439  14.027 -10.513  1.00  0.00    -0.502 OA
ATOM     17  H   UNL     1     -20.665  14.071  -9.526  1.00  0.00     0.293 HD
ENDBRANCH   3  16
TORSDOF 3
ENDMDL
