MODEL 1
REMARK VINA RESULT:    -2.136      0.000      0.000
REMARK INTER + INTRA:          -2.136
REMARK INTER:                  -2.136
REMARK INTRA:                   0.000
REMARK UNBOUND:                 0.000
REMARK SMILES CC(=O)[O-]
REMARK SMILES IDX 1 1 2 2 3 3 4 4
REMARK H PARENT
REMARK Flexibility Score: inf
ROOT
ATOM      1  C   UNL     1     -20.389   4.744 -19.616  1.00  0.00     0.063 C 
ATOM      2  C   UNL     1     -20.234   3.591 -18.684  1.00  0.00     0.038 C 
ATOM      3  O   UNL     1     -19.118   3.019 -18.567  1.00  0.00    -0.550 OA
ATOM      4  O   UNL     1     -21.305   3.179 -17.901  1.00  0.00    -0.550 OA
ENDROOT
TORSDOF 0
ENDMDL
MODEL 2
REMARK VINA RESULT:    -2.077      1.391      2.253
REMARK INTER + INTRA:          -2.077
REMARK INTER:                  -2.077
REMARK INTRA:                   0.000
REMARK UNBOUND:                 0.000
REMARK SMILES CC(=O)[O-]
REMARK SMILES IDX 1 1 2 2 3 3 4 4
REMARK H PARENT
REMARK Flexibility Score: inf
ROOT
ATOM      1  C   UNL     1     -21.043   3.044 -17.891  1.00  0.00     0.063 C 
ATOM      2  C   UNL     1     -20.248   3.802 -18.899  1.00  0.00     0.038 C 
ATOM      3  O   UNL     1     -20.823   4.599 -19.687  1.00  0.00    -0.550 OA
ATOM      4  O   UNL     1     -18.866   3.674 -18.936  1.00  0.00    -0.550 OA
ENDROOT
TORSDOF 0
ENDMDL
MODEL 3
REMARK VINA RESULT:    -2.070     17.750     18.185
REMARK INTER + INTRA:          -2.070
REMARK INTER:                  -2.070
REMARK INTRA:                   0.000
REMARK UNBOUND:                 0.000
REMARK SMILES CC(=O)[O-]
REMARK SMILES IDX 1 1 2 2 3 3 4 4
REMARK H PARENT
REMARK Flexibility Score: inf
ROOT
ATOM      1  C   UNL     1     -29.972  18.360 -10.725  1.00  0.00     0.063 C 
ATOM      2  C   UNL     1     -29.916  17.117 -11.547  1.00  0.00     0.038 C 
ATOM      3  O   UNL     1     -30.410  16.046 -11.106  1.00  0.00    -0.550 OA
ATOM      4  O   UNL     1     -29.367  17.150 -12.822  1.00  0.00    -0.550 OA
ENDROOT
TORSDOF 0
ENDMDL
MODEL 4
REMARK VINA RESULT:    -2.030     17.755     18.275
REMARK INTER + INTRA:          -2.030
REMARK INTER:                  -2.030
REMARK INTRA:                   0.000
REMARK UNBOUND:                 0.000
REMARK SMILES CC(=O)[O-]
REMARK SMILES IDX 1 1 2 2 3 3 4 4
REMARK H PARENT
REMARK Flexibility Score: inf
ROOT
ATOM      1  C   UNL     1     -30.720  16.029 -11.062  1.00  0.00     0.063 C 
ATOM      2  C   UNL     1     -29.952  17.233 -11.492  1.00  0.00     0.038 C 
ATOM      3  O   UNL     1     -29.810  18.205 -10.704  1.00  0.00    -0.550 OA
ATOM      4  O   UNL     1     -29.346  17.263 -12.741  1.00  0.00    -0.550 OA
ENDROOT
TORSDOF 0
ENDMDL
MODEL 5
REMARK VINA RESULT:    -1.981     17.760     18.120
REMARK INTER + INTRA:          -1.981
REMARK INTER:                  -1.981
REMARK INTRA:                   0.000
REMARK UNBOUND:                 0.000
REMARK SMILES CC(=O)[O-]
REMARK SMILES IDX 1 1 2 2 3 3 4 4
REMARK H PARENT
REMARK Flexibility Score: inf
ROOT
ATOM      1  C   UNL     1     -29.924  18.329 -10.727  1.00  0.00     0.063 C 
ATOM      2  C   UNL     1     -29.926  17.115 -11.594  1.00  0.00     0.038 C 
ATOM      3  O   UNL     1     -29.381  17.149 -12.728  1.00  0.00    -0.550 OA
ATOM      4  O   UNL     1     -30.482  15.930 -11.130  1.00  0.00    -0.550 OA
ENDROOT
TORSDOF 0
ENDMDL
MODEL 6
REMARK VINA RESULT:    -1.926      1.530      2.058
REMARK INTER + INTRA:          -1.926
REMARK INTER:                  -1.926
REMARK INTRA:                   0.000
REMARK UNBOUND:                 0.000
REMARK SMILES CC(=O)[O-]
REMARK SMILES IDX 1 1 2 2 3 3 4 4
REMARK H PARENT
REMARK Flexibility Score: inf
ROOT
ATOM      1  C   UNL     1     -18.922   3.325 -18.812  1.00  0.00     0.063 C 
ATOM      2  C   UNL     1     -20.292   3.907 -18.904  1.00  0.00     0.038 C 
ATOM      3  O   UNL     1     -21.234   3.410 -18.233  1.00  0.00    -0.550 OA
ATOM      4  O   UNL     1     -20.520   5.032 -19.685  1.00  0.00    -0.550 OA
ENDROOT
TORSDOF 0
ENDMDL
MODEL 7
REMARK VINA RESULT:    -1.843     20.005     20.139
REMARK INTER + INTRA:          -1.843
REMARK INTER:                  -1.843
REMARK INTRA:                   0.000
REMARK UNBOUND:                 0.000
REMARK SMILES CC(=O)[O-]
REMARK SMILES IDX 1 1 2 2 3 3 4 4
REMARK H PARENT
REMARK Flexibility Score: inf
ROOT
ATOM      1  C   UNL     1     -14.213  10.183  -1.737  1.00  0.00     0.063 C 
ATOM      2  C   UNL     1     -14.591  11.456  -1.059  1.00  0.00     0.038 C 
ATOM      3  O   UNL     1     -14.224  11.674   0.125  1.00  0.00    -0.550 OA
ATOM      4  O   UNL     1     -15.302  12.429  -1.751  1.00  0.00    -0.550 OA
ENDROOT
TORSDOF 0
ENDMDL
MODEL 8
REMARK VINA RESULT:    -1.770      2.136      2.874
REMARK INTER + INTRA:          -1.770
REMARK INTER:                  -1.770
REMARK INTRA:                   0.000
REMARK UNBOUND:                 0.000
REMARK SMILES CC(=O)[O-]
REMARK SMILES IDX 1 1 2 2 3 3 4 4
REMARK H PARENT
REMARK Flexibility Score: inf
ROOT
ATOM      1  C   UNL     1     -19.409   4.612 -19.467  1.00  0.00     0.063 C 
ATOM      2  C   UNL     1     -18.033   4.174 -19.091  1.00  0.00     0.038 C 
ATOM      3  O   UNL     1     -17.818   3.677 -17.955  1.00  0.00    -0.550 OA
ATOM      4  O   UNL     1     -16.998   4.263 -20.013  1.00  0.00    -0.550 OA
ENDROOT
TORSDOF 0
ENDMDL
MODEL 9
REMARK VINA RESULT:    -1.733     23.337     23.751
REMARK INTER + INTRA:          -1.733
REMARK INTER:                  -1.733
REMARK INTRA:                   0.000
REMARK UNBOUND:                 0.000
REMARK SMILES CC(=O)[O-]
REMARK SMILES IDX 1 1 2 2 3 3 4 4
REMARK H PARENT
REMARK Flexibility Score: inf
ROOT
ATOM      1  C   UNL     1     -33.582  23.125 -10.016  1.00  0.00     0.063 C 
ATOM      2  C   UNL     1     -32.630  22.022 -10.333  1.00  0.00     0.038 C 
ATOM      3  O   UNL     1     -31.470  22.288 -10.745  1.00  0.00    -0.550 OA
ATOM      4  O   UNL     1     -33.001  20.700 -10.124  1.00  0.00    -0.550 OA
ENDROOT
TORSDOF 0
ENDMDL
