MODEL 1
REMARK VINA RESULT:    -2.726      0.000      0.000
REMARK INTER + INTRA:          -2.726
REMARK INTER:                  -2.726
REMARK INTRA:                   0.000
REMARK UNBOUND:                 0.000
REMARK SMILES CC(=O)[O-]
REMARK SMILES IDX 1 1 2 2 3 3 4 4
REMARK H PARENT
REMARK Flexibility Score: inf
ROOT
ATOM      1  C   UNL     1      18.440  -7.734  20.792  1.00  0.00     0.063 C 
ATOM      2  C   UNL     1      18.866  -8.309  22.099  1.00  0.00     0.038 C 
ATOM      3  O   UNL     1      20.038  -8.746  22.245  1.00  0.00    -0.550 OA
ATOM      4  O   UNL     1      17.957  -8.413  23.144  1.00  0.00    -0.550 OA
ENDROOT
TORSDOF 0
ENDMDL
MODEL 2
REMARK VINA RESULT:    -2.656      1.378      2.163
REMARK INTER + INTRA:          -2.656
REMARK INTER:                  -2.656
REMARK INTRA:                   0.000
REMARK UNBOUND:                 0.000
REMARK SMILES CC(=O)[O-]
REMARK SMILES IDX 1 1 2 2 3 3 4 4
REMARK H PARENT
REMARK Flexibility Score: inf
ROOT
ATOM      1  C   UNL     1      18.086  -8.277  23.216  1.00  0.00     0.063 C 
ATOM      2  C   UNL     1      18.792  -8.324  21.904  1.00  0.00     0.038 C 
ATOM      3  O   UNL     1      18.200  -7.957  20.854  1.00  0.00    -0.550 OA
ATOM      4  O   UNL     1      20.086  -8.821  21.827  1.00  0.00    -0.550 OA
ENDROOT
TORSDOF 0
ENDMDL
MODEL 3
REMARK VINA RESULT:    -2.538      1.751      2.433
REMARK INTER + INTRA:          -2.538
REMARK INTER:                  -2.538
REMARK INTRA:                   0.000
REMARK UNBOUND:                 0.000
REMARK SMILES CC(=O)[O-]
REMARK SMILES IDX 1 1 2 2 3 3 4 4
REMARK H PARENT
REMARK Flexibility Score: inf
ROOT
ATOM      1  C   UNL     1      19.807  -8.103  23.775  1.00  0.00     0.063 C 
ATOM      2  C   UNL     1      18.439  -8.286  23.210  1.00  0.00     0.038 C 
ATOM      3  O   UNL     1      17.479  -8.588  23.967  1.00  0.00    -0.550 OA
ATOM      4  O   UNL     1      18.230  -8.175  21.842  1.00  0.00    -0.550 OA
ENDROOT
TORSDOF 0
ENDMDL
MODEL 4
REMARK VINA RESULT:    -2.506     25.748     26.203
REMARK INTER + INTRA:          -2.506
REMARK INTER:                  -2.506
REMARK INTRA:                   0.000
REMARK UNBOUND:                 0.000
REMARK SMILES CC(=O)[O-]
REMARK SMILES IDX 1 1 2 2 3 3 4 4
REMARK H PARENT
REMARK Flexibility Score: inf
ROOT
ATOM      1  C   UNL     1       8.502   8.695   3.889  1.00  0.00     0.063 C 
ATOM      2  C   UNL     1       8.489   8.995   5.349  1.00  0.00     0.038 C 
ATOM      3  O   UNL     1       8.857  10.125   5.766  1.00  0.00    -0.550 OA
ATOM      4  O   UNL     1       8.122   8.012   6.259  1.00  0.00    -0.550 OA
ENDROOT
TORSDOF 0
ENDMDL
MODEL 5
REMARK VINA RESULT:    -2.504      1.872      1.976
REMARK INTER + INTRA:          -2.504
REMARK INTER:                  -2.504
REMARK INTRA:                   0.000
REMARK UNBOUND:                 0.000
REMARK SMILES CC(=O)[O-]
REMARK SMILES IDX 1 1 2 2 3 3 4 4
REMARK H PARENT
REMARK Flexibility Score: inf
ROOT
ATOM      1  C   UNL     1      18.236  -8.330  23.238  1.00  0.00     0.063 C 
ATOM      2  C   UNL     1      19.678  -8.223  22.873  1.00  0.00     0.038 C 
ATOM      3  O   UNL     1      20.124  -8.845  21.873  1.00  0.00    -0.550 OA
ATOM      4  O   UNL     1      20.543  -7.482  23.666  1.00  0.00    -0.550 OA
ENDROOT
TORSDOF 0
ENDMDL
MODEL 6
REMARK VINA RESULT:    -2.364     25.908     26.300
REMARK INTER + INTRA:          -2.364
REMARK INTER:                  -2.364
REMARK INTRA:                   0.000
REMARK UNBOUND:                 0.000
REMARK SMILES CC(=O)[O-]
REMARK SMILES IDX 1 1 2 2 3 3 4 4
REMARK H PARENT
REMARK Flexibility Score: inf
ROOT
ATOM      1  C   UNL     1       8.504   8.243   6.487  1.00  0.00     0.063 C 
ATOM      2  C   UNL     1       8.494   8.910   5.154  1.00  0.00     0.038 C 
ATOM      3  O   UNL     1       8.809  10.125   5.054  1.00  0.00    -0.550 OA
ATOM      4  O   UNL     1       8.086   8.208   4.028  1.00  0.00    -0.550 OA
ENDROOT
TORSDOF 0
ENDMDL
MODEL 7
REMARK VINA RESULT:    -2.347      1.737      2.586
REMARK INTER + INTRA:          -2.347
REMARK INTER:                  -2.347
REMARK INTRA:                   0.000
REMARK UNBOUND:                 0.000
REMARK SMILES CC(=O)[O-]
REMARK SMILES IDX 1 1 2 2 3 3 4 4
REMARK H PARENT
REMARK Flexibility Score: inf
ROOT
ATOM      1  C   UNL     1      20.507  -8.578  23.556  1.00  0.00     0.063 C 
ATOM      2  C   UNL     1      20.052  -7.963  22.277  1.00  0.00     0.038 C 
ATOM      3  O   UNL     1      19.209  -8.558  21.554  1.00  0.00    -0.550 OA
ATOM      4  O   UNL     1      20.595  -6.758  21.851  1.00  0.00    -0.550 OA
ENDROOT
TORSDOF 0
ENDMDL
MODEL 8
REMARK VINA RESULT:    -1.813     20.943     21.258
REMARK INTER + INTRA:          -1.813
REMARK INTER:                  -1.813
REMARK INTRA:                   0.000
REMARK UNBOUND:                 0.000
REMARK SMILES CC(=O)[O-]
REMARK SMILES IDX 1 1 2 2 3 3 4 4
REMARK H PARENT
REMARK Flexibility Score: inf
ROOT
ATOM      1  C   UNL     1       3.663   5.739  23.044  1.00  0.00     0.063 C 
ATOM      2  C   UNL     1       3.973   6.803  22.048  1.00  0.00     0.038 C 
ATOM      3  O   UNL     1       3.296   6.895  20.990  1.00  0.00    -0.550 OA
ATOM      4  O   UNL     1       5.043   7.663  22.258  1.00  0.00    -0.550 OA
ENDROOT
TORSDOF 0
ENDMDL
MODEL 9
REMARK VINA RESULT:    -1.801     13.929     14.335
REMARK INTER + INTRA:          -1.801
REMARK INTER:                  -1.801
REMARK INTRA:                   0.000
REMARK UNBOUND:                 0.000
REMARK SMILES CC(=O)[O-]
REMARK SMILES IDX 1 1 2 2 3 3 4 4
REMARK H PARENT
REMARK Flexibility Score: inf
ROOT
ATOM      1  C   UNL     1      19.339  -7.509   6.392  1.00  0.00     0.063 C 
ATOM      2  C   UNL     1      19.284  -7.679   7.872  1.00  0.00     0.038 C 
ATOM      3  O   UNL     1      18.867  -6.740   8.600  1.00  0.00    -0.550 OA
ATOM      4  O   UNL     1      19.744  -8.852   8.456  1.00  0.00    -0.550 OA
ENDROOT
TORSDOF 0
ENDMDL
