MODEL 1
REMARK VINA RESULT:    -3.587      0.000      0.000
REMARK INTER + INTRA:          -5.788
REMARK INTER:                  -5.475
REMARK INTRA:                  -0.313
REMARK UNBOUND:                -0.313
REMARK SMILES CC1=CCC[C@H](C)C(=O)C[C@@H](C(C)C)C(=O)C1
REMARK SMILES IDX 8 1 9 2 6 3 7 4 5 5 4 6 3 7 2 8 1 9 10 11 11 12 15 13 16 14
REMARK SMILES IDX 17 15 12 17 13 18 14 19
REMARK H PARENT
REMARK Flexibility Score: 70.00
ROOT
ATOM      1  C   UNL     1      19.083  31.660  30.240  1.00  0.00     0.136 C 
ATOM      2  O   UNL     1      20.061  31.608  29.507  1.00  0.00    -0.299 OA
ENDROOT
BRANCH   1   3
ATOM      3  C   UNL     1      18.494  33.005  30.618  1.00  0.00     0.053 C 
ATOM      4  C   UNL     1      19.586  33.879  31.242  1.00  0.00     0.016 C 
BRANCH   3   5
ATOM      5  C   UNL     1      17.869  33.720  29.398  1.00  0.00     0.015 C 
BRANCH   5   6
ATOM      6  C   UNL     1      16.520  33.122  28.969  1.00  0.00     0.028 C 
BRANCH   6   7
ATOM      7  C   UNL     1      15.621  32.884  30.158  1.00  0.00    -0.028 C 
ATOM      8  C   UNL     1      14.984  31.727  30.448  1.00  0.00    -0.070 CG0
ATOM      9  C   UNL     1      14.123  31.684  31.686  1.00  0.00     0.039 C 
ATOM     10  G   UNL     1      15.120  30.472  29.610  1.00  0.00     0.000 G0
ENDBRANCH   6   7
ENDBRANCH   5   6
ENDBRANCH   3   5
ENDBRANCH   1   3
BRANCH   1  11
ATOM     11  C   UNL     1      18.497  30.378  30.770  1.00  0.00     0.087 C 
BRANCH  11  12
ATOM     12  C   UNL     1      17.628  29.657  29.708  1.00  0.00     0.066 C 
BRANCH  12  13
ATOM     13  C   UNL     1      16.184  29.551  30.170  1.00  0.00     0.140 C 
ATOM     14  O   UNL     1      15.865  28.686  30.975  1.00  0.00    -0.299 OA
BRANCH  13  15
ATOM     15  C   UNL     1      15.113  30.455  29.615  1.00  0.00     0.106 CG0
ATOM     16  G   UNL     1      14.997  31.723  30.436  1.00  0.00     0.000 G0
ENDBRANCH  13  15
ENDBRANCH  12  13
BRANCH  12  17
ATOM     17  C   UNL     1      18.173  28.252  29.302  1.00  0.00    -0.006 C 
ATOM     18  C   UNL     1      19.570  27.939  29.868  1.00  0.00     0.008 C 
ATOM     19  C   UNL     1      18.170  28.060  27.777  1.00  0.00     0.008 C 
ENDBRANCH  12  17
ENDBRANCH  11  12
ENDBRANCH   1  11
TORSDOF 1
ENDMDL
MODEL 2
REMARK VINA RESULT:    -3.255      2.264      5.542
REMARK INTER + INTRA:          -5.281
REMARK INTER:                  -4.985
REMARK INTRA:                  -0.296
REMARK UNBOUND:                -0.313
REMARK SMILES CC1=CCC[C@H](C)C(=O)C[C@@H](C(C)C)C(=O)C1
REMARK SMILES IDX 8 1 9 2 6 3 7 4 5 5 4 6 3 7 2 8 1 9 10 11 11 12 15 13 16 14
REMARK SMILES IDX 17 15 12 17 13 18 14 19
REMARK H PARENT
REMARK Flexibility Score: 70.00
ROOT
ATOM      1  C   UNL     1      16.348  28.851  29.965  1.00  0.00     0.136 C 
ATOM      2  O   UNL     1      15.316  29.202  29.411  1.00  0.00    -0.299 OA
ENDROOT
BRANCH   1   3
ATOM      3  C   UNL     1      16.878  27.447  29.754  1.00  0.00     0.053 C 
ATOM      4  C   UNL     1      15.800  26.433  30.150  1.00  0.00     0.016 C 
BRANCH   3   5
ATOM      5  C   UNL     1      17.319  27.215  28.290  1.00  0.00     0.015 C 
BRANCH   5   6
ATOM      6  C   UNL     1      18.634  27.923  27.932  1.00  0.00     0.028 C 
BRANCH   6   7
ATOM      7  C   UNL     1      19.671  27.736  29.014  1.00  0.00    -0.028 C 
ATOM      8  C   UNL     1      20.374  28.724  29.612  1.00  0.00    -0.070 CG0
ATOM      9  C   UNL     1      21.372  28.338  30.676  1.00  0.00     0.039 C 
ATOM     10  G   UNL     1      20.184  30.192  29.289  1.00  0.00     0.000 G0
ENDBRANCH   6   7
ENDBRANCH   5   6
ENDBRANCH   3   5
ENDBRANCH   1   3
BRANCH   1  11
ATOM     11  C   UNL     1      17.061  29.825  30.867  1.00  0.00     0.087 C 
BRANCH  11  12
ATOM     12  C   UNL     1      17.788  30.932  30.062  1.00  0.00     0.066 C 
BRANCH  12  13
ATOM     13  C   UNL     1      19.290  30.869  30.287  1.00  0.00     0.140 C 
ATOM     14  O   UNL     1      19.782  31.411  31.268  1.00  0.00    -0.299 OA
BRANCH  13  15
ATOM     15  C   UNL     1      20.206  30.200  29.294  1.00  0.00     0.106 CG0
ATOM     16  G   UNL     1      20.382  28.732  29.626  1.00  0.00     0.000 G0
ENDBRANCH  13  15
ENDBRANCH  12  13
BRANCH  12  17
ATOM     17  C   UNL     1      17.255  32.370  30.354  1.00  0.00    -0.006 C 
ATOM     18  C   UNL     1      16.259  32.438  31.526  1.00  0.00     0.008 C 
ATOM     19  C   UNL     1      16.638  33.013  29.102  1.00  0.00     0.008 C 
ENDBRANCH  12  17
ENDBRANCH  11  12
ENDBRANCH   1  11
TORSDOF 1
ENDMDL
MODEL 3
REMARK VINA RESULT:    -3.215      3.347      6.783
REMARK INTER + INTRA:          -5.220
REMARK INTER:                  -5.553
REMARK INTRA:                   0.333
REMARK UNBOUND:                -0.313
REMARK SMILES CC1=CCC[C@H](C)C(=O)C[C@@H](C(C)C)C(=O)C1
REMARK SMILES IDX 8 1 9 2 6 3 7 4 5 5 4 6 3 7 2 8 1 9 10 11 11 12 15 13 16 14
REMARK SMILES IDX 17 15 12 17 13 18 14 19
REMARK H PARENT
REMARK Flexibility Score: 70.00
ROOT
ATOM      1  C   UNL     1      18.586  27.236  28.523  1.00  0.00     0.136 C 
ATOM      2  O   UNL     1      18.498  27.807  27.446  1.00  0.00    -0.299 OA
ENDROOT
BRANCH   1   3
ATOM      3  C   UNL     1      18.658  25.723  28.571  1.00  0.00     0.053 C 
ATOM      4  C   UNL     1      17.485  25.134  27.782  1.00  0.00     0.016 C 
BRANCH   3   5
ATOM      5  C   UNL     1      19.999  25.194  28.012  1.00  0.00     0.015 C 
BRANCH   5   6
ATOM      6  C   UNL     1      21.184  25.412  28.966  1.00  0.00     0.028 C 
BRANCH   6   7
ATOM      7  C   UNL     1      22.120  26.476  28.444  1.00  0.00    -0.028 C 
ATOM      8  C   UNL     1      22.227  27.737  28.922  1.00  0.00    -0.070 CG0
ATOM      9  C   UNL     1      23.224  28.660  28.265  1.00  0.00     0.039 C 
ATOM     10  G   UNL     1      21.423  28.250  30.099  1.00  0.00     0.000 G0
ENDBRANCH   6   7
ENDBRANCH   5   6
ENDBRANCH   3   5
ENDBRANCH   1   3
BRANCH   1  11
ATOM     11  C   UNL     1      18.600  28.057  29.787  1.00  0.00     0.087 C 
BRANCH  11  12
ATOM     12  C   UNL     1      19.171  29.478  29.547  1.00  0.00     0.066 C 
BRANCH  12  13
ATOM     13  C   UNL     1      20.674  29.503  29.771  1.00  0.00     0.140 C 
ATOM     14  O   UNL     1      21.295  30.546  29.616  1.00  0.00    -0.299 OA
BRANCH  13  15
ATOM     15  C   UNL     1      21.436  28.253  30.128  1.00  0.00     0.106 CG0
ATOM     16  G   UNL     1      22.227  27.744  28.940  1.00  0.00     0.000 G0
ENDBRANCH  13  15
ENDBRANCH  12  13
BRANCH  12  17
ATOM     17  C   UNL     1      18.476  30.583  30.402  1.00  0.00    -0.006 C 
ATOM     18  C   UNL     1      17.323  30.059  31.279  1.00  0.00     0.008 C 
ATOM     19  C   UNL     1      17.984  31.750  29.531  1.00  0.00     0.008 C 
ENDBRANCH  12  17
ENDBRANCH  11  12
ENDBRANCH   1  11
TORSDOF 1
ENDMDL
MODEL 4
REMARK VINA RESULT:    -3.141      2.547      5.099
REMARK INTER + INTRA:          -5.107
REMARK INTER:                  -4.877
REMARK INTRA:                  -0.230
REMARK UNBOUND:                -0.313
REMARK SMILES CC1=CCC[C@H](C)C(=O)C[C@@H](C(C)C)C(=O)C1
REMARK SMILES IDX 8 1 9 2 6 3 7 4 5 5 4 6 3 7 2 8 1 9 10 11 11 12 15 13 16 14
REMARK SMILES IDX 17 15 12 17 13 18 14 19
REMARK H PARENT
REMARK Flexibility Score: 70.00
ROOT
ATOM      1  C   UNL     1      16.948  26.124  27.990  1.00  0.00     0.136 C 
ATOM      2  O   UNL     1      17.466  25.020  27.894  1.00  0.00    -0.299 OA
ENDROOT
BRANCH   1   3
ATOM      3  C   UNL     1      15.490  26.241  28.384  1.00  0.00     0.053 C 
ATOM      4  C   UNL     1      14.634  25.424  27.412  1.00  0.00     0.016 C 
BRANCH   3   5
ATOM      5  C   UNL     1      15.248  25.767  29.837  1.00  0.00     0.015 C 
BRANCH   5   6
ATOM      6  C   UNL     1      15.456  26.876  30.880  1.00  0.00     0.028 C 
BRANCH   6   7
ATOM      7  C   UNL     1      14.952  28.207  30.374  1.00  0.00    -0.028 C 
ATOM      8  C   UNL     1      15.689  29.334  30.249  1.00  0.00    -0.070 CG0
ATOM      9  C   UNL     1      15.004  30.572  29.725  1.00  0.00     0.039 C 
ATOM     10  G   UNL     1      17.166  29.402  30.578  1.00  0.00     0.000 G0
ENDBRANCH   6   7
ENDBRANCH   5   6
ENDBRANCH   3   5
ENDBRANCH   1   3
BRANCH   1  11
ATOM     11  C   UNL     1      17.774  27.348  27.691  1.00  0.00     0.087 C 
BRANCH  11  12
ATOM     12  C   UNL     1      18.529  27.857  28.946  1.00  0.00     0.066 C 
BRANCH  12  13
ATOM     13  C   UNL     1      18.026  29.229  29.363  1.00  0.00     0.140 C 
ATOM     14  O   UNL     1      18.354  30.218  28.722  1.00  0.00    -0.299 OA
BRANCH  13  15
ATOM     15  C   UNL     1      17.170  29.412  30.590  1.00  0.00     0.106 CG0
ATOM     16  G   UNL     1      15.698  29.345  30.238  1.00  0.00     0.000 G0
ENDBRANCH  13  15
ENDBRANCH  12  13
BRANCH  12  17
ATOM     17  C   UNL     1      20.081  27.875  28.778  1.00  0.00    -0.006 C 
ATOM     18  C   UNL     1      20.681  26.513  28.387  1.00  0.00     0.008 C 
ATOM     19  C   UNL     1      20.782  28.417  30.034  1.00  0.00     0.008 C 
ENDBRANCH  12  17
ENDBRANCH  11  12
ENDBRANCH   1  11
TORSDOF 1
ENDMDL
MODEL 5
REMARK VINA RESULT:    -3.031      2.465      4.186
REMARK INTER + INTRA:          -4.939
REMARK INTER:                  -4.974
REMARK INTRA:                   0.035
REMARK UNBOUND:                -0.313
REMARK SMILES CC1=CCC[C@H](C)C(=O)C[C@@H](C(C)C)C(=O)C1
REMARK SMILES IDX 8 1 9 2 6 3 7 4 5 5 4 6 3 7 2 8 1 9 10 11 11 12 15 13 16 14
REMARK SMILES IDX 17 15 12 17 13 18 14 19
REMARK H PARENT
REMARK Flexibility Score: 70.00
ROOT
ATOM      1  C   UNL     1      17.209  33.163  30.045  1.00  0.00     0.136 C 
ATOM      2  O   UNL     1      17.821  34.009  29.410  1.00  0.00    -0.299 OA
ENDROOT
BRANCH   1   3
ATOM      3  C   UNL     1      16.969  33.361  31.529  1.00  0.00     0.053 C 
ATOM      4  C   UNL     1      15.580  32.828  31.894  1.00  0.00     0.016 C 
BRANCH   3   5
ATOM      5  C   UNL     1      18.052  32.662  32.384  1.00  0.00     0.015 C 
BRANCH   5   6
ATOM      6  C   UNL     1      19.478  32.885  31.858  1.00  0.00     0.028 C 
BRANCH   6   7
ATOM      7  C   UNL     1      20.271  31.600  31.860  1.00  0.00    -0.028 C 
ATOM      8  C   UNL     1      20.494  30.809  30.786  1.00  0.00    -0.070 CG0
ATOM      9  C   UNL     1      21.313  29.558  30.987  1.00  0.00     0.039 C 
ATOM     10  G   UNL     1      19.993  31.137  29.394  1.00  0.00     0.000 G0
ENDBRANCH   6   7
ENDBRANCH   5   6
ENDBRANCH   3   5
ENDBRANCH   1   3
BRANCH   1  11
ATOM     11  C   UNL     1      16.723  31.926  29.337  1.00  0.00     0.087 C 
BRANCH  11  12
ATOM     12  C   UNL     1      17.442  30.649  29.843  1.00  0.00     0.066 C 
BRANCH  12  13
ATOM     13  C   UNL     1      18.718  30.398  29.057  1.00  0.00     0.140 C 
ATOM     14  O   UNL     1      18.732  29.553  28.172  1.00  0.00    -0.299 OA
BRANCH  13  15
ATOM     15  C   UNL     1      19.996  31.129  29.379  1.00  0.00     0.106 CG0
ATOM     16  G   UNL     1      20.469  30.798  30.780  1.00  0.00     0.000 G0
ENDBRANCH  13  15
ENDBRANCH  12  13
BRANCH  12  17
ATOM     17  C   UNL     1      16.538  29.377  29.831  1.00  0.00    -0.006 C 
ATOM     18  C   UNL     1      15.033  29.683  29.727  1.00  0.00     0.008 C 
ATOM     19  C   UNL     1      16.807  28.478  31.049  1.00  0.00     0.008 C 
ENDBRANCH  12  17
ENDBRANCH  11  12
ENDBRANCH   1  11
TORSDOF 1
ENDMDL
MODEL 6
REMARK VINA RESULT:    -3.025      2.563      5.356
REMARK INTER + INTRA:          -4.930
REMARK INTER:                  -4.866
REMARK INTRA:                  -0.064
REMARK UNBOUND:                -0.313
REMARK SMILES CC1=CCC[C@H](C)C(=O)C[C@@H](C(C)C)C(=O)C1
REMARK SMILES IDX 8 1 9 2 6 3 7 4 5 5 4 6 3 7 2 8 1 9 10 11 11 12 15 13 16 14
REMARK SMILES IDX 17 15 12 17 13 18 14 19
REMARK H PARENT
REMARK Flexibility Score: 70.00
ROOT
ATOM      1  C   UNL     1      18.175  27.974  28.954  1.00  0.00     0.136 C 
ATOM      2  O   UNL     1      17.932  28.324  27.808  1.00  0.00    -0.299 OA
ENDROOT
BRANCH   1   3
ATOM      3  C   UNL     1      19.249  26.937  29.215  1.00  0.00     0.053 C 
ATOM      4  C   UNL     1      18.817  25.597  28.612  1.00  0.00     0.016 C 
BRANCH   3   5
ATOM      5  C   UNL     1      20.616  27.369  28.635  1.00  0.00     0.015 C 
BRANCH   5   6
ATOM      6  C   UNL     1      20.996  28.815  28.987  1.00  0.00     0.028 C 
BRANCH   6   7
ATOM      7  C   UNL     1      21.253  28.971  30.467  1.00  0.00    -0.028 C 
ATOM      8  C   UNL     1      20.746  29.943  31.258  1.00  0.00    -0.070 CG0
ATOM      9  C   UNL     1      21.121  29.933  32.720  1.00  0.00     0.039 C 
ATOM     10  G   UNL     1      19.799  31.014  30.756  1.00  0.00     0.000 G0
ENDBRANCH   6   7
ENDBRANCH   5   6
ENDBRANCH   3   5
ENDBRANCH   1   3
BRANCH   1  11
ATOM     11  C   UNL     1      17.380  28.571  30.086  1.00  0.00     0.087 C 
BRANCH  11  12
ATOM     12  C   UNL     1      17.402  30.121  30.052  1.00  0.00     0.066 C 
BRANCH  12  13
ATOM     13  C   UNL     1      18.359  30.673  31.096  1.00  0.00     0.140 C 
ATOM     14  O   UNL     1      17.960  30.895  32.231  1.00  0.00    -0.299 OA
BRANCH  13  15
ATOM     15  C   UNL     1      19.788  31.009  30.752  1.00  0.00     0.106 CG0
ATOM     16  G   UNL     1      20.732  29.938  31.258  1.00  0.00     0.000 G0
ENDBRANCH  13  15
ENDBRANCH  12  13
BRANCH  12  17
ATOM     17  C   UNL     1      15.991  30.770  30.213  1.00  0.00    -0.006 C 
ATOM     18  C   UNL     1      14.856  29.961  29.559  1.00  0.00     0.008 C 
ATOM     19  C   UNL     1      15.969  32.218  29.698  1.00  0.00     0.008 C 
ENDBRANCH  12  17
ENDBRANCH  11  12
ENDBRANCH   1  11
TORSDOF 1
ENDMDL
MODEL 7
REMARK VINA RESULT:    -2.991      2.002      4.213
REMARK INTER + INTRA:          -4.877
REMARK INTER:                  -4.583
REMARK INTRA:                  -0.294
REMARK UNBOUND:                -0.313
REMARK SMILES CC1=CCC[C@H](C)C(=O)C[C@@H](C(C)C)C(=O)C1
REMARK SMILES IDX 8 1 9 2 6 3 7 4 5 5 4 6 3 7 2 8 1 9 10 11 11 12 15 13 16 14
REMARK SMILES IDX 17 15 12 17 13 18 14 19
REMARK H PARENT
REMARK Flexibility Score: 70.00
ROOT
ATOM      1  C   UNL     1      19.284  28.736  29.467  1.00  0.00     0.136 C 
ATOM      2  O   UNL     1      19.856  27.766  29.943  1.00  0.00    -0.299 OA
ENDROOT
BRANCH   1   3
ATOM      3  C   UNL     1      17.919  28.569  28.830  1.00  0.00     0.053 C 
ATOM      4  C   UNL     1      18.011  27.550  27.691  1.00  0.00     0.016 C 
BRANCH   3   5
ATOM      5  C   UNL     1      16.856  28.124  29.861  1.00  0.00     0.015 C 
BRANCH   5   6
ATOM      6  C   UNL     1      16.398  29.258  30.791  1.00  0.00     0.028 C 
BRANCH   6   7
ATOM      7  C   UNL     1      16.071  30.509  30.011  1.00  0.00    -0.028 C 
ATOM      8  C   UNL     1      16.576  31.742  30.247  1.00  0.00    -0.070 CG0
ATOM      9  C   UNL     1      16.126  32.873  29.356  1.00  0.00     0.039 C 
ATOM     10  G   UNL     1      17.591  32.029  31.334  1.00  0.00     0.000 G0
ENDBRANCH   6   7
ENDBRANCH   5   6
ENDBRANCH   3   5
ENDBRANCH   1   3
BRANCH   1  11
ATOM     11  C   UNL     1      19.966  30.079  29.506  1.00  0.00     0.087 C 
BRANCH  11  12
ATOM     12  C   UNL     1      19.840  30.750  30.898  1.00  0.00     0.066 C 
BRANCH  12  13
ATOM     13  C   UNL     1      18.995  32.010  30.819  1.00  0.00     0.140 C 
ATOM     14  O   UNL     1      19.477  33.039  30.362  1.00  0.00    -0.299 OA
BRANCH  13  15
ATOM     15  C   UNL     1      17.583  32.043  31.344  1.00  0.00     0.106 CG0
ATOM     16  G   UNL     1      16.589  31.740  30.241  1.00  0.00     0.000 G0
ENDBRANCH  13  15
ENDBRANCH  12  13
BRANCH  12  17
ATOM     17  C   UNL     1      21.216  31.060  31.568  1.00  0.00    -0.006 C 
ATOM     18  C   UNL     1      22.430  30.738  30.678  1.00  0.00     0.008 C 
ATOM     19  C   UNL     1      21.358  30.353  32.926  1.00  0.00     0.008 C 
ENDBRANCH  12  17
ENDBRANCH  11  12
ENDBRANCH   1  11
TORSDOF 1
ENDMDL
MODEL 8
REMARK VINA RESULT:    -2.975      1.746      4.096
REMARK INTER + INTRA:          -4.854
REMARK INTER:                  -4.767
REMARK INTRA:                  -0.087
REMARK UNBOUND:                -0.313
REMARK SMILES CC1=CCC[C@H](C)C(=O)C[C@@H](C(C)C)C(=O)C1
REMARK SMILES IDX 8 1 9 2 6 3 7 4 5 5 4 6 3 7 2 8 1 9 10 11 11 12 15 13 16 14
REMARK SMILES IDX 17 15 12 17 13 18 14 19
REMARK H PARENT
REMARK Flexibility Score: 70.00
ROOT
ATOM      1  C   UNL     1      18.363  29.240  29.146  1.00  0.00     0.136 C 
ATOM      2  O   UNL     1      19.344  28.814  29.739  1.00  0.00    -0.299 OA
ENDROOT
BRANCH   1   3
ATOM      3  C   UNL     1      17.329  28.271  28.606  1.00  0.00     0.053 C 
ATOM      4  C   UNL     1      18.000  27.313  27.617  1.00  0.00     0.016 C 
BRANCH   3   5
ATOM      5  C   UNL     1      16.641  27.476  29.739  1.00  0.00     0.015 C 
BRANCH   5   6
ATOM      6  C   UNL     1      15.140  27.777  29.869  1.00  0.00     0.028 C 
BRANCH   6   7
ATOM      7  C   UNL     1      14.863  28.694  31.037  1.00  0.00    -0.028 C 
ATOM      8  C   UNL     1      14.818  30.044  30.987  1.00  0.00    -0.070 CG0
ATOM      9  C   UNL     1      14.527  30.790  32.266  1.00  0.00     0.039 C 
ATOM     10  G   UNL     1      15.011  30.836  29.709  1.00  0.00     0.000 G0
ENDBRANCH   6   7
ENDBRANCH   5   6
ENDBRANCH   3   5
ENDBRANCH   1   3
BRANCH   1  11
ATOM     11  C   UNL     1      18.216  30.726  28.948  1.00  0.00     0.087 C 
BRANCH  11  12
ATOM     12  C   UNL     1      17.540  31.407  30.165  1.00  0.00     0.066 C 
BRANCH  12  13
ATOM     13  C   UNL     1      16.123  31.839  29.828  1.00  0.00     0.140 C 
ATOM     14  O   UNL     1      15.861  33.028  29.707  1.00  0.00    -0.299 OA
BRANCH  13  15
ATOM     15  C   UNL     1      15.007  30.835  29.694  1.00  0.00     0.106 CG0
ATOM     16  G   UNL     1      14.825  30.054  30.981  1.00  0.00     0.000 G0
ENDBRANCH  13  15
ENDBRANCH  12  13
BRANCH  12  17
ATOM     17  C   UNL     1      18.353  32.611  30.738  1.00  0.00    -0.006 C 
ATOM     18  C   UNL     1      19.830  32.628  30.302  1.00  0.00     0.008 C 
ATOM     19  C   UNL     1      18.257  32.685  32.270  1.00  0.00     0.008 C 
ENDBRANCH  12  17
ENDBRANCH  11  12
ENDBRANCH   1  11
TORSDOF 1
ENDMDL
MODEL 9
REMARK VINA RESULT:    -2.898      2.670      4.739
REMARK INTER + INTRA:          -4.736
REMARK INTER:                  -4.741
REMARK INTRA:                   0.004
REMARK UNBOUND:                -0.313
REMARK SMILES CC1=CCC[C@H](C)C(=O)C[C@@H](C(C)C)C(=O)C1
REMARK SMILES IDX 8 1 9 2 6 3 7 4 5 5 4 6 3 7 2 8 1 9 10 11 11 12 15 13 16 14
REMARK SMILES IDX 17 15 12 17 13 18 14 19
REMARK H PARENT
REMARK Flexibility Score: 70.00
ROOT
ATOM      1  C   UNL     1      18.655  32.533  30.088  1.00  0.00     0.136 C 
ATOM      2  O   UNL     1      18.103  33.340  30.822  1.00  0.00    -0.299 OA
ENDROOT
BRANCH   1   3
ATOM      3  C   UNL     1      20.160  32.583  29.908  1.00  0.00     0.053 C 
ATOM      4  C   UNL     1      20.568  33.983  29.441  1.00  0.00     0.016 C 
BRANCH   3   5
ATOM      5  C   UNL     1      20.906  32.214  31.211  1.00  0.00     0.015 C 
BRANCH   5   6
ATOM      6  C   UNL     1      20.983  30.700  31.460  1.00  0.00     0.028 C 
BRANCH   6   7
ATOM      7  C   UNL     1      21.783  30.007  30.382  1.00  0.00    -0.028 C 
ATOM      8  C   UNL     1      21.355  28.973  29.623  1.00  0.00    -0.070 CG0
ATOM      9  C   UNL     1      22.304  28.410  28.594  1.00  0.00     0.039 C 
ATOM     10  G   UNL     1      19.965  28.380  29.735  1.00  0.00     0.000 G0
ENDBRANCH   6   7
ENDBRANCH   5   6
ENDBRANCH   3   5
ENDBRANCH   1   3
BRANCH   1  11
ATOM     11  C   UNL     1      17.818  31.515  29.358  1.00  0.00     0.087 C 
BRANCH  11  12
ATOM     12  C   UNL     1      17.987  30.094  29.953  1.00  0.00     0.066 C 
BRANCH  12  13
ATOM     13  C   UNL     1      18.927  29.257  29.102  1.00  0.00     0.140 C 
ATOM     14  O   UNL     1      18.817  29.267  27.883  1.00  0.00    -0.299 OA
BRANCH  13  15
ATOM     15  C   UNL     1      19.967  28.363  29.728  1.00  0.00     0.106 CG0
ATOM     16  G   UNL     1      21.346  28.983  29.626  1.00  0.00     0.000 G0
ENDBRANCH  13  15
ENDBRANCH  12  13
BRANCH  12  17
ATOM     17  C   UNL     1      16.636  29.342  30.168  1.00  0.00    -0.006 C 
ATOM     18  C   UNL     1      15.393  30.184  29.826  1.00  0.00     0.008 C 
ATOM     19  C   UNL     1      16.516  28.786  31.597  1.00  0.00     0.008 C 
ENDBRANCH  12  17
ENDBRANCH  11  12
ENDBRANCH   1  11
TORSDOF 1
ENDMDL
