MODEL 1
REMARK VINA RESULT:    -5.941      0.000      0.000
REMARK INTER + INTRA:         -11.699
REMARK INTER:                 -10.455
REMARK INTRA:                  -1.243
REMARK UNBOUND:                -1.243
REMARK SMILES CCCCCCCCCCCCCCC(=O)[O-]
REMARK SMILES IDX 9 1 10 2 11 3 12 4 13 5 14 6 15 7 16 8 17 9 8 10 7 11 6 12
REMARK SMILES IDX 5 13 4 14 3 15 2 16 1 17
REMARK H PARENT
REMARK Flexibility Score: inf
ROOT
ATOM      1  C   UNL     1      -5.884 -16.468  -3.486  1.00  0.00     0.000 C 
ENDROOT
BRANCH   1   2
ATOM      2  C   UNL     1      -5.378 -15.742  -2.230  1.00  0.00     0.000 C 
BRANCH   2   3
ATOM      3  C   UNL     1      -4.438 -16.612  -1.377  1.00  0.00     0.000 C 
BRANCH   3   4
ATOM      4  C   UNL     1      -2.958 -16.448  -1.791  1.00  0.00     0.000 C 
BRANCH   4   5
ATOM      5  C   UNL     1      -2.052 -17.590  -1.294  1.00  0.00     0.006 C 
BRANCH   5   6
ATOM      6  C   UNL     1      -0.962 -17.140  -0.311  1.00  0.00     0.053 C 
BRANCH   6   7
ATOM      7  C   UNL     1      -1.402 -17.283   1.115  1.00  0.00     0.041 C 
ATOM      8  O   UNL     1      -2.342 -16.573   1.561  1.00  0.00    -0.550 OA
ATOM      9  O   UNL     1      -0.791 -18.213   1.945  1.00  0.00    -0.550 OA
ENDBRANCH   6   7
ENDBRANCH   5   6
ENDBRANCH   4   5
ENDBRANCH   3   4
ENDBRANCH   2   3
ENDBRANCH   1   2
BRANCH   1  10
ATOM     10  C   UNL     1      -7.366 -16.871  -3.380  1.00  0.00     0.000 C 
BRANCH  10  11
ATOM     11  C   UNL     1      -7.923 -17.419  -4.704  1.00  0.00    -0.000 C 
BRANCH  11  12
ATOM     12  C   UNL     1      -7.024 -17.088  -5.909  1.00  0.00    -0.000 C 
BRANCH  12  13
ATOM     13  C   UNL     1      -7.548 -15.896  -6.726  1.00  0.00    -0.000 C 
BRANCH  13  14
ATOM     14  C   UNL     1      -8.826 -15.287  -6.131  1.00  0.00    -0.000 C 
BRANCH  14  15
ATOM     15  C   UNL     1      -8.586 -13.835  -5.691  1.00  0.00    -0.000 C 
BRANCH  15  16
ATOM     16  C   UNL     1      -7.097 -13.515  -5.493  1.00  0.00    -0.003 C 
ATOM     17  C   UNL     1      -6.804 -12.880  -4.134  1.00  0.00     0.004 C 
ENDBRANCH  15  16
ENDBRANCH  14  15
ENDBRANCH  13  14
ENDBRANCH  12  13
ENDBRANCH  11  12
ENDBRANCH  10  11
ENDBRANCH   1  10
TORSDOF 13
ENDMDL
MODEL 2
REMARK VINA RESULT:    -5.900      3.354      7.260
REMARK INTER + INTRA:         -11.628
REMARK INTER:                 -10.364
REMARK INTRA:                  -1.264
REMARK UNBOUND:                -1.243
REMARK SMILES CCCCCCCCCCCCCCC(=O)[O-]
REMARK SMILES IDX 9 1 10 2 11 3 12 4 13 5 14 6 15 7 16 8 17 9 8 10 7 11 6 12
REMARK SMILES IDX 5 13 4 14 3 15 2 16 1 17
REMARK H PARENT
REMARK Flexibility Score: inf
ROOT
ATOM      1  C   UNL     1      -6.245 -13.976  -2.660  1.00  0.00     0.000 C 
ENDROOT
BRANCH   1   2
ATOM      2  C   UNL     1      -6.882 -13.105  -3.755  1.00  0.00     0.000 C 
BRANCH   2   3
ATOM      3  C   UNL     1      -6.876 -13.785  -5.136  1.00  0.00     0.000 C 
BRANCH   3   4
ATOM      4  C   UNL     1      -8.305 -14.057  -5.656  1.00  0.00     0.000 C 
BRANCH   4   5
ATOM      5  C   UNL     1      -8.520 -15.507  -6.129  1.00  0.00     0.006 C 
BRANCH   5   6
ATOM      6  C   UNL     1      -7.242 -16.359  -6.127  1.00  0.00     0.053 C 
BRANCH   6   7
ATOM      7  C   UNL     1      -7.502 -17.754  -5.644  1.00  0.00     0.041 C 
ATOM      8  O   UNL     1      -6.891 -18.726  -6.161  1.00  0.00    -0.550 OA
ATOM      9  O   UNL     1      -8.402 -17.981  -4.612  1.00  0.00    -0.550 OA
ENDBRANCH   6   7
ENDBRANCH   5   6
ENDBRANCH   4   5
ENDBRANCH   3   4
ENDBRANCH   2   3
ENDBRANCH   1   2
BRANCH   1  10
ATOM     10  C   UNL     1      -6.826 -15.401  -2.625  1.00  0.00     0.000 C 
BRANCH  10  11
ATOM     11  C   UNL     1      -5.734 -16.482  -2.664  1.00  0.00    -0.000 C 
BRANCH  11  12
ATOM     12  C   UNL     1      -4.484 -16.095  -1.853  1.00  0.00    -0.000 C 
BRANCH  12  13
ATOM     13  C   UNL     1      -4.161 -17.111  -0.746  1.00  0.00    -0.000 C 
BRANCH  13  14
ATOM     14  C   UNL     1      -3.126 -16.581   0.258  1.00  0.00    -0.000 C 
BRANCH  14  15
ATOM     15  C   UNL     1      -1.790 -17.324   0.109  1.00  0.00    -0.000 C 
BRANCH  15  16
ATOM     16  C   UNL     1      -1.790 -18.312  -1.067  1.00  0.00    -0.003 C 
ATOM     17  C   UNL     1      -0.840 -17.895  -2.190  1.00  0.00     0.004 C 
ENDBRANCH  15  16
ENDBRANCH  14  15
ENDBRANCH  13  14
ENDBRANCH  12  13
ENDBRANCH  11  12
ENDBRANCH  10  11
ENDBRANCH   1  10
TORSDOF 13
ENDMDL
MODEL 3
REMARK VINA RESULT:    -5.813      1.065      3.042
REMARK INTER + INTRA:         -11.473
REMARK INTER:                 -10.200
REMARK INTRA:                  -1.274
REMARK UNBOUND:                -1.243
REMARK SMILES CCCCCCCCCCCCCCC(=O)[O-]
REMARK SMILES IDX 9 1 10 2 11 3 12 4 13 5 14 6 15 7 16 8 17 9 8 10 7 11 6 12
REMARK SMILES IDX 5 13 4 14 3 15 2 16 1 17
REMARK H PARENT
REMARK Flexibility Score: inf
ROOT
ATOM      1  C   UNL     1      -6.478 -14.045  -2.635  1.00  0.00     0.000 C 
ENDROOT
BRANCH   1   2
ATOM      2  C   UNL     1      -6.819 -15.486  -3.046  1.00  0.00     0.000 C 
BRANCH   2   3
ATOM      3  C   UNL     1      -5.770 -16.506  -2.569  1.00  0.00     0.000 C 
BRANCH   3   4
ATOM      4  C   UNL     1      -4.570 -15.824  -1.874  1.00  0.00     0.000 C 
BRANCH   4   5
ATOM      5  C   UNL     1      -3.900 -16.705  -0.803  1.00  0.00     0.006 C 
BRANCH   5   6
ATOM      6  C   UNL     1      -2.574 -17.336  -1.254  1.00  0.00     0.053 C 
BRANCH   6   7
ATOM      7  C   UNL     1      -1.718 -17.729  -0.089  1.00  0.00     0.041 C 
ATOM      8  O   UNL     1      -0.698 -18.446  -0.267  1.00  0.00    -0.550 OA
ATOM      9  O   UNL     1      -2.031 -17.289   1.190  1.00  0.00    -0.550 OA
ENDBRANCH   6   7
ENDBRANCH   5   6
ENDBRANCH   4   5
ENDBRANCH   3   4
ENDBRANCH   2   3
ENDBRANCH   1   2
BRANCH   1  10
ATOM     10  C   UNL     1      -6.805 -13.022  -3.737  1.00  0.00     0.000 C 
BRANCH  10  11
ATOM     11  C   UNL     1      -6.883 -13.664  -5.131  1.00  0.00    -0.000 C 
BRANCH  11  12
ATOM     12  C   UNL     1      -8.321 -13.735  -5.674  1.00  0.00    -0.000 C 
BRANCH  12  13
ATOM     13  C   UNL     1      -8.680 -15.128  -6.215  1.00  0.00    -0.000 C 
BRANCH  13  14
ATOM     14  C   UNL     1      -7.503 -15.805  -6.932  1.00  0.00    -0.000 C 
BRANCH  14  15
ATOM     15  C   UNL     1      -7.115 -17.115  -6.231  1.00  0.00    -0.000 C 
BRANCH  15  16
ATOM     16  C   UNL     1      -8.333 -17.986  -5.888  1.00  0.00    -0.003 C 
ATOM     17  C   UNL     1      -8.197 -18.686  -4.536  1.00  0.00     0.004 C 
ENDBRANCH  15  16
ENDBRANCH  14  15
ENDBRANCH  13  14
ENDBRANCH  12  13
ENDBRANCH  11  12
ENDBRANCH  10  11
ENDBRANCH   1  10
TORSDOF 13
ENDMDL
MODEL 4
REMARK VINA RESULT:    -5.796      1.204      1.802
REMARK INTER + INTRA:         -11.445
REMARK INTER:                  -9.859
REMARK INTRA:                  -1.586
REMARK UNBOUND:                -1.243
REMARK SMILES CCCCCCCCCCCCCCC(=O)[O-]
REMARK SMILES IDX 9 1 10 2 11 3 12 4 13 5 14 6 15 7 16 8 17 9 8 10 7 11 6 12
REMARK SMILES IDX 5 13 4 14 3 15 2 16 1 17
REMARK H PARENT
REMARK Flexibility Score: inf
ROOT
ATOM      1  C   UNL     1      -5.797 -16.847  -4.562  1.00  0.00     0.000 C 
ENDROOT
BRANCH   1   2
ATOM      2  C   UNL     1      -6.723 -16.299  -3.465  1.00  0.00     0.000 C 
BRANCH   2   3
ATOM      3  C   UNL     1      -5.950 -15.712  -2.270  1.00  0.00     0.000 C 
BRANCH   3   4
ATOM      4  C   UNL     1      -4.964 -16.732  -1.659  1.00  0.00     0.000 C 
BRANCH   4   5
ATOM      5  C   UNL     1      -3.600 -16.120  -1.289  1.00  0.00     0.006 C 
BRANCH   5   6
ATOM      6  C   UNL     1      -2.397 -16.893  -1.849  1.00  0.00     0.053 C 
BRANCH   6   7
ATOM      7  C   UNL     1      -1.858 -17.881  -0.860  1.00  0.00     0.041 C 
ATOM      8  O   UNL     1      -2.237 -17.845   0.341  1.00  0.00    -0.550 OA
ATOM      9  O   UNL     1      -0.954 -18.855  -1.264  1.00  0.00    -0.550 OA
ENDBRANCH   6   7
ENDBRANCH   5   6
ENDBRANCH   4   5
ENDBRANCH   3   4
ENDBRANCH   2   3
ENDBRANCH   1   2
BRANCH   1  10
ATOM     10  C   UNL     1      -6.563 -17.261  -5.831  1.00  0.00     0.000 C 
BRANCH  10  11
ATOM     11  C   UNL     1      -7.985 -17.755  -5.525  1.00  0.00    -0.000 C 
BRANCH  11  12
ATOM     12  C   UNL     1      -9.042 -17.143  -6.463  1.00  0.00    -0.000 C 
BRANCH  12  13
ATOM     13  C   UNL     1      -8.788 -15.654  -6.747  1.00  0.00    -0.000 C 
BRANCH  13  14
ATOM     14  C   UNL     1      -9.349 -14.739  -5.649  1.00  0.00    -0.000 C 
BRANCH  14  15
ATOM     15  C   UNL     1      -8.642 -13.375  -5.659  1.00  0.00    -0.000 C 
BRANCH  15  16
ATOM     16  C   UNL     1      -7.112 -13.502  -5.628  1.00  0.00    -0.003 C 
ATOM     17  C   UNL     1      -6.477 -12.724  -4.475  1.00  0.00     0.004 C 
ENDBRANCH  15  16
ENDBRANCH  14  15
ENDBRANCH  13  14
ENDBRANCH  12  13
ENDBRANCH  11  12
ENDBRANCH  10  11
ENDBRANCH   1  10
TORSDOF 13
ENDMDL
MODEL 5
REMARK VINA RESULT:    -5.775      3.439      6.970
REMARK INTER + INTRA:         -11.407
REMARK INTER:                 -10.160
REMARK INTRA:                  -1.246
REMARK UNBOUND:                -1.243
REMARK SMILES CCCCCCCCCCCCCCC(=O)[O-]
REMARK SMILES IDX 9 1 10 2 11 3 12 4 13 5 14 6 15 7 16 8 17 9 8 10 7 11 6 12
REMARK SMILES IDX 5 13 4 14 3 15 2 16 1 17
REMARK H PARENT
REMARK Flexibility Score: inf
ROOT
ATOM      1  C   UNL     1      -7.211 -13.329  -5.226  1.00  0.00     0.000 C 
ENDROOT
BRANCH   1   2
ATOM      2  C   UNL     1      -8.555 -13.868  -5.742  1.00  0.00     0.000 C 
BRANCH   2   3
ATOM      3  C   UNL     1      -8.440 -15.282  -6.340  1.00  0.00     0.000 C 
BRANCH   3   4
ATOM      4  C   UNL     1      -6.977 -15.778  -6.382  1.00  0.00     0.000 C 
BRANCH   4   5
ATOM      5  C   UNL     1      -6.774 -17.145  -5.703  1.00  0.00     0.006 C 
BRANCH   5   6
ATOM      6  C   UNL     1      -7.680 -18.256  -6.254  1.00  0.00     0.053 C 
BRANCH   6   7
ATOM      7  C   UNL     1      -8.751 -18.639  -5.278  1.00  0.00     0.041 C 
ATOM      8  O   UNL     1      -9.838 -19.125  -5.689  1.00  0.00    -0.550 OA
ATOM      9  O   UNL     1      -8.544 -18.481  -3.914  1.00  0.00    -0.550 OA
ENDBRANCH   6   7
ENDBRANCH   5   6
ENDBRANCH   4   5
ENDBRANCH   3   4
ENDBRANCH   2   3
ENDBRANCH   1   2
BRANCH   1  10
ATOM     10  C   UNL     1      -7.209 -13.102  -3.704  1.00  0.00     0.000 C 
BRANCH  10  11
ATOM     11  C   UNL     1      -6.109 -13.904  -2.992  1.00  0.00    -0.000 C 
BRANCH  11  12
ATOM     12  C   UNL     1      -6.584 -15.296  -2.540  1.00  0.00    -0.000 C 
BRANCH  12  13
ATOM     13  C   UNL     1      -5.447 -16.330  -2.519  1.00  0.00    -0.000 C 
BRANCH  13  14
ATOM     14  C   UNL     1      -4.299 -15.927  -1.581  1.00  0.00    -0.000 C 
BRANCH  14  15
ATOM     15  C   UNL     1      -3.957 -17.070  -0.613  1.00  0.00    -0.000 C 
BRANCH  15  16
ATOM     16  C   UNL     1      -2.528 -17.598  -0.804  1.00  0.00    -0.003 C 
ATOM     17  C   UNL     1      -1.748 -16.824  -1.867  1.00  0.00     0.004 C 
ENDBRANCH  15  16
ENDBRANCH  14  15
ENDBRANCH  13  14
ENDBRANCH  12  13
ENDBRANCH  11  12
ENDBRANCH  10  11
ENDBRANCH   1  10
TORSDOF 13
ENDMDL
MODEL 6
REMARK VINA RESULT:    -5.719      1.860      2.075
REMARK INTER + INTRA:         -11.308
REMARK INTER:                  -9.960
REMARK INTRA:                  -1.348
REMARK UNBOUND:                -1.243
REMARK SMILES CCCCCCCCCCCCCCC(=O)[O-]
REMARK SMILES IDX 9 1 10 2 11 3 12 4 13 5 14 6 15 7 16 8 17 9 8 10 7 11 6 12
REMARK SMILES IDX 5 13 4 14 3 15 2 16 1 17
REMARK H PARENT
REMARK Flexibility Score: inf
ROOT
ATOM      1  C   UNL     1      -5.283 -16.421  -3.015  1.00  0.00     0.000 C 
ENDROOT
BRANCH   1   2
ATOM      2  C   UNL     1      -4.429 -15.967  -1.820  1.00  0.00     0.000 C 
BRANCH   2   3
ATOM      3  C   UNL     1      -4.190 -17.091  -0.796  1.00  0.00     0.000 C 
BRANCH   3   4
ATOM      4  C   UNL     1      -3.136 -16.698   0.264  1.00  0.00     0.000 C 
BRANCH   4   5
ATOM      5  C   UNL     1      -1.797 -17.441   0.101  1.00  0.00     0.006 C 
BRANCH   5   6
ATOM      6  C   UNL     1      -1.744 -18.370  -1.121  1.00  0.00     0.053 C 
BRANCH   6   7
ATOM      7  C   UNL     1      -1.047 -17.726  -2.281  1.00  0.00     0.041 C 
ATOM      8  O   UNL     1      -0.651 -16.533  -2.198  1.00  0.00    -0.550 OA
ATOM      9  O   UNL     1      -0.816 -18.445  -3.446  1.00  0.00    -0.550 OA
ENDBRANCH   6   7
ENDBRANCH   5   6
ENDBRANCH   4   5
ENDBRANCH   3   4
ENDBRANCH   2   3
ENDBRANCH   1   2
BRANCH   1  10
ATOM     10  C   UNL     1      -6.779 -16.524  -2.668  1.00  0.00     0.000 C 
BRANCH  10  11
ATOM     11  C   UNL     1      -7.639 -16.916  -3.880  1.00  0.00    -0.000 C 
BRANCH  11  12
ATOM     12  C   UNL     1      -6.870 -16.818  -5.210  1.00  0.00    -0.000 C 
BRANCH  12  13
ATOM     13  C   UNL     1      -7.541 -15.864  -6.211  1.00  0.00    -0.000 C 
BRANCH  13  14
ATOM     14  C   UNL     1      -8.672 -15.041  -5.576  1.00  0.00    -0.000 C 
BRANCH  14  15
ATOM     15  C   UNL     1      -8.373 -13.537  -5.669  1.00  0.00    -0.000 C 
BRANCH  15  16
ATOM     16  C   UNL     1      -6.941 -13.190  -5.237  1.00  0.00    -0.003 C 
ATOM     17  C   UNL     1      -6.782 -13.117  -3.718  1.00  0.00     0.004 C 
ENDBRANCH  15  16
ENDBRANCH  14  15
ENDBRANCH  13  14
ENDBRANCH  12  13
ENDBRANCH  11  12
ENDBRANCH  10  11
ENDBRANCH   1  10
TORSDOF 13
ENDMDL
MODEL 7
REMARK VINA RESULT:    -5.660      1.546      3.078
REMARK INTER + INTRA:         -11.204
REMARK INTER:                 -10.164
REMARK INTRA:                  -1.040
REMARK UNBOUND:                -1.243
REMARK SMILES CCCCCCCCCCCCCCC(=O)[O-]
REMARK SMILES IDX 9 1 10 2 11 3 12 4 13 5 14 6 15 7 16 8 17 9 8 10 7 11 6 12
REMARK SMILES IDX 5 13 4 14 3 15 2 16 1 17
REMARK H PARENT
REMARK Flexibility Score: inf
ROOT
ATOM      1  C   UNL     1      -6.418 -13.936  -2.661  1.00  0.00     0.000 C 
ENDROOT
BRANCH   1   2
ATOM      2  C   UNL     1      -6.853 -15.407  -2.767  1.00  0.00     0.000 C 
BRANCH   2   3
ATOM      3  C   UNL     1      -5.720 -16.389  -2.422  1.00  0.00     0.000 C 
BRANCH   3   4
ATOM      4  C   UNL     1      -4.462 -15.664  -1.893  1.00  0.00     0.000 C 
BRANCH   4   5
ATOM      5  C   UNL     1      -3.335 -16.624  -1.469  1.00  0.00     0.006 C 
BRANCH   5   6
ATOM      6  C   UNL     1      -3.288 -16.903   0.040  1.00  0.00     0.053 C 
BRANCH   6   7
ATOM      7  C   UNL     1      -1.881 -16.962   0.554  1.00  0.00     0.041 C 
ATOM      8  O   UNL     1      -1.660 -17.236   1.763  1.00  0.00    -0.550 OA
ATOM      9  O   UNL     1      -0.813 -16.737  -0.304  1.00  0.00    -0.550 OA
ENDBRANCH   6   7
ENDBRANCH   5   6
ENDBRANCH   4   5
ENDBRANCH   3   4
ENDBRANCH   2   3
ENDBRANCH   1   2
BRANCH   1  10
ATOM     10  C   UNL     1      -6.859 -13.099  -3.875  1.00  0.00     0.000 C 
BRANCH  10  11
ATOM     11  C   UNL     1      -7.149 -13.964  -5.111  1.00  0.00    -0.000 C 
BRANCH  11  12
ATOM     12  C   UNL     1      -8.572 -13.759  -5.660  1.00  0.00    -0.000 C 
BRANCH  12  13
ATOM     13  C   UNL     1      -9.410 -15.047  -5.622  1.00  0.00    -0.000 C 
BRANCH  13  14
ATOM     14  C   UNL     1      -8.586 -16.299  -5.958  1.00  0.00    -0.000 C 
BRANCH  14  15
ATOM     15  C   UNL     1      -9.120 -16.983  -7.225  1.00  0.00    -0.000 C 
BRANCH  15  16
ATOM     16  C   UNL     1      -8.315 -16.615  -8.480  1.00  0.00    -0.003 C 
ATOM     17  C   UNL     1      -9.205 -16.304  -9.684  1.00  0.00     0.004 C 
ENDBRANCH  15  16
ENDBRANCH  14  15
ENDBRANCH  13  14
ENDBRANCH  12  13
ENDBRANCH  11  12
ENDBRANCH  10  11
ENDBRANCH   1  10
TORSDOF 13
ENDMDL
MODEL 8
REMARK VINA RESULT:    -5.590      1.040      2.525
REMARK INTER + INTRA:         -11.081
REMARK INTER:                 -10.156
REMARK INTRA:                  -0.925
REMARK UNBOUND:                -1.243
REMARK SMILES CCCCCCCCCCCCCCC(=O)[O-]
REMARK SMILES IDX 9 1 10 2 11 3 12 4 13 5 14 6 15 7 16 8 17 9 8 10 7 11 6 12
REMARK SMILES IDX 5 13 4 14 3 15 2 16 1 17
REMARK H PARENT
REMARK Flexibility Score: inf
ROOT
ATOM      1  C   UNL     1      -5.389 -16.399  -2.833  1.00  0.00     0.000 C 
ENDROOT
BRANCH   1   2
ATOM      2  C   UNL     1      -4.612 -15.956  -1.582  1.00  0.00     0.000 C 
BRANCH   2   3
ATOM      3  C   UNL     1      -3.800 -17.100  -0.949  1.00  0.00     0.000 C 
BRANCH   3   4
ATOM      4  C   UNL     1      -2.366 -17.179  -1.518  1.00  0.00     0.000 C 
BRANCH   4   5
ATOM      5  C   UNL     1      -1.492 -18.245  -0.831  1.00  0.00     0.006 C 
BRANCH   5   6
ATOM      6  C   UNL     1      -0.457 -17.668   0.146  1.00  0.00     0.053 C 
BRANCH   6   7
ATOM      7  C   UNL     1      -0.948 -17.698   1.561  1.00  0.00     0.041 C 
ATOM      8  O   UNL     1      -0.510 -18.564   2.364  1.00  0.00    -0.550 OA
ATOM      9  O   UNL     1      -1.872 -16.760   2.001  1.00  0.00    -0.550 OA
ENDBRANCH   6   7
ENDBRANCH   5   6
ENDBRANCH   4   5
ENDBRANCH   3   4
ENDBRANCH   2   3
ENDBRANCH   1   2
BRANCH   1  10
ATOM     10  C   UNL     1      -6.633 -15.532  -3.095  1.00  0.00     0.000 C 
BRANCH  10  11
ATOM     11  C   UNL     1      -6.454 -14.084  -2.611  1.00  0.00    -0.000 C 
BRANCH  11  12
ATOM     12  C   UNL     1      -6.716 -13.050  -3.720  1.00  0.00    -0.000 C 
BRANCH  12  13
ATOM     13  C   UNL     1      -6.913 -13.700  -5.100  1.00  0.00    -0.000 C 
BRANCH  13  14
ATOM     14  C   UNL     1      -8.354 -13.571  -5.613  1.00  0.00    -0.000 C 
BRANCH  14  15
ATOM     15  C   UNL     1      -8.880 -14.924  -6.115  1.00  0.00    -0.000 C 
BRANCH  15  16
ATOM     16  C   UNL     1      -7.780 -15.788  -6.748  1.00  0.00    -0.003 C 
ATOM     17  C   UNL     1      -8.229 -16.460  -8.046  1.00  0.00     0.004 C 
ENDBRANCH  15  16
ENDBRANCH  14  15
ENDBRANCH  13  14
ENDBRANCH  12  13
ENDBRANCH  11  12
ENDBRANCH  10  11
ENDBRANCH   1  10
TORSDOF 13
ENDMDL
MODEL 9
REMARK VINA RESULT:    -5.444      3.312      7.736
REMARK INTER + INTRA:         -10.825
REMARK INTER:                  -9.870
REMARK INTRA:                  -0.955
REMARK UNBOUND:                -1.243
REMARK SMILES CCCCCCCCCCCCCCC(=O)[O-]
REMARK SMILES IDX 9 1 10 2 11 3 12 4 13 5 14 6 15 7 16 8 17 9 8 10 7 11 6 12
REMARK SMILES IDX 5 13 4 14 3 15 2 16 1 17
REMARK H PARENT
REMARK Flexibility Score: inf
ROOT
ATOM      1  C   UNL     1      -6.860 -15.181  -2.617  1.00  0.00     0.000 C 
ENDROOT
BRANCH   1   2
ATOM      2  C   UNL     1      -6.513 -13.729  -2.985  1.00  0.00     0.000 C 
BRANCH   2   3
ATOM      3  C   UNL     1      -6.491 -13.488  -4.504  1.00  0.00     0.000 C 
BRANCH   3   4
ATOM      4  C   UNL     1      -7.905 -13.234  -5.074  1.00  0.00     0.000 C 
BRANCH   4   5
ATOM      5  C   UNL     1      -8.505 -14.456  -5.793  1.00  0.00     0.006 C 
BRANCH   5   6
ATOM      6  C   UNL     1      -7.456 -15.434  -6.343  1.00  0.00     0.053 C 
BRANCH   6   7
ATOM      7  C   UNL     1      -7.644 -16.818  -5.800  1.00  0.00     0.041 C 
ATOM      8  O   UNL     1      -8.726 -17.136  -5.240  1.00  0.00    -0.550 OA
ATOM      9  O   UNL     1      -6.635 -17.763  -5.930  1.00  0.00    -0.550 OA
ENDBRANCH   6   7
ENDBRANCH   5   6
ENDBRANCH   4   5
ENDBRANCH   3   4
ENDBRANCH   2   3
ENDBRANCH   1   2
BRANCH   1  10
ATOM     10  C   UNL     1      -5.655 -16.129  -2.750  1.00  0.00     0.000 C 
BRANCH  10  11
ATOM     11  C   UNL     1      -4.484 -15.723  -1.841  1.00  0.00    -0.000 C 
BRANCH  11  12
ATOM     12  C   UNL     1      -3.867 -16.919  -1.096  1.00  0.00    -0.000 C 
BRANCH  12  13
ATOM     13  C   UNL     1      -2.332 -16.939  -1.178  1.00  0.00    -0.000 C 
BRANCH  13  14
ATOM     14  C   UNL     1      -1.734 -18.287  -0.748  1.00  0.00    -0.000 C 
BRANCH  14  15
ATOM     15  C   UNL     1      -0.875 -18.127   0.515  1.00  0.00    -0.000 C 
BRANCH  15  16
ATOM     16  C   UNL     1      -1.189 -16.835   1.284  1.00  0.00    -0.003 C 
ATOM     17  C   UNL     1      -0.883 -16.947   2.778  1.00  0.00     0.004 C 
ENDBRANCH  15  16
ENDBRANCH  14  15
ENDBRANCH  13  14
ENDBRANCH  12  13
ENDBRANCH  11  12
ENDBRANCH  10  11
ENDBRANCH   1  10
TORSDOF 13
ENDMDL
