MODEL 1
REMARK VINA RESULT:    -4.954      0.000      0.000
REMARK INTER + INTRA:          -5.967
REMARK INTER:                  -5.678
REMARK INTRA:                  -0.288
REMARK UNBOUND:                -0.288
REMARK SMILES O=C([O-])C=Cc1ccc(O)cc1
REMARK SMILES IDX 6 1 7 2 12 3 8 4 11 5 9 6 5 7 4 8 2 9 1 10 3 11 10 12
REMARK H PARENT 10 13
REMARK Flexibility Score: inf
ROOT
ATOM      1  C   UNL     1     -16.550  43.769  33.528  1.00  0.00    -0.025 A 
ATOM      2  C   UNL     1     -17.760  44.429  33.267  1.00  0.00     0.012 A 
ATOM      3  C   UNL     1     -16.577  42.433  33.968  1.00  0.00     0.012 A 
ATOM      4  C   UNL     1     -18.976  43.751  33.393  1.00  0.00     0.047 A 
ATOM      5  C   UNL     1     -17.794  41.757  34.092  1.00  0.00     0.047 A 
ATOM      6  C   UNL     1     -18.996  42.410  33.802  1.00  0.00     0.115 A 
ENDROOT
BRANCH   1   7
ATOM      7  C   UNL     1     -15.282  44.521  33.440  1.00  0.00     0.010 C 
ATOM      8  C   UNL     1     -14.506  44.611  32.349  1.00  0.00     0.025 C 
BRANCH   8   9
ATOM      9  C   UNL     1     -14.869  44.139  30.999  1.00  0.00     0.064 C 
ATOM     10  O   UNL     1     -15.375  44.949  30.180  1.00  0.00    -0.545 OA
ATOM     11  O   UNL     1     -14.735  42.803  30.637  1.00  0.00    -0.545 OA
ENDBRANCH   8   9
ENDBRANCH   1   7
BRANCH   6  12
ATOM     12  O   UNL     1     -20.201  41.723  33.930  1.00  0.00    -0.508 OA
ATOM     13  H   UNL     1     -20.866  41.676  33.167  1.00  0.00     0.293 HD
ENDBRANCH   6  12
TORSDOF 3
ENDMDL
MODEL 2
REMARK VINA RESULT:    -4.940      0.126      1.404
REMARK INTER + INTRA:          -5.950
REMARK INTER:                  -5.660
REMARK INTRA:                  -0.290
REMARK UNBOUND:                -0.288
REMARK SMILES O=C([O-])C=Cc1ccc(O)cc1
REMARK SMILES IDX 6 1 7 2 12 3 8 4 11 5 9 6 5 7 4 8 2 9 1 10 3 11 10 12
REMARK H PARENT 10 13
REMARK Flexibility Score: inf
ROOT
ATOM      1  C   UNL     1     -16.486  43.877  33.571  1.00  0.00    -0.025 A 
ATOM      2  C   UNL     1     -16.472  42.523  33.938  1.00  0.00     0.012 A 
ATOM      3  C   UNL     1     -17.715  44.501  33.293  1.00  0.00     0.012 A 
ATOM      4  C   UNL     1     -17.670  41.816  34.076  1.00  0.00     0.047 A 
ATOM      5  C   UNL     1     -18.912  43.793  33.433  1.00  0.00     0.047 A 
ATOM      6  C   UNL     1     -18.895  42.452  33.827  1.00  0.00     0.115 A 
ENDROOT
BRANCH   1   7
ATOM      7  C   UNL     1     -15.205  44.588  33.380  1.00  0.00     0.010 C 
ATOM      8  C   UNL     1     -14.499  44.625  32.239  1.00  0.00     0.025 C 
BRANCH   8   9
ATOM      9  C   UNL     1     -14.963  44.128  30.929  1.00  0.00     0.064 C 
ATOM     10  O   UNL     1     -15.574  44.909  30.155  1.00  0.00    -0.545 OA
ATOM     11  O   UNL     1     -14.806  42.796  30.562  1.00  0.00    -0.545 OA
ENDBRANCH   8   9
ENDBRANCH   1   7
BRANCH   6  12
ATOM     12  O   UNL     1     -20.095  41.759  33.963  1.00  0.00    -0.508 OA
ATOM     13  H   UNL     1     -20.915  42.011  33.421  1.00  0.00     0.293 HD
ENDBRANCH   6  12
TORSDOF 3
ENDMDL
MODEL 3
REMARK VINA RESULT:    -4.884      1.711      4.587
REMARK INTER + INTRA:          -5.886
REMARK INTER:                  -5.633
REMARK INTRA:                  -0.253
REMARK UNBOUND:                -0.288
REMARK SMILES O=C([O-])C=Cc1ccc(O)cc1
REMARK SMILES IDX 6 1 7 2 12 3 8 4 11 5 9 6 5 7 4 8 2 9 1 10 3 11 10 12
REMARK H PARENT 10 13
REMARK Flexibility Score: inf
ROOT
ATOM      1  C   UNL     1     -17.237  44.015  32.502  1.00  0.00    -0.025 A 
ATOM      2  C   UNL     1     -17.290  44.294  31.128  1.00  0.00     0.012 A 
ATOM      3  C   UNL     1     -16.003  44.093  33.173  1.00  0.00     0.012 A 
ATOM      4  C   UNL     1     -16.139  44.697  30.445  1.00  0.00     0.047 A 
ATOM      5  C   UNL     1     -14.854  44.496  32.487  1.00  0.00     0.047 A 
ATOM      6  C   UNL     1     -14.917  44.802  31.125  1.00  0.00     0.115 A 
ENDROOT
BRANCH   1   7
ATOM      7  C   UNL     1     -18.455  43.541  33.192  1.00  0.00     0.010 C 
ATOM      8  C   UNL     1     -18.794  42.255  33.374  1.00  0.00     0.025 C 
BRANCH   8   9
ATOM      9  C   UNL     1     -17.930  41.094  33.091  1.00  0.00     0.064 C 
ATOM     10  O   UNL     1     -17.938  40.586  31.940  1.00  0.00    -0.545 OA
ATOM     11  O   UNL     1     -17.162  40.500  34.087  1.00  0.00    -0.545 OA
ENDBRANCH   8   9
ENDBRANCH   1   7
BRANCH   6  12
ATOM     12  O   UNL     1     -13.763  45.203  30.455  1.00  0.00    -0.508 OA
ATOM     13  H   UNL     1     -13.677  45.112  29.449  1.00  0.00     0.293 HD
ENDBRANCH   6  12
TORSDOF 3
ENDMDL
MODEL 4
REMARK VINA RESULT:    -4.845      1.726      4.769
REMARK INTER + INTRA:          -5.841
REMARK INTER:                  -5.581
REMARK INTRA:                  -0.260
REMARK UNBOUND:                -0.288
REMARK SMILES O=C([O-])C=Cc1ccc(O)cc1
REMARK SMILES IDX 6 1 7 2 12 3 8 4 11 5 9 6 5 7 4 8 2 9 1 10 3 11 10 12
REMARK H PARENT 10 13
REMARK Flexibility Score: inf
ROOT
ATOM      1  C   UNL     1     -17.085  43.980  32.359  1.00  0.00    -0.025 A 
ATOM      2  C   UNL     1     -15.890  44.119  33.081  1.00  0.00     0.012 A 
ATOM      3  C   UNL     1     -17.102  44.296  30.989  1.00  0.00     0.012 A 
ATOM      4  C   UNL     1     -14.717  44.518  32.434  1.00  0.00     0.047 A 
ATOM      5  C   UNL     1     -15.928  44.695  30.344  1.00  0.00     0.047 A 
ATOM      6  C   UNL     1     -14.733  44.804  31.061  1.00  0.00     0.115 A 
ENDROOT
BRANCH   1   7
ATOM      7  C   UNL     1     -18.324  43.608  33.075  1.00  0.00     0.010 C 
ATOM      8  C   UNL     1     -18.732  42.354  33.321  1.00  0.00     0.025 C 
BRANCH   8   9
ATOM      9  C   UNL     1     -17.935  41.134  33.092  1.00  0.00     0.064 C 
ATOM     10  O   UNL     1     -17.989  40.564  31.971  1.00  0.00    -0.545 OA
ATOM     11  O   UNL     1     -17.183  40.556  34.109  1.00  0.00    -0.545 OA
ENDBRANCH   8   9
ENDBRANCH   1   7
BRANCH   6  12
ATOM     12  O   UNL     1     -13.570  45.202  30.405  1.00  0.00    -0.508 OA
ATOM     13  H   UNL     1     -12.652  44.980  30.774  1.00  0.00     0.293 HD
ENDBRANCH   6  12
TORSDOF 3
ENDMDL
MODEL 5
REMARK VINA RESULT:    -4.827      2.073      4.489
REMARK INTER + INTRA:          -5.821
REMARK INTER:                  -5.546
REMARK INTRA:                  -0.275
REMARK UNBOUND:                -0.288
REMARK SMILES O=C([O-])C=Cc1ccc(O)cc1
REMARK SMILES IDX 6 1 7 2 12 3 8 4 11 5 9 6 5 7 4 8 2 9 1 10 3 11 10 12
REMARK H PARENT 10 13
REMARK Flexibility Score: inf
ROOT
ATOM      1  C   UNL     1     -16.180  44.504  32.398  1.00  0.00    -0.025 A 
ATOM      2  C   UNL     1     -15.080  44.501  31.526  1.00  0.00     0.012 A 
ATOM      3  C   UNL     1     -15.958  44.438  33.785  1.00  0.00     0.012 A 
ATOM      4  C   UNL     1     -13.777  44.483  32.033  1.00  0.00     0.047 A 
ATOM      5  C   UNL     1     -14.654  44.420  34.289  1.00  0.00     0.047 A 
ATOM      6  C   UNL     1     -13.561  44.447  33.418  1.00  0.00     0.115 A 
ENDROOT
BRANCH   1   7
ATOM      7  C   UNL     1     -17.547  44.470  31.839  1.00  0.00     0.010 C 
ATOM      8  C   UNL     1     -18.249  43.358  31.571  1.00  0.00     0.025 C 
BRANCH   8   9
ATOM      9  C   UNL     1     -17.864  41.988  31.960  1.00  0.00     0.064 C 
ATOM     10  O   UNL     1     -18.337  41.491  33.014  1.00  0.00    -0.545 OA
ATOM     11  O   UNL     1     -16.932  41.261  31.227  1.00  0.00    -0.545 OA
ENDBRANCH   8   9
ENDBRANCH   1   7
BRANCH   6  12
ATOM     12  O   UNL     1     -12.268  44.430  33.935  1.00  0.00    -0.508 OA
ATOM     13  H   UNL     1     -11.859  45.253  34.364  1.00  0.00     0.293 HD
ENDBRANCH   6  12
TORSDOF 3
ENDMDL
MODEL 6
REMARK VINA RESULT:    -4.807      2.863      4.424
REMARK INTER + INTRA:          -5.797
REMARK INTER:                  -5.527
REMARK INTRA:                  -0.270
REMARK UNBOUND:                -0.288
REMARK SMILES O=C([O-])C=Cc1ccc(O)cc1
REMARK SMILES IDX 6 1 7 2 12 3 8 4 11 5 9 6 5 7 4 8 2 9 1 10 3 11 10 12
REMARK H PARENT 10 13
REMARK Flexibility Score: inf
ROOT
ATOM      1  C   UNL     1     -14.989  44.547  31.324  1.00  0.00    -0.025 A 
ATOM      2  C   UNL     1     -13.587  44.539  31.364  1.00  0.00     0.012 A 
ATOM      3  C   UNL     1     -15.712  44.494  32.529  1.00  0.00     0.012 A 
ATOM      4  C   UNL     1     -12.915  44.531  32.590  1.00  0.00     0.047 A 
ATOM      5  C   UNL     1     -15.038  44.486  33.754  1.00  0.00     0.047 A 
ATOM      6  C   UNL     1     -13.641  44.508  33.790  1.00  0.00     0.115 A 
ENDROOT
BRANCH   1   7
ATOM      7  C   UNL     1     -15.676  44.503  30.016  1.00  0.00     0.010 C 
ATOM      8  C   UNL     1     -15.978  43.388  29.334  1.00  0.00     0.025 C 
BRANCH   8   9
ATOM      9  C   UNL     1     -15.851  42.010  29.847  1.00  0.00     0.064 C 
ATOM     10  O   UNL     1     -14.977  41.249  29.357  1.00  0.00    -0.545 OA
ATOM     11  O   UNL     1     -16.723  41.510  30.807  1.00  0.00    -0.545 OA
ENDBRANCH   8   9
ENDBRANCH   1   7
BRANCH   6  12
ATOM     12  O   UNL     1     -12.984  44.500  35.017  1.00  0.00    -0.508 OA
ATOM     13  H   UNL     1     -13.443  44.815  35.865  1.00  0.00     0.293 HD
ENDBRANCH   6  12
TORSDOF 3
ENDMDL
MODEL 7
REMARK VINA RESULT:    -4.762      2.135      2.998
REMARK INTER + INTRA:          -5.747
REMARK INTER:                  -5.465
REMARK INTRA:                  -0.282
REMARK UNBOUND:                -0.288
REMARK SMILES O=C([O-])C=Cc1ccc(O)cc1
REMARK SMILES IDX 6 1 7 2 12 3 8 4 11 5 9 6 5 7 4 8 2 9 1 10 3 11 10 12
REMARK H PARENT 10 13
REMARK Flexibility Score: inf
ROOT
ATOM      1  C   UNL     1     -15.030  44.533  32.378  1.00  0.00    -0.025 A 
ATOM      2  C   UNL     1     -15.406  44.797  31.053  1.00  0.00     0.012 A 
ATOM      3  C   UNL     1     -15.993  44.054  33.284  1.00  0.00     0.012 A 
ATOM      4  C   UNL     1     -16.711  44.538  30.624  1.00  0.00     0.047 A 
ATOM      5  C   UNL     1     -17.298  43.796  32.853  1.00  0.00     0.047 A 
ATOM      6  C   UNL     1     -17.661  44.033  31.524  1.00  0.00     0.115 A 
ENDROOT
BRANCH   1   7
ATOM      7  C   UNL     1     -13.660  44.864  32.821  1.00  0.00     0.010 C 
ATOM      8  C   UNL     1     -12.615  44.023  32.811  1.00  0.00     0.025 C 
BRANCH   8   9
ATOM      9  C   UNL     1     -12.598  42.687  32.184  1.00  0.00     0.064 C 
ATOM     10  O   UNL     1     -12.627  41.664  32.915  1.00  0.00    -0.545 OA
ATOM     11  O   UNL     1     -12.475  42.533  30.808  1.00  0.00    -0.545 OA
ENDBRANCH   8   9
ENDBRANCH   1   7
BRANCH   6  12
ATOM     12  O   UNL     1     -18.964  43.770  31.109  1.00  0.00    -0.508 OA
ATOM     13  H   UNL     1     -19.154  43.243  30.264  1.00  0.00     0.293 HD
ENDBRANCH   6  12
TORSDOF 3
ENDMDL
MODEL 8
REMARK VINA RESULT:    -4.679      1.716      2.158
REMARK INTER + INTRA:          -5.651
REMARK INTER:                  -5.365
REMARK INTRA:                  -0.287
REMARK UNBOUND:                -0.288
REMARK SMILES O=C([O-])C=Cc1ccc(O)cc1
REMARK SMILES IDX 6 1 7 2 12 3 8 4 11 5 9 6 5 7 4 8 2 9 1 10 3 11 10 12
REMARK H PARENT 10 13
REMARK Flexibility Score: inf
ROOT
ATOM      1  C   UNL     1     -16.875  43.795  31.278  1.00  0.00    -0.025 A 
ATOM      2  C   UNL     1     -17.590  44.520  32.243  1.00  0.00     0.012 A 
ATOM      3  C   UNL     1     -17.011  42.396  31.227  1.00  0.00     0.012 A 
ATOM      4  C   UNL     1     -18.468  43.864  33.111  1.00  0.00     0.047 A 
ATOM      5  C   UNL     1     -17.889  41.743  32.096  1.00  0.00     0.047 A 
ATOM      6  C   UNL     1     -18.622  42.472  33.037  1.00  0.00     0.115 A 
ENDROOT
BRANCH   1   7
ATOM      7  C   UNL     1     -15.914  44.503  30.407  1.00  0.00     0.010 C 
ATOM      8  C   UNL     1     -14.655  44.826  30.740  1.00  0.00     0.025 C 
BRANCH   8   9
ATOM      9  C   UNL     1     -13.947  44.371  31.952  1.00  0.00     0.064 C 
ATOM     10  O   UNL     1     -13.453  43.214  31.978  1.00  0.00    -0.545 OA
ATOM     11  O   UNL     1     -13.877  45.163  33.092  1.00  0.00    -0.545 OA
ENDBRANCH   8   9
ENDBRANCH   1   7
BRANCH   6  12
ATOM     12  O   UNL     1     -19.494  41.807  33.896  1.00  0.00    -0.508 OA
ATOM     13  H   UNL     1     -20.065  41.033  33.575  1.00  0.00     0.293 HD
ENDBRANCH   6  12
TORSDOF 3
ENDMDL
MODEL 9
REMARK VINA RESULT:    -4.600      1.929      2.406
REMARK INTER + INTRA:          -5.561
REMARK INTER:                  -5.267
REMARK INTRA:                  -0.294
REMARK UNBOUND:                -0.288
REMARK SMILES O=C([O-])C=Cc1ccc(O)cc1
REMARK SMILES IDX 6 1 7 2 12 3 8 4 11 5 9 6 5 7 4 8 2 9 1 10 3 11 10 12
REMARK H PARENT 10 13
REMARK Flexibility Score: inf
ROOT
ATOM      1  C   UNL     1     -16.460  43.327  31.784  1.00  0.00    -0.025 A 
ATOM      2  C   UNL     1     -17.027  42.184  31.200  1.00  0.00     0.012 A 
ATOM      3  C   UNL     1     -16.274  43.366  33.178  1.00  0.00     0.012 A 
ATOM      4  C   UNL     1     -17.355  41.077  31.988  1.00  0.00     0.047 A 
ATOM      5  C   UNL     1     -16.603  42.258  33.963  1.00  0.00     0.047 A 
ATOM      6  C   UNL     1     -17.140  41.110  33.373  1.00  0.00     0.115 A 
ENDROOT
BRANCH   1   7
ATOM      7  C   UNL     1     -16.170  44.504  30.939  1.00  0.00     0.010 C 
ATOM      8  C   UNL     1     -14.969  44.821  30.434  1.00  0.00     0.025 C 
BRANCH   8   9
ATOM      9  C   UNL     1     -13.771  43.960  30.470  1.00  0.00     0.064 C 
ATOM     10  O   UNL     1     -13.661  43.023  29.638  1.00  0.00    -0.545 OA
ATOM     11  O   UNL     1     -12.797  44.113  31.450  1.00  0.00    -0.545 OA
ENDBRANCH   8   9
ENDBRANCH   1   7
BRANCH   6  12
ATOM     12  O   UNL     1     -17.462  40.013  34.169  1.00  0.00    -0.508 OA
ATOM     13  H   UNL     1     -16.743  39.445  34.602  1.00  0.00     0.293 HD
ENDBRANCH   6  12
TORSDOF 3
ENDMDL
