MODEL 1
REMARK VINA RESULT:    -2.180      0.000      0.000
REMARK INTER + INTRA:          -2.573
REMARK INTER:                  -3.326
REMARK INTRA:                   0.753
REMARK UNBOUND:                 0.753
REMARK SMILES CC1=CCC[C@H](C)C(=O)C[C@@H](C(C)C)C(=O)C1
REMARK SMILES IDX 8 1 9 2 6 3 7 4 5 5 4 6 3 7 2 8 1 9 10 11 11 12 15 13 16 14
REMARK SMILES IDX 17 15 12 17 13 18 14 19
REMARK H PARENT
REMARK Flexibility Score: 70.00
ROOT
ATOM      1  C   UNL     1      13.635  15.121  11.015  1.00  0.00     0.136 C 
ATOM      2  O   UNL     1      14.535  14.331  10.767  1.00  0.00    -0.299 OA
ENDROOT
BRANCH   1   3
ATOM      3  C   UNL     1      12.591  15.446   9.961  1.00  0.00     0.053 C 
ATOM      4  C   UNL     1      11.456  14.412   9.928  1.00  0.00     0.016 C 
BRANCH   3   5
ATOM      5  C   UNL     1      12.053  16.882  10.123  1.00  0.00     0.015 C 
BRANCH   5   6
ATOM      6  C   UNL     1      10.526  17.004   9.938  1.00  0.00     0.028 C 
BRANCH   6   7
ATOM      7  C   UNL     1       9.879  17.634  11.145  1.00  0.00    -0.028 C 
ATOM      8  C   UNL     1       9.806  17.060  12.370  1.00  0.00    -0.070 CG0
ATOM      9  C   UNL     1       9.159  17.846  13.482  1.00  0.00     0.039 C 
ATOM     10  G   UNL     1      10.335  15.665  12.668  1.00  0.00     0.000 G0
ENDBRANCH   6   7
ENDBRANCH   5   6
ENDBRANCH   3   5
ENDBRANCH   1   3
BRANCH   1  11
ATOM     11  C   UNL     1      13.583  15.763  12.381  1.00  0.00     0.087 C 
BRANCH  11  12
ATOM     12  C   UNL     1      12.746  14.930  13.387  1.00  0.00     0.066 C 
BRANCH  12  13
ATOM     13  C   UNL     1      11.437  15.650  13.674  1.00  0.00     0.140 C 
ATOM     14  O   UNL     1      11.252  16.145  14.777  1.00  0.00    -0.299 OA
BRANCH  13  15
ATOM     15  C   UNL     1      10.328  15.664  12.652  1.00  0.00     0.106 CG0
ATOM     16  G   UNL     1       9.807  17.066  12.375  1.00  0.00     0.000 G0
ENDBRANCH  13  15
ENDBRANCH  12  13
BRANCH  12  17
ATOM     17  C   UNL     1      13.515  14.639  14.717  1.00  0.00    -0.006 C 
ATOM     18  C   UNL     1      15.020  14.946  14.602  1.00  0.00     0.008 C 
ATOM     19  C   UNL     1      13.344  13.169  15.148  1.00  0.00     0.008 C 
ENDBRANCH  12  17
ENDBRANCH  11  12
ENDBRANCH   1  11
TORSDOF 1
ENDMDL
MODEL 2
REMARK VINA RESULT:    -2.118      1.810      4.296
REMARK INTER + INTRA:          -2.479
REMARK INTER:                  -2.615
REMARK INTRA:                   0.136
REMARK UNBOUND:                 0.753
REMARK SMILES CC1=CCC[C@H](C)C(=O)C[C@@H](C(C)C)C(=O)C1
REMARK SMILES IDX 8 1 9 2 6 3 7 4 5 5 4 6 3 7 2 8 1 9 10 11 11 12 15 13 16 14
REMARK SMILES IDX 17 15 12 17 13 18 14 19
REMARK H PARENT
REMARK Flexibility Score: 70.00
ROOT
ATOM      1  C   UNL     1      11.442  16.559  10.456  1.00  0.00     0.136 C 
ATOM      2  O   UNL     1      11.245  17.626   9.890  1.00  0.00    -0.299 OA
ENDROOT
BRANCH   1   3
ATOM      3  C   UNL     1      12.709  15.769  10.176  1.00  0.00     0.053 C 
ATOM      4  C   UNL     1      13.908  16.679   9.875  1.00  0.00     0.016 C 
BRANCH   3   5
ATOM      5  C   UNL     1      13.017  14.775  11.316  1.00  0.00     0.015 C 
BRANCH   5   6
ATOM      6  C   UNL     1      13.749  15.407  12.518  1.00  0.00     0.028 C 
BRANCH   6   7
ATOM      7  C   UNL     1      13.549  14.590  13.769  1.00  0.00    -0.028 C 
ATOM      8  C   UNL     1      12.685  14.901  14.764  1.00  0.00    -0.070 CG0
ATOM      9  C   UNL     1      12.578  13.952  15.930  1.00  0.00     0.039 C 
ATOM     10  G   UNL     1      11.832  16.161  14.762  1.00  0.00     0.000 G0
ENDBRANCH   6   7
ENDBRANCH   5   6
ENDBRANCH   3   5
ENDBRANCH   1   3
BRANCH   1  11
ATOM     11  C   UNL     1      10.408  16.048  11.431  1.00  0.00     0.087 C 
BRANCH  11  12
ATOM     12  C   UNL     1      10.332  16.919  12.713  1.00  0.00     0.066 C 
BRANCH  12  13
ATOM     13  C   UNL     1      10.560  16.042  13.934  1.00  0.00     0.140 C 
ATOM     14  O   UNL     1       9.675  15.284  14.304  1.00  0.00    -0.299 OA
BRANCH  13  15
ATOM     15  C   UNL     1      11.820  16.178  14.753  1.00  0.00     0.106 CG0
ATOM     16  G   UNL     1      12.653  14.905  14.756  1.00  0.00     0.000 G0
ENDBRANCH  13  15
ENDBRANCH  12  13
BRANCH  12  17
ATOM     17  C   UNL     1       8.979  17.692  12.837  1.00  0.00    -0.006 C 
ATOM     18  C   UNL     1       8.750  18.666  11.665  1.00  0.00     0.008 C 
ATOM     19  C   UNL     1       8.911  18.486  14.157  1.00  0.00     0.008 C 
ENDBRANCH  12  17
ENDBRANCH  11  12
ENDBRANCH   1  11
TORSDOF 1
ENDMDL
MODEL 3
REMARK VINA RESULT:    -1.766      1.630      4.072
REMARK INTER + INTRA:          -1.942
REMARK INTER:                  -3.248
REMARK INTRA:                   1.306
REMARK UNBOUND:                 0.753
REMARK SMILES CC1=CCC[C@H](C)C(=O)C[C@@H](C(C)C)C(=O)C1
REMARK SMILES IDX 8 1 9 2 6 3 7 4 5 5 4 6 3 7 2 8 1 9 10 11 11 12 15 13 16 14
REMARK SMILES IDX 17 15 12 17 13 18 14 19
REMARK H PARENT
REMARK Flexibility Score: 70.00
ROOT
ATOM      1  C   UNL     1      10.904  15.135  10.564  1.00  0.00     0.136 C 
ATOM      2  O   UNL     1      10.988  13.993  10.133  1.00  0.00    -0.299 OA
ENDROOT
BRANCH   1   3
ATOM      3  C   UNL     1      11.647  16.267   9.877  1.00  0.00     0.053 C 
ATOM      4  C   UNL     1      10.869  17.590   9.929  1.00  0.00     0.016 C 
BRANCH   3   5
ATOM      5  C   UNL     1      13.078  16.423  10.434  1.00  0.00     0.015 C 
BRANCH   5   6
ATOM      6  C   UNL     1      13.774  15.084  10.756  1.00  0.00     0.028 C 
BRANCH   6   7
ATOM      7  C   UNL     1      14.455  15.132  12.100  1.00  0.00    -0.028 C 
ATOM      8  C   UNL     1      13.850  14.861  13.281  1.00  0.00    -0.070 CG0
ATOM      9  C   UNL     1      14.688  14.916  14.533  1.00  0.00     0.039 C 
ATOM     10  G   UNL     1      12.374  14.515  13.401  1.00  0.00     0.000 G0
ENDBRANCH   6   7
ENDBRANCH   5   6
ENDBRANCH   3   5
ENDBRANCH   1   3
BRANCH   1  11
ATOM     11  C   UNL     1      10.052  15.394  11.784  1.00  0.00     0.087 C 
BRANCH  11  12
ATOM     12  C   UNL     1      10.697  16.433  12.738  1.00  0.00     0.066 C 
BRANCH  12  13
ATOM     13  C   UNL     1      11.530  15.709  13.784  1.00  0.00     0.140 C 
ATOM     14  O   UNL     1      11.581  16.151  14.924  1.00  0.00    -0.299 OA
BRANCH  13  15
ATOM     15  C   UNL     1      12.377  14.520  13.405  1.00  0.00     0.106 CG0
ATOM     16  G   UNL     1      13.854  14.867  13.296  1.00  0.00     0.000 G0
ENDBRANCH  13  15
ENDBRANCH  12  13
BRANCH  12  17
ATOM     17  C   UNL     1       9.641  17.360  13.423  1.00  0.00    -0.006 C 
ATOM     18  C   UNL     1       8.568  16.562  14.187  1.00  0.00     0.008 C 
ATOM     19  C   UNL     1       8.939  18.262  12.388  1.00  0.00     0.008 C 
ENDBRANCH  12  17
ENDBRANCH  11  12
ENDBRANCH   1  11
TORSDOF 1
ENDMDL
MODEL 4
REMARK VINA RESULT:    -1.506      1.753      3.788
REMARK INTER + INTRA:          -1.545
REMARK INTER:                  -2.432
REMARK INTRA:                   0.886
REMARK UNBOUND:                 0.753
REMARK SMILES CC1=CCC[C@H](C)C(=O)C[C@@H](C(C)C)C(=O)C1
REMARK SMILES IDX 8 1 9 2 6 3 7 4 5 5 4 6 3 7 2 8 1 9 10 11 11 12 15 13 16 14
REMARK SMILES IDX 17 15 12 17 13 18 14 19
REMARK H PARENT
REMARK Flexibility Score: 70.00
ROOT
ATOM      1  C   UNL     1      10.442  16.220  13.402  1.00  0.00     0.136 C 
ATOM      2  O   UNL     1      10.306  16.969  14.360  1.00  0.00    -0.299 OA
ENDROOT
BRANCH   1   3
ATOM      3  C   UNL     1       9.730  16.517  12.094  1.00  0.00     0.053 C 
ATOM      4  C   UNL     1       9.522  18.023  11.873  1.00  0.00     0.016 C 
BRANCH   3   5
ATOM      5  C   UNL     1      10.448  15.857  10.898  1.00  0.00     0.015 C 
BRANCH   5   6
ATOM      6  C   UNL     1      11.641  16.672  10.357  1.00  0.00     0.028 C 
BRANCH   6   7
ATOM      7  C   UNL     1      12.748  15.767   9.879  1.00  0.00    -0.028 C 
ATOM      8  C   UNL     1      13.844  15.439  10.604  1.00  0.00    -0.070 CG0
ATOM      9  C   UNL     1      14.838  14.486   9.991  1.00  0.00     0.039 C 
ATOM     10  G   UNL     1      14.119  15.994  11.994  1.00  0.00     0.000 G0
ENDBRANCH   6   7
ENDBRANCH   5   6
ENDBRANCH   3   5
ENDBRANCH   1   3
BRANCH   1  11
ATOM     11  C   UNL     1      11.325  15.003  13.546  1.00  0.00     0.087 C 
BRANCH  11  12
ATOM     12  C   UNL     1      12.720  15.358  14.125  1.00  0.00     0.066 C 
BRANCH  12  13
ATOM     13  C   UNL     1      13.793  15.019  13.102  1.00  0.00     0.140 C 
ATOM     14  O   UNL     1      14.449  13.996  13.236  1.00  0.00    -0.299 OA
BRANCH  13  15
ATOM     15  C   UNL     1      14.128  15.984  11.992  1.00  0.00     0.106 CG0
ATOM     16  G   UNL     1      13.820  15.416  10.614  1.00  0.00     0.000 G0
ENDBRANCH  13  15
ENDBRANCH  12  13
BRANCH  12  17
ATOM     17  C   UNL     1      13.009  14.640  15.483  1.00  0.00    -0.006 C 
ATOM     18  C   UNL     1      14.464  14.835  15.952  1.00  0.00     0.008 C 
ATOM     19  C   UNL     1      12.723  13.128  15.384  1.00  0.00     0.008 C 
ENDBRANCH  12  17
ENDBRANCH  11  12
ENDBRANCH   1  11
TORSDOF 1
ENDMDL
MODEL 5
REMARK VINA RESULT:    -1.201      1.744      3.913
REMARK INTER + INTRA:          -1.079
REMARK INTER:                  -1.823
REMARK INTRA:                   0.744
REMARK UNBOUND:                 0.753
REMARK SMILES CC1=CCC[C@H](C)C(=O)C[C@@H](C(C)C)C(=O)C1
REMARK SMILES IDX 8 1 9 2 6 3 7 4 5 5 4 6 3 7 2 8 1 9 10 11 11 12 15 13 16 14
REMARK SMILES IDX 17 15 12 17 13 18 14 19
REMARK H PARENT
REMARK Flexibility Score: 70.00
ROOT
ATOM      1  C   UNL     1      14.246  14.554  14.009  1.00  0.00     0.136 C 
ATOM      2  O   UNL     1      15.051  15.415  14.336  1.00  0.00    -0.299 OA
ENDROOT
BRANCH   1   3
ATOM      3  C   UNL     1      13.445  13.816  15.067  1.00  0.00     0.053 C 
ATOM      4  C   UNL     1      14.234  13.632  16.372  1.00  0.00     0.016 C 
BRANCH   3   5
ATOM      5  C   UNL     1      12.080  14.492  15.315  1.00  0.00     0.015 C 
BRANCH   5   6
ATOM      6  C   UNL     1      12.010  15.957  14.838  1.00  0.00     0.028 C 
BRANCH   6   7
ATOM      7  C   UNL     1      10.602  16.342  14.461  1.00  0.00    -0.028 C 
ATOM      8  C   UNL     1      10.191  16.625  13.201  1.00  0.00    -0.070 CG0
ATOM      9  C   UNL     1       8.734  16.952  12.991  1.00  0.00     0.039 C 
ATOM     10  G   UNL     1      11.127  16.637  12.003  1.00  0.00     0.000 G0
ENDBRANCH   6   7
ENDBRANCH   5   6
ENDBRANCH   3   5
ENDBRANCH   1   3
BRANCH   1  11
ATOM     11  C   UNL     1      14.066  14.243  12.542  1.00  0.00     0.087 C 
BRANCH  11  12
ATOM     12  C   UNL     1      13.443  15.432  11.764  1.00  0.00     0.066 C 
BRANCH  12  13
ATOM     13  C   UNL     1      11.927  15.360  11.860  1.00  0.00     0.140 C 
ATOM     14  O   UNL     1      11.367  14.279  11.744  1.00  0.00    -0.299 OA
BRANCH  13  15
ATOM     15  C   UNL     1      11.105  16.619  11.987  1.00  0.00     0.106 CG0
ATOM     16  G   UNL     1      10.198  16.602  13.208  1.00  0.00     0.000 G0
ENDBRANCH  13  15
ENDBRANCH  12  13
BRANCH  12  17
ATOM     17  C   UNL     1      13.897  15.476  10.268  1.00  0.00    -0.006 C 
ATOM     18  C   UNL     1      14.890  14.350   9.922  1.00  0.00     0.008 C 
ATOM     19  C   UNL     1      14.550  16.830   9.925  1.00  0.00     0.008 C 
ENDBRANCH  12  17
ENDBRANCH  11  12
ENDBRANCH   1  11
TORSDOF 1
ENDMDL
MODEL 6
REMARK VINA RESULT:    -1.082      1.887      4.987
REMARK INTER + INTRA:          -0.898
REMARK INTER:                  -2.275
REMARK INTRA:                   1.377
REMARK UNBOUND:                 0.753
REMARK SMILES CC1=CCC[C@H](C)C(=O)C[C@@H](C(C)C)C(=O)C1
REMARK SMILES IDX 8 1 9 2 6 3 7 4 5 5 4 6 3 7 2 8 1 9 10 11 11 12 15 13 16 14
REMARK SMILES IDX 17 15 12 17 13 18 14 19
REMARK H PARENT
REMARK Flexibility Score: 70.00
ROOT
ATOM      1  C   UNL     1       9.955  17.146  12.020  1.00  0.00     0.136 C 
ATOM      2  O   UNL     1       8.911  17.423  11.447  1.00  0.00    -0.299 OA
ENDROOT
BRANCH   1   3
ATOM      3  C   UNL     1      10.002  17.086  13.537  1.00  0.00     0.053 C 
ATOM      4  C   UNL     1       8.630  17.355  14.172  1.00  0.00     0.016 C 
BRANCH   3   5
ATOM      5  C   UNL     1      10.611  15.757  14.031  1.00  0.00     0.015 C 
BRANCH   5   6
ATOM      6  C   UNL     1      11.827  15.933  14.963  1.00  0.00     0.028 C 
BRANCH   6   7
ATOM      7  C   UNL     1      12.810  14.802  14.798  1.00  0.00    -0.028 C 
ATOM      8  C   UNL     1      13.695  14.693  13.779  1.00  0.00    -0.070 CG0
ATOM      9  C   UNL     1      14.638  13.516  13.784  1.00  0.00     0.039 C 
ATOM     10  G   UNL     1      13.773  15.690  12.632  1.00  0.00     0.000 G0
ENDBRANCH   6   7
ENDBRANCH   5   6
ENDBRANCH   3   5
ENDBRANCH   1   3
BRANCH   1  11
ATOM     11  C   UNL     1      11.189  16.866  11.194  1.00  0.00     0.087 C 
BRANCH  11  12
ATOM     12  C   UNL     1      11.578  15.365  11.215  1.00  0.00     0.066 C 
BRANCH  12  13
ATOM     13  C   UNL     1      13.086  15.236  11.367  1.00  0.00     0.140 C 
ATOM     14  O   UNL     1      13.732  14.669  10.497  1.00  0.00    -0.299 OA
BRANCH  13  15
ATOM     15  C   UNL     1      13.774  15.702  12.626  1.00  0.00     0.106 CG0
ATOM     16  G   UNL     1      13.667  14.691  13.758  1.00  0.00     0.000 G0
ENDBRANCH  13  15
ENDBRANCH  12  13
BRANCH  12  17
ATOM     17  C   UNL     1      11.087  14.597   9.945  1.00  0.00    -0.006 C 
ATOM     18  C   UNL     1       9.553  14.466   9.895  1.00  0.00     0.008 C 
ATOM     19  C   UNL     1      11.703  13.185   9.875  1.00  0.00     0.008 C 
ENDBRANCH  12  17
ENDBRANCH  11  12
ENDBRANCH   1  11
TORSDOF 1
ENDMDL
MODEL 7
REMARK VINA RESULT:    -0.150      2.507      5.544
REMARK INTER + INTRA:           0.524
REMARK INTER:                  -1.726
REMARK INTRA:                   2.251
REMARK UNBOUND:                 0.753
REMARK SMILES CC1=CCC[C@H](C)C(=O)C[C@@H](C(C)C)C(=O)C1
REMARK SMILES IDX 8 1 9 2 6 3 7 4 5 5 4 6 3 7 2 8 1 9 10 11 11 12 15 13 16 14
REMARK SMILES IDX 17 15 12 17 13 18 14 19
REMARK H PARENT
REMARK Flexibility Score: 70.00
ROOT
ATOM      1  C   UNL     1      15.159  14.703  14.422  1.00  0.00     0.136 C 
ATOM      2  O   UNL     1      15.666  15.732  14.847  1.00  0.00    -0.299 OA
ENDROOT
BRANCH   1   3
ATOM      3  C   UNL     1      15.536  13.360  15.025  1.00  0.00     0.053 C 
ATOM      4  C   UNL     1      16.750  12.730  14.327  1.00  0.00     0.016 C 
BRANCH   3   5
ATOM      5  C   UNL     1      15.744  13.465  16.550  1.00  0.00     0.015 C 
BRANCH   5   6
ATOM      6  C   UNL     1      14.558  14.106  17.301  1.00  0.00     0.028 C 
BRANCH   6   7
ATOM      7  C   UNL     1      13.455  13.106  17.534  1.00  0.00    -0.028 C 
ATOM      8  C   UNL     1      12.621  12.640  16.573  1.00  0.00    -0.070 CG0
ATOM      9  C   UNL     1      11.595  11.608  16.967  1.00  0.00     0.039 C 
ATOM     10  G   UNL     1      12.668  13.115  15.129  1.00  0.00     0.000 G0
ENDBRANCH   6   7
ENDBRANCH   5   6
ENDBRANCH   3   5
ENDBRANCH   1   3
BRANCH   1  11
ATOM     11  C   UNL     1      14.158  14.793  13.295  1.00  0.00     0.087 C 
BRANCH  11  12
ATOM     12  C   UNL     1      12.799  15.374  13.764  1.00  0.00     0.066 C 
BRANCH  12  13
ATOM     13  C   UNL     1      12.291  14.573  14.953  1.00  0.00     0.140 C 
ATOM     14  O   UNL     1      11.659  15.139  15.834  1.00  0.00    -0.299 OA
BRANCH  13  15
ATOM     15  C   UNL     1      12.651  13.117  15.109  1.00  0.00     0.106 CG0
ATOM     16  G   UNL     1      12.599  12.655  16.558  1.00  0.00     0.000 G0
ENDBRANCH  13  15
ENDBRANCH  12  13
BRANCH  12  17
ATOM     17  C   UNL     1      11.729  15.402  12.624  1.00  0.00    -0.006 C 
ATOM     18  C   UNL     1      12.357  15.633  11.237  1.00  0.00     0.008 C 
ATOM     19  C   UNL     1      10.677  16.501  12.877  1.00  0.00     0.008 C 
ENDBRANCH  12  17
ENDBRANCH  11  12
ENDBRANCH   1  11
TORSDOF 1
ENDMDL
MODEL 8
REMARK VINA RESULT:     0.177      3.230      5.131
REMARK INTER + INTRA:           1.023
REMARK INTER:                  -1.436
REMARK INTRA:                   2.459
REMARK UNBOUND:                 0.753
REMARK SMILES CC1=CCC[C@H](C)C(=O)C[C@@H](C(C)C)C(=O)C1
REMARK SMILES IDX 8 1 9 2 6 3 7 4 5 5 4 6 3 7 2 8 1 9 10 11 11 12 15 13 16 14
REMARK SMILES IDX 17 15 12 17 13 18 14 19
REMARK H PARENT
REMARK Flexibility Score: 70.00
ROOT
ATOM      1  C   UNL     1      14.741  15.074  13.932  1.00  0.00     0.136 C 
ATOM      2  O   UNL     1      15.185  15.733  14.861  1.00  0.00    -0.299 OA
ENDROOT
BRANCH   1   3
ATOM      3  C   UNL     1      13.602  15.616  13.086  1.00  0.00     0.053 C 
ATOM      4  C   UNL     1      13.695  15.160  11.623  1.00  0.00     0.016 C 
BRANCH   3   5
ATOM      5  C   UNL     1      12.229  15.278  13.704  1.00  0.00     0.015 C 
BRANCH   5   6
ATOM      6  C   UNL     1      12.227  15.248  15.247  1.00  0.00     0.028 C 
BRANCH   6   7
ATOM      7  C   UNL     1      12.021  13.847  15.765  1.00  0.00    -0.028 C 
ATOM      8  C   UNL     1      12.880  13.192  16.581  1.00  0.00    -0.070 CG0
ATOM      9  C   UNL     1      12.502  11.807  17.040  1.00  0.00     0.039 C 
ATOM     10  G   UNL     1      14.205  13.782  17.041  1.00  0.00     0.000 G0
ENDBRANCH   6   7
ENDBRANCH   5   6
ENDBRANCH   3   5
ENDBRANCH   1   3
BRANCH   1  11
ATOM     11  C   UNL     1      15.344  13.719  13.644  1.00  0.00     0.087 C 
BRANCH  11  12
ATOM     12  C   UNL     1      15.113  12.718  14.806  1.00  0.00     0.066 C 
BRANCH  12  13
ATOM     13  C   UNL     1      15.361  13.417  16.133  1.00  0.00     0.140 C 
ATOM     14  O   UNL     1      16.509  13.598  16.513  1.00  0.00    -0.299 OA
BRANCH  13  15
ATOM     15  C   UNL     1      14.208  13.791  17.032  1.00  0.00     0.106 CG0
ATOM     16  G   UNL     1      12.890  13.186  16.572  1.00  0.00     0.000 G0
ENDBRANCH  13  15
ENDBRANCH  12  13
BRANCH  12  17
ATOM     17  C   UNL     1      16.003  11.438  14.685  1.00  0.00    -0.006 C 
ATOM     18  C   UNL     1      16.143  10.692  16.026  1.00  0.00     0.008 C 
ATOM     19  C   UNL     1      17.413  11.789  14.169  1.00  0.00     0.008 C 
ENDBRANCH  12  17
ENDBRANCH  11  12
ENDBRANCH   1  11
TORSDOF 1
ENDMDL
