MODEL 1
REMARK VINA RESULT:    -5.668      0.000      0.000
REMARK INTER + INTRA:          -5.999
REMARK INTER:                  -5.999
REMARK INTRA:                   0.000
REMARK UNBOUND:                 0.000
REMARK SMILES O=c1ccc2cc(O)c(O)cc2o1
REMARK SMILES IDX 4 1 3 2 2 3 1 4 13 5 12 6 11 7 9 8 7 9 6 10 5 11 8 12 10 14
REMARK H PARENT 8 13 10 15
REMARK Flexibility Score: inf
ROOT
ATOM      1  C   UNL     1      16.207 -12.214   2.789  1.00  0.00     0.019 A 
ATOM      2  C   UNL     1      15.562 -13.121   3.630  1.00  0.00     0.094 A 
ATOM      3  C   UNL     1      15.659 -14.489   3.352  1.00  0.00     0.336 A 
ATOM      4  O   UNL     1      15.086 -15.324   4.099  1.00  0.00    -0.246 OA
ATOM      5  O   UNL     1      16.356 -14.916   2.302  1.00  0.00    -0.423 OA
ATOM      6  C   UNL     1      16.986 -14.085   1.475  1.00  0.00     0.142 A 
ATOM      7  C   UNL     1      17.703 -14.590   0.387  1.00  0.00     0.098 A 
ATOM      8  C   UNL     1      18.368 -13.718  -0.487  1.00  0.00     0.161 A 
ATOM      9  C   UNL     1      18.314 -12.333  -0.272  1.00  0.00     0.158 A 
ATOM     10  C   UNL     1      17.597 -11.820   0.818  1.00  0.00     0.062 A 
ATOM     11  C   UNL     1      16.932 -12.690   1.693  1.00  0.00     0.022 A 
ENDROOT
BRANCH   9  12
ATOM     12  O   UNL     1      18.978 -11.473  -1.146  1.00  0.00    -0.504 OA
ATOM     13  H   UNL     1      18.481 -10.961  -1.865  1.00  0.00     0.293 HD
ENDBRANCH   9  12
BRANCH   8  14
ATOM     14  O   UNL     1      19.084 -14.220  -1.573  1.00  0.00    -0.504 OA
ATOM     15  H   UNL     1      18.651 -14.830  -2.257  1.00  0.00     0.293 HD
ENDBRANCH   8  14
TORSDOF 2
ENDMDL
MODEL 2
REMARK VINA RESULT:    -5.483      1.185      2.268
REMARK INTER + INTRA:          -5.803
REMARK INTER:                  -5.803
REMARK INTRA:                   0.000
REMARK UNBOUND:                 0.000
REMARK SMILES O=c1ccc2cc(O)c(O)cc2o1
REMARK SMILES IDX 4 1 3 2 2 3 1 4 13 5 12 6 11 7 9 8 7 9 6 10 5 11 8 12 10 14
REMARK H PARENT 8 13 10 15
REMARK Flexibility Score: inf
ROOT
ATOM      1  C   UNL     1      16.143 -14.870   2.186  1.00  0.00     0.019 A 
ATOM      2  C   UNL     1      15.427 -14.329   3.254  1.00  0.00     0.094 A 
ATOM      3  C   UNL     1      15.471 -12.947   3.468  1.00  0.00     0.336 A 
ATOM      4  O   UNL     1      14.832 -12.439   4.425  1.00  0.00    -0.246 OA
ATOM      5  O   UNL     1      16.186 -12.163   2.664  1.00  0.00    -0.423 OA
ATOM      6  C   UNL     1      16.883 -12.638   1.635  1.00  0.00     0.142 A 
ATOM      7  C   UNL     1      17.616 -11.766   0.824  1.00  0.00     0.098 A 
ATOM      8  C   UNL     1      18.352 -12.262  -0.262  1.00  0.00     0.161 A 
ATOM      9  C   UNL     1      18.355 -13.637  -0.537  1.00  0.00     0.158 A 
ATOM     10  C   UNL     1      17.622 -14.517   0.272  1.00  0.00     0.062 A 
ATOM     11  C   UNL     1      16.886 -14.023   1.357  1.00  0.00     0.022 A 
ENDROOT
BRANCH   9  12
ATOM     12  O   UNL     1      19.090 -14.122  -1.619  1.00  0.00    -0.504 OA
ATOM     13  H   UNL     1      20.100 -14.192  -1.584  1.00  0.00     0.293 HD
ENDBRANCH   9  12
BRANCH   8  14
ATOM     14  O   UNL     1      19.084 -11.395  -1.071  1.00  0.00    -0.504 OA
ATOM     15  H   UNL     1      18.904 -10.398  -1.078  1.00  0.00     0.293 HD
ENDBRANCH   8  14
TORSDOF 2
ENDMDL
MODEL 3
REMARK VINA RESULT:    -5.158      1.416      4.975
REMARK INTER + INTRA:          -5.459
REMARK INTER:                  -5.459
REMARK INTRA:                   0.000
REMARK UNBOUND:                 0.000
REMARK SMILES O=c1ccc2cc(O)c(O)cc2o1
REMARK SMILES IDX 4 1 3 2 2 3 1 4 13 5 12 6 11 7 9 8 7 9 6 10 5 11 8 12 10 14
REMARK H PARENT 8 13 10 15
REMARK Flexibility Score: inf
ROOT
ATOM      1  C   UNL     1      16.848 -14.746   0.063  1.00  0.00     0.019 A 
ATOM      2  C   UNL     1      17.702 -14.210  -0.901  1.00  0.00     0.094 A 
ATOM      3  C   UNL     1      18.287 -12.961  -0.669  1.00  0.00     0.336 A 
ATOM      4  O   UNL     1      19.060 -12.460  -1.526  1.00  0.00    -0.246 OA
ATOM      5  O   UNL     1      18.031 -12.295   0.455  1.00  0.00    -0.423 OA
ATOM      6  C   UNL     1      17.224 -12.770   1.400  1.00  0.00     0.142 A 
ATOM      7  C   UNL     1      16.992 -12.026   2.561  1.00  0.00     0.098 A 
ATOM      8  C   UNL     1      16.141 -12.522   3.560  1.00  0.00     0.161 A 
ATOM      9  C   UNL     1      15.519 -13.768   3.396  1.00  0.00     0.158 A 
ATOM     10  C   UNL     1      15.747 -14.519   2.234  1.00  0.00     0.062 A 
ATOM     11  C   UNL     1      16.597 -14.025   1.235  1.00  0.00     0.022 A 
ENDROOT
BRANCH   9  12
ATOM     12  O   UNL     1      14.675 -14.253   4.394  1.00  0.00    -0.504 OA
ATOM     13  H   UNL     1      14.165 -15.122   4.281  1.00  0.00     0.293 HD
ENDBRANCH   9  12
BRANCH   8  14
ATOM     14  O   UNL     1      15.909 -11.782   4.718  1.00  0.00    -0.504 OA
ATOM     15  H   UNL     1      16.667 -11.495   5.326  1.00  0.00     0.293 HD
ENDBRANCH   8  14
TORSDOF 2
ENDMDL
MODEL 4
REMARK VINA RESULT:    -5.067      1.109      4.566
REMARK INTER + INTRA:          -5.363
REMARK INTER:                  -5.363
REMARK INTRA:                   0.000
REMARK UNBOUND:                 0.000
REMARK SMILES O=c1ccc2cc(O)c(O)cc2o1
REMARK SMILES IDX 4 1 3 2 2 3 1 4 13 5 12 6 11 7 9 8 7 9 6 10 5 11 8 12 10 14
REMARK H PARENT 8 13 10 15
REMARK Flexibility Score: inf
ROOT
ATOM      1  C   UNL     1      17.565 -11.516   1.273  1.00  0.00     0.019 A 
ATOM      2  C   UNL     1      18.135 -11.769   0.026  1.00  0.00     0.094 A 
ATOM      3  C   UNL     1      18.044 -13.057  -0.512  1.00  0.00     0.336 A 
ATOM      4  O   UNL     1      18.552 -13.306  -1.636  1.00  0.00    -0.246 OA
ATOM      5  O   UNL     1      17.422 -14.024   0.158  1.00  0.00    -0.423 OA
ATOM      6  C   UNL     1      16.864 -13.825   1.350  1.00  0.00     0.142 A 
ATOM      7  C   UNL     1      16.224 -14.880   2.008  1.00  0.00     0.098 A 
ATOM      8  C   UNL     1      15.634 -14.675   3.264  1.00  0.00     0.161 A 
ATOM      9  C   UNL     1      15.688 -13.409   3.865  1.00  0.00     0.158 A 
ATOM     10  C   UNL     1      16.329 -12.347   3.211  1.00  0.00     0.062 A 
ATOM     11  C   UNL     1      16.917 -12.550   1.955  1.00  0.00     0.022 A 
ENDROOT
BRANCH   9  12
ATOM     12  O   UNL     1      15.100 -13.214   5.115  1.00  0.00    -0.504 OA
ATOM     13  H   UNL     1      14.571 -12.376   5.326  1.00  0.00     0.293 HD
ENDBRANCH   9  12
BRANCH   8  14
ATOM     14  O   UNL     1      14.996 -15.725   3.922  1.00  0.00    -0.504 OA
ATOM     15  H   UNL     1      14.224 -16.226   3.496  1.00  0.00     0.293 HD
ENDBRANCH   8  14
TORSDOF 2
ENDMDL
MODEL 5
REMARK VINA RESULT:    -4.999      1.870      2.517
REMARK INTER + INTRA:          -5.291
REMARK INTER:                  -5.291
REMARK INTRA:                   0.000
REMARK UNBOUND:                 0.000
REMARK SMILES O=c1ccc2cc(O)c(O)cc2o1
REMARK SMILES IDX 4 1 3 2 2 3 1 4 13 5 12 6 11 7 9 8 7 9 6 10 5 11 8 12 10 14
REMARK H PARENT 8 13 10 15
REMARK Flexibility Score: inf
ROOT
ATOM      1  C   UNL     1      18.199 -11.873   2.047  1.00  0.00     0.019 A 
ATOM      2  C   UNL     1      17.774 -11.587   3.344  1.00  0.00     0.094 A 
ATOM      3  C   UNL     1      16.681 -12.287   3.868  1.00  0.00     0.336 A 
ATOM      4  O   UNL     1      16.283 -12.044   5.037  1.00  0.00    -0.246 OA
ATOM      5  O   UNL     1      16.059 -13.210   3.139  1.00  0.00    -0.423 OA
ATOM      6  C   UNL     1      16.432 -13.513   1.899  1.00  0.00     0.142 A 
ATOM      7  C   UNL     1      15.741 -14.492   1.179  1.00  0.00     0.098 A 
ATOM      8  C   UNL     1      16.130 -14.815  -0.129  1.00  0.00     0.161 A 
ATOM      9  C   UNL     1      17.216 -14.154  -0.721  1.00  0.00     0.158 A 
ATOM     10  C   UNL     1      17.914 -13.171  -0.005  1.00  0.00     0.062 A 
ATOM     11  C   UNL     1      17.527 -12.848   1.303  1.00  0.00     0.022 A 
ENDROOT
BRANCH   9  12
ATOM     12  O   UNL     1      17.597 -14.481  -2.022  1.00  0.00    -0.504 OA
ATOM     13  H   UNL     1      17.173 -15.256  -2.519  1.00  0.00     0.293 HD
ENDBRANCH   9  12
BRANCH   8  14
ATOM     14  O   UNL     1      15.442 -15.791  -0.848  1.00  0.00    -0.504 OA
ATOM     15  H   UNL     1      14.544 -16.145  -0.537  1.00  0.00     0.293 HD
ENDBRANCH   8  14
TORSDOF 2
ENDMDL
MODEL 6
REMARK VINA RESULT:    -4.890      8.832     10.133
REMARK INTER + INTRA:          -5.176
REMARK INTER:                  -5.176
REMARK INTRA:                   0.000
REMARK UNBOUND:                 0.000
REMARK SMILES O=c1ccc2cc(O)c(O)cc2o1
REMARK SMILES IDX 4 1 3 2 2 3 1 4 13 5 12 6 11 7 9 8 7 9 6 10 5 11 8 12 10 14
REMARK H PARENT 8 13 10 15
REMARK Flexibility Score: inf
ROOT
ATOM      1  C   UNL     1      23.076 -19.731   7.129  1.00  0.00     0.019 A 
ATOM      2  C   UNL     1      24.448 -19.655   7.365  1.00  0.00     0.094 A 
ATOM      3  C   UNL     1      25.004 -18.429   7.748  1.00  0.00     0.336 A 
ATOM      4  O   UNL     1      26.240 -18.340   7.967  1.00  0.00    -0.246 OA
ATOM      5  O   UNL     1      24.232 -17.353   7.885  1.00  0.00    -0.423 OA
ATOM      6  C   UNL     1      22.920 -17.382   7.670  1.00  0.00     0.142 A 
ATOM      7  C   UNL     1      22.159 -16.220   7.829  1.00  0.00     0.098 A 
ATOM      8  C   UNL     1      20.774 -16.245   7.603  1.00  0.00     0.161 A 
ATOM      9  C   UNL     1      20.149 -17.439   7.215  1.00  0.00     0.158 A 
ATOM     10  C   UNL     1      20.906 -18.608   7.054  1.00  0.00     0.062 A 
ATOM     11  C   UNL     1      22.289 -18.585   7.280  1.00  0.00     0.022 A 
ENDROOT
BRANCH   9  12
ATOM     12  O   UNL     1      18.772 -17.455   6.993  1.00  0.00    -0.504 OA
ATOM     13  H   UNL     1      18.132 -16.956   7.598  1.00  0.00     0.293 HD
ENDBRANCH   9  12
BRANCH   8  14
ATOM     14  O   UNL     1      20.014 -15.087   7.760  1.00  0.00    -0.504 OA
ATOM     15  H   UNL     1      19.084 -15.114   8.161  1.00  0.00     0.293 HD
ENDBRANCH   8  14
TORSDOF 2
ENDMDL
MODEL 7
REMARK VINA RESULT:    -4.658      2.135      2.776
REMARK INTER + INTRA:          -4.930
REMARK INTER:                  -4.930
REMARK INTRA:                   0.000
REMARK UNBOUND:                 0.000
REMARK SMILES O=c1ccc2cc(O)c(O)cc2o1
REMARK SMILES IDX 4 1 3 2 2 3 1 4 13 5 12 6 11 7 9 8 7 9 6 10 5 11 8 12 10 14
REMARK H PARENT 8 13 10 15
REMARK Flexibility Score: inf
ROOT
ATOM      1  C   UNL     1      16.612 -13.416   1.702  1.00  0.00     0.019 A 
ATOM      2  C   UNL     1      15.859 -14.465   1.177  1.00  0.00     0.094 A 
ATOM      3  C   UNL     1      16.090 -14.872  -0.141  1.00  0.00     0.336 A 
ATOM      4  O   UNL     1      15.420 -15.818  -0.633  1.00  0.00    -0.246 OA
ATOM      5  O   UNL     1      17.015 -14.267  -0.881  1.00  0.00    -0.423 OA
ATOM      6  C   UNL     1      17.756 -13.262  -0.420  1.00  0.00     0.142 A 
ATOM      7  C   UNL     1      18.714 -12.663  -1.243  1.00  0.00     0.098 A 
ATOM      8  C   UNL     1      19.497 -11.604  -0.761  1.00  0.00     0.161 A 
ATOM      9  C   UNL     1      19.320 -11.141   0.551  1.00  0.00     0.158 A 
ATOM     10  C   UNL     1      18.361 -11.738   1.382  1.00  0.00     0.062 A 
ATOM     11  C   UNL     1      17.578 -12.797   0.902  1.00  0.00     0.022 A 
ENDROOT
BRANCH   9  12
ATOM     12  O   UNL     1      20.103 -10.088   1.022  1.00  0.00    -0.504 OA
ATOM     13  H   UNL     1      19.685  -9.247   1.403  1.00  0.00     0.293 HD
ENDBRANCH   9  12
BRANCH   8  14
ATOM     14  O   UNL     1      20.452 -11.005  -1.581  1.00  0.00    -0.504 OA
ATOM     15  H   UNL     1      21.441 -11.194  -1.468  1.00  0.00     0.293 HD
ENDBRANCH   8  14
TORSDOF 2
ENDMDL
MODEL 8
REMARK VINA RESULT:    -4.551      2.083      4.303
REMARK INTER + INTRA:          -4.817
REMARK INTER:                  -4.817
REMARK INTRA:                   0.000
REMARK UNBOUND:                 0.000
REMARK SMILES O=c1ccc2cc(O)c(O)cc2o1
REMARK SMILES IDX 4 1 3 2 2 3 1 4 13 5 12 6 11 7 9 8 7 9 6 10 5 11 8 12 10 14
REMARK H PARENT 8 13 10 15
REMARK Flexibility Score: inf
ROOT
ATOM      1  C   UNL     1      17.919 -13.127   0.286  1.00  0.00     0.019 A 
ATOM      2  C   UNL     1      17.490 -14.049  -0.668  1.00  0.00     0.094 A 
ATOM      3  C   UNL     1      16.355 -14.823  -0.400  1.00  0.00     0.336 A 
ATOM      4  O   UNL     1      15.951 -15.661  -1.248  1.00  0.00    -0.246 OA
ATOM      5  O   UNL     1      15.698 -14.680   0.748  1.00  0.00    -0.423 OA
ATOM      6  C   UNL     1      16.073 -13.813   1.685  1.00  0.00     0.142 A 
ATOM      7  C   UNL     1      15.343 -13.706   2.873  1.00  0.00     0.098 A 
ATOM      8  C   UNL     1      15.735 -12.793   3.863  1.00  0.00     0.161 A 
ATOM      9  C   UNL     1      16.863 -11.984   3.664  1.00  0.00     0.158 A 
ATOM     10  C   UNL     1      17.600 -12.087   2.475  1.00  0.00     0.062 A 
ATOM     11  C   UNL     1      17.209 -12.998   1.484  1.00  0.00     0.022 A 
ENDROOT
BRANCH   9  12
ATOM     12  O   UNL     1      17.246 -11.080   4.654  1.00  0.00    -0.504 OA
ATOM     13  H   UNL     1      17.027 -11.239   5.630  1.00  0.00     0.293 HD
ENDBRANCH   9  12
BRANCH   8  14
ATOM     14  O   UNL     1      15.009 -12.686   5.048  1.00  0.00    -0.504 OA
ATOM     15  H   UNL     1      14.041 -12.981   5.106  1.00  0.00     0.293 HD
ENDBRANCH   8  14
TORSDOF 2
ENDMDL
MODEL 9
REMARK VINA RESULT:    -4.530      1.850      3.226
REMARK INTER + INTRA:          -4.794
REMARK INTER:                  -4.794
REMARK INTRA:                   0.000
REMARK UNBOUND:                 0.000
REMARK SMILES O=c1ccc2cc(O)c(O)cc2o1
REMARK SMILES IDX 4 1 3 2 2 3 1 4 13 5 12 6 11 7 9 8 7 9 6 10 5 11 8 12 10 14
REMARK H PARENT 8 13 10 15
REMARK Flexibility Score: inf
ROOT
ATOM      1  C   UNL     1      18.002 -14.017  -0.337  1.00  0.00     0.019 A 
ATOM      2  C   UNL     1      17.243 -14.836   0.498  1.00  0.00     0.094 A 
ATOM      3  C   UNL     1      16.530 -14.255   1.552  1.00  0.00     0.336 A 
ATOM      4  O   UNL     1      15.838 -14.977   2.316  1.00  0.00    -0.246 OA
ATOM      5  O   UNL     1      16.577 -12.940   1.753  1.00  0.00    -0.423 OA
ATOM      6  C   UNL     1      17.288 -12.123   0.981  1.00  0.00     0.142 A 
ATOM      7  C   UNL     1      17.300 -10.749   1.240  1.00  0.00     0.098 A 
ATOM      8  C   UNL     1      18.048  -9.883   0.428  1.00  0.00     0.161 A 
ATOM      9  C   UNL     1      18.789 -10.396  -0.647  1.00  0.00     0.158 A 
ATOM     10  C   UNL     1      18.781 -11.772  -0.913  1.00  0.00     0.062 A 
ATOM     11  C   UNL     1      18.033 -12.638  -0.103  1.00  0.00     0.022 A 
ENDROOT
BRANCH   9  12
ATOM     12  O   UNL     1      19.530  -9.528  -1.449  1.00  0.00    -0.504 OA
ATOM     13  H   UNL     1      19.478  -8.523  -1.331  1.00  0.00     0.293 HD
ENDBRANCH   9  12
BRANCH   8  14
ATOM     14  O   UNL     1      18.062  -8.514   0.685  1.00  0.00    -0.504 OA
ATOM     15  H   UNL     1      17.806  -7.838  -0.026  1.00  0.00     0.293 HD
ENDBRANCH   8  14
TORSDOF 2
ENDMDL
