MODEL 1
REMARK VINA RESULT:    -6.040      0.000      0.000
REMARK INTER + INTRA:          -9.197
REMARK INTER:                  -8.865
REMARK INTRA:                  -0.332
REMARK UNBOUND:                -0.332
REMARK SMILES O=C([O-])CCCCCCCC(=O)[O-]
REMARK SMILES IDX 7 1 6 2 5 3 4 4 2 5 1 6 3 7 8 8 9 9 10 10 11 11 12 12 13 13
REMARK H PARENT
REMARK Flexibility Score: inf
ROOT
ATOM      1  C   UNL     1      -8.374  -5.158 -19.404  1.00  0.00     0.000 C 
ENDROOT
BRANCH   1   2
ATOM      2  C   UNL     1      -9.024  -6.508 -19.743  1.00  0.00     0.000 C 
BRANCH   2   3
ATOM      3  C   UNL     1      -7.960  -7.581 -20.001  1.00  0.00     0.006 C 
BRANCH   3   4
ATOM      4  C   UNL     1      -8.466  -8.968 -19.591  1.00  0.00     0.053 C 
BRANCH   4   5
ATOM      5  C   UNL     1      -8.089  -9.987 -20.617  1.00  0.00     0.041 C 
ATOM      6  O   UNL     1      -7.590 -11.089 -20.264  1.00  0.00    -0.550 OA
ATOM      7  O   UNL     1      -8.332  -9.742 -21.964  1.00  0.00    -0.550 OA
ENDBRANCH   4   5
ENDBRANCH   3   4
ENDBRANCH   2   3
ENDBRANCH   1   2
BRANCH   1   8
ATOM      8  C   UNL     1      -7.038  -4.944 -20.134  1.00  0.00     0.000 C 
BRANCH   8   9
ATOM      9  C   UNL     1      -7.089  -3.774 -21.130  1.00  0.00     0.006 C 
BRANCH   9  10
ATOM     10  C   UNL     1      -7.351  -2.450 -20.404  1.00  0.00     0.053 C 
BRANCH  10  11
ATOM     11  C   UNL     1      -6.068  -1.861 -19.911  1.00  0.00     0.041 C 
ATOM     12  O   UNL     1      -4.980  -2.149 -20.475  1.00  0.00    -0.550 OA
ATOM     13  O   UNL     1      -6.079  -0.955 -18.858  1.00  0.00    -0.550 OA
ENDBRANCH  10  11
ENDBRANCH   9  10
ENDBRANCH   8   9
ENDBRANCH   1   8
TORSDOF 8
ENDMDL
MODEL 2
REMARK VINA RESULT:    -6.013      0.405      6.868
REMARK INTER + INTRA:          -9.157
REMARK INTER:                  -8.833
REMARK INTRA:                  -0.324
REMARK UNBOUND:                -0.332
REMARK SMILES O=C([O-])CCCCCCCC(=O)[O-]
REMARK SMILES IDX 7 1 6 2 5 3 4 4 2 5 1 6 3 7 8 8 9 9 10 10 11 11 12 12 13 13
REMARK H PARENT
REMARK Flexibility Score: inf
ROOT
ATOM      1  C   UNL     1      -8.254  -5.226 -18.893  1.00  0.00     0.000 C 
ENDROOT
BRANCH   1   2
ATOM      2  C   UNL     1      -6.995  -4.659 -19.566  1.00  0.00     0.000 C 
BRANCH   2   3
ATOM      3  C   UNL     1      -7.339  -3.996 -20.905  1.00  0.00     0.006 C 
BRANCH   3   4
ATOM      4  C   UNL     1      -7.204  -2.473 -20.815  1.00  0.00     0.053 C 
BRANCH   4   5
ATOM      5  C   UNL     1      -5.848  -2.096 -20.312  1.00  0.00     0.041 C 
ATOM      6  O   UNL     1      -4.820  -2.379 -20.983  1.00  0.00    -0.550 OA
ATOM      7  O   UNL     1      -5.720  -1.387 -19.123  1.00  0.00    -0.550 OA
ENDBRANCH   4   5
ENDBRANCH   3   4
ENDBRANCH   2   3
ENDBRANCH   1   2
BRANCH   1   8
ATOM      8  C   UNL     1      -8.895  -6.367 -19.699  1.00  0.00     0.000 C 
BRANCH   8   9
ATOM      9  C   UNL     1      -7.904  -7.497 -20.016  1.00  0.00     0.006 C 
BRANCH   9  10
ATOM     10  C   UNL     1      -8.481  -8.858 -19.614  1.00  0.00     0.053 C 
BRANCH  10  11
ATOM     11  C   UNL     1      -8.076  -9.910 -20.598  1.00  0.00     0.041 C 
ATOM     12  O   UNL     1      -7.496 -10.955 -20.206  1.00  0.00    -0.550 OA
ATOM     13  O   UNL     1      -8.384  -9.756 -21.945  1.00  0.00    -0.550 OA
ENDBRANCH  10  11
ENDBRANCH   9  10
ENDBRANCH   8   9
ENDBRANCH   1   8
TORSDOF 8
ENDMDL
MODEL 3
REMARK VINA RESULT:    -6.007      1.344      7.087
REMARK INTER + INTRA:          -9.149
REMARK INTER:                  -8.827
REMARK INTRA:                  -0.321
REMARK UNBOUND:                -0.332
REMARK SMILES O=C([O-])CCCCCCCC(=O)[O-]
REMARK SMILES IDX 7 1 6 2 5 3 4 4 2 5 1 6 3 7 8 8 9 9 10 10 11 11 12 12 13 13
REMARK H PARENT
REMARK Flexibility Score: inf
ROOT
ATOM      1  C   UNL     1      -6.996  -3.954 -21.105  1.00  0.00     0.000 C 
ENDROOT
BRANCH   1   2
ATOM      2  C   UNL     1      -7.229  -2.437 -21.042  1.00  0.00     0.000 C 
BRANCH   2   3
ATOM      3  C   UNL     1      -7.566  -1.991 -19.614  1.00  0.00     0.006 C 
BRANCH   3   4
ATOM      4  C   UNL     1      -6.837  -0.692 -19.257  1.00  0.00     0.053 C 
BRANCH   4   5
ATOM      5  C   UNL     1      -5.411  -0.972 -18.906  1.00  0.00     0.041 C 
ATOM      6  O   UNL     1      -4.559  -0.043 -18.919  1.00  0.00    -0.550 OA
ATOM      7  O   UNL     1      -5.029  -2.250 -18.515  1.00  0.00    -0.550 OA
ENDBRANCH   4   5
ENDBRANCH   3   4
ENDBRANCH   2   3
ENDBRANCH   1   2
BRANCH   1   8
ATOM      8  C   UNL     1      -7.632  -4.701 -19.922  1.00  0.00     0.000 C 
BRANCH   8   9
ATOM      9  C   UNL     1      -7.361  -6.213 -19.962  1.00  0.00     0.006 C 
BRANCH   9  10
ATOM     10  C   UNL     1      -8.666  -7.006 -19.832  1.00  0.00     0.053 C 
BRANCH  10  11
ATOM     11  C   UNL     1      -8.385  -8.475 -19.813  1.00  0.00     0.041 C 
ATOM     12  O   UNL     1      -8.608  -9.150 -18.774  1.00  0.00    -0.550 OA
ATOM     13  O   UNL     1      -7.924  -9.109 -20.960  1.00  0.00    -0.550 OA
ENDBRANCH  10  11
ENDBRANCH   9  10
ENDBRANCH   8   9
ENDBRANCH   1   8
TORSDOF 8
ENDMDL
MODEL 4
REMARK VINA RESULT:    -5.969      1.222      1.729
REMARK INTER + INTRA:          -9.094
REMARK INTER:                  -8.764
REMARK INTRA:                  -0.330
REMARK UNBOUND:                -0.332
REMARK SMILES O=C([O-])CCCCCCCC(=O)[O-]
REMARK SMILES IDX 7 1 6 2 5 3 4 4 2 5 1 6 3 7 8 8 9 9 10 10 11 11 12 12 13 13
REMARK H PARENT
REMARK Flexibility Score: inf
ROOT
ATOM      1  C   UNL     1      -7.811  -4.177 -19.834  1.00  0.00     0.000 C 
ENDROOT
BRANCH   1   2
ATOM      2  C   UNL     1      -7.217  -5.592 -19.774  1.00  0.00     0.000 C 
BRANCH   2   3
ATOM      3  C   UNL     1      -8.249  -6.599 -19.252  1.00  0.00     0.006 C 
BRANCH   3   4
ATOM      4  C   UNL     1      -8.644  -7.598 -20.344  1.00  0.00     0.053 C 
BRANCH   4   5
ATOM      5  C   UNL     1      -8.300  -8.992 -19.927  1.00  0.00     0.041 C 
ATOM      6  O   UNL     1      -8.672  -9.429 -18.805  1.00  0.00    -0.550 OA
ATOM      7  O   UNL     1      -7.611  -9.828 -20.797  1.00  0.00    -0.550 OA
ENDBRANCH   4   5
ENDBRANCH   3   4
ENDBRANCH   2   3
ENDBRANCH   1   2
BRANCH   1   8
ATOM      8  C   UNL     1      -7.442  -3.433 -21.128  1.00  0.00     0.000 C 
BRANCH   8   9
ATOM      9  C   UNL     1      -7.169  -1.939 -20.894  1.00  0.00     0.006 C 
BRANCH   9  10
ATOM     10  C   UNL     1      -7.055  -1.632 -19.397  1.00  0.00     0.053 C 
BRANCH  10  11
ATOM     11  C   UNL     1      -5.625  -1.424 -19.013  1.00  0.00     0.041 C 
ATOM     12  O   UNL     1      -5.145  -0.261 -18.957  1.00  0.00    -0.550 OA
ATOM     13  O   UNL     1      -4.833  -2.513 -18.668  1.00  0.00    -0.550 OA
ENDBRANCH  10  11
ENDBRANCH   9  10
ENDBRANCH   8   9
ENDBRANCH   1   8
TORSDOF 8
ENDMDL
MODEL 5
REMARK VINA RESULT:    -5.927      2.466      3.720
REMARK INTER + INTRA:          -9.031
REMARK INTER:                  -8.584
REMARK INTRA:                  -0.447
REMARK UNBOUND:                -0.332
REMARK SMILES O=C([O-])CCCCCCCC(=O)[O-]
REMARK SMILES IDX 7 1 6 2 5 3 4 4 2 5 1 6 3 7 8 8 9 9 10 10 11 11 12 12 13 13
REMARK H PARENT
REMARK Flexibility Score: inf
ROOT
ATOM      1  C   UNL     1      -7.166  -2.108 -20.988  1.00  0.00     0.000 C 
ENDROOT
BRANCH   1   2
ATOM      2  C   UNL     1      -7.066  -3.617 -21.260  1.00  0.00     0.000 C 
BRANCH   2   3
ATOM      3  C   UNL     1      -6.785  -4.391 -19.966  1.00  0.00     0.006 C 
BRANCH   3   4
ATOM      4  C   UNL     1      -7.106  -5.879 -20.135  1.00  0.00     0.053 C 
BRANCH   4   5
ATOM      5  C   UNL     1      -8.509  -6.163 -19.702  1.00  0.00     0.041 C 
ATOM      6  O   UNL     1      -9.018  -7.298 -19.905  1.00  0.00    -0.550 OA
ATOM      7  O   UNL     1      -9.240  -5.191 -19.029  1.00  0.00    -0.550 OA
ENDBRANCH   4   5
ENDBRANCH   3   4
ENDBRANCH   2   3
ENDBRANCH   1   2
BRANCH   1   8
ATOM      8  C   UNL     1      -7.338  -1.785 -19.495  1.00  0.00     0.000 C 
BRANCH   8   9
ATOM      9  C   UNL     1      -6.405  -0.660 -19.021  1.00  0.00     0.006 C 
BRANCH   9  10
ATOM     10  C   UNL     1      -4.992  -1.193 -18.763  1.00  0.00     0.053 C 
BRANCH  10  11
ATOM     11  C   UNL     1      -4.161  -0.158 -18.073  1.00  0.00     0.041 C 
ATOM     12  O   UNL     1      -3.346   0.541 -18.730  1.00  0.00    -0.550 OA
ATOM     13  O   UNL     1      -4.321   0.067 -16.712  1.00  0.00    -0.550 OA
ENDBRANCH  10  11
ENDBRANCH   9  10
ENDBRANCH   8   9
ENDBRANCH   1   8
TORSDOF 8
ENDMDL
MODEL 6
REMARK VINA RESULT:    -5.898      2.264      7.303
REMARK INTER + INTRA:          -8.989
REMARK INTER:                  -8.577
REMARK INTRA:                  -0.411
REMARK UNBOUND:                -0.332
REMARK SMILES O=C([O-])CCCCCCCC(=O)[O-]
REMARK SMILES IDX 7 1 6 2 5 3 4 4 2 5 1 6 3 7 8 8 9 9 10 10 11 11 12 12 13 13
REMARK H PARENT
REMARK Flexibility Score: inf
ROOT
ATOM      1  C   UNL     1      -7.274  -2.050 -20.923  1.00  0.00     0.000 C 
ENDROOT
BRANCH   1   2
ATOM      2  C   UNL     1      -7.487  -1.685 -19.446  1.00  0.00     0.000 C 
BRANCH   2   3
ATOM      3  C   UNL     1      -6.488  -0.612 -18.996  1.00  0.00     0.006 C 
BRANCH   3   4
ATOM      4  C   UNL     1      -5.066  -1.177 -18.930  1.00  0.00     0.053 C 
BRANCH   4   5
ATOM      5  C   UNL     1      -4.165  -0.243 -18.188  1.00  0.00     0.041 C 
ATOM      6  O   UNL     1      -4.387   0.025 -16.977  1.00  0.00    -0.550 OA
ATOM      7  O   UNL     1      -3.050   0.296 -18.819  1.00  0.00    -0.550 OA
ENDBRANCH   4   5
ENDBRANCH   3   4
ENDBRANCH   2   3
ENDBRANCH   1   2
BRANCH   1   8
ATOM      8  C   UNL     1      -7.203  -3.568 -21.155  1.00  0.00     0.000 C 
BRANCH   8   9
ATOM      9  C   UNL     1      -7.072  -4.361 -19.845  1.00  0.00     0.006 C 
BRANCH   9  10
ATOM     10  C   UNL     1      -6.956  -5.863 -20.125  1.00  0.00     0.053 C 
BRANCH  10  11
ATOM     11  C   UNL     1      -8.220  -6.565 -19.742  1.00  0.00     0.041 C 
ATOM     12  O   UNL     1      -9.323  -5.961 -19.793  1.00  0.00    -0.550 OA
ATOM     13  O   UNL     1      -8.186  -7.905 -19.374  1.00  0.00    -0.550 OA
ENDBRANCH  10  11
ENDBRANCH   9  10
ENDBRANCH   8   9
ENDBRANCH   1   8
TORSDOF 8
ENDMDL
MODEL 7
REMARK VINA RESULT:    -5.844      2.893      7.624
REMARK INTER + INTRA:          -8.909
REMARK INTER:                  -8.405
REMARK INTRA:                  -0.504
REMARK UNBOUND:                -0.332
REMARK SMILES O=C([O-])CCCCCCCC(=O)[O-]
REMARK SMILES IDX 7 1 6 2 5 3 4 4 2 5 1 6 3 7 8 8 9 9 10 10 11 11 12 12 13 13
REMARK H PARENT
REMARK Flexibility Score: inf
ROOT
ATOM      1  C   UNL     1      -7.390  -1.733 -19.494  1.00  0.00     0.000 C 
ENDROOT
BRANCH   1   2
ATOM      2  C   UNL     1      -6.321  -0.722 -19.052  1.00  0.00     0.000 C 
BRANCH   2   3
ATOM      3  C   UNL     1      -5.020  -1.435 -18.663  1.00  0.00     0.006 C 
BRANCH   3   4
ATOM      4  C   UNL     1      -3.798  -0.580 -19.015  1.00  0.00     0.053 C 
BRANCH   4   5
ATOM      5  C   UNL     1      -3.588   0.482 -17.984  1.00  0.00     0.041 C 
ATOM      6  O   UNL     1      -3.845   0.251 -16.772  1.00  0.00    -0.550 OA
ATOM      7  O   UNL     1      -3.060   1.714 -18.352  1.00  0.00    -0.550 OA
ENDBRANCH   4   5
ENDBRANCH   3   4
ENDBRANCH   2   3
ENDBRANCH   1   2
BRANCH   1   8
ATOM      8  C   UNL     1      -7.173  -2.237 -20.930  1.00  0.00     0.000 C 
BRANCH   8   9
ATOM      9  C   UNL     1      -7.217  -3.769 -21.032  1.00  0.00     0.006 C 
BRANCH   9  10
ATOM     10  C   UNL     1      -7.084  -4.413 -19.649  1.00  0.00     0.053 C 
BRANCH  10  11
ATOM     11  C   UNL     1      -8.152  -5.441 -19.445  1.00  0.00     0.041 C 
ATOM     12  O   UNL     1      -9.285  -5.103 -19.015  1.00  0.00    -0.550 OA
ATOM     13  O   UNL     1      -7.910  -6.769 -19.778  1.00  0.00    -0.550 OA
ENDBRANCH  10  11
ENDBRANCH   9  10
ENDBRANCH   8   9
ENDBRANCH   1   8
TORSDOF 8
ENDMDL
MODEL 8
REMARK VINA RESULT:    -5.717      1.579      2.101
REMARK INTER + INTRA:          -8.723
REMARK INTER:                  -8.429
REMARK INTRA:                  -0.295
REMARK UNBOUND:                -0.332
REMARK SMILES O=C([O-])CCCCCCCC(=O)[O-]
REMARK SMILES IDX 7 1 6 2 5 3 4 4 2 5 1 6 3 7 8 8 9 9 10 10 11 11 12 12 13 13
REMARK H PARENT
REMARK Flexibility Score: inf
ROOT
ATOM      1  C   UNL     1      -7.152  -4.469 -18.536  1.00  0.00     0.000 C 
ENDROOT
BRANCH   1   2
ATOM      2  C   UNL     1      -7.314  -5.491 -19.672  1.00  0.00     0.000 C 
BRANCH   2   3
ATOM      3  C   UNL     1      -8.294  -6.602 -19.275  1.00  0.00     0.006 C 
BRANCH   3   4
ATOM      4  C   UNL     1      -8.500  -7.590 -20.427  1.00  0.00     0.053 C 
BRANCH   4   5
ATOM      5  C   UNL     1      -8.279  -8.993 -19.959  1.00  0.00     0.041 C 
ATOM      6  O   UNL     1      -8.688  -9.355 -18.824  1.00  0.00    -0.550 OA
ATOM      7  O   UNL     1      -7.665  -9.917 -20.797  1.00  0.00    -0.550 OA
ENDBRANCH   4   5
ENDBRANCH   3   4
ENDBRANCH   2   3
ENDBRANCH   1   2
BRANCH   1   8
ATOM      8  C   UNL     1      -5.725  -3.907 -18.443  1.00  0.00     0.000 C 
BRANCH   8   9
ATOM      9  C   UNL     1      -5.337  -3.070 -19.673  1.00  0.00     0.006 C 
BRANCH   9  10
ATOM     10  C   UNL     1      -5.679  -1.592 -19.458  1.00  0.00     0.053 C 
BRANCH  10  11
ATOM     11  C   UNL     1      -7.036  -1.284 -20.007  1.00  0.00     0.041 C 
ATOM     12  O   UNL     1      -7.734  -0.369 -19.497  1.00  0.00    -0.550 OA
ATOM     13  O   UNL     1      -7.509  -1.975 -21.116  1.00  0.00    -0.550 OA
ENDBRANCH  10  11
ENDBRANCH   9  10
ENDBRANCH   8   9
ENDBRANCH   1   8
TORSDOF 8
ENDMDL
MODEL 9
REMARK VINA RESULT:    -5.678      2.998      4.381
REMARK INTER + INTRA:          -8.666
REMARK INTER:                  -8.287
REMARK INTRA:                  -0.379
REMARK UNBOUND:                -0.332
REMARK SMILES O=C([O-])CCCCCCCC(=O)[O-]
REMARK SMILES IDX 7 1 6 2 5 3 4 4 2 5 1 6 3 7 8 8 9 9 10 10 11 11 12 12 13 13
REMARK H PARENT
REMARK Flexibility Score: inf
ROOT
ATOM      1  C   UNL     1      -5.486  -3.411 -18.628  1.00  0.00     0.000 C 
ENDROOT
BRANCH   1   2
ATOM      2  C   UNL     1      -6.716  -2.815 -19.329  1.00  0.00     0.000 C 
BRANCH   2   3
ATOM      3  C   UNL     1      -7.212  -3.738 -20.448  1.00  0.00     0.006 C 
BRANCH   3   4
ATOM      4  C   UNL     1      -7.002  -5.210 -20.079  1.00  0.00     0.053 C 
BRANCH   4   5
ATOM      5  C   UNL     1      -8.302  -5.845 -19.701  1.00  0.00     0.041 C 
ATOM      6  O   UNL     1      -8.523  -7.054 -19.982  1.00  0.00    -0.550 OA
ATOM      7  O   UNL     1      -9.252  -5.118 -18.994  1.00  0.00    -0.550 OA
ENDBRANCH   4   5
ENDBRANCH   3   4
ENDBRANCH   2   3
ENDBRANCH   1   2
BRANCH   1   8
ATOM      8  C   UNL     1      -4.233  -2.533 -18.779  1.00  0.00     0.000 C 
BRANCH   8   9
ATOM      9  C   UNL     1      -4.571  -1.045 -18.957  1.00  0.00     0.006 C 
BRANCH   9  10
ATOM     10  C   UNL     1      -3.333  -0.172 -18.727  1.00  0.00     0.053 C 
BRANCH  10  11
ATOM     11  C   UNL     1      -3.446   0.564 -17.430  1.00  0.00     0.041 C 
ATOM     12  O   UNL     1      -4.247   0.168 -16.543  1.00  0.00    -0.550 OA
ATOM     13  O   UNL     1      -2.631   1.661 -17.181  1.00  0.00    -0.550 OA
ENDBRANCH  10  11
ENDBRANCH   9  10
ENDBRANCH   8   9
ENDBRANCH   1   8
TORSDOF 8
ENDMDL
