MODEL 1
REMARK VINA RESULT:    -3.860      0.000      0.000
REMARK INTER + INTRA:          -5.478
REMARK INTER:                  -5.439
REMARK INTRA:                  -0.039
REMARK UNBOUND:                -0.039
REMARK SMILES CC1=CCC(=C(C)C)C(=O)CC(C)=CCC1
REMARK SMILES IDX 12 1 14 2 13 3 15 4 16 5 2 6 1 7 3 8 11 10 9 11 10 12 5 13
REMARK SMILES IDX 6 14 7 15 8 16 4 17
REMARK H PARENT
REMARK Flexibility Score: 60.00
ROOT
ATOM      1  C   UNL     1     -62.213 -76.544 221.040  1.00  0.00    -0.070 C 
ATOM      2  C   UNL     1     -61.871 -76.610 219.733  1.00  0.00    -0.027 C 
ATOM      3  C   UNL     1     -63.580 -76.012 221.389  1.00  0.00     0.039 C 
ENDROOT
BRANCH   2   4
ATOM      4  C   UNL     1     -60.502 -76.975 219.216  1.00  0.00     0.032 C 
BRANCH   4   5
ATOM      5  C   UNL     1     -60.370 -78.500 219.130  1.00  0.00     0.034 C 
BRANCH   5   6
ATOM      6  C   UNL     1     -59.049 -78.998 219.681  1.00  0.00    -0.077 C 
ATOM      7  C   UNL     1     -57.776 -78.601 218.977  1.00  0.00     0.039 C 
ATOM      8  C   UNL     1     -58.938 -79.726 220.821  1.00  0.00    -0.023 CG0
ATOM      9  G   UNL     1     -60.065 -80.292 221.667  1.00  0.00     0.000 G0
ENDBRANCH   5   6
ENDBRANCH   4   5
ENDBRANCH   2   4
BRANCH   1  10
ATOM     10  C   UNL     1     -61.302 -76.994 222.165  1.00  0.00     0.111 C 
BRANCH  10  11
ATOM     11  C   UNL     1     -61.587 -78.415 222.586  1.00  0.00     0.163 C 
ATOM     12  O   UNL     1     -62.799 -78.748 222.695  1.00  0.00    -0.294 OA
BRANCH  11  13
ATOM     13  C   UNL     1     -60.521 -79.437 222.852  1.00  0.00    -0.002 C 
ATOM     14  C   UNL     1     -60.111 -79.698 224.132  1.00  0.00    -0.069 C 
ATOM     15  C   UNL     1     -59.217 -80.871 224.463  1.00  0.00     0.039 C 
ATOM     16  C   UNL     1     -60.492 -78.794 225.282  1.00  0.00     0.039 C 
BRANCH  13  17
ATOM     17  C   UNL     1     -60.048 -80.293 221.681  1.00  0.00     0.066 CG0
ATOM     18  G   UNL     1     -58.937 -79.712 220.825  1.00  0.00     0.000 G0
ENDBRANCH  13  17
ENDBRANCH  11  13
ENDBRANCH  10  11
ENDBRANCH   1  10
TORSDOF 0
ENDMDL
MODEL 2
REMARK VINA RESULT:    -3.721      1.852      2.044
REMARK INTER + INTRA:          -5.282
REMARK INTER:                  -5.120
REMARK INTRA:                  -0.162
REMARK UNBOUND:                -0.039
REMARK SMILES CC1=CCC(=C(C)C)C(=O)CC(C)=CCC1
REMARK SMILES IDX 12 1 14 2 13 3 15 4 16 5 2 6 1 7 3 8 11 10 9 11 10 12 5 13
REMARK SMILES IDX 6 14 7 15 8 16 4 17
REMARK H PARENT
REMARK Flexibility Score: 60.00
ROOT
ATOM      1  C   UNL     1     -62.732 -76.028 221.571  1.00  0.00    -0.070 C 
ATOM      2  C   UNL     1     -62.872 -76.342 220.262  1.00  0.00    -0.027 C 
ATOM      3  C   UNL     1     -63.542 -74.880 222.116  1.00  0.00     0.039 C 
ENDROOT
BRANCH   2   4
ATOM      4  C   UNL     1     -62.037 -77.357 219.523  1.00  0.00     0.032 C 
BRANCH   4   5
ATOM      5  C   UNL     1     -62.745 -78.717 219.535  1.00  0.00     0.034 C 
BRANCH   5   6
ATOM      6  C   UNL     1     -61.790 -79.864 219.801  1.00  0.00    -0.077 C 
ATOM      7  C   UNL     1     -60.843 -80.286 218.705  1.00  0.00     0.039 C 
ATOM      8  C   UNL     1     -61.685 -80.490 221.000  1.00  0.00    -0.023 CG0
ATOM      9  G   UNL     1     -62.556 -80.287 222.226  1.00  0.00     0.000 G0
ENDBRANCH   5   6
ENDBRANCH   4   5
ENDBRANCH   2   4
BRANCH   1  10
ATOM     10  C   UNL     1     -61.819 -76.784 222.516  1.00  0.00     0.111 C 
BRANCH  10  11
ATOM     11  C   UNL     1     -62.548 -77.892 223.237  1.00  0.00     0.163 C 
ATOM     12  O   UNL     1     -63.640 -77.594 223.793  1.00  0.00    -0.294 OA
BRANCH  11  13
ATOM     13  C   UNL     1     -62.059 -79.309 223.300  1.00  0.00    -0.002 C 
ATOM     14  C   UNL     1     -61.325 -79.745 224.371  1.00  0.00    -0.069 C 
ATOM     15  C   UNL     1     -61.013 -81.209 224.587  1.00  0.00     0.039 C 
ATOM     16  C   UNL     1     -60.741 -78.776 225.373  1.00  0.00     0.039 C 
BRANCH  13  17
ATOM     17  C   UNL     1     -62.556 -80.282 222.236  1.00  0.00     0.066 CG0
ATOM     18  G   UNL     1     -61.672 -80.460 221.016  1.00  0.00     0.000 G0
ENDBRANCH  13  17
ENDBRANCH  11  13
ENDBRANCH  10  11
ENDBRANCH   1  10
TORSDOF 0
ENDMDL
MODEL 3
REMARK VINA RESULT:    -3.689     10.875     13.438
REMARK INTER + INTRA:          -5.237
REMARK INTER:                  -5.486
REMARK INTRA:                   0.249
REMARK UNBOUND:                -0.039
REMARK SMILES CC1=CCC(=C(C)C)C(=O)CC(C)=CCC1
REMARK SMILES IDX 12 1 14 2 13 3 15 4 16 5 2 6 1 7 3 8 11 10 9 11 10 12 5 13
REMARK SMILES IDX 6 14 7 15 8 16 4 17
REMARK H PARENT
REMARK Flexibility Score: 60.00
ROOT
ATOM      1  C   UNL     1     -72.032 -73.263 215.412  1.00  0.00    -0.070 C 
ATOM      2  C   UNL     1     -73.255 -73.710 215.043  1.00  0.00    -0.027 C 
ATOM      3  C   UNL     1     -71.391 -72.182 214.580  1.00  0.00     0.039 C 
ENDROOT
BRANCH   2   4
ATOM      4  C   UNL     1     -73.973 -74.878 215.669  1.00  0.00     0.032 C 
BRANCH   4   5
ATOM      5  C   UNL     1     -74.166 -75.987 214.629  1.00  0.00     0.034 C 
BRANCH   5   6
ATOM      6  C   UNL     1     -73.391 -77.244 214.973  1.00  0.00    -0.077 C 
ATOM      7  C   UNL     1     -74.134 -78.408 215.579  1.00  0.00     0.039 C 
ATOM      8  C   UNL     1     -72.073 -77.412 214.697  1.00  0.00    -0.023 CG0
ATOM      9  G   UNL     1     -71.106 -76.378 214.148  1.00  0.00     0.000 G0
ENDBRANCH   5   6
ENDBRANCH   4   5
ENDBRANCH   2   4
BRANCH   1  10
ATOM     10  C   UNL     1     -71.288 -73.779 216.628  1.00  0.00     0.111 C 
BRANCH  10  11
ATOM     11  C   UNL     1     -70.817 -75.200 216.438  1.00  0.00     0.163 C 
ATOM     12  O   UNL     1     -70.993 -75.997 217.400  1.00  0.00    -0.294 OA
BRANCH  11  13
ATOM     13  C   UNL     1     -70.183 -75.708 215.176  1.00  0.00    -0.002 C 
ATOM     14  C   UNL     1     -68.821 -75.706 215.031  1.00  0.00    -0.069 C 
ATOM     15  C   UNL     1     -68.136 -76.415 213.885  1.00  0.00     0.039 C 
ATOM     16  C   UNL     1     -67.928 -74.949 215.987  1.00  0.00     0.039 C 
BRANCH  13  17
ATOM     17  C   UNL     1     -71.084 -76.386 214.149  1.00  0.00     0.066 CG0
ATOM     18  G   UNL     1     -72.082 -77.395 214.688  1.00  0.00     0.000 G0
ENDBRANCH  13  17
ENDBRANCH  11  13
ENDBRANCH  10  11
ENDBRANCH   1  10
TORSDOF 0
ENDMDL
MODEL 4
REMARK VINA RESULT:    -3.651      2.035      4.032
REMARK INTER + INTRA:          -5.183
REMARK INTER:                  -5.121
REMARK INTRA:                  -0.062
REMARK UNBOUND:                -0.039
REMARK SMILES CC1=CCC(=C(C)C)C(=O)CC(C)=CCC1
REMARK SMILES IDX 12 1 14 2 13 3 15 4 16 5 2 6 1 7 3 8 11 10 9 11 10 12 5 13
REMARK SMILES IDX 6 14 7 15 8 16 4 17
REMARK H PARENT
REMARK Flexibility Score: 60.00
ROOT
ATOM      1  C   UNL     1     -61.037 -77.189 219.167  1.00  0.00    -0.070 C 
ATOM      2  C   UNL     1     -62.006 -76.255 219.300  1.00  0.00    -0.027 C 
ATOM      3  C   UNL     1     -59.799 -76.822 218.390  1.00  0.00     0.039 C 
ENDROOT
BRANCH   2   4
ATOM      4  C   UNL     1     -63.361 -76.497 219.914  1.00  0.00     0.032 C 
BRANCH   4   5
ATOM      5  C   UNL     1     -63.394 -75.933 221.339  1.00  0.00     0.034 C 
BRANCH   5   6
ATOM      6  C   UNL     1     -63.930 -76.931 222.345  1.00  0.00    -0.077 C 
ATOM      7  C   UNL     1     -65.424 -77.053 222.517  1.00  0.00     0.039 C 
ATOM      8  C   UNL     1     -63.143 -77.780 223.054  1.00  0.00    -0.023 CG0
ATOM      9  G   UNL     1     -61.626 -77.811 223.097  1.00  0.00     0.000 G0
ENDBRANCH   5   6
ENDBRANCH   4   5
ENDBRANCH   2   4
BRANCH   1  10
ATOM     10  C   UNL     1     -61.126 -78.576 219.774  1.00  0.00     0.111 C 
BRANCH  10  11
ATOM     11  C   UNL     1     -60.317 -78.687 221.044  1.00  0.00     0.163 C 
ATOM     12  O   UNL     1     -59.072 -78.507 220.948  1.00  0.00    -0.294 OA
BRANCH  11  13
ATOM     13  C   UNL     1     -60.913 -78.971 222.391  1.00  0.00    -0.002 C 
ATOM     14  C   UNL     1     -60.688 -80.170 223.012  1.00  0.00    -0.069 C 
ATOM     15  C   UNL     1     -61.071 -80.409 224.456  1.00  0.00     0.039 C 
ATOM     16  C   UNL     1     -60.088 -81.343 222.271  1.00  0.00     0.039 C 
BRANCH  13  17
ATOM     17  C   UNL     1     -61.615 -77.827 223.115  1.00  0.00     0.066 CG0
ATOM     18  G   UNL     1     -63.131 -77.809 223.042  1.00  0.00     0.000 G0
ENDBRANCH  13  17
ENDBRANCH  11  13
ENDBRANCH  10  11
ENDBRANCH   1  10
TORSDOF 0
ENDMDL
MODEL 5
REMARK VINA RESULT:    -3.572      9.673     11.754
REMARK INTER + INTRA:          -5.072
REMARK INTER:                  -5.027
REMARK INTRA:                  -0.045
REMARK UNBOUND:                -0.039
REMARK SMILES CC1=CCC(=C(C)C)C(=O)CC(C)=CCC1
REMARK SMILES IDX 12 1 14 2 13 3 15 4 16 5 2 6 1 7 3 8 11 10 9 11 10 12 5 13
REMARK SMILES IDX 6 14 7 15 8 16 4 17
REMARK H PARENT
REMARK Flexibility Score: 60.00
ROOT
ATOM      1  C   UNL     1     -71.159 -75.014 214.907  1.00  0.00    -0.070 C 
ATOM      2  C   UNL     1     -70.115 -74.370 215.475  1.00  0.00    -0.027 C 
ATOM      3  C   UNL     1     -72.313 -74.187 214.400  1.00  0.00     0.039 C 
ENDROOT
BRANCH   2   4
ATOM      4  C   UNL     1     -68.954 -75.044 216.161  1.00  0.00     0.032 C 
BRANCH   4   5
ATOM      5  C   UNL     1     -67.662 -74.772 215.382  1.00  0.00     0.034 C 
BRANCH   5   6
ATOM      6  C   UNL     1     -66.771 -75.995 215.293  1.00  0.00    -0.077 C 
ATOM      7  C   UNL     1     -65.665 -76.159 216.305  1.00  0.00     0.039 C 
ATOM      8  C   UNL     1     -66.956 -76.994 214.393  1.00  0.00    -0.023 CG0
ATOM      9  G   UNL     1     -67.952 -77.032 213.249  1.00  0.00     0.000 G0
ENDBRANCH   5   6
ENDBRANCH   4   5
ENDBRANCH   2   4
BRANCH   1  10
ATOM     10  C   UNL     1     -71.218 -76.520 214.736  1.00  0.00     0.111 C 
BRANCH  10  11
ATOM     11  C   UNL     1     -70.528 -76.970 213.471  1.00  0.00     0.163 C 
ATOM     12  O   UNL     1     -71.053 -76.625 212.377  1.00  0.00    -0.294 OA
BRANCH  11  13
ATOM     13  C   UNL     1     -69.260 -77.772 213.452  1.00  0.00    -0.002 C 
ATOM     14  C   UNL     1     -69.301 -79.140 213.478  1.00  0.00    -0.069 C 
ATOM     15  C   UNL     1     -68.071 -79.984 213.228  1.00  0.00     0.039 C 
ATOM     16  C   UNL     1     -70.574 -79.885 213.809  1.00  0.00     0.039 C 
BRANCH  13  17
ATOM     17  C   UNL     1     -67.950 -77.026 213.221  1.00  0.00     0.066 CG0
ATOM     18  G   UNL     1     -66.975 -76.994 214.384  1.00  0.00     0.000 G0
ENDBRANCH  13  17
ENDBRANCH  11  13
ENDBRANCH  10  11
ENDBRANCH   1  10
TORSDOF 0
ENDMDL
MODEL 6
REMARK VINA RESULT:    -3.565      2.212      4.407
REMARK INTER + INTRA:          -5.063
REMARK INTER:                  -5.188
REMARK INTRA:                   0.125
REMARK UNBOUND:                -0.039
REMARK SMILES CC1=CCC(=C(C)C)C(=O)CC(C)=CCC1
REMARK SMILES IDX 12 1 14 2 13 3 15 4 16 5 2 6 1 7 3 8 11 10 9 11 10 12 5 13
REMARK SMILES IDX 6 14 7 15 8 16 4 17
REMARK H PARENT
REMARK Flexibility Score: 60.00
ROOT
ATOM      1  C   UNL     1     -62.451 -76.561 220.769  1.00  0.00    -0.070 C 
ATOM      2  C   UNL     1     -63.762 -76.342 221.023  1.00  0.00    -0.027 C 
ATOM      3  C   UNL     1     -62.024 -76.727 219.333  1.00  0.00     0.039 C 
ENDROOT
BRANCH   2   4
ATOM      4  C   UNL     1     -64.381 -76.299 222.397  1.00  0.00     0.032 C 
BRANCH   4   5
ATOM      5  C   UNL     1     -65.277 -77.526 222.601  1.00  0.00     0.034 C 
BRANCH   5   6
ATOM      6  C   UNL     1     -64.686 -78.517 223.583  1.00  0.00    -0.077 C 
ATOM      7  C   UNL     1     -65.147 -78.474 225.019  1.00  0.00     0.039 C 
ATOM      8  C   UNL     1     -63.816 -79.497 223.230  1.00  0.00    -0.023 CG0
ATOM      9  G   UNL     1     -63.167 -79.708 221.874  1.00  0.00     0.000 G0
ENDBRANCH   5   6
ENDBRANCH   4   5
ENDBRANCH   2   4
BRANCH   1  10
ATOM     10  C   UNL     1     -61.392 -76.627 221.852  1.00  0.00     0.111 C 
BRANCH  10  11
ATOM     11  C   UNL     1     -61.298 -78.003 222.464  1.00  0.00     0.163 C 
ATOM     12  O   UNL     1     -60.874 -78.076 223.650  1.00  0.00    -0.294 OA
BRANCH  11  13
ATOM     13  C   UNL     1     -61.699 -79.262 221.753  1.00  0.00    -0.002 C 
ATOM     14  C   UNL     1     -60.757 -80.054 221.153  1.00  0.00    -0.069 C 
ATOM     15  C   UNL     1     -61.084 -81.435 220.632  1.00  0.00     0.039 C 
ATOM     16  C   UNL     1     -59.343 -79.568 220.933  1.00  0.00     0.039 C 
BRANCH  13  17
ATOM     17  C   UNL     1     -63.149 -79.718 221.877  1.00  0.00     0.066 CG0
ATOM     18  G   UNL     1     -63.816 -79.494 223.223  1.00  0.00     0.000 G0
ENDBRANCH  13  17
ENDBRANCH  11  13
ENDBRANCH  10  11
ENDBRANCH   1  10
TORSDOF 0
ENDMDL
MODEL 7
REMARK VINA RESULT:    -3.525      3.420      5.002
REMARK INTER + INTRA:          -5.006
REMARK INTER:                  -5.376
REMARK INTRA:                   0.370
REMARK UNBOUND:                -0.039
REMARK SMILES CC1=CCC(=C(C)C)C(=O)CC(C)=CCC1
REMARK SMILES IDX 12 1 14 2 13 3 15 4 16 5 2 6 1 7 3 8 11 10 9 11 10 12 5 13
REMARK SMILES IDX 6 14 7 15 8 16 4 17
REMARK H PARENT
REMARK Flexibility Score: 60.00
ROOT
ATOM      1  C   UNL     1     -63.083 -76.846 221.774  1.00  0.00    -0.070 C 
ATOM      2  C   UNL     1     -61.776 -77.161 221.927  1.00  0.00    -0.027 C 
ATOM      3  C   UNL     1     -63.437 -75.411 221.477  1.00  0.00     0.039 C 
ENDROOT
BRANCH   2   4
ATOM      4  C   UNL     1     -61.258 -78.507 222.367  1.00  0.00     0.032 C 
BRANCH   4   5
ATOM      5  C   UNL     1     -61.145 -78.544 223.896  1.00  0.00     0.034 C 
BRANCH   5   6
ATOM      6  C   UNL     1     -61.805 -79.769 224.496  1.00  0.00    -0.077 C 
ATOM      7  C   UNL     1     -61.052 -81.076 224.481  1.00  0.00     0.039 C 
ATOM      8  C   UNL     1     -63.012 -79.744 225.115  1.00  0.00    -0.023 CG0
ATOM      9  G   UNL     1     -63.977 -78.576 225.208  1.00  0.00     0.000 G0
ENDBRANCH   5   6
ENDBRANCH   4   5
ENDBRANCH   2   4
BRANCH   1  10
ATOM     10  C   UNL     1     -64.203 -77.864 221.866  1.00  0.00     0.111 C 
BRANCH  10  11
ATOM     11  C   UNL     1     -65.077 -77.631 223.075  1.00  0.00     0.163 C 
ATOM     12  O   UNL     1     -65.790 -76.591 223.074  1.00  0.00    -0.294 OA
BRANCH  11  13
ATOM     13  C   UNL     1     -65.155 -78.570 224.243  1.00  0.00    -0.002 C 
ATOM     14  C   UNL     1     -66.156 -79.500 224.323  1.00  0.00    -0.069 C 
ATOM     15  C   UNL     1     -66.141 -80.608 225.351  1.00  0.00     0.039 C 
ATOM     16  C   UNL     1     -67.363 -79.440 223.415  1.00  0.00     0.039 C 
BRANCH  13  17
ATOM     17  C   UNL     1     -63.992 -78.574 225.230  1.00  0.00     0.066 CG0
ATOM     18  G   UNL     1     -63.021 -79.736 225.126  1.00  0.00     0.000 G0
ENDBRANCH  13  17
ENDBRANCH  11  13
ENDBRANCH  10  11
ENDBRANCH   1  10
TORSDOF 0
ENDMDL
MODEL 8
REMARK VINA RESULT:    -3.516      1.704      2.346
REMARK INTER + INTRA:          -4.994
REMARK INTER:                  -5.269
REMARK INTRA:                   0.275
REMARK UNBOUND:                -0.039
REMARK SMILES CC1=CCC(=C(C)C)C(=O)CC(C)=CCC1
REMARK SMILES IDX 12 1 14 2 13 3 15 4 16 5 2 6 1 7 3 8 11 10 9 11 10 12 5 13
REMARK SMILES IDX 6 14 7 15 8 16 4 17
REMARK H PARENT
REMARK Flexibility Score: 60.00
ROOT
ATOM      1  C   UNL     1     -63.564 -76.201 221.499  1.00  0.00    -0.070 C 
ATOM      2  C   UNL     1     -62.744 -76.232 220.423  1.00  0.00    -0.027 C 
ATOM      3  C   UNL     1     -63.587 -74.949 222.338  1.00  0.00     0.039 C 
ENDROOT
BRANCH   2   4
ATOM      4  C   UNL     1     -62.488 -77.446 219.566  1.00  0.00     0.032 C 
BRANCH   4   5
ATOM      5  C   UNL     1     -61.001 -77.816 219.621  1.00  0.00     0.034 C 
BRANCH   5   6
ATOM      6  C   UNL     1     -60.765 -79.173 220.255  1.00  0.00    -0.077 C 
ATOM      7  C   UNL     1     -60.432 -80.340 219.360  1.00  0.00     0.039 C 
ATOM      8  C   UNL     1     -60.763 -79.386 221.595  1.00  0.00    -0.023 CG0
ATOM      9  G   UNL     1     -61.123 -78.394 222.686  1.00  0.00     0.000 G0
ENDBRANCH   5   6
ENDBRANCH   4   5
ENDBRANCH   2   4
BRANCH   1  10
ATOM     10  C   UNL     1     -64.472 -77.352 221.889  1.00  0.00     0.111 C 
BRANCH  10  11
ATOM     11  C   UNL     1     -63.686 -78.564 222.328  1.00  0.00     0.163 C 
ATOM     12  O   UNL     1     -64.022 -79.675 221.834  1.00  0.00    -0.294 OA
BRANCH  11  13
ATOM     13  C   UNL     1     -62.533 -78.509 223.287  1.00  0.00    -0.002 C 
ATOM     14  C   UNL     1     -62.731 -78.713 224.626  1.00  0.00    -0.069 C 
ATOM     15  C   UNL     1     -61.578 -78.896 225.588  1.00  0.00     0.039 C 
ATOM     16  C   UNL     1     -64.118 -78.716 225.227  1.00  0.00     0.039 C 
BRANCH  13  17
ATOM     17  C   UNL     1     -61.128 -78.402 222.704  1.00  0.00     0.066 CG0
ATOM     18  G   UNL     1     -60.778 -79.382 221.598  1.00  0.00     0.000 G0
ENDBRANCH  13  17
ENDBRANCH  11  13
ENDBRANCH  10  11
ENDBRANCH   1  10
TORSDOF 0
ENDMDL
MODEL 9
REMARK VINA RESULT:    -3.512      3.224      6.057
REMARK INTER + INTRA:          -4.988
REMARK INTER:                  -5.084
REMARK INTRA:                   0.095
REMARK UNBOUND:                -0.039
REMARK SMILES CC1=CCC(=C(C)C)C(=O)CC(C)=CCC1
REMARK SMILES IDX 12 1 14 2 13 3 15 4 16 5 2 6 1 7 3 8 11 10 9 11 10 12 5 13
REMARK SMILES IDX 6 14 7 15 8 16 4 17
REMARK H PARENT
REMARK Flexibility Score: 60.00
ROOT
ATOM      1  C   UNL     1     -61.806 -79.512 225.188  1.00  0.00    -0.070 C 
ATOM      2  C   UNL     1     -62.628 -79.168 226.205  1.00  0.00    -0.027 C 
ATOM      3  C   UNL     1     -60.444 -78.868 225.126  1.00  0.00     0.039 C 
ENDROOT
BRANCH   2   4
ATOM      4  C   UNL     1     -64.066 -79.600 226.337  1.00  0.00     0.032 C 
BRANCH   4   5
ATOM      5  C   UNL     1     -64.993 -78.466 225.885  1.00  0.00     0.034 C 
BRANCH   5   6
ATOM      6  C   UNL     1     -65.633 -78.742 224.539  1.00  0.00    -0.077 C 
ATOM      7  C   UNL     1     -66.939 -79.496 224.501  1.00  0.00     0.039 C 
ATOM      8  C   UNL     1     -65.134 -78.285 223.363  1.00  0.00    -0.023 CG0
ATOM      9  G   UNL     1     -63.819 -77.560 223.139  1.00  0.00     0.000 G0
ENDBRANCH   5   6
ENDBRANCH   4   5
ENDBRANCH   2   4
BRANCH   1  10
ATOM     10  C   UNL     1     -62.177 -80.525 224.122  1.00  0.00     0.111 C 
BRANCH  10  11
ATOM     11  C   UNL     1     -62.666 -79.859 222.859  1.00  0.00     0.163 C 
ATOM     12  O   UNL     1     -63.139 -80.608 221.961  1.00  0.00    -0.294 OA
BRANCH  11  13
ATOM     13  C   UNL     1     -62.641 -78.375 222.634  1.00  0.00    -0.002 C 
ATOM     14  C   UNL     1     -61.673 -77.806 221.850  1.00  0.00    -0.069 C 
ATOM     15  C   UNL     1     -61.744 -76.361 221.411  1.00  0.00     0.039 C 
ATOM     16  C   UNL     1     -60.449 -78.582 221.420  1.00  0.00     0.039 C 
BRANCH  13  17
ATOM     17  C   UNL     1     -63.820 -77.557 223.150  1.00  0.00     0.066 CG0
ATOM     18  G   UNL     1     -65.122 -78.308 223.365  1.00  0.00     0.000 G0
ENDBRANCH  13  17
ENDBRANCH  11  13
ENDBRANCH  10  11
ENDBRANCH   1  10
TORSDOF 0
ENDMDL
