MODEL 1
REMARK VINA RESULT:    -5.378      0.000      0.000
REMARK INTER + INTRA:          -6.870
REMARK INTER:                  -6.478
REMARK INTRA:                  -0.392
REMARK UNBOUND:                -0.392
REMARK SMILES O=c1ccn([C@@H]2O[C@H](CO)[C@@H](O)[C@H]2O)c(=O)[nH]1
REMARK SMILES IDX 6 1 13 2 11 3 8 4 7 5 5 6 3 7 4 8 2 9 17 10 1 11 15 12 16 14
REMARK SMILES IDX 14 15 12 17 9 19 10 20
REMARK H PARENT 17 13 14 16 12 18 10 21
REMARK Flexibility Score: inf
ROOT
ATOM      1  C   UNL     1      30.188   9.139   6.303  1.00  0.00     0.255 C 
ATOM      2  C   UNL     1      29.587   7.869   5.697  1.00  0.00     0.196 C 
ATOM      3  C   UNL     1      30.307   7.759   4.377  1.00  0.00     0.179 C 
ATOM      4  C   UNL     1      30.648   9.220   4.062  1.00  0.00     0.178 C 
ATOM      5  O   UNL     1      30.483  10.004   5.225  1.00  0.00    -0.347 OA
ENDROOT
BRANCH   1   6
ATOM      6  N   UNL     1      29.320   9.831   7.297  1.00  0.00    -0.271 N 
ATOM      7  C   UNL     1      27.251  10.898   7.913  1.00  0.00     0.090 A 
ATOM      8  C   UNL     1      28.063  10.278   6.968  1.00  0.00     0.099 A 
ATOM      9  C   UNL     1      27.717  11.024   9.213  1.00  0.00     0.253 A 
ATOM     10  N   UNL     1      28.938  10.531   9.540  1.00  0.00    -0.274 N 
ATOM     11  O   UNL     1      27.005  11.585  10.089  1.00  0.00    -0.269 OA
ATOM     12  C   UNL     1      29.726   9.922   8.611  1.00  0.00     0.330 A 
ATOM     13  H   UNL     1      29.273  10.608  10.528  1.00  0.00     0.175 HD
ATOM     14  O   UNL     1      30.830   9.432   8.980  1.00  0.00    -0.248 OA
ENDBRANCH   1   6
BRANCH   2  15
ATOM     15  O   UNL     1      29.820   6.753   6.519  1.00  0.00    -0.386 OA
ATOM     16  H   UNL     1      30.157   7.109   7.383  1.00  0.00     0.211 HD
ENDBRANCH   2  15
BRANCH   3  17
ATOM     17  O   UNL     1      31.486   7.006   4.520  1.00  0.00    -0.387 OA
ATOM     18  H   UNL     1      31.795   6.790   3.602  1.00  0.00     0.211 HD
ENDBRANCH   3  17
BRANCH   4  19
ATOM     19  C   UNL     1      29.772   9.789   2.934  1.00  0.00     0.191 C 
BRANCH  19  20
ATOM     20  O   UNL     1      29.763  11.192   2.955  1.00  0.00    -0.394 OA
ATOM     21  H   UNL     1      29.485  11.491   2.050  1.00  0.00     0.210 HD
ENDBRANCH  19  20
ENDBRANCH   4  19
TORSDOF 5
ENDMDL
MODEL 2
REMARK VINA RESULT:    -5.297      3.059      4.867
REMARK INTER + INTRA:          -6.773
REMARK INTER:                  -6.286
REMARK INTRA:                  -0.488
REMARK UNBOUND:                -0.392
REMARK SMILES O=c1ccn([C@@H]2O[C@H](CO)[C@@H](O)[C@H]2O)c(=O)[nH]1
REMARK SMILES IDX 6 1 13 2 11 3 8 4 7 5 5 6 3 7 4 8 2 9 17 10 1 11 15 12 16 14
REMARK SMILES IDX 14 15 12 17 9 19 10 20
REMARK H PARENT 17 13 14 16 12 18 10 21
REMARK Flexibility Score: inf
ROOT
ATOM      1  C   UNL     1      30.056   7.976   5.102  1.00  0.00     0.255 C 
ATOM      2  C   UNL     1      31.282   7.130   4.751  1.00  0.00     0.196 C 
ATOM      3  C   UNL     1      31.208   6.008   5.757  1.00  0.00     0.179 C 
ATOM      4  C   UNL     1      30.470   6.663   6.931  1.00  0.00     0.178 C 
ATOM      5  O   UNL     1      29.872   7.868   6.498  1.00  0.00    -0.347 OA
ENDROOT
BRANCH   1   6
ATOM      6  N   UNL     1      30.150   9.410   4.705  1.00  0.00    -0.271 N 
ATOM      7  C   UNL     1      30.844  11.677   5.125  1.00  0.00     0.090 A 
ATOM      8  C   UNL     1      30.738  10.347   5.520  1.00  0.00     0.099 A 
ATOM      9  C   UNL     1      30.380  12.039   3.869  1.00  0.00     0.253 A 
ATOM     10  N   UNL     1      29.851  11.096   3.050  1.00  0.00    -0.274 N 
ATOM     11  O   UNL     1      30.459  13.237   3.486  1.00  0.00    -0.269 OA
ATOM     12  C   UNL     1      29.752   9.794   3.442  1.00  0.00     0.330 A 
ATOM     13  H   UNL     1      29.525  11.371   2.095  1.00  0.00     0.175 HD
ATOM     14  O   UNL     1      29.302   8.948   2.622  1.00  0.00    -0.248 OA
ENDBRANCH   1   6
BRANCH   2  15
ATOM     15  O   UNL     1      31.213   6.658   3.429  1.00  0.00    -0.386 OA
ATOM     16  H   UNL     1      30.669   5.828   3.458  1.00  0.00     0.211 HD
ENDBRANCH   2  15
BRANCH   3  17
ATOM     17  O   UNL     1      30.453   4.938   5.246  1.00  0.00    -0.387 OA
ATOM     18  H   UNL     1      30.356   4.283   5.985  1.00  0.00     0.211 HD
ENDBRANCH   3  17
BRANCH   4  19
ATOM     19  C   UNL     1      31.407   6.953   8.114  1.00  0.00     0.191 C 
BRANCH  19  20
ATOM     20  O   UNL     1      31.278   5.978   9.116  1.00  0.00    -0.394 OA
ATOM     21  H   UNL     1      31.350   6.451   9.987  1.00  0.00     0.210 HD
ENDBRANCH  19  20
ENDBRANCH   4  19
TORSDOF 5
ENDMDL
MODEL 3
REMARK VINA RESULT:    -4.982      2.786      5.193
REMARK INTER + INTRA:          -6.394
REMARK INTER:                  -5.980
REMARK INTRA:                  -0.414
REMARK UNBOUND:                -0.392
REMARK SMILES O=c1ccn([C@@H]2O[C@H](CO)[C@@H](O)[C@H]2O)c(=O)[nH]1
REMARK SMILES IDX 6 1 13 2 11 3 8 4 7 5 5 6 3 7 4 8 2 9 17 10 1 11 15 12 16 14
REMARK SMILES IDX 14 15 12 17 9 19 10 20
REMARK H PARENT 17 13 14 16 12 18 10 21
REMARK Flexibility Score: inf
ROOT
ATOM      1  C   UNL     1      27.991   6.964   6.155  1.00  0.00     0.255 C 
ATOM      2  C   UNL     1      27.162   6.040   5.261  1.00  0.00     0.196 C 
ATOM      3  C   UNL     1      26.897   4.859   6.162  1.00  0.00     0.179 C 
ATOM      4  C   UNL     1      28.104   4.885   7.106  1.00  0.00     0.178 C 
ATOM      5  O   UNL     1      28.760   6.132   6.999  1.00  0.00    -0.347 OA
ENDROOT
BRANCH   1   6
ATOM      6  N   UNL     1      28.877   7.913   5.422  1.00  0.00    -0.271 N 
ATOM      7  C   UNL     1      30.134   8.551   3.470  1.00  0.00     0.090 A 
ATOM      8  C   UNL     1      29.330   7.644   4.153  1.00  0.00     0.099 A 
ATOM      9  C   UNL     1      30.442   9.759   4.078  1.00  0.00     0.253 A 
ATOM     10  N   UNL     1      29.946  10.038   5.309  1.00  0.00    -0.274 N 
ATOM     11  O   UNL     1      31.172  10.598   3.484  1.00  0.00    -0.269 OA
ATOM     12  C   UNL     1      29.156   9.147   5.971  1.00  0.00     0.330 A 
ATOM     13  H   UNL     1      30.162  10.961   5.751  1.00  0.00     0.175 HD
ATOM     14  O   UNL     1      28.676   9.477   7.091  1.00  0.00    -0.248 OA
ENDBRANCH   1   6
BRANCH   2  15
ATOM     15  O   UNL     1      25.972   6.664   4.848  1.00  0.00    -0.386 OA
ATOM     16  H   UNL     1      25.257   5.980   4.924  1.00  0.00     0.211 HD
ENDBRANCH   2  15
BRANCH   3  17
ATOM     17  O   UNL     1      25.708   5.051   6.889  1.00  0.00    -0.387 OA
ATOM     18  H   UNL     1      25.652   6.022   7.085  1.00  0.00     0.211 HD
ENDBRANCH   3  17
BRANCH   4  19
ATOM     19  C   UNL     1      29.102   3.755   6.803  1.00  0.00     0.191 C 
BRANCH  19  20
ATOM     20  O   UNL     1      30.194   4.227   6.060  1.00  0.00    -0.394 OA
ATOM     21  H   UNL     1      30.464   5.094   6.465  1.00  0.00     0.210 HD
ENDBRANCH  19  20
ENDBRANCH   4  19
TORSDOF 5
ENDMDL
MODEL 4
REMARK VINA RESULT:    -4.923      2.544      4.144
REMARK INTER + INTRA:          -6.323
REMARK INTER:                  -5.839
REMARK INTRA:                  -0.484
REMARK UNBOUND:                -0.392
REMARK SMILES O=c1ccn([C@@H]2O[C@H](CO)[C@@H](O)[C@H]2O)c(=O)[nH]1
REMARK SMILES IDX 6 1 13 2 11 3 8 4 7 5 5 6 3 7 4 8 2 9 17 10 1 11 15 12 16 14
REMARK SMILES IDX 14 15 12 17 9 19 10 20
REMARK H PARENT 17 13 14 16 12 18 10 21
REMARK Flexibility Score: inf
ROOT
ATOM      1  C   UNL     1      30.107   8.452   5.672  1.00  0.00     0.255 C 
ATOM      2  C   UNL     1      28.959   8.373   6.680  1.00  0.00     0.196 C 
ATOM      3  C   UNL     1      28.553   6.922   6.605  1.00  0.00     0.179 C 
ATOM      4  C   UNL     1      28.952   6.539   5.175  1.00  0.00     0.178 C 
ATOM      5  O   UNL     1      29.813   7.526   4.646  1.00  0.00    -0.347 OA
ENDROOT
BRANCH   1   6
ATOM      6  N   UNL     1      30.339   9.805   5.092  1.00  0.00    -0.271 N 
ATOM      7  C   UNL     1      29.967  11.467   3.389  1.00  0.00     0.090 A 
ATOM      8  C   UNL     1      29.764  10.190   3.905  1.00  0.00     0.099 A 
ATOM      9  C   UNL     1      30.732  12.366   4.116  1.00  0.00     0.253 A 
ATOM     10  N   UNL     1      31.250  11.994   5.313  1.00  0.00    -0.274 N 
ATOM     11  O   UNL     1      30.936  13.528   3.671  1.00  0.00    -0.269 OA
ATOM     12  C   UNL     1      31.046  10.744   5.814  1.00  0.00     0.330 A 
ATOM     13  H   UNL     1      31.806  12.685   5.867  1.00  0.00     0.175 HD
ATOM     14  O   UNL     1      31.505  10.466   6.957  1.00  0.00    -0.248 OA
ENDBRANCH   1   6
BRANCH   2  15
ATOM     15  O   UNL     1      29.388   8.733   7.969  1.00  0.00    -0.386 OA
ATOM     16  H   UNL     1      29.431   7.892   8.494  1.00  0.00     0.211 HD
ENDBRANCH   2  15
BRANCH   3  17
ATOM     17  O   UNL     1      29.282   6.158   7.533  1.00  0.00    -0.387 OA
ATOM     18  H   UNL     1      28.725   6.103   8.353  1.00  0.00     0.211 HD
ENDBRANCH   3  17
BRANCH   4  19
ATOM     19  C   UNL     1      27.730   6.379   4.256  1.00  0.00     0.191 C 
BRANCH  19  20
ATOM     20  O   UNL     1      26.551   6.221   4.999  1.00  0.00    -0.394 OA
ATOM     21  H   UNL     1      25.824   6.035   4.348  1.00  0.00     0.210 HD
ENDBRANCH  19  20
ENDBRANCH   4  19
TORSDOF 5
ENDMDL
MODEL 5
REMARK VINA RESULT:    -4.922      2.521      5.097
REMARK INTER + INTRA:          -6.321
REMARK INTER:                  -5.879
REMARK INTRA:                  -0.442
REMARK UNBOUND:                -0.392
REMARK SMILES O=c1ccn([C@@H]2O[C@H](CO)[C@@H](O)[C@H]2O)c(=O)[nH]1
REMARK SMILES IDX 6 1 13 2 11 3 8 4 7 5 5 6 3 7 4 8 2 9 17 10 1 11 15 12 16 14
REMARK SMILES IDX 14 15 12 17 9 19 10 20
REMARK H PARENT 17 13 14 16 12 18 10 21
REMARK Flexibility Score: inf
ROOT
ATOM      1  C   UNL     1      30.155   9.206   5.665  1.00  0.00     0.255 C 
ATOM      2  C   UNL     1      29.459  10.494   6.108  1.00  0.00     0.196 C 
ATOM      3  C   UNL     1      30.540  11.205   6.883  1.00  0.00     0.179 C 
ATOM      4  C   UNL     1      31.401  10.044   7.394  1.00  0.00     0.178 C 
ATOM      5  O   UNL     1      31.071   8.866   6.687  1.00  0.00    -0.347 OA
ENDROOT
BRANCH   1   6
ATOM      6  N   UNL     1      29.240   8.061   5.393  1.00  0.00    -0.271 N 
ATOM      7  C   UNL     1      27.597   6.453   6.109  1.00  0.00     0.090 A 
ATOM      8  C   UNL     1      28.468   7.503   6.383  1.00  0.00     0.099 A 
ATOM      9  C   UNL     1      27.489   5.999   4.803  1.00  0.00     0.253 A 
ATOM     10  N   UNL     1      28.215   6.593   3.823  1.00  0.00    -0.274 N 
ATOM     11  O   UNL     1      26.711   5.047   4.526  1.00  0.00    -0.269 OA
ATOM     12  C   UNL     1      29.064   7.623   4.097  1.00  0.00     0.330 A 
ATOM     13  H   UNL     1      28.111   6.262   2.836  1.00  0.00     0.175 HD
ATOM     14  O   UNL     1      29.675   8.176   3.141  1.00  0.00    -0.248 OA
ENDBRANCH   1   6
BRANCH   2  15
ATOM     15  O   UNL     1      29.024  11.243   5.002  1.00  0.00    -0.386 OA
ATOM     16  H   UNL     1      29.119  12.198   5.257  1.00  0.00     0.211 HD
ENDBRANCH   2  15
BRANCH   3  17
ATOM     17  O   UNL     1      31.295  12.030   6.031  1.00  0.00    -0.387 OA
ATOM     18  H   UNL     1      32.236  11.966   6.339  1.00  0.00     0.211 HD
ENDBRANCH   3  17
BRANCH   4  19
ATOM     19  C   UNL     1      31.215   9.804   8.901  1.00  0.00     0.191 C 
BRANCH  19  20
ATOM     20  O   UNL     1      30.052   9.062   9.158  1.00  0.00    -0.394 OA
ATOM     21  H   UNL     1      30.344   8.198   9.552  1.00  0.00     0.210 HD
ENDBRANCH  19  20
ENDBRANCH   4  19
TORSDOF 5
ENDMDL
MODEL 6
REMARK VINA RESULT:    -4.877      3.104      4.948
REMARK INTER + INTRA:          -6.267
REMARK INTER:                  -6.027
REMARK INTRA:                  -0.241
REMARK UNBOUND:                -0.392
REMARK SMILES O=c1ccn([C@@H]2O[C@H](CO)[C@@H](O)[C@H]2O)c(=O)[nH]1
REMARK SMILES IDX 6 1 13 2 11 3 8 4 7 5 5 6 3 7 4 8 2 9 17 10 1 11 15 12 16 14
REMARK SMILES IDX 14 15 12 17 9 19 10 20
REMARK H PARENT 17 13 14 16 12 18 10 21
REMARK Flexibility Score: inf
ROOT
ATOM      1  C   UNL     1      29.381   7.106   5.276  1.00  0.00     0.255 C 
ATOM      2  C   UNL     1      29.727   6.884   6.750  1.00  0.00     0.196 C 
ATOM      3  C   UNL     1      28.990   5.609   7.075  1.00  0.00     0.179 C 
ATOM      4  C   UNL     1      27.818   5.642   6.087  1.00  0.00     0.178 C 
ATOM      5  O   UNL     1      28.073   6.606   5.086  1.00  0.00    -0.347 OA
ENDROOT
BRANCH   1   6
ATOM      6  N   UNL     1      29.463   8.522   4.820  1.00  0.00    -0.271 N 
ATOM      7  C   UNL     1      29.658  10.879   5.273  1.00  0.00     0.090 A 
ATOM      8  C   UNL     1      29.555   9.563   5.712  1.00  0.00     0.099 A 
ATOM      9  C   UNL     1      29.707  11.125   3.908  1.00  0.00     0.253 A 
ATOM     10  N   UNL     1      29.670  10.086   3.037  1.00  0.00    -0.274 N 
ATOM     11  O   UNL     1      29.797  12.307   3.481  1.00  0.00    -0.269 OA
ATOM     12  C   UNL     1      29.572   8.799   3.474  1.00  0.00     0.330 A 
ATOM     13  H   UNL     1      29.732  10.277   2.010  1.00  0.00     0.175 HD
ATOM     14  O   UNL     1      29.596   7.867   2.624  1.00  0.00    -0.248 OA
ENDBRANCH   1   6
BRANCH   2  15
ATOM     15  O   UNL     1      31.115   6.751   6.932  1.00  0.00    -0.386 OA
ATOM     16  H   UNL     1      31.541   7.373   6.287  1.00  0.00     0.211 HD
ENDBRANCH   2  15
BRANCH   3  17
ATOM     17  O   UNL     1      29.804   4.491   6.823  1.00  0.00    -0.387 OA
ATOM     18  H   UNL     1      30.721   4.839   6.672  1.00  0.00     0.211 HD
ENDBRANCH   3  17
BRANCH   4  19
ATOM     19  C   UNL     1      26.485   5.966   6.780  1.00  0.00     0.191 C 
BRANCH  19  20
ATOM     20  O   UNL     1      25.623   4.859   6.768  1.00  0.00    -0.394 OA
ATOM     21  H   UNL     1      26.174   4.064   6.996  1.00  0.00     0.210 HD
ENDBRANCH  19  20
ENDBRANCH   4  19
TORSDOF 5
ENDMDL
MODEL 7
REMARK VINA RESULT:    -4.876      2.942      5.010
REMARK INTER + INTRA:          -6.266
REMARK INTER:                  -5.686
REMARK INTRA:                  -0.580
REMARK UNBOUND:                -0.392
REMARK SMILES O=c1ccn([C@@H]2O[C@H](CO)[C@@H](O)[C@H]2O)c(=O)[nH]1
REMARK SMILES IDX 6 1 13 2 11 3 8 4 7 5 5 6 3 7 4 8 2 9 17 10 1 11 15 12 16 14
REMARK SMILES IDX 14 15 12 17 9 19 10 20
REMARK H PARENT 17 13 14 16 12 18 10 21
REMARK Flexibility Score: inf
ROOT
ATOM      1  C   UNL     1      30.762   8.808   7.460  1.00  0.00     0.255 C 
ATOM      2  C   UNL     1      30.846   9.129   8.953  1.00  0.00     0.196 C 
ATOM      3  C   UNL     1      32.288   9.534   9.125  1.00  0.00     0.179 C 
ATOM      4  C   UNL     1      32.986   8.759   8.001  1.00  0.00     0.178 C 
ATOM      5  O   UNL     1      32.020   8.285   7.085  1.00  0.00    -0.347 OA
ENDROOT
BRANCH   1   6
ATOM      6  N   UNL     1      29.677   7.858   7.084  1.00  0.00    -0.271 N 
ATOM      7  C   UNL     1      28.821   5.621   6.832  1.00  0.00     0.090 A 
ATOM      8  C   UNL     1      29.851   6.497   7.160  1.00  0.00     0.099 A 
ATOM      9  C   UNL     1      27.592   6.146   6.462  1.00  0.00     0.253 A 
ATOM     10  N   UNL     1      27.414   7.490   6.443  1.00  0.00    -0.274 N 
ATOM     11  O   UNL     1      26.642   5.376   6.156  1.00  0.00    -0.269 OA
ATOM     12  C   UNL     1      28.426   8.343   6.768  1.00  0.00     0.330 A 
ATOM     13  H   UNL     1      26.477   7.879   6.186  1.00  0.00     0.175 HD
ATOM     14  O   UNL     1      28.191   9.583   6.786  1.00  0.00    -0.248 OA
ENDBRANCH   1   6
BRANCH   2  15
ATOM     15  O   UNL     1      29.963  10.166   9.301  1.00  0.00    -0.386 OA
ATOM     16  H   UNL     1      30.495  11.004   9.279  1.00  0.00     0.211 HD
ENDBRANCH   2  15
BRANCH   3  17
ATOM     17  O   UNL     1      32.439  10.918   8.925  1.00  0.00    -0.387 OA
ATOM     18  H   UNL     1      32.454  11.060   7.943  1.00  0.00     0.211 HD
ENDBRANCH   3  17
BRANCH   4  19
ATOM     19  C   UNL     1      33.807   7.574   8.536  1.00  0.00     0.191 C 
BRANCH  19  20
ATOM     20  O   UNL     1      33.058   6.388   8.519  1.00  0.00    -0.394 OA
ATOM     21  H   UNL     1      33.000   6.098   7.571  1.00  0.00     0.210 HD
ENDBRANCH  19  20
ENDBRANCH   4  19
TORSDOF 5
ENDMDL
MODEL 8
REMARK VINA RESULT:    -4.874      4.852      6.787
REMARK INTER + INTRA:          -6.263
REMARK INTER:                  -5.885
REMARK INTRA:                  -0.378
REMARK UNBOUND:                -0.392
REMARK SMILES O=c1ccn([C@@H]2O[C@H](CO)[C@@H](O)[C@H]2O)c(=O)[nH]1
REMARK SMILES IDX 6 1 13 2 11 3 8 4 7 5 5 6 3 7 4 8 2 9 17 10 1 11 15 12 16 14
REMARK SMILES IDX 14 15 12 17 9 19 10 20
REMARK H PARENT 17 13 14 16 12 18 10 21
REMARK Flexibility Score: inf
ROOT
ATOM      1  C   UNL     1      28.001   4.653   6.171  1.00  0.00     0.255 C 
ATOM      2  C   UNL     1      26.908   5.498   6.828  1.00  0.00     0.196 C 
ATOM      3  C   UNL     1      26.911   6.752   5.990  1.00  0.00     0.179 C 
ATOM      4  C   UNL     1      28.355   6.807   5.479  1.00  0.00     0.178 C 
ATOM      5  O   UNL     1      28.975   5.554   5.686  1.00  0.00    -0.347 OA
ENDROOT
BRANCH   1   6
ATOM      6  N   UNL     1      28.634   3.643   7.065  1.00  0.00    -0.271 N 
ATOM      7  C   UNL     1      29.632   3.009   9.163  1.00  0.00     0.090 A 
ATOM      8  C   UNL     1      29.068   3.969   8.328  1.00  0.00     0.099 A 
ATOM      9  C   UNL     1      29.715   1.700   8.715  1.00  0.00     0.253 A 
ATOM     10  N   UNL     1      29.234   1.378   7.488  1.00  0.00    -0.274 N 
ATOM     11  O   UNL     1      30.225   0.811   9.448  1.00  0.00    -0.269 OA
ATOM     12  C   UNL     1      28.680   2.321   6.676  1.00  0.00     0.330 A 
ATOM     13  H   UNL     1      29.278   0.384   7.165  1.00  0.00     0.175 HD
ATOM     14  O   UNL     1      28.200   1.959   5.566  1.00  0.00    -0.248 OA
ENDBRANCH   1   6
BRANCH   2  15
ATOM     15  O   UNL     1      25.666   4.841   6.788  1.00  0.00    -0.386 OA
ATOM     16  H   UNL     1      25.840   3.899   7.045  1.00  0.00     0.211 HD
ENDBRANCH   2  15
BRANCH   3  17
ATOM     17  O   UNL     1      26.019   6.626   4.910  1.00  0.00    -0.387 OA
ATOM     18  H   UNL     1      25.175   6.261   5.283  1.00  0.00     0.211 HD
ENDBRANCH   3  17
BRANCH   4  19
ATOM     19  C   UNL     1      29.176   7.904   6.175  1.00  0.00     0.191 C 
BRANCH  19  20
ATOM     20  O   UNL     1      29.388   7.599   7.529  1.00  0.00    -0.394 OA
ATOM     21  H   UNL     1      30.125   6.934   7.561  1.00  0.00     0.210 HD
ENDBRANCH  19  20
ENDBRANCH   4  19
TORSDOF 5
ENDMDL
MODEL 9
REMARK VINA RESULT:    -4.778      2.861      4.759
REMARK INTER + INTRA:          -6.148
REMARK INTER:                  -5.764
REMARK INTRA:                  -0.384
REMARK UNBOUND:                -0.392
REMARK SMILES O=c1ccn([C@@H]2O[C@H](CO)[C@@H](O)[C@H]2O)c(=O)[nH]1
REMARK SMILES IDX 6 1 13 2 11 3 8 4 7 5 5 6 3 7 4 8 2 9 17 10 1 11 15 12 16 14
REMARK SMILES IDX 14 15 12 17 9 19 10 20
REMARK H PARENT 17 13 14 16 12 18 10 21
REMARK Flexibility Score: inf
ROOT
ATOM      1  C   UNL     1      28.877   7.855   6.137  1.00  0.00     0.255 C 
ATOM      2  C   UNL     1      29.779   8.910   6.781  1.00  0.00     0.196 C 
ATOM      3  C   UNL     1      29.991   9.895   5.659  1.00  0.00     0.179 C 
ATOM      4  C   UNL     1      29.837   9.015   4.412  1.00  0.00     0.178 C 
ATOM      5  O   UNL     1      29.242   7.786   4.774  1.00  0.00    -0.347 OA
ENDROOT
BRANCH   1   6
ATOM      6  N   UNL     1      28.952   6.503   6.760  1.00  0.00    -0.271 N 
ATOM      7  C   UNL     1      30.175   4.759   7.883  1.00  0.00     0.090 A 
ATOM      8  C   UNL     1      30.125   6.012   7.279  1.00  0.00     0.099 A 
ATOM      9  C   UNL     1      29.004   4.023   7.989  1.00  0.00     0.253 A 
ATOM     10  N   UNL     1      27.841   4.540   7.522  1.00  0.00    -0.274 N 
ATOM     11  O   UNL     1      29.020   2.884   8.527  1.00  0.00    -0.269 OA
ATOM     12  C   UNL     1      27.798   5.769   6.935  1.00  0.00     0.330 A 
ATOM     13  H   UNL     1      26.957   3.990   7.628  1.00  0.00     0.175 HD
ATOM     14  O   UNL     1      26.681   6.226   6.567  1.00  0.00    -0.248 OA
ENDBRANCH   1   6
BRANCH   2  15
ATOM     15  O   UNL     1      29.155   9.504   7.892  1.00  0.00    -0.386 OA
ATOM     16  H   UNL     1      29.833   9.522   8.616  1.00  0.00     0.211 HD
ENDBRANCH   2  15
BRANCH   3  17
ATOM     17  O   UNL     1      28.994  10.886   5.678  1.00  0.00    -0.387 OA
ATOM     18  H   UNL     1      28.347  10.620   6.381  1.00  0.00     0.211 HD
ENDBRANCH   3  17
BRANCH   4  19
ATOM     19  C   UNL     1      31.185   8.746   3.723  1.00  0.00     0.191 C 
BRANCH  19  20
ATOM     20  O   UNL     1      31.258   7.429   3.245  1.00  0.00    -0.394 OA
ATOM     21  H   UNL     1      31.712   6.894   3.948  1.00  0.00     0.210 HD
ENDBRANCH  19  20
ENDBRANCH   4  19
TORSDOF 5
ENDMDL
