MODEL 1
REMARK VINA RESULT:    -4.721      0.000      0.000
REMARK INTER + INTRA:          -7.714
REMARK INTER:                  -6.929
REMARK INTRA:                  -0.785
REMARK UNBOUND:                -0.785
REMARK SMILES O=C([O-])CCCCCCCC(=O)[O-]
REMARK SMILES IDX 7 1 6 2 5 3 4 4 2 5 1 6 3 7 8 8 9 9 10 10 11 11 12 12 13 13
REMARK H PARENT
REMARK Flexibility Score: inf
ROOT
ATOM      1  C   UNL     1      15.855  -5.109  34.543  1.00  0.00     0.000 C 
ENDROOT
BRANCH   1   2
ATOM      2  C   UNL     1      16.633  -5.244  35.863  1.00  0.00     0.000 C 
BRANCH   2   3
ATOM      3  C   UNL     1      17.740  -4.188  36.005  1.00  0.00     0.006 C 
BRANCH   3   4
ATOM      4  C   UNL     1      18.113  -3.537  34.667  1.00  0.00     0.053 C 
BRANCH   4   5
ATOM      5  C   UNL     1      19.264  -2.597  34.847  1.00  0.00     0.041 C 
ATOM      6  O   UNL     1      20.438  -2.978  34.599  1.00  0.00    -0.550 OA
ATOM      7  O   UNL     1      19.046  -1.316  35.337  1.00  0.00    -0.550 OA
ENDBRANCH   4   5
ENDBRANCH   3   4
ENDBRANCH   2   3
ENDBRANCH   1   2
BRANCH   1   8
ATOM      8  C   UNL     1      15.778  -6.429  33.754  1.00  0.00     0.000 C 
BRANCH   8   9
ATOM      9  C   UNL     1      16.801  -6.568  32.612  1.00  0.00     0.006 C 
BRANCH   9  10
ATOM     10  C   UNL     1      17.855  -7.648  32.881  1.00  0.00     0.053 C 
BRANCH  10  11
ATOM     11  C   UNL     1      19.008  -7.076  33.644  1.00  0.00     0.041 C 
ATOM     12  O   UNL     1      19.783  -6.250  33.095  1.00  0.00    -0.550 OA
ATOM     13  O   UNL     1      19.255  -7.494  34.945  1.00  0.00    -0.550 OA
ENDBRANCH  10  11
ENDBRANCH   9  10
ENDBRANCH   8   9
ENDBRANCH   1   8
TORSDOF 8
ENDMDL
MODEL 2
REMARK VINA RESULT:    -4.678      0.267      4.186
REMARK INTER + INTRA:          -7.651
REMARK INTER:                  -6.843
REMARK INTRA:                  -0.808
REMARK UNBOUND:                -0.785
REMARK SMILES O=C([O-])CCCCCCCC(=O)[O-]
REMARK SMILES IDX 7 1 6 2 5 3 4 4 2 5 1 6 3 7 8 8 9 9 10 10 11 11 12 12 13 13
REMARK H PARENT
REMARK Flexibility Score: inf
ROOT
ATOM      1  C   UNL     1      15.865  -5.030  34.426  1.00  0.00     0.000 C 
ENDROOT
BRANCH   1   2
ATOM      2  C   UNL     1      15.774  -6.346  33.635  1.00  0.00     0.000 C 
BRANCH   2   3
ATOM      3  C   UNL     1      16.910  -6.498  32.611  1.00  0.00     0.006 C 
BRANCH   3   4
ATOM      4  C   UNL     1      17.869  -7.644  32.957  1.00  0.00     0.053 C 
BRANCH   4   5
ATOM      5  C   UNL     1      19.104  -7.110  33.612  1.00  0.00     0.041 C 
ATOM      6  O   UNL     1      19.382  -7.430  34.798  1.00  0.00    -0.550 OA
ATOM      7  O   UNL     1      19.923  -6.220  32.931  1.00  0.00    -0.550 OA
ENDBRANCH   4   5
ENDBRANCH   3   4
ENDBRANCH   2   3
ENDBRANCH   1   2
BRANCH   1   8
ATOM      8  C   UNL     1      16.663  -5.171  35.735  1.00  0.00     0.000 C 
BRANCH   8   9
ATOM      9  C   UNL     1      17.840  -4.190  35.890  1.00  0.00     0.006 C 
BRANCH   9  10
ATOM     10  C   UNL     1      18.238  -3.518  34.570  1.00  0.00     0.053 C 
BRANCH  10  11
ATOM     11  C   UNL     1      19.529  -2.778  34.728  1.00  0.00     0.041 C 
ATOM     12  O   UNL     1      20.593  -3.252  34.252  1.00  0.00    -0.550 OA
ATOM     13  O   UNL     1      19.564  -1.590  35.446  1.00  0.00    -0.550 OA
ENDBRANCH  10  11
ENDBRANCH   9  10
ENDBRANCH   8   9
ENDBRANCH   1   8
TORSDOF 8
ENDMDL
MODEL 3
REMARK VINA RESULT:    -4.631      2.216      4.897
REMARK INTER + INTRA:          -7.582
REMARK INTER:                  -6.946
REMARK INTRA:                  -0.636
REMARK UNBOUND:                -0.785
REMARK SMILES O=C([O-])CCCCCCCC(=O)[O-]
REMARK SMILES IDX 7 1 6 2 5 3 4 4 2 5 1 6 3 7 8 8 9 9 10 10 11 11 12 12 13 13
REMARK H PARENT
REMARK Flexibility Score: inf
ROOT
ATOM      1  C   UNL     1      16.947  -5.436  35.627  1.00  0.00     0.000 C 
ENDROOT
BRANCH   1   2
ATOM      2  C   UNL     1      15.944  -5.719  34.495  1.00  0.00     0.000 C 
BRANCH   2   3
ATOM      3  C   UNL     1      16.019  -7.169  33.991  1.00  0.00     0.006 C 
BRANCH   3   4
ATOM      4  C   UNL     1      16.205  -7.257  32.470  1.00  0.00     0.053 C 
BRANCH   4   5
ATOM      5  C   UNL     1      16.198  -8.686  32.026  1.00  0.00     0.041 C 
ATOM      6  O   UNL     1      15.187  -9.408  32.228  1.00  0.00    -0.550 OA
ATOM      7  O   UNL     1      17.328  -9.236  31.435  1.00  0.00    -0.550 OA
ENDBRANCH   4   5
ENDBRANCH   3   4
ENDBRANCH   2   3
ENDBRANCH   1   2
BRANCH   1   8
ATOM      8  C   UNL     1      17.700  -4.106  35.443  1.00  0.00     0.000 C 
BRANCH   8   9
ATOM      9  C   UNL     1      19.123  -4.236  34.867  1.00  0.00     0.006 C 
BRANCH   9  10
ATOM     10  C   UNL     1      19.138  -4.401  33.342  1.00  0.00     0.053 C 
BRANCH  10  11
ATOM     11  C   UNL     1      19.862  -5.654  32.959  1.00  0.00     0.041 C 
ATOM     12  O   UNL     1      19.539  -6.755  33.477  1.00  0.00    -0.550 OA
ATOM     13  O   UNL     1      20.926  -5.596  32.069  1.00  0.00    -0.550 OA
ENDBRANCH  10  11
ENDBRANCH   9  10
ENDBRANCH   8   9
ENDBRANCH   1   8
TORSDOF 8
ENDMDL
MODEL 4
REMARK VINA RESULT:    -4.629     19.346     20.427
REMARK INTER + INTRA:          -7.579
REMARK INTER:                  -6.713
REMARK INTRA:                  -0.866
REMARK UNBOUND:                -0.785
REMARK SMILES O=C([O-])CCCCCCCC(=O)[O-]
REMARK SMILES IDX 7 1 6 2 5 3 4 4 2 5 1 6 3 7 8 8 9 9 10 10 11 11 12 12 13 13
REMARK H PARENT
REMARK Flexibility Score: inf
ROOT
ATOM      1  C   UNL     1       9.161   3.370  18.749  1.00  0.00     0.000 C 
ENDROOT
BRANCH   1   2
ATOM      2  C   UNL     1       8.289   4.575  19.138  1.00  0.00     0.000 C 
BRANCH   2   3
ATOM      3  C   UNL     1       8.346   5.705  18.098  1.00  0.00     0.006 C 
BRANCH   3   4
ATOM      4  C   UNL     1       9.739   5.867  17.475  1.00  0.00     0.053 C 
BRANCH   4   5
ATOM      5  C   UNL     1      10.236   7.265  17.664  1.00  0.00     0.041 C 
ATOM      6  O   UNL     1       9.436   8.235  17.607  1.00  0.00    -0.550 OA
ATOM      7  O   UNL     1      11.591   7.501  17.854  1.00  0.00    -0.550 OA
ENDBRANCH   4   5
ENDBRANCH   3   4
ENDBRANCH   2   3
ENDBRANCH   1   2
BRANCH   1   8
ATOM      8  C   UNL     1      10.281   3.086  19.765  1.00  0.00     0.000 C 
BRANCH   8   9
ATOM      9  C   UNL     1      10.371   4.084  20.935  1.00  0.00     0.006 C 
BRANCH   9  10
ATOM     10  C   UNL     1      11.633   4.953  20.885  1.00  0.00     0.053 C 
BRANCH  10  11
ATOM     11  C   UNL     1      11.296   6.383  21.168  1.00  0.00     0.041 C 
ATOM     12  O   UNL     1      10.094   6.738  21.291  1.00  0.00    -0.550 OA
ATOM     13  O   UNL     1      12.306   7.333  21.246  1.00  0.00    -0.550 OA
ENDBRANCH  10  11
ENDBRANCH   9  10
ENDBRANCH   8   9
ENDBRANCH   1   8
TORSDOF 8
ENDMDL
MODEL 5
REMARK VINA RESULT:    -4.590      2.412      5.555
REMARK INTER + INTRA:          -7.521
REMARK INTER:                  -6.992
REMARK INTRA:                  -0.529
REMARK UNBOUND:                -0.785
REMARK SMILES O=C([O-])CCCCCCCC(=O)[O-]
REMARK SMILES IDX 7 1 6 2 5 3 4 4 2 5 1 6 3 7 8 8 9 9 10 10 11 11 12 12 13 13
REMARK H PARENT
REMARK Flexibility Score: inf
ROOT
ATOM      1  C   UNL     1      15.878  -5.175  34.433  1.00  0.00     0.000 C 
ENDROOT
BRANCH   1   2
ATOM      2  C   UNL     1      16.333  -5.694  33.058  1.00  0.00     0.000 C 
BRANCH   2   3
ATOM      3  C   UNL     1      16.848  -7.140  33.114  1.00  0.00     0.006 C 
BRANCH   3   4
ATOM      4  C   UNL     1      15.716  -8.175  33.072  1.00  0.00     0.053 C 
BRANCH   4   5
ATOM      5  C   UNL     1      15.943  -9.152  31.962  1.00  0.00     0.041 C 
ATOM      6  O   UNL     1      17.082  -9.262  31.437  1.00  0.00    -0.550 OA
ATOM      7  O   UNL     1      14.884  -9.905  31.471  1.00  0.00    -0.550 OA
ENDBRANCH   4   5
ENDBRANCH   3   4
ENDBRANCH   2   3
ENDBRANCH   1   2
BRANCH   1   8
ATOM      8  C   UNL     1      16.844  -5.559  35.568  1.00  0.00     0.000 C 
BRANCH   8   9
ATOM      9  C   UNL     1      17.680  -4.396  36.136  1.00  0.00     0.006 C 
BRANCH   9  10
ATOM     10  C   UNL     1      18.861  -4.014  35.236  1.00  0.00     0.053 C 
BRANCH  10  11
ATOM     11  C   UNL     1      18.655  -2.651  34.654  1.00  0.00     0.041 C 
ATOM     12  O   UNL     1      18.092  -2.519  33.536  1.00  0.00    -0.550 OA
ATOM     13  O   UNL     1      19.131  -1.531  35.322  1.00  0.00    -0.550 OA
ENDBRANCH  10  11
ENDBRANCH   9  10
ENDBRANCH   8   9
ENDBRANCH   1   8
TORSDOF 8
ENDMDL
MODEL 6
REMARK VINA RESULT:    -4.587      2.534      3.336
REMARK INTER + INTRA:          -7.517
REMARK INTER:                  -6.916
REMARK INTRA:                  -0.601
REMARK UNBOUND:                -0.785
REMARK SMILES O=C([O-])CCCCCCCC(=O)[O-]
REMARK SMILES IDX 7 1 6 2 5 3 4 4 2 5 1 6 3 7 8 8 9 9 10 10 11 11 12 12 13 13
REMARK H PARENT
REMARK Flexibility Score: inf
ROOT
ATOM      1  C   UNL     1      16.687  -4.558  33.397  1.00  0.00     0.000 C 
ENDROOT
BRANCH   1   2
ATOM      2  C   UNL     1      16.044  -4.907  34.750  1.00  0.00     0.000 C 
BRANCH   2   3
ATOM      3  C   UNL     1      17.002  -4.690  35.932  1.00  0.00     0.006 C 
BRANCH   3   4
ATOM      4  C   UNL     1      17.741  -5.972  36.338  1.00  0.00     0.053 C 
BRANCH   4   5
ATOM      5  C   UNL     1      19.212  -5.821  36.107  1.00  0.00     0.041 C 
ATOM      6  O   UNL     1      19.647  -4.899  35.369  1.00  0.00    -0.550 OA
ATOM      7  O   UNL     1      20.100  -6.730  36.668  1.00  0.00    -0.550 OA
ENDBRANCH   4   5
ENDBRANCH   3   4
ENDBRANCH   2   3
ENDBRANCH   1   2
BRANCH   1   8
ATOM      8  C   UNL     1      16.549  -5.687  32.359  1.00  0.00     0.000 C 
BRANCH   8   9
ATOM      9  C   UNL     1      17.004  -7.077  32.841  1.00  0.00     0.006 C 
BRANCH   9  10
ATOM     10  C   UNL     1      15.852  -8.087  32.928  1.00  0.00     0.053 C 
BRANCH  10  11
ATOM     11  C   UNL     1      16.045  -9.186  31.931  1.00  0.00     0.041 C 
ATOM     12  O   UNL     1      15.085  -9.943  31.631  1.00  0.00    -0.550 OA
ATOM     13  O   UNL     1      17.297  -9.406  31.373  1.00  0.00    -0.550 OA
ENDBRANCH  10  11
ENDBRANCH   9  10
ENDBRANCH   8   9
ENDBRANCH   1   8
TORSDOF 8
ENDMDL
MODEL 7
REMARK VINA RESULT:    -4.561     18.855     20.129
REMARK INTER + INTRA:          -7.479
REMARK INTER:                  -6.843
REMARK INTRA:                  -0.635
REMARK UNBOUND:                -0.785
REMARK SMILES O=C([O-])CCCCCCCC(=O)[O-]
REMARK SMILES IDX 7 1 6 2 5 3 4 4 2 5 1 6 3 7 8 8 9 9 10 10 11 11 12 12 13 13
REMARK H PARENT
REMARK Flexibility Score: inf
ROOT
ATOM      1  C   UNL     1      12.091   4.856  19.256  1.00  0.00     0.000 C 
ENDROOT
BRANCH   1   2
ATOM      2  C   UNL     1      11.185   3.905  18.455  1.00  0.00     0.000 C 
BRANCH   2   3
ATOM      3  C   UNL     1      10.097   3.256  19.324  1.00  0.00     0.006 C 
BRANCH   3   4
ATOM      4  C   UNL     1       8.681   3.512  18.790  1.00  0.00     0.053 C 
BRANCH   4   5
ATOM      5  C   UNL     1       8.288   4.938  19.017  1.00  0.00     0.041 C 
ATOM      6  O   UNL     1       8.103   5.708  18.039  1.00  0.00    -0.550 OA
ATOM      7  O   UNL     1       8.175   5.430  20.311  1.00  0.00    -0.550 OA
ENDBRANCH   4   5
ENDBRANCH   3   4
ENDBRANCH   2   3
ENDBRANCH   1   2
BRANCH   1   8
ATOM      8  C   UNL     1      11.666   4.991  20.729  1.00  0.00     0.000 C 
BRANCH   8   9
ATOM      9  C   UNL     1      11.676   6.428  21.283  1.00  0.00     0.006 C 
BRANCH   9  10
ATOM     10  C   UNL     1      11.992   7.480  20.213  1.00  0.00     0.053 C 
BRANCH  10  11
ATOM     11  C   UNL     1      13.163   8.314  20.628  1.00  0.00     0.041 C 
ATOM     12  O   UNL     1      13.985   8.724  19.768  1.00  0.00    -0.550 OA
ATOM     13  O   UNL     1      13.374   8.595  21.972  1.00  0.00    -0.550 OA
ENDBRANCH  10  11
ENDBRANCH   9  10
ENDBRANCH   8   9
ENDBRANCH   1   8
TORSDOF 8
ENDMDL
MODEL 8
REMARK VINA RESULT:    -4.558      2.319      2.749
REMARK INTER + INTRA:          -7.475
REMARK INTER:                  -6.969
REMARK INTRA:                  -0.506
REMARK UNBOUND:                -0.785
REMARK SMILES O=C([O-])CCCCCCCC(=O)[O-]
REMARK SMILES IDX 7 1 6 2 5 3 4 4 2 5 1 6 3 7 8 8 9 9 10 10 11 11 12 12 13 13
REMARK H PARENT
REMARK Flexibility Score: inf
ROOT
ATOM      1  C   UNL     1      16.411  -5.390  35.192  1.00  0.00     0.000 C 
ENDROOT
BRANCH   1   2
ATOM      2  C   UNL     1      16.278  -4.318  34.097  1.00  0.00     0.000 C 
BRANCH   2   3
ATOM      3  C   UNL     1      17.597  -4.074  33.347  1.00  0.00     0.006 C 
BRANCH   3   4
ATOM      4  C   UNL     1      18.274  -2.758  33.752  1.00  0.00     0.053 C 
BRANCH   4   5
ATOM      5  C   UNL     1      19.398  -3.021  34.705  1.00  0.00     0.041 C 
ATOM      6  O   UNL     1      20.015  -2.062  35.237  1.00  0.00    -0.550 OA
ATOM      7  O   UNL     1      19.795  -4.326  34.968  1.00  0.00    -0.550 OA
ENDBRANCH   4   5
ENDBRANCH   3   4
ENDBRANCH   2   3
ENDBRANCH   1   2
BRANCH   1   8
ATOM      8  C   UNL     1      16.854  -6.757  34.643  1.00  0.00     0.000 C 
BRANCH   8   9
ATOM      9  C   UNL     1      15.817  -7.474  33.759  1.00  0.00     0.006 C 
BRANCH   9  10
ATOM     10  C   UNL     1      16.212  -7.504  32.277  1.00  0.00     0.053 C 
BRANCH  10  11
ATOM     11  C   UNL     1      16.280  -8.914  31.782  1.00  0.00     0.041 C 
ATOM     12  O   UNL     1      17.370  -9.389  31.369  1.00  0.00    -0.550 OA
ATOM     13  O   UNL     1      15.127  -9.687  31.728  1.00  0.00    -0.550 OA
ENDBRANCH  10  11
ENDBRANCH   9  10
ENDBRANCH   8   9
ENDBRANCH   1   8
TORSDOF 8
ENDMDL
MODEL 9
REMARK VINA RESULT:    -4.517     18.613     19.333
REMARK INTER + INTRA:          -7.415
REMARK INTER:                  -6.971
REMARK INTRA:                  -0.444
REMARK UNBOUND:                -0.785
REMARK SMILES O=C([O-])CCCCCCCC(=O)[O-]
REMARK SMILES IDX 7 1 6 2 5 3 4 4 2 5 1 6 3 7 8 8 9 9 10 10 11 11 12 12 13 13
REMARK H PARENT
REMARK Flexibility Score: inf
ROOT
ATOM      1  C   UNL     1       9.429   4.904  20.073  1.00  0.00     0.000 C 
ENDROOT
BRANCH   1   2
ATOM      2  C   UNL     1      10.470   4.269  21.011  1.00  0.00     0.000 C 
BRANCH   2   3
ATOM      3  C   UNL     1      11.663   5.199  21.282  1.00  0.00     0.006 C 
BRANCH   3   4
ATOM      4  C   UNL     1      11.754   6.356  20.278  1.00  0.00     0.053 C 
BRANCH   4   5
ATOM      5  C   UNL     1      11.746   7.670  20.994  1.00  0.00     0.041 C 
ATOM      6  O   UNL     1      10.658   8.188  21.357  1.00  0.00    -0.550 OA
ATOM      7  O   UNL     1      12.939   8.346  21.218  1.00  0.00    -0.550 OA
ENDBRANCH   4   5
ENDBRANCH   3   4
ENDBRANCH   2   3
ENDBRANCH   1   2
BRANCH   1   8
ATOM      8  C   UNL     1       9.012   3.972  18.921  1.00  0.00     0.000 C 
BRANCH   8   9
ATOM      9  C   UNL     1       9.828   2.670  18.806  1.00  0.00     0.006 C 
BRANCH   9  10
ATOM     10  C   UNL     1       9.523   1.884  17.525  1.00  0.00     0.053 C 
BRANCH  10  11
ATOM     11  C   UNL     1       8.570   0.767  17.811  1.00  0.00     0.041 C 
ATOM     12  O   UNL     1       7.909   0.244  16.875  1.00  0.00    -0.550 OA
ATOM     13  O   UNL     1       8.374   0.338  19.117  1.00  0.00    -0.550 OA
ENDBRANCH  10  11
ENDBRANCH   9  10
ENDBRANCH   8   9
ENDBRANCH   1   8
TORSDOF 8
ENDMDL
