MODEL 1
REMARK VINA RESULT:    -6.827      0.000      0.000
REMARK INTER + INTRA:          -8.303
REMARK INTER:                  -8.024
REMARK INTRA:                  -0.279
REMARK UNBOUND:                -0.279
REMARK SMILES O=c1cc(-c2ccc(O)c(O)c2)oc2cc(O)cc(O)c12
REMARK SMILES IDX 4 1 3 2 2 3 1 4 21 5 19 6 18 7 16 8 15 9 14 10 13 11 5 12
REMARK SMILES IDX 6 13 7 14 8 15 12 16 10 17 9 18 11 20 20 22 17 24
REMARK H PARENT 9 19 11 21 20 23 17 25
REMARK Flexibility Score: inf
ROOT
ATOM      1  C   UNL     1      -6.346  25.479  33.854  1.00  0.00     0.138 A 
ATOM      2  C   UNL     1      -7.050  24.518  34.592  1.00  0.00     0.100 A 
ATOM      3  C   UNL     1      -7.401  23.308  33.993  1.00  0.00     0.197 A 
ATOM      4  O   UNL     1      -7.977  22.441  34.699  1.00  0.00    -0.289 OA
ATOM      5  C   UNL     1      -7.072  23.074  32.636  1.00  0.00     0.107 A 
ATOM      6  C   UNL     1      -7.415  21.894  31.909  1.00  0.00     0.134 A 
ATOM      7  C   UNL     1      -6.935  21.724  30.605  1.00  0.00     0.093 A 
ATOM      8  C   UNL     1      -6.177  22.714  29.981  1.00  0.00     0.123 A 
ATOM      9  C   UNL     1      -5.882  23.895  30.663  1.00  0.00     0.094 A 
ATOM     10  C   UNL     1      -6.317  24.080  31.977  1.00  0.00     0.146 A 
ATOM     11  O   UNL     1      -6.001  25.212  32.598  1.00  0.00    -0.456 OA
ENDROOT
BRANCH   1  12
ATOM     12  C   UNL     1      -5.949  26.783  34.442  1.00  0.00     0.021 A 
ATOM     13  C   UNL     1      -5.140  26.862  35.589  1.00  0.00     0.016 A 
ATOM     14  C   UNL     1      -4.791  28.102  36.125  1.00  0.00     0.051 A 
ATOM     15  C   UNL     1      -5.243  29.289  35.539  1.00  0.00     0.157 A 
ATOM     16  C   UNL     1      -6.416  27.976  33.861  1.00  0.00     0.062 A 
ATOM     17  C   UNL     1      -6.070  29.224  34.392  1.00  0.00     0.158 A 
BRANCH  15  18
ATOM     18  O   UNL     1      -4.855  30.496  36.123  1.00  0.00    -0.504 OA
ATOM     19  H   UNL     1      -5.250  30.862  36.977  1.00  0.00     0.293 HD
ENDBRANCH  15  18
BRANCH  17  20
ATOM     20  O   UNL     1      -6.564  30.364  33.755  1.00  0.00    -0.504 OA
ATOM     21  H   UNL     1      -6.684  31.258  34.209  1.00  0.00     0.293 HD
ENDBRANCH  17  20
ENDBRANCH   1  12
BRANCH   6  22
ATOM     22  O   UNL     1      -8.237  20.880  32.409  1.00  0.00    -0.507 OA
ATOM     23  H   UNL     1      -9.057  20.521  31.945  1.00  0.00     0.293 HD
ENDBRANCH   6  22
BRANCH   8  24
ATOM     24  O   UNL     1      -5.730  22.516  28.676  1.00  0.00    -0.508 OA
ATOM     25  H   UNL     1      -6.108  23.048  27.900  1.00  0.00     0.293 HD
ENDBRANCH   8  24
TORSDOF 5
ENDMDL
MODEL 2
REMARK VINA RESULT:    -6.642      8.695     13.291
REMARK INTER + INTRA:          -8.086
REMARK INTER:                  -7.787
REMARK INTRA:                  -0.299
REMARK UNBOUND:                -0.279
REMARK SMILES O=c1cc(-c2ccc(O)c(O)c2)oc2cc(O)cc(O)c12
REMARK SMILES IDX 4 1 3 2 2 3 1 4 21 5 19 6 18 7 16 8 15 9 14 10 13 11 5 12
REMARK SMILES IDX 6 13 7 14 8 15 12 16 10 17 9 18 11 20 20 22 17 24
REMARK H PARENT 9 19 11 21 20 23 17 25
REMARK Flexibility Score: inf
ROOT
ATOM      1  C   UNL     1      -4.499  36.822  34.257  1.00  0.00     0.138 A 
ATOM      2  C   UNL     1      -4.269  37.964  35.035  1.00  0.00     0.100 A 
ATOM      3  C   UNL     1      -3.460  38.988  34.539  1.00  0.00     0.197 A 
ATOM      4  O   UNL     1      -3.323  40.027  35.233  1.00  0.00    -0.289 OA
ATOM      5  C   UNL     1      -2.852  38.848  33.268  1.00  0.00     0.107 A 
ATOM      6  C   UNL     1      -1.975  39.808  32.678  1.00  0.00     0.134 A 
ATOM      7  C   UNL     1      -1.526  39.616  31.366  1.00  0.00     0.093 A 
ATOM      8  C   UNL     1      -1.871  38.473  30.645  1.00  0.00     0.123 A 
ATOM      9  C   UNL     1      -2.684  37.503  31.233  1.00  0.00     0.094 A 
ATOM     10  C   UNL     1      -3.176  37.681  32.527  1.00  0.00     0.146 A 
ATOM     11  O   UNL     1      -3.960  36.741  33.044  1.00  0.00    -0.456 OA
ENDROOT
BRANCH   1  12
ATOM     12  C   UNL     1      -5.350  35.704  34.737  1.00  0.00     0.021 A 
ATOM     13  C   UNL     1      -6.510  35.933  35.497  1.00  0.00     0.016 A 
ATOM     14  C   UNL     1      -7.286  34.861  35.943  1.00  0.00     0.051 A 
ATOM     15  C   UNL     1      -6.922  33.543  35.651  1.00  0.00     0.157 A 
ATOM     16  C   UNL     1      -4.976  34.378  34.455  1.00  0.00     0.062 A 
ATOM     17  C   UNL     1      -5.748  33.298  34.899  1.00  0.00     0.158 A 
BRANCH  15  18
ATOM     18  O   UNL     1      -7.742  32.518  36.125  1.00  0.00    -0.504 OA
ATOM     19  H   UNL     1      -7.655  31.550  35.849  1.00  0.00     0.293 HD
ENDBRANCH  15  18
BRANCH  17  20
ATOM     20  O   UNL     1      -5.318  32.010  34.572  1.00  0.00    -0.504 OA
ATOM     21  H   UNL     1      -5.853  31.173  34.752  1.00  0.00     0.293 HD
ENDBRANCH  17  20
ENDBRANCH   1  12
BRANCH   6  22
ATOM     22  O   UNL     1      -1.500  40.943  33.341  1.00  0.00    -0.507 OA
ATOM     23  H   UNL     1      -1.417  41.034  34.342  1.00  0.00     0.293 HD
ENDBRANCH   6  22
BRANCH   8  24
ATOM     24  O   UNL     1      -1.392  38.309  29.347  1.00  0.00    -0.508 OA
ATOM     25  H   UNL     1      -1.995  37.990  28.597  1.00  0.00     0.293 HD
ENDBRANCH   8  24
TORSDOF 5
ENDMDL
MODEL 3
REMARK VINA RESULT:    -6.391     18.824     20.330
REMARK INTER + INTRA:          -7.790
REMARK INTER:                  -7.520
REMARK INTRA:                  -0.270
REMARK UNBOUND:                -0.279
REMARK SMILES O=c1cc(-c2ccc(O)c(O)c2)oc2cc(O)cc(O)c12
REMARK SMILES IDX 4 1 3 2 2 3 1 4 21 5 19 6 18 7 16 8 15 9 14 10 13 11 5 12
REMARK SMILES IDX 6 13 7 14 8 15 12 16 10 17 9 18 11 20 20 22 17 24
REMARK H PARENT 9 19 11 21 20 23 17 25
REMARK Flexibility Score: inf
ROOT
ATOM      1  C   UNL     1      -3.732  38.669  18.703  1.00  0.00     0.138 A 
ATOM      2  C   UNL     1      -3.056  39.707  18.049  1.00  0.00     0.100 A 
ATOM      3  C   UNL     1      -1.927  39.422  17.282  1.00  0.00     0.197 A 
ATOM      4  O   UNL     1      -1.378  40.365  16.657  1.00  0.00    -0.289 OA
ATOM      5  C   UNL     1      -1.453  38.091  17.197  1.00  0.00     0.107 A 
ATOM      6  C   UNL     1      -0.288  37.687  16.477  1.00  0.00     0.134 A 
ATOM      7  C   UNL     1       0.017  36.325  16.367  1.00  0.00     0.093 A 
ATOM      8  C   UNL     1      -0.764  35.357  17.000  1.00  0.00     0.123 A 
ATOM      9  C   UNL     1      -1.875  35.745  17.750  1.00  0.00     0.094 A 
ATOM     10  C   UNL     1      -2.225  37.093  17.850  1.00  0.00     0.146 A 
ATOM     11  O   UNL     1      -3.299  37.419  18.562  1.00  0.00    -0.456 OA
ENDROOT
BRANCH   1  12
ATOM     12  C   UNL     1      -4.938  38.917  19.532  1.00  0.00     0.021 A 
ATOM     13  C   UNL     1      -6.147  38.238  19.301  1.00  0.00     0.016 A 
ATOM     14  C   UNL     1      -7.268  38.500  20.091  1.00  0.00     0.051 A 
ATOM     15  C   UNL     1      -7.213  39.445  21.121  1.00  0.00     0.157 A 
ATOM     16  C   UNL     1      -4.888  39.878  20.558  1.00  0.00     0.062 A 
ATOM     17  C   UNL     1      -6.007  40.146  21.355  1.00  0.00     0.158 A 
BRANCH  15  18
ATOM     18  O   UNL     1      -8.369  39.657  21.875  1.00  0.00    -0.504 OA
ATOM     19  H   UNL     1      -8.507  39.299  22.809  1.00  0.00     0.293 HD
ENDBRANCH  15  18
BRANCH  17  20
ATOM     20  O   UNL     1      -5.877  41.107  22.360  1.00  0.00    -0.504 OA
ATOM     21  H   UNL     1      -5.736  42.091  22.185  1.00  0.00     0.293 HD
ENDBRANCH  17  20
ENDBRANCH   1  12
BRANCH   6  22
ATOM     22  O   UNL     1       0.608  38.577  15.880  1.00  0.00    -0.507 OA
ATOM     23  H   UNL     1       0.542  38.913  14.931  1.00  0.00     0.293 HD
ENDBRANCH   6  22
BRANCH   8  24
ATOM     24  O   UNL     1      -0.421  34.012  16.880  1.00  0.00    -0.508 OA
ATOM     25  H   UNL     1      -0.864  33.300  17.450  1.00  0.00     0.293 HD
ENDBRANCH   8  24
TORSDOF 5
ENDMDL
MODEL 4
REMARK VINA RESULT:    -6.312     17.624     19.622
REMARK INTER + INTRA:          -7.697
REMARK INTER:                  -7.393
REMARK INTRA:                  -0.304
REMARK UNBOUND:                -0.279
REMARK SMILES O=c1cc(-c2ccc(O)c(O)c2)oc2cc(O)cc(O)c12
REMARK SMILES IDX 4 1 3 2 2 3 1 4 21 5 19 6 18 7 16 8 15 9 14 10 13 11 5 12
REMARK SMILES IDX 6 13 7 14 8 15 12 16 10 17 9 18 11 20 20 22 17 24
REMARK H PARENT 9 19 11 21 20 23 17 25
REMARK Flexibility Score: inf
ROOT
ATOM      1  C   UNL     1      -3.411  38.401  19.495  1.00  0.00     0.138 A 
ATOM      2  C   UNL     1      -2.481  39.418  19.241  1.00  0.00     0.100 A 
ATOM      3  C   UNL     1      -1.346  39.142  18.477  1.00  0.00     0.197 A 
ATOM      4  O   UNL     1      -0.563  40.090  18.213  1.00  0.00    -0.289 OA
ATOM      5  C   UNL     1      -1.127  37.830  17.995  1.00  0.00     0.107 A 
ATOM      6  C   UNL     1       0.016  37.422  17.241  1.00  0.00     0.134 A 
ATOM      7  C   UNL     1       0.068  36.125  16.717  1.00  0.00     0.093 A 
ATOM      8  C   UNL     1      -0.948  35.203  16.969  1.00  0.00     0.123 A 
ATOM      9  C   UNL     1      -2.043  35.575  17.750  1.00  0.00     0.094 A 
ATOM     10  C   UNL     1      -2.142  36.872  18.258  1.00  0.00     0.146 A 
ATOM     11  O   UNL     1      -3.208  37.191  18.984  1.00  0.00    -0.456 OA
ENDROOT
BRANCH   1  12
ATOM     12  C   UNL     1      -4.634  38.641  20.302  1.00  0.00     0.021 A 
ATOM     13  C   UNL     1      -5.281  39.889  20.311  1.00  0.00     0.016 A 
ATOM     14  C   UNL     1      -6.424  40.088  21.087  1.00  0.00     0.051 A 
ATOM     15  C   UNL     1      -6.943  39.055  21.875  1.00  0.00     0.157 A 
ATOM     16  C   UNL     1      -5.148  37.607  21.105  1.00  0.00     0.062 A 
ATOM     17  C   UNL     1      -6.294  37.798  21.886  1.00  0.00     0.158 A 
BRANCH  15  18
ATOM     18  O   UNL     1      -8.090  39.319  22.625  1.00  0.00    -0.504 OA
ATOM     19  H   UNL     1      -8.463  40.245  22.781  1.00  0.00     0.293 HD
ENDBRANCH  15  18
BRANCH  17  20
ATOM     20  O   UNL     1      -6.750  36.722  22.650  1.00  0.00    -0.504 OA
ATOM     21  H   UNL     1      -7.052  35.840  22.260  1.00  0.00     0.293 HD
ENDBRANCH  17  20
ENDBRANCH   1  12
BRANCH   6  22
ATOM     22  O   UNL     1       1.125  38.237  17.003  1.00  0.00    -0.507 OA
ATOM     23  H   UNL     1       1.341  38.675  16.120  1.00  0.00     0.293 HD
ENDBRANCH   6  22
BRANCH   8  24
ATOM     24  O   UNL     1      -0.853  33.916  16.444  1.00  0.00    -0.508 OA
ATOM     25  H   UNL     1      -1.608  33.246  16.545  1.00  0.00     0.293 HD
ENDBRANCH   8  24
TORSDOF 5
ENDMDL
MODEL 5
REMARK VINA RESULT:    -6.207     19.051     20.730
REMARK INTER + INTRA:          -7.575
REMARK INTER:                  -7.285
REMARK INTRA:                  -0.289
REMARK UNBOUND:                -0.279
REMARK SMILES O=c1cc(-c2ccc(O)c(O)c2)oc2cc(O)cc(O)c12
REMARK SMILES IDX 4 1 3 2 2 3 1 4 21 5 19 6 18 7 16 8 15 9 14 10 13 11 5 12
REMARK SMILES IDX 6 13 7 14 8 15 12 16 10 17 9 18 11 20 20 22 17 24
REMARK H PARENT 9 19 11 21 20 23 17 25
REMARK Flexibility Score: inf
ROOT
ATOM      1  C   UNL     1      -3.610  38.387  18.729  1.00  0.00     0.138 A 
ATOM      2  C   UNL     1      -3.239  37.051  18.529  1.00  0.00     0.100 A 
ATOM      3  C   UNL     1      -2.067  36.756  17.832  1.00  0.00     0.197 A 
ATOM      4  O   UNL     1      -1.727  35.550  17.722  1.00  0.00    -0.289 OA
ATOM      5  C   UNL     1      -1.280  37.807  17.302  1.00  0.00     0.107 A 
ATOM      6  C   UNL     1      -0.088  37.625  16.539  1.00  0.00     0.134 A 
ATOM      7  C   UNL     1       0.670  38.742  16.167  1.00  0.00     0.093 A 
ATOM      8  C   UNL     1       0.249  40.035  16.477  1.00  0.00     0.123 A 
ATOM      9  C   UNL     1      -0.943  40.227  17.177  1.00  0.00     0.094 A 
ATOM     10  C   UNL     1      -1.703  39.132  17.592  1.00  0.00     0.146 A 
ATOM     11  O   UNL     1      -2.824  39.357  18.269  1.00  0.00    -0.456 OA
ENDROOT
BRANCH   1  12
ATOM     12  C   UNL     1      -4.846  38.756  19.463  1.00  0.00     0.021 A 
ATOM     13  C   UNL     1      -6.093  38.190  19.144  1.00  0.00     0.016 A 
ATOM     14  C   UNL     1      -7.240  38.564  19.845  1.00  0.00     0.051 A 
ATOM     15  C   UNL     1      -7.175  39.512  20.871  1.00  0.00     0.157 A 
ATOM     16  C   UNL     1      -4.783  39.720  20.485  1.00  0.00     0.062 A 
ATOM     17  C   UNL     1      -5.930  40.100  21.193  1.00  0.00     0.158 A 
BRANCH  15  18
ATOM     18  O   UNL     1      -8.359  39.839  21.534  1.00  0.00    -0.504 OA
ATOM     19  H   UNL     1      -9.166  39.233  21.583  1.00  0.00     0.293 HD
ENDBRANCH  15  18
BRANCH  17  20
ATOM     20  O   UNL     1      -5.787  41.057  22.201  1.00  0.00    -0.504 OA
ATOM     21  H   UNL     1      -6.184  41.984  22.160  1.00  0.00     0.293 HD
ENDBRANCH  17  20
ENDBRANCH   1  12
BRANCH   6  22
ATOM     22  O   UNL     1       0.377  36.382  16.102  1.00  0.00    -0.507 OA
ATOM     23  H   UNL     1       0.208  35.505  16.571  1.00  0.00     0.293 HD
ENDBRANCH   6  22
BRANCH   8  24
ATOM     24  O   UNL     1       1.022  41.123  16.077  1.00  0.00    -0.508 OA
ATOM     25  H   UNL     1       0.691  42.076  16.185  1.00  0.00     0.293 HD
ENDBRANCH   8  24
TORSDOF 5
ENDMDL
MODEL 6
REMARK VINA RESULT:    -6.123     17.392     19.592
REMARK INTER + INTRA:          -7.475
REMARK INTER:                  -7.210
REMARK INTRA:                  -0.266
REMARK UNBOUND:                -0.279
REMARK SMILES O=c1cc(-c2ccc(O)c(O)c2)oc2cc(O)cc(O)c12
REMARK SMILES IDX 4 1 3 2 2 3 1 4 21 5 19 6 18 7 16 8 15 9 14 10 13 11 5 12
REMARK SMILES IDX 6 13 7 14 8 15 12 16 10 17 9 18 11 20 20 22 17 24
REMARK H PARENT 9 19 11 21 20 23 17 25
REMARK Flexibility Score: inf
ROOT
ATOM      1  C   UNL     1      -3.708  38.008  19.570  1.00  0.00     0.138 A 
ATOM      2  C   UNL     1      -4.961  38.217  18.978  1.00  0.00     0.100 A 
ATOM      3  C   UNL     1      -6.019  38.697  19.751  1.00  0.00     0.197 A 
ATOM      4  O   UNL     1      -7.114  38.934  19.178  1.00  0.00    -0.289 OA
ATOM      5  C   UNL     1      -5.827  38.937  21.132  1.00  0.00     0.107 A 
ATOM      6  C   UNL     1      -6.845  39.387  22.027  1.00  0.00     0.134 A 
ATOM      7  C   UNL     1      -6.509  39.703  23.350  1.00  0.00     0.093 A 
ATOM      8  C   UNL     1      -5.210  39.526  23.826  1.00  0.00     0.123 A 
ATOM      9  C   UNL     1      -4.220  39.035  22.973  1.00  0.00     0.094 A 
ATOM     10  C   UNL     1      -4.515  38.745  21.640  1.00  0.00     0.146 A 
ATOM     11  O   UNL     1      -3.540  38.293  20.857  1.00  0.00    -0.456 OA
ENDROOT
BRANCH   1  12
ATOM     12  C   UNL     1      -2.550  37.498  18.794  1.00  0.00     0.021 A 
ATOM     13  C   UNL     1      -1.372  38.251  18.644  1.00  0.00     0.016 A 
ATOM     14  C   UNL     1      -0.302  37.749  17.900  1.00  0.00     0.051 A 
ATOM     15  C   UNL     1      -0.382  36.496  17.285  1.00  0.00     0.157 A 
ATOM     16  C   UNL     1      -2.636  36.244  18.163  1.00  0.00     0.062 A 
ATOM     17  C   UNL     1      -1.567  35.734  17.416  1.00  0.00     0.158 A 
BRANCH  15  18
ATOM     18  O   UNL     1       0.724  36.053  16.558  1.00  0.00    -0.504 OA
ATOM     19  H   UNL     1       1.313  35.281  16.839  1.00  0.00     0.293 HD
ENDBRANCH  15  18
BRANCH  17  20
ATOM     20  O   UNL     1      -1.724  34.478  16.827  1.00  0.00    -0.504 OA
ATOM     21  H   UNL     1      -2.429  34.261  16.137  1.00  0.00     0.293 HD
ENDBRANCH  17  20
ENDBRANCH   1  12
BRANCH   6  22
ATOM     22  O   UNL     1      -8.191  39.517  21.677  1.00  0.00    -0.507 OA
ATOM     23  H   UNL     1      -8.702  40.386  21.660  1.00  0.00     0.293 HD
ENDBRANCH   6  22
BRANCH   8  24
ATOM     24  O   UNL     1      -4.917  39.836  25.152  1.00  0.00    -0.508 OA
ATOM     25  H   UNL     1      -4.850  40.797  25.469  1.00  0.00     0.293 HD
ENDBRANCH   8  24
TORSDOF 5
ENDMDL
MODEL 7
REMARK VINA RESULT:    -6.075      8.398     13.616
REMARK INTER + INTRA:          -7.419
REMARK INTER:                  -7.151
REMARK INTRA:                  -0.267
REMARK UNBOUND:                -0.279
REMARK SMILES O=c1cc(-c2ccc(O)c(O)c2)oc2cc(O)cc(O)c12
REMARK SMILES IDX 4 1 3 2 2 3 1 4 21 5 19 6 18 7 16 8 15 9 14 10 13 11 5 12
REMARK SMILES IDX 6 13 7 14 8 15 12 16 10 17 9 18 11 20 20 22 17 24
REMARK H PARENT 9 19 11 21 20 23 17 25
REMARK Flexibility Score: inf
ROOT
ATOM      1  C   UNL     1      -4.420  36.460  34.044  1.00  0.00     0.138 A 
ATOM      2  C   UNL     1      -4.141  36.578  32.676  1.00  0.00     0.100 A 
ATOM      3  C   UNL     1      -3.334  37.622  32.223  1.00  0.00     0.197 A 
ATOM      4  O   UNL     1      -3.050  37.666  30.998  1.00  0.00    -0.289 OA
ATOM      5  C   UNL     1      -2.832  38.572  33.144  1.00  0.00     0.107 A 
ATOM      6  C   UNL     1      -2.033  39.702  32.791  1.00  0.00     0.134 A 
ATOM      7  C   UNL     1      -1.495  40.508  33.802  1.00  0.00     0.093 A 
ATOM      8  C   UNL     1      -1.776  40.264  35.146  1.00  0.00     0.123 A 
ATOM      9  C   UNL     1      -2.600  39.194  35.498  1.00  0.00     0.094 A 
ATOM     10  C   UNL     1      -3.123  38.351  34.516  1.00  0.00     0.146 A 
ATOM     11  O   UNL     1      -3.891  37.334  34.895  1.00  0.00    -0.456 OA
ENDROOT
BRANCH   1  12
ATOM     12  C   UNL     1      -5.273  35.369  34.579  1.00  0.00     0.021 A 
ATOM     13  C   UNL     1      -6.407  35.636  35.367  1.00  0.00     0.016 A 
ATOM     14  C   UNL     1      -7.185  34.590  35.865  1.00  0.00     0.051 A 
ATOM     15  C   UNL     1      -6.850  33.258  35.598  1.00  0.00     0.157 A 
ATOM     16  C   UNL     1      -4.929  34.030  34.322  1.00  0.00     0.062 A 
ATOM     17  C   UNL     1      -5.704  32.975  34.818  1.00  0.00     0.158 A 
BRANCH  15  18
ATOM     18  O   UNL     1      -7.672  32.260  36.123  1.00  0.00    -0.504 OA
ATOM     19  H   UNL     1      -8.474  31.877  35.644  1.00  0.00     0.293 HD
ENDBRANCH  15  18
BRANCH  17  20
ATOM     20  O   UNL     1      -5.304  31.672  34.513  1.00  0.00    -0.504 OA
ATOM     21  H   UNL     1      -5.417  30.886  35.136  1.00  0.00     0.293 HD
ENDBRANCH  17  20
ENDBRANCH   1  12
BRANCH   6  22
ATOM     22  O   UNL     1      -1.762  40.086  31.475  1.00  0.00    -0.507 OA
ATOM     23  H   UNL     1      -2.369  40.651  30.902  1.00  0.00     0.293 HD
ENDBRANCH   6  22
BRANCH   8  24
ATOM     24  O   UNL     1      -1.236  41.097  36.123  1.00  0.00    -0.508 OA
ATOM     25  H   UNL     1      -1.749  41.327  36.967  1.00  0.00     0.293 HD
ENDBRANCH   8  24
TORSDOF 5
ENDMDL
MODEL 8
REMARK VINA RESULT:    -6.006      8.884     12.901
REMARK INTER + INTRA:          -7.337
REMARK INTER:                  -7.036
REMARK INTRA:                  -0.301
REMARK UNBOUND:                -0.279
REMARK SMILES O=c1cc(-c2ccc(O)c(O)c2)oc2cc(O)cc(O)c12
REMARK SMILES IDX 4 1 3 2 2 3 1 4 21 5 19 6 18 7 16 8 15 9 14 10 13 11 5 12
REMARK SMILES IDX 6 13 7 14 8 15 12 16 10 17 9 18 11 20 20 22 17 24
REMARK H PARENT 9 19 11 21 20 23 17 25
REMARK Flexibility Score: inf
ROOT
ATOM      1  C   UNL     1      -3.710  37.837  33.399  1.00  0.00     0.138 A 
ATOM      2  C   UNL     1      -4.656  38.512  34.181  1.00  0.00     0.100 A 
ATOM      3  C   UNL     1      -5.615  37.785  34.887  1.00  0.00     0.197 A 
ATOM      4  O   UNL     1      -6.411  38.414  35.630  1.00  0.00    -0.289 OA
ATOM      5  C   UNL     1      -5.646  36.374  34.780  1.00  0.00     0.107 A 
ATOM      6  C   UNL     1      -6.604  35.531  35.422  1.00  0.00     0.134 A 
ATOM      7  C   UNL     1      -6.464  34.140  35.337  1.00  0.00     0.093 A 
ATOM      8  C   UNL     1      -5.440  33.562  34.587  1.00  0.00     0.123 A 
ATOM      9  C   UNL     1      -4.530  34.377  33.913  1.00  0.00     0.094 A 
ATOM     10  C   UNL     1      -4.622  35.767  34.005  1.00  0.00     0.146 A 
ATOM     11  O   UNL     1      -3.727  36.508  33.360  1.00  0.00    -0.456 OA
ENDROOT
BRANCH   1  12
ATOM     12  C   UNL     1      -2.669  38.561  32.628  1.00  0.00     0.021 A 
ATOM     13  C   UNL     1      -2.083  39.746  33.109  1.00  0.00     0.016 A 
ATOM     14  C   UNL     1      -1.114  40.411  32.357  1.00  0.00     0.051 A 
ATOM     15  C   UNL     1      -0.711  39.920  31.111  1.00  0.00     0.157 A 
ATOM     16  C   UNL     1      -2.275  38.075  31.369  1.00  0.00     0.062 A 
ATOM     17  C   UNL     1      -1.303  38.737  30.608  1.00  0.00     0.158 A 
BRANCH  15  18
ATOM     18  O   UNL     1       0.265  40.632  30.412  1.00  0.00    -0.504 OA
ATOM     19  H   UNL     1       1.105  41.001  30.833  1.00  0.00     0.293 HD
ENDBRANCH  15  18
BRANCH  17  20
ATOM     20  O   UNL     1      -0.957  38.188  29.372  1.00  0.00    -0.504 OA
ATOM     21  H   UNL     1      -0.738  38.736  28.552  1.00  0.00     0.293 HD
ENDBRANCH  17  20
ENDBRANCH   1  12
BRANCH   6  22
ATOM     22  O   UNL     1      -7.714  36.005  36.125  1.00  0.00    -0.507 OA
ATOM     23  H   UNL     1      -7.691  36.359  37.069  1.00  0.00     0.293 HD
ENDBRANCH   6  22
BRANCH   8  24
ATOM     24  O   UNL     1      -5.342  32.174  34.514  1.00  0.00    -0.508 OA
ATOM     25  H   UNL     1      -6.041  31.619  34.033  1.00  0.00     0.293 HD
ENDBRANCH   8  24
TORSDOF 5
ENDMDL
