MODEL 1
REMARK VINA RESULT:    -3.867      0.000      0.000
REMARK INTER + INTRA:         -10.082
REMARK INTER:                  -7.259
REMARK INTRA:                  -2.824
REMARK UNBOUND:                -2.824
REMARK SMILES CCCCCCCCC=CCCCCCCCC(=O)[O-]
REMARK SMILES IDX 10 1 9 2 11 3 12 4 13 5 14 6 15 7 16 8 17 9 18 10 19 11
REMARK SMILES IDX 20 12 8 13 7 14 6 15 5 16 4 17 3 18 2 19 1 20
REMARK H PARENT
REMARK Flexibility Score: inf
ROOT
ATOM      1  C   UNL     1      10.147  47.601  61.181  1.00  0.00    -0.031 C 
ATOM      2  C   UNL     1       9.803  48.619  60.371  1.00  0.00    -0.031 C 
ENDROOT
BRANCH   1   3
ATOM      3  C   UNL     1       9.247  46.979  62.220  1.00  0.00     0.027 C 
BRANCH   3   4
ATOM      4  C   UNL     1       9.685  47.314  63.657  1.00  0.00     0.004 C 
BRANCH   4   5
ATOM      5  C   UNL     1      11.177  47.670  63.797  1.00  0.00     0.000 C 
BRANCH   5   6
ATOM      6  C   UNL     1      11.423  49.090  64.350  1.00  0.00     0.000 C 
BRANCH   6   7
ATOM      7  C   UNL     1      12.395  49.897  63.477  1.00  0.00     0.000 C 
BRANCH   7   8
ATOM      8  C   UNL     1      13.109  48.989  62.464  1.00  0.00     0.006 C 
BRANCH   8   9
ATOM      9  C   UNL     1      13.399  49.711  61.141  1.00  0.00     0.053 C 
BRANCH   9  10
ATOM     10  C   UNL     1      13.988  48.786  60.121  1.00  0.00     0.041 C 
ATOM     11  O   UNL     1      15.158  48.976  59.695  1.00  0.00    -0.550 OA
ATOM     12  O   UNL     1      13.257  47.696  59.665  1.00  0.00    -0.550 OA
ENDBRANCH   9  10
ENDBRANCH   8   9
ENDBRANCH   7   8
ENDBRANCH   6   7
ENDBRANCH   5   6
ENDBRANCH   4   5
ENDBRANCH   3   4
ENDBRANCH   1   3
BRANCH   2  13
ATOM     13  C   UNL     1       8.439  49.265  60.319  1.00  0.00     0.027 C 
BRANCH  13  14
ATOM     14  C   UNL     1       8.524  50.777  60.562  1.00  0.00     0.004 C 
BRANCH  14  15
ATOM     15  C   UNL     1       9.627  51.142  61.571  1.00  0.00     0.000 C 
BRANCH  15  16
ATOM     16  C   UNL     1       9.047  51.681  62.896  1.00  0.00     0.000 C 
BRANCH  16  17
ATOM     17  C   UNL     1       8.196  50.650  63.658  1.00  0.00    -0.000 C 
BRANCH  17  18
ATOM     18  C   UNL     1       8.141  50.921  65.167  1.00  0.00    -0.000 C 
BRANCH  18  19
ATOM     19  C   UNL     1       7.365  49.815  65.895  1.00  0.00    -0.003 C 
ATOM     20  C   UNL     1       7.024  50.229  67.323  1.00  0.00     0.004 C 
ENDBRANCH  18  19
ENDBRANCH  17  18
ENDBRANCH  16  17
ENDBRANCH  15  16
ENDBRANCH  14  15
ENDBRANCH  13  14
ENDBRANCH   2  13
TORSDOF 15
ENDMDL
MODEL 2
REMARK VINA RESULT:    -3.812      1.463      3.188
REMARK INTER + INTRA:          -9.978
REMARK INTER:                  -7.153
REMARK INTRA:                  -2.825
REMARK UNBOUND:                -2.824
REMARK SMILES CCCCCCCCC=CCCCCCCCC(=O)[O-]
REMARK SMILES IDX 10 1 9 2 11 3 12 4 13 5 14 6 15 7 16 8 17 9 18 10 19 11
REMARK SMILES IDX 20 12 8 13 7 14 6 15 5 16 4 17 3 18 2 19 1 20
REMARK H PARENT
REMARK Flexibility Score: inf
ROOT
ATOM      1  C   UNL     1       9.396  47.304  62.579  1.00  0.00    -0.031 C 
ATOM      2  C   UNL     1      10.062  47.594  63.711  1.00  0.00    -0.031 C 
ENDROOT
BRANCH   1   3
ATOM      3  C   UNL     1      10.007  47.265  61.200  1.00  0.00     0.027 C 
BRANCH   3   4
ATOM      4  C   UNL     1       9.958  48.632  60.494  1.00  0.00     0.004 C 
BRANCH   4   5
ATOM      5  C   UNL     1      11.335  49.168  60.058  1.00  0.00     0.000 C 
BRANCH   5   6
ATOM      6  C   UNL     1      12.438  48.088  60.032  1.00  0.00     0.000 C 
BRANCH   6   7
ATOM      7  C   UNL     1      13.711  48.536  60.764  1.00  0.00     0.000 C 
BRANCH   7   8
ATOM      8  C   UNL     1      14.408  49.677  60.009  1.00  0.00     0.006 C 
BRANCH   8   9
ATOM      9  C   UNL     1      15.805  49.277  59.516  1.00  0.00     0.053 C 
BRANCH   9  10
ATOM     10  C   UNL     1      15.982  49.562  58.056  1.00  0.00     0.041 C 
ATOM     11  O   UNL     1      16.152  48.616  57.242  1.00  0.00    -0.550 OA
ATOM     12  O   UNL     1      15.927  50.871  57.590  1.00  0.00    -0.550 OA
ENDBRANCH   9  10
ENDBRANCH   8   9
ENDBRANCH   7   8
ENDBRANCH   6   7
ENDBRANCH   5   6
ENDBRANCH   4   5
ENDBRANCH   3   4
ENDBRANCH   1   3
BRANCH   2  13
ATOM     13  C   UNL     1      11.545  47.863  63.802  1.00  0.00     0.027 C 
BRANCH  13  14
ATOM     14  C   UNL     1      11.829  49.250  64.392  1.00  0.00     0.004 C 
BRANCH  14  15
ATOM     15  C   UNL     1      11.717  50.365  63.337  1.00  0.00     0.000 C 
BRANCH  15  16
ATOM     16  C   UNL     1      10.615  51.387  63.685  1.00  0.00     0.000 C 
BRANCH  16  17
ATOM     17  C   UNL     1       9.349  51.241  62.823  1.00  0.00    -0.000 C 
BRANCH  17  18
ATOM     18  C   UNL     1       8.142  50.726  63.618  1.00  0.00    -0.000 C 
BRANCH  18  19
ATOM     19  C   UNL     1       8.451  50.685  65.120  1.00  0.00    -0.003 C 
ATOM     20  C   UNL     1       7.412  49.861  65.874  1.00  0.00     0.004 C 
ENDBRANCH  18  19
ENDBRANCH  17  18
ENDBRANCH  16  17
ENDBRANCH  15  16
ENDBRANCH  14  15
ENDBRANCH  13  14
ENDBRANCH   2  13
TORSDOF 15
ENDMDL
MODEL 3
REMARK VINA RESULT:    -3.742      1.953      3.586
REMARK INTER + INTRA:          -9.847
REMARK INTER:                  -6.921
REMARK INTRA:                  -2.926
REMARK UNBOUND:                -2.824
REMARK SMILES CCCCCCCCC=CCCCCCCCC(=O)[O-]
REMARK SMILES IDX 10 1 9 2 11 3 12 4 13 5 14 6 15 7 16 8 17 9 18 10 19 11
REMARK SMILES IDX 20 12 8 13 7 14 6 15 5 16 4 17 3 18 2 19 1 20
REMARK H PARENT
REMARK Flexibility Score: inf
ROOT
ATOM      1  C   UNL     1      11.693  48.014  60.293  1.00  0.00    -0.031 C 
ATOM      2  C   UNL     1      10.431  48.471  60.201  1.00  0.00    -0.031 C 
ENDROOT
BRANCH   1   3
ATOM      3  C   UNL     1      12.930  48.879  60.305  1.00  0.00     0.027 C 
BRANCH   3   4
ATOM      4  C   UNL     1      13.519  49.048  61.717  1.00  0.00     0.004 C 
BRANCH   4   5
ATOM      5  C   UNL     1      13.648  50.512  62.176  1.00  0.00     0.000 C 
BRANCH   5   6
ATOM      6  C   UNL     1      14.173  51.460  61.077  1.00  0.00     0.000 C 
BRANCH   6   7
ATOM      7  C   UNL     1      15.679  51.733  61.213  1.00  0.00     0.000 C 
BRANCH   7   8
ATOM      8  C   UNL     1      16.408  51.469  59.887  1.00  0.00     0.006 C 
BRANCH   8   9
ATOM      9  C   UNL     1      16.408  49.981  59.511  1.00  0.00     0.053 C 
BRANCH   9  10
ATOM     10  C   UNL     1      16.088  49.775  58.062  1.00  0.00     0.041 C 
ATOM     11  O   UNL     1      16.095  48.615  57.572  1.00  0.00    -0.550 OA
ATOM     12  O   UNL     1      15.751  50.859  57.262  1.00  0.00    -0.550 OA
ENDBRANCH   9  10
ENDBRANCH   8   9
ENDBRANCH   7   8
ENDBRANCH   6   7
ENDBRANCH   5   6
ENDBRANCH   4   5
ENDBRANCH   3   4
ENDBRANCH   1   3
BRANCH   2  13
ATOM     13  C   UNL     1      10.036  49.929  60.162  1.00  0.00     0.027 C 
BRANCH  13  14
ATOM     14  C   UNL     1       9.341  50.357  61.461  1.00  0.00     0.004 C 
BRANCH  14  15
ATOM     15  C   UNL     1      10.057  51.536  62.142  1.00  0.00     0.000 C 
BRANCH  15  16
ATOM     16  C   UNL     1      10.355  51.255  63.630  1.00  0.00     0.000 C 
BRANCH  16  17
ATOM     17  C   UNL     1      10.031  49.813  64.058  1.00  0.00    -0.000 C 
BRANCH  17  18
ATOM     18  C   UNL     1      11.287  48.985  64.361  1.00  0.00    -0.000 C 
BRANCH  18  19
ATOM     19  C   UNL     1      11.053  47.500  64.054  1.00  0.00    -0.003 C 
ATOM     20  C   UNL     1       9.635  47.261  63.544  1.00  0.00     0.004 C 
ENDBRANCH  18  19
ENDBRANCH  17  18
ENDBRANCH  16  17
ENDBRANCH  15  16
ENDBRANCH  14  15
ENDBRANCH  13  14
ENDBRANCH   2  13
TORSDOF 15
ENDMDL
MODEL 4
REMARK VINA RESULT:    -3.725      1.114      1.627
REMARK INTER + INTRA:          -9.815
REMARK INTER:                  -6.972
REMARK INTRA:                  -2.843
REMARK UNBOUND:                -2.824
REMARK SMILES CCCCCCCCC=CCCCCCCCC(=O)[O-]
REMARK SMILES IDX 10 1 9 2 11 3 12 4 13 5 14 6 15 7 16 8 17 9 18 10 19 11
REMARK SMILES IDX 20 12 8 13 7 14 6 15 5 16 4 17 3 18 2 19 1 20
REMARK H PARENT
REMARK Flexibility Score: inf
ROOT
ATOM      1  C   UNL     1       9.571  47.245  62.135  1.00  0.00    -0.031 C 
ATOM      2  C   UNL     1       9.004  48.158  61.326  1.00  0.00    -0.031 C 
ENDROOT
BRANCH   1   3
ATOM      3  C   UNL     1       9.765  47.405  63.623  1.00  0.00     0.027 C 
BRANCH   3   4
ATOM      4  C   UNL     1      11.235  47.659  64.002  1.00  0.00     0.004 C 
BRANCH   4   5
ATOM      5  C   UNL     1      11.568  49.135  64.291  1.00  0.00     0.000 C 
BRANCH   5   6
ATOM      6  C   UNL     1      12.479  49.782  63.226  1.00  0.00     0.000 C 
BRANCH   6   7
ATOM      7  C   UNL     1      13.007  48.758  62.210  1.00  0.00     0.000 C 
BRANCH   7   8
ATOM      8  C   UNL     1      12.588  49.133  60.781  1.00  0.00     0.006 C 
BRANCH   8   9
ATOM      9  C   UNL     1      12.945  50.584  60.433  1.00  0.00     0.053 C 
BRANCH   9  10
ATOM     10  C   UNL     1      14.403  50.739  60.125  1.00  0.00     0.041 C 
ATOM     11  O   UNL     1      15.017  51.780  60.479  1.00  0.00    -0.550 OA
ATOM     12  O   UNL     1      15.090  49.721  59.476  1.00  0.00    -0.550 OA
ENDBRANCH   9  10
ENDBRANCH   8   9
ENDBRANCH   7   8
ENDBRANCH   6   7
ENDBRANCH   5   6
ENDBRANCH   4   5
ENDBRANCH   3   4
ENDBRANCH   1   3
BRANCH   2  13
ATOM     13  C   UNL     1       8.406  49.468  61.782  1.00  0.00     0.027 C 
BRANCH  13  14
ATOM     14  C   UNL     1       9.302  50.655  61.405  1.00  0.00     0.004 C 
BRANCH  14  15
ATOM     15  C   UNL     1       8.879  51.952  62.118  1.00  0.00     0.000 C 
BRANCH  15  16
ATOM     16  C   UNL     1       9.540  52.095  63.505  1.00  0.00     0.000 C 
BRANCH  16  17
ATOM     17  C   UNL     1       8.536  52.055  64.670  1.00  0.00    -0.000 C 
BRANCH  17  18
ATOM     18  C   UNL     1       8.276  50.632  65.183  1.00  0.00    -0.000 C 
BRANCH  18  19
ATOM     19  C   UNL     1       7.146  50.622  66.221  1.00  0.00    -0.003 C 
ATOM     20  C   UNL     1       6.754  49.196  66.595  1.00  0.00     0.004 C 
ENDBRANCH  18  19
ENDBRANCH  17  18
ENDBRANCH  16  17
ENDBRANCH  15  16
ENDBRANCH  14  15
ENDBRANCH  13  14
ENDBRANCH   2  13
TORSDOF 15
ENDMDL
MODEL 5
REMARK VINA RESULT:    -3.666      1.108      2.244
REMARK INTER + INTRA:          -9.705
REMARK INTER:                  -6.754
REMARK INTRA:                  -2.950
REMARK UNBOUND:                -2.824
REMARK SMILES CCCCCCCCC=CCCCCCCCC(=O)[O-]
REMARK SMILES IDX 10 1 9 2 11 3 12 4 13 5 14 6 15 7 16 8 17 9 18 10 19 11
REMARK SMILES IDX 20 12 8 13 7 14 6 15 5 16 4 17 3 18 2 19 1 20
REMARK H PARENT
REMARK Flexibility Score: inf
ROOT
ATOM      1  C   UNL     1      10.082  47.031  63.257  1.00  0.00    -0.031 C 
ATOM      2  C   UNL     1       9.579  46.968  62.010  1.00  0.00    -0.031 C 
ENDROOT
BRANCH   1   3
ATOM      3  C   UNL     1      10.096  48.266  64.124  1.00  0.00     0.027 C 
BRANCH   3   4
ATOM      4  C   UNL     1      11.505  48.865  64.277  1.00  0.00     0.004 C 
BRANCH   4   5
ATOM      5  C   UNL     1      11.735  50.155  63.469  1.00  0.00     0.000 C 
BRANCH   5   6
ATOM      6  C   UNL     1      12.994  50.110  62.577  1.00  0.00     0.000 C 
BRANCH   6   7
ATOM      7  C   UNL     1      13.208  48.730  61.939  1.00  0.00     0.000 C 
BRANCH   7   8
ATOM      8  C   UNL     1      13.535  48.858  60.444  1.00  0.00     0.006 C 
BRANCH   8   9
ATOM      9  C   UNL     1      14.377  50.104  60.139  1.00  0.00     0.053 C 
BRANCH   9  10
ATOM     10  C   UNL     1      15.702  49.747  59.540  1.00  0.00     0.041 C 
ATOM     11  O   UNL     1      15.787  48.809  58.704  1.00  0.00    -0.550 OA
ATOM     12  O   UNL     1      16.839  50.470  59.882  1.00  0.00    -0.550 OA
ENDBRANCH   9  10
ENDBRANCH   8   9
ENDBRANCH   7   8
ENDBRANCH   6   7
ENDBRANCH   5   6
ENDBRANCH   4   5
ENDBRANCH   3   4
ENDBRANCH   1   3
BRANCH   2  13
ATOM     13  C   UNL     1       8.884  48.102  61.296  1.00  0.00     0.027 C 
BRANCH  13  14
ATOM     14  C   UNL     1       9.812  48.776  60.276  1.00  0.00     0.004 C 
BRANCH  14  15
ATOM     15  C   UNL     1       9.811  50.308  60.413  1.00  0.00     0.000 C 
BRANCH  15  16
ATOM     16  C   UNL     1       8.477  50.841  60.977  1.00  0.00     0.000 C 
BRANCH  16  17
ATOM     17  C   UNL     1       8.632  51.603  62.304  1.00  0.00    -0.000 C 
BRANCH  17  18
ATOM     18  C   UNL     1       7.721  51.061  63.413  1.00  0.00    -0.000 C 
BRANCH  18  19
ATOM     19  C   UNL     1       8.311  51.352  64.799  1.00  0.00    -0.003 C 
ATOM     20  C   UNL     1       7.652  50.490  65.871  1.00  0.00     0.004 C 
ENDBRANCH  18  19
ENDBRANCH  17  18
ENDBRANCH  16  17
ENDBRANCH  15  16
ENDBRANCH  14  15
ENDBRANCH  13  14
ENDBRANCH   2  13
TORSDOF 15
ENDMDL
MODEL 6
REMARK VINA RESULT:    -3.615      3.218      6.632
REMARK INTER + INTRA:          -9.608
REMARK INTER:                  -6.896
REMARK INTRA:                  -2.712
REMARK UNBOUND:                -2.824
REMARK SMILES CCCCCCCCC=CCCCCCCCC(=O)[O-]
REMARK SMILES IDX 10 1 9 2 11 3 12 4 13 5 14 6 15 7 16 8 17 9 18 10 19 11
REMARK SMILES IDX 20 12 8 13 7 14 6 15 5 16 4 17 3 18 2 19 1 20
REMARK H PARENT
REMARK Flexibility Score: inf
ROOT
ATOM      1  C   UNL     1       9.575  47.222  62.189  1.00  0.00    -0.031 C 
ATOM      2  C   UNL     1      10.054  47.311  63.443  1.00  0.00    -0.031 C 
ENDROOT
BRANCH   1   3
ATOM      3  C   UNL     1      10.328  47.620  60.943  1.00  0.00     0.027 C 
BRANCH   3   4
ATOM      4  C   UNL     1       9.737  48.871  60.270  1.00  0.00     0.004 C 
BRANCH   4   5
ATOM      5  C   UNL     1       8.760  49.665  61.157  1.00  0.00     0.000 C 
BRANCH   5   6
ATOM      6  C   UNL     1       9.273  51.071  61.534  1.00  0.00     0.000 C 
BRANCH   6   7
ATOM      7  C   UNL     1       8.631  51.599  62.826  1.00  0.00     0.000 C 
BRANCH   7   8
ATOM      8  C   UNL     1       8.041  50.451  63.657  1.00  0.00     0.006 C 
BRANCH   8   9
ATOM      9  C   UNL     1       8.434  50.545  65.138  1.00  0.00     0.053 C 
BRANCH   9  10
ATOM     10  C   UNL     1       7.260  50.313  66.039  1.00  0.00     0.041 C 
ATOM     11  O   UNL     1       6.555  51.283  66.422  1.00  0.00    -0.550 OA
ATOM     12  O   UNL     1       6.927  49.022  66.431  1.00  0.00    -0.550 OA
ENDBRANCH   9  10
ENDBRANCH   8   9
ENDBRANCH   7   8
ENDBRANCH   6   7
ENDBRANCH   5   6
ENDBRANCH   4   5
ENDBRANCH   3   4
ENDBRANCH   1   3
BRANCH   2  13
ATOM     13  C   UNL     1      11.448  47.760  63.810  1.00  0.00     0.027 C 
BRANCH  13  14
ATOM     14  C   UNL     1      11.492  49.262  64.119  1.00  0.00     0.004 C 
BRANCH  14  15
ATOM     15  C   UNL     1      12.408  50.028  63.149  1.00  0.00     0.000 C 
BRANCH  15  16
ATOM     16  C   UNL     1      13.345  49.085  62.366  1.00  0.00     0.000 C 
BRANCH  16  17
ATOM     17  C   UNL     1      13.457  49.433  60.872  1.00  0.00    -0.000 C 
BRANCH  17  18
ATOM     18  C   UNL     1      14.190  48.355  60.061  1.00  0.00    -0.000 C 
BRANCH  18  19
ATOM     19  C   UNL     1      15.271  48.979  59.170  1.00  0.00    -0.003 C 
ATOM     20  C   UNL     1      15.916  50.184  59.847  1.00  0.00     0.004 C 
ENDBRANCH  18  19
ENDBRANCH  17  18
ENDBRANCH  16  17
ENDBRANCH  15  16
ENDBRANCH  14  15
ENDBRANCH  13  14
ENDBRANCH   2  13
TORSDOF 15
ENDMDL
MODEL 7
REMARK VINA RESULT:    -3.602      2.681      5.259
REMARK INTER + INTRA:          -9.585
REMARK INTER:                  -6.960
REMARK INTRA:                  -2.625
REMARK UNBOUND:                -2.824
REMARK SMILES CCCCCCCCC=CCCCCCCCC(=O)[O-]
REMARK SMILES IDX 10 1 9 2 11 3 12 4 13 5 14 6 15 7 16 8 17 9 18 10 19 11
REMARK SMILES IDX 20 12 8 13 7 14 6 15 5 16 4 17 3 18 2 19 1 20
REMARK H PARENT
REMARK Flexibility Score: inf
ROOT
ATOM      1  C   UNL     1      11.661  48.211  60.407  1.00  0.00    -0.031 C 
ATOM      2  C   UNL     1      10.389  48.372  60.000  1.00  0.00    -0.031 C 
ENDROOT
BRANCH   1   3
ATOM      3  C   UNL     1      12.608  49.333  60.756  1.00  0.00     0.027 C 
BRANCH   3   4
ATOM      4  C   UNL     1      13.269  49.141  62.132  1.00  0.00     0.004 C 
BRANCH   4   5
ATOM      5  C   UNL     1      12.751  50.098  63.221  1.00  0.00     0.000 C 
BRANCH   5   6
ATOM      6  C   UNL     1      11.877  51.245  62.670  1.00  0.00     0.000 C 
BRANCH   6   7
ATOM      7  C   UNL     1      10.425  51.160  63.164  1.00  0.00     0.000 C 
BRANCH   7   8
ATOM      8  C   UNL     1      10.245  49.996  64.149  1.00  0.00     0.006 C 
BRANCH   8   9
ATOM      9  C   UNL     1       9.260  48.941  63.627  1.00  0.00     0.053 C 
BRANCH   9  10
ATOM     10  C   UNL     1       9.869  47.573  63.612  1.00  0.00     0.041 C 
ATOM     11  O   UNL     1       9.349  46.656  62.922  1.00  0.00    -0.550 OA
ATOM     12  O   UNL     1      11.028  47.318  64.335  1.00  0.00    -0.550 OA
ENDBRANCH   9  10
ENDBRANCH   8   9
ENDBRANCH   7   8
ENDBRANCH   6   7
ENDBRANCH   5   6
ENDBRANCH   4   5
ENDBRANCH   3   4
ENDBRANCH   1   3
BRANCH   2  13
ATOM     13  C   UNL     1       9.674  49.697  59.888  1.00  0.00     0.027 C 
BRANCH  13  14
ATOM     14  C   UNL     1       8.168  49.546  60.139  1.00  0.00     0.004 C 
BRANCH  14  15
ATOM     15  C   UNL     1       7.446  50.904  60.178  1.00  0.00     0.000 C 
BRANCH  15  16
ATOM     16  C   UNL     1       6.161  50.905  59.324  1.00  0.00     0.000 C 
BRANCH  16  17
ATOM     17  C   UNL     1       6.318  51.641  57.982  1.00  0.00    -0.000 C 
BRANCH  17  18
ATOM     18  C   UNL     1       7.030  50.796  56.918  1.00  0.00    -0.000 C 
BRANCH  18  19
ATOM     19  C   UNL     1       6.173  49.590  56.510  1.00  0.00    -0.003 C 
ATOM     20  C   UNL     1       6.973  48.294  56.585  1.00  0.00     0.004 C 
ENDBRANCH  18  19
ENDBRANCH  17  18
ENDBRANCH  16  17
ENDBRANCH  15  16
ENDBRANCH  14  15
ENDBRANCH  13  14
ENDBRANCH   2  13
TORSDOF 15
ENDMDL
MODEL 8
REMARK VINA RESULT:    -3.598      1.591      2.619
REMARK INTER + INTRA:          -9.578
REMARK INTER:                  -6.521
REMARK INTRA:                  -3.056
REMARK UNBOUND:                -2.824
REMARK SMILES CCCCCCCCC=CCCCCCCCC(=O)[O-]
REMARK SMILES IDX 10 1 9 2 11 3 12 4 13 5 14 6 15 7 16 8 17 9 18 10 19 11
REMARK SMILES IDX 20 12 8 13 7 14 6 15 5 16 4 17 3 18 2 19 1 20
REMARK H PARENT
REMARK Flexibility Score: inf
ROOT
ATOM      1  C   UNL     1      10.006  47.257  63.920  1.00  0.00    -0.031 C 
ATOM      2  C   UNL     1       9.272  47.204  62.794  1.00  0.00    -0.031 C 
ENDROOT
BRANCH   1   3
ATOM      3  C   UNL     1      11.439  47.722  63.999  1.00  0.00     0.027 C 
BRANCH   3   4
ATOM      4  C   UNL     1      11.557  49.251  64.140  1.00  0.00     0.004 C 
BRANCH   4   5
ATOM      5  C   UNL     1      12.574  49.898  63.183  1.00  0.00     0.000 C 
BRANCH   5   6
ATOM      6  C   UNL     1      13.172  48.910  62.158  1.00  0.00     0.000 C 
BRANCH   6   7
ATOM      7  C   UNL     1      13.142  49.465  60.726  1.00  0.00     0.000 C 
BRANCH   7   8
ATOM      8  C   UNL     1      13.258  50.997  60.727  1.00  0.00     0.006 C 
BRANCH   8   9
ATOM      9  C   UNL     1      14.568  51.480  60.090  1.00  0.00     0.053 C 
BRANCH   9  10
ATOM     10  C   UNL     1      15.671  51.582  61.098  1.00  0.00     0.041 C 
ATOM     11  O   UNL     1      16.872  51.465  60.737  1.00  0.00    -0.550 OA
ATOM     12  O   UNL     1      15.375  51.837  62.432  1.00  0.00    -0.550 OA
ENDBRANCH   9  10
ENDBRANCH   8   9
ENDBRANCH   7   8
ENDBRANCH   6   7
ENDBRANCH   5   6
ENDBRANCH   4   5
ENDBRANCH   3   4
ENDBRANCH   1   3
BRANCH   2  13
ATOM     13  C   UNL     1       9.736  47.665  61.432  1.00  0.00     0.027 C 
BRANCH  13  14
ATOM     14  C   UNL     1       8.849  48.793  60.889  1.00  0.00     0.004 C 
BRANCH  14  15
ATOM     15  C   UNL     1       9.641  50.091  60.651  1.00  0.00     0.000 C 
BRANCH  15  16
ATOM     16  C   UNL     1       9.384  51.139  61.754  1.00  0.00     0.000 C 
BRANCH  16  17
ATOM     17  C   UNL     1       8.230  50.764  62.701  1.00  0.00    -0.000 C 
BRANCH  17  18
ATOM     18  C   UNL     1       8.458  51.246  64.140  1.00  0.00    -0.000 C 
BRANCH  18  19
ATOM     19  C   UNL     1       8.080  50.155  65.150  1.00  0.00    -0.003 C 
ATOM     20  C   UNL     1       7.135  50.698  66.218  1.00  0.00     0.004 C 
ENDBRANCH  18  19
ENDBRANCH  17  18
ENDBRANCH  16  17
ENDBRANCH  15  16
ENDBRANCH  14  15
ENDBRANCH  13  14
ENDBRANCH   2  13
TORSDOF 15
ENDMDL
MODEL 9
REMARK VINA RESULT:    -3.578      1.800      3.644
REMARK INTER + INTRA:          -9.539
REMARK INTER:                  -6.297
REMARK INTRA:                  -3.242
REMARK UNBOUND:                -2.824
REMARK SMILES CCCCCCCCC=CCCCCCCCC(=O)[O-]
REMARK SMILES IDX 10 1 9 2 11 3 12 4 13 5 14 6 15 7 16 8 17 9 18 10 19 11
REMARK SMILES IDX 20 12 8 13 7 14 6 15 5 16 4 17 3 18 2 19 1 20
REMARK H PARENT
REMARK Flexibility Score: inf
ROOT
ATOM      1  C   UNL     1      11.140  47.834  63.992  1.00  0.00    -0.031 C 
ATOM      2  C   UNL     1      11.433  49.136  64.170  1.00  0.00    -0.031 C 
ENDROOT
BRANCH   1   3
ATOM      3  C   UNL     1       9.750  47.276  63.813  1.00  0.00     0.027 C 
BRANCH   3   4
ATOM      4  C   UNL     1       9.473  46.835  62.365  1.00  0.00     0.004 C 
BRANCH   4   5
ATOM      5  C   UNL     1       9.299  47.999  61.372  1.00  0.00     0.000 C 
BRANCH   5   6
ATOM      6  C   UNL     1      10.331  47.991  60.224  1.00  0.00     0.000 C 
BRANCH   6   7
ATOM      7  C   UNL     1      11.306  49.175  60.309  1.00  0.00     0.000 C 
BRANCH   7   8
ATOM      8  C   UNL     1      12.714  48.704  60.699  1.00  0.00     0.006 C 
BRANCH   8   9
ATOM      9  C   UNL     1      13.620  49.868  61.121  1.00  0.00     0.053 C 
BRANCH   9  10
ATOM     10  C   UNL     1      14.613  50.214  60.054  1.00  0.00     0.041 C 
ATOM     11  O   UNL     1      15.531  49.405  59.756  1.00  0.00    -0.550 OA
ATOM     12  O   UNL     1      14.505  51.417  59.366  1.00  0.00    -0.550 OA
ENDBRANCH   9  10
ENDBRANCH   8   9
ENDBRANCH   7   8
ENDBRANCH   6   7
ENDBRANCH   5   6
ENDBRANCH   4   5
ENDBRANCH   3   4
ENDBRANCH   1   3
BRANCH   2  13
ATOM     13  C   UNL     1      10.427  50.262  64.152  1.00  0.00     0.027 C 
BRANCH  13  14
ATOM     14  C   UNL     1      10.843  51.371  63.177  1.00  0.00     0.004 C 
BRANCH  14  15
ATOM     15  C   UNL     1       9.658  51.884  62.340  1.00  0.00     0.000 C 
BRANCH  15  16
ATOM     16  C   UNL     1       8.338  51.174  62.706  1.00  0.00     0.000 C 
BRANCH  16  17
ATOM     17  C   UNL     1       7.360  51.050  61.524  1.00  0.00    -0.000 C 
BRANCH  17  18
ATOM     18  C   UNL     1       8.014  51.370  60.173  1.00  0.00    -0.000 C 
BRANCH  18  19
ATOM     19  C   UNL     1       7.560  50.377  59.095  1.00  0.00    -0.003 C 
ATOM     20  C   UNL     1       6.397  49.523  59.588  1.00  0.00     0.004 C 
ENDBRANCH  18  19
ENDBRANCH  17  18
ENDBRANCH  16  17
ENDBRANCH  15  16
ENDBRANCH  14  15
ENDBRANCH  13  14
ENDBRANCH   2  13
TORSDOF 15
ENDMDL
