MODEL 1
REMARK VINA RESULT:    -7.401      0.000      0.000
REMARK INTER + INTRA:         -10.931
REMARK INTER:                  -9.780
REMARK INTRA:                  -1.151
REMARK UNBOUND:                -1.151
REMARK SMILES CC[C@H](C=C[C@H](C)[C@@H]1CC[C@@H]2C3=CC[C@@H]4C[C@H](O)CC[C@@]4(C)[C@H]3CC[C@@]21C)C(C)C
REMARK SMILES IDX 6 1 7 2 5 3 4 4 3 5 2 6 1 7 28 8 29 9 30 10 8 11 9 12 26 13
REMARK SMILES IDX 10 14 11 15 25 16 27 17 12 18 24 19 23 20 13 21 21 22 14 23
REMARK SMILES IDX 15 24 20 25 22 26 16 27 19 28 17 29 18 30
REMARK H PARENT 18 31
REMARK Flexibility Score: inf
ROOT
ATOM      1  C   UNL     1     187.181 195.211 193.422  1.00  0.00     0.012 C 
ATOM      2  C   UNL     1     188.185 195.088 194.582  1.00  0.00     0.012 C 
ENDROOT
BRANCH   1   3
ATOM      3  C   UNL     1     186.481 196.547 193.564  1.00  0.00    -0.028 C 
ATOM      4  C   UNL     1     187.113 197.638 194.030  1.00  0.00    -0.027 C 
BRANCH   4   5
ATOM      5  C   UNL     1     186.448 198.998 194.010  1.00  0.00     0.014 C 
BRANCH   5   6
ATOM      6  C   UNL     1     186.157 199.530 195.436  1.00  0.00     0.004 C 
ATOM      7  C   UNL     1     184.737 200.045 195.678  1.00  0.00     0.004 C 
ENDBRANCH   5   6
BRANCH   5   8
ATOM      8  C   UNL     1     187.178 200.025 193.081  1.00  0.00    -0.011 C 
ATOM      9  C   UNL     1     188.706 200.091 193.289  1.00  0.00     0.008 C 
ATOM     10  C   UNL     1     186.897 199.712 191.600  1.00  0.00     0.008 C 
ENDBRANCH   5   8
ENDBRANCH   4   5
ENDBRANCH   1   3
BRANCH   1  11
ATOM     11  C   UNL     1     187.869 195.114 192.022  1.00  0.00     0.002 C 
ATOM     12  C   UNL     1     187.011 195.715 190.908  1.00  0.00     0.005 C 
ATOM     13  C   UNL     1     188.297 193.704 191.483  1.00  0.00    -0.023 C 
ATOM     14  C   UNL     1     187.631 195.229 189.613  1.00  0.00     0.009 C 
ATOM     15  C   UNL     1     188.280 193.875 189.922  1.00  0.00     0.021 C 
ATOM     16  C   UNL     1     187.384 192.502 191.944  1.00  0.00     0.008 C 
ATOM     17  C   UNL     1     189.746 193.381 191.926  1.00  0.00     0.012 C 
ATOM     18  C   UNL     1     187.526 192.745 189.249  1.00  0.00    -0.067 C 
ATOM     19  C   UNL     1     186.015 192.390 191.236  1.00  0.00     0.009 C 
ATOM     20  C   UNL     1     186.076 192.537 189.684  1.00  0.00     0.021 C 
ATOM     21  C   UNL     1     188.225 191.803 188.564  1.00  0.00    -0.027 C 
ATOM     22  C   UNL     1     185.349 191.424 188.839  1.00  0.00    -0.023 C 
ATOM     23  C   UNL     1     187.606 190.551 188.002  1.00  0.00     0.031 C 
ATOM     24  C   UNL     1     186.316 190.193 188.757  1.00  0.00     0.002 C 
ATOM     25  C   UNL     1     183.957 190.987 189.442  1.00  0.00     0.010 C 
ATOM     26  C   UNL     1     185.076 192.038 187.423  1.00  0.00     0.012 C 
ATOM     27  C   UNL     1     185.614 188.957 188.168  1.00  0.00     0.036 C 
ATOM     28  C   UNL     1     183.953 189.571 190.047  1.00  0.00     0.032 C 
ATOM     29  C   UNL     1     184.412 188.502 189.037  1.00  0.00     0.114 C 
BRANCH  29  30
ATOM     30  O   UNL     1     183.329 188.164 188.206  1.00  0.00    -0.393 OA
ATOM     31  H   UNL     1     183.289 188.844 187.484  1.00  0.00     0.210 HD
ENDBRANCH  29  30
ENDBRANCH   1  11
TORSDOF 6
ENDMDL
MODEL 2
REMARK VINA RESULT:    -7.283      2.213      4.106
REMARK INTER + INTRA:         -10.776
REMARK INTER:                  -9.614
REMARK INTRA:                  -1.162
REMARK UNBOUND:                -1.151
REMARK SMILES CC[C@H](C=C[C@H](C)[C@@H]1CC[C@@H]2C3=CC[C@@H]4C[C@H](O)CC[C@@]4(C)[C@H]3CC[C@@]21C)C(C)C
REMARK SMILES IDX 6 1 7 2 5 3 4 4 3 5 2 6 1 7 28 8 29 9 30 10 8 11 9 12 26 13
REMARK SMILES IDX 10 14 11 15 25 16 27 17 12 18 24 19 23 20 13 21 21 22 14 23
REMARK SMILES IDX 15 24 20 25 22 26 16 27 19 28 17 29 18 30
REMARK H PARENT 18 31
REMARK Flexibility Score: inf
ROOT
ATOM      1  C   UNL     1     188.054 193.394 190.024  1.00  0.00     0.012 C 
ATOM      2  C   UNL     1     189.139 194.189 189.275  1.00  0.00     0.012 C 
ENDROOT
BRANCH   1   3
ATOM      3  C   UNL     1     187.403 194.334 191.017  1.00  0.00    -0.028 C 
ATOM      4  C   UNL     1     187.561 195.667 190.947  1.00  0.00    -0.027 C 
BRANCH   4   5
ATOM      5  C   UNL     1     186.772 196.599 191.843  1.00  0.00     0.014 C 
BRANCH   5   6
ATOM      6  C   UNL     1     187.158 196.441 193.336  1.00  0.00     0.004 C 
ATOM      7  C   UNL     1     186.091 195.817 194.236  1.00  0.00     0.004 C 
ENDBRANCH   5   6
BRANCH   5   8
ATOM      8  C   UNL     1     186.767 198.079 191.337  1.00  0.00    -0.011 C 
ATOM      9  C   UNL     1     186.820 199.134 192.464  1.00  0.00     0.008 C 
ATOM     10  C   UNL     1     187.943 198.329 190.376  1.00  0.00     0.008 C 
ENDBRANCH   5   8
ENDBRANCH   4   5
ENDBRANCH   1   3
BRANCH   1  11
ATOM     11  C   UNL     1     186.975 192.800 189.062  1.00  0.00     0.002 C 
ATOM     12  C   UNL     1     185.554 192.980 189.599  1.00  0.00     0.005 C 
ATOM     13  C   UNL     1     187.064 191.285 188.663  1.00  0.00    -0.023 C 
ATOM     14  C   UNL     1     184.686 192.061 188.762  1.00  0.00     0.009 C 
ATOM     15  C   UNL     1     185.581 190.895 188.327  1.00  0.00     0.021 C 
ATOM     16  C   UNL     1     187.678 190.335 189.764  1.00  0.00     0.008 C 
ATOM     17  C   UNL     1     187.919 191.122 187.381  1.00  0.00     0.012 C 
ATOM     18  C   UNL     1     185.176 189.610 189.021  1.00  0.00    -0.067 C 
ATOM     19  C   UNL     1     186.749 189.997 190.951  1.00  0.00     0.009 C 
ATOM     20  C   UNL     1     185.301 189.586 190.544  1.00  0.00     0.021 C 
ATOM     21  C   UNL     1     185.037 188.478 188.282  1.00  0.00    -0.027 C 
ATOM     22  C   UNL     1     184.739 188.256 191.173  1.00  0.00    -0.023 C 
ATOM     23  C   UNL     1     184.805 187.116 188.881  1.00  0.00     0.031 C 
ATOM     24  C   UNL     1     185.311 187.064 190.332  1.00  0.00     0.002 C 
ATOM     25  C   UNL     1     185.109 188.078 192.697  1.00  0.00     0.010 C 
ATOM     26  C   UNL     1     183.177 188.335 191.074  1.00  0.00     0.012 C 
ATOM     27  C   UNL     1     185.030 185.708 191.003  1.00  0.00     0.036 C 
ATOM     28  C   UNL     1     186.141 186.966 192.965  1.00  0.00     0.032 C 
ATOM     29  C   UNL     1     185.693 185.604 192.403  1.00  0.00     0.114 C 
BRANCH  29  30
ATOM     30  O   UNL     1     184.797 185.008 193.308  1.00  0.00    -0.393 OA
ATOM     31  H   UNL     1     185.054 184.053 193.389  1.00  0.00     0.210 HD
ENDBRANCH  29  30
ENDBRANCH   1  11
TORSDOF 6
ENDMDL
MODEL 3
REMARK VINA RESULT:    -7.179      5.549      8.843
REMARK INTER + INTRA:         -10.638
REMARK INTER:                  -9.392
REMARK INTRA:                  -1.246
REMARK UNBOUND:                -1.151
REMARK SMILES CC[C@H](C=C[C@H](C)[C@@H]1CC[C@@H]2C3=CC[C@@H]4C[C@H](O)CC[C@@]4(C)[C@H]3CC[C@@]21C)C(C)C
REMARK SMILES IDX 6 1 7 2 5 3 4 4 3 5 2 6 1 7 28 8 29 9 30 10 8 11 9 12 26 13
REMARK SMILES IDX 10 14 11 15 25 16 27 17 12 18 24 19 23 20 13 21 21 22 14 23
REMARK SMILES IDX 15 24 20 25 22 26 16 27 19 28 17 29 18 30
REMARK H PARENT 18 31
REMARK Flexibility Score: inf
ROOT
ATOM      1  C   UNL     1     185.965 189.929 190.415  1.00  0.00     0.012 C 
ATOM      2  C   UNL     1     185.230 190.792 191.457  1.00  0.00     0.012 C 
ENDROOT
BRANCH   1   3
ATOM      3  C   UNL     1     185.772 188.478 190.806  1.00  0.00    -0.028 C 
ATOM      4  C   UNL     1     184.631 188.034 191.360  1.00  0.00    -0.027 C 
BRANCH   4   5
ATOM      5  C   UNL     1     184.395 186.556 191.591  1.00  0.00     0.014 C 
BRANCH   5   6
ATOM      6  C   UNL     1     183.676 185.884 190.394  1.00  0.00     0.004 C 
ATOM      7  C   UNL     1     182.397 186.571 189.915  1.00  0.00     0.004 C 
ENDBRANCH   5   6
BRANCH   5   8
ATOM      8  C   UNL     1     185.674 185.798 192.076  1.00  0.00    -0.011 C 
ATOM      9  C   UNL     1     186.014 186.016 193.566  1.00  0.00     0.008 C 
ATOM     10  C   UNL     1     185.538 184.285 191.821  1.00  0.00     0.008 C 
ENDBRANCH   5   8
ENDBRANCH   4   5
ENDBRANCH   1   3
BRANCH   1  11
ATOM     11  C   UNL     1     185.439 190.167 188.963  1.00  0.00     0.002 C 
ATOM     12  C   UNL     1     185.227 188.858 188.199  1.00  0.00     0.005 C 
ATOM     13  C   UNL     1     186.276 191.068 187.990  1.00  0.00    -0.023 C 
ATOM     14  C   UNL     1     185.074 189.259 186.745  1.00  0.00     0.009 C 
ATOM     15  C   UNL     1     185.886 190.546 186.561  1.00  0.00     0.021 C 
ATOM     16  C   UNL     1     187.838 191.031 188.215  1.00  0.00     0.008 C 
ATOM     17  C   UNL     1     185.826 192.546 188.113  1.00  0.00     0.012 C 
ATOM     18  C   UNL     1     187.114 190.297 185.709  1.00  0.00    -0.067 C 
ATOM     19  C   UNL     1     188.558 189.762 187.705  1.00  0.00     0.009 C 
ATOM     20  C   UNL     1     188.147 189.319 186.266  1.00  0.00     0.021 C 
ATOM     21  C   UNL     1     187.395 191.154 184.692  1.00  0.00    -0.027 C 
ATOM     22  C   UNL     1     189.318 189.037 185.252  1.00  0.00    -0.023 C 
ATOM     23  C   UNL     1     188.669 191.106 183.891  1.00  0.00     0.031 C 
ATOM     24  C   UNL     1     189.791 190.420 184.687  1.00  0.00     0.002 C 
ATOM     25  C   UNL     1     190.535 188.265 185.896  1.00  0.00     0.010 C 
ATOM     26  C   UNL     1     188.727 188.124 184.123  1.00  0.00     0.012 C 
ATOM     27  C   UNL     1     191.092 190.290 183.877  1.00  0.00     0.036 C 
ATOM     28  C   UNL     1     191.802 189.123 186.067  1.00  0.00     0.032 C 
ATOM     29  C   UNL     1     192.264 189.755 184.741  1.00  0.00     0.114 C 
BRANCH  29  30
ATOM     30  O   UNL     1     192.994 188.801 184.010  1.00  0.00    -0.393 OA
ATOM     31  H   UNL     1     193.662 188.406 184.629  1.00  0.00     0.210 HD
ENDBRANCH  29  30
ENDBRANCH   1  11
TORSDOF 6
ENDMDL
MODEL 4
REMARK VINA RESULT:    -7.161      3.528      6.591
REMARK INTER + INTRA:         -10.614
REMARK INTER:                  -9.400
REMARK INTRA:                  -1.215
REMARK UNBOUND:                -1.151
REMARK SMILES CC[C@H](C=C[C@H](C)[C@@H]1CC[C@@H]2C3=CC[C@@H]4C[C@H](O)CC[C@@]4(C)[C@H]3CC[C@@]21C)C(C)C
REMARK SMILES IDX 6 1 7 2 5 3 4 4 3 5 2 6 1 7 28 8 29 9 30 10 8 11 9 12 26 13
REMARK SMILES IDX 10 14 11 15 25 16 27 17 12 18 24 19 23 20 13 21 21 22 14 23
REMARK SMILES IDX 15 24 20 25 22 26 16 27 19 28 17 29 18 30
REMARK H PARENT 18 31
REMARK Flexibility Score: inf
ROOT
ATOM      1  C   UNL     1     185.819 191.308 188.580  1.00  0.00     0.012 C 
ATOM      2  C   UNL     1     185.360 192.023 187.297  1.00  0.00     0.012 C 
ENDROOT
BRANCH   1   3
ATOM      3  C   UNL     1     186.281 192.371 189.556  1.00  0.00    -0.028 C 
ATOM      4  C   UNL     1     186.177 193.683 189.282  1.00  0.00    -0.027 C 
BRANCH   4   5
ATOM      5  C   UNL     1     186.490 194.730 190.331  1.00  0.00     0.014 C 
BRANCH   5   6
ATOM      6  C   UNL     1     187.423 194.186 191.442  1.00  0.00     0.004 C 
ATOM      7  C   UNL     1     186.761 193.914 192.793  1.00  0.00     0.004 C 
ENDBRANCH   5   6
BRANCH   5   8
ATOM      8  C   UNL     1     186.952 196.094 189.719  1.00  0.00    -0.011 C 
ATOM      9  C   UNL     1     186.758 197.306 190.655  1.00  0.00     0.008 C 
ATOM     10  C   UNL     1     188.432 196.028 189.303  1.00  0.00     0.008 C 
ENDBRANCH   5   8
ENDBRANCH   4   5
ENDBRANCH   1   3
BRANCH   1  11
ATOM     11  C   UNL     1     184.684 190.448 189.225  1.00  0.00     0.002 C 
ATOM     12  C   UNL     1     184.605 190.631 190.741  1.00  0.00     0.005 C 
ATOM     13  C   UNL     1     184.692 188.894 189.008  1.00  0.00    -0.023 C 
ATOM     14  C   UNL     1     183.733 189.495 191.241  1.00  0.00     0.009 C 
ATOM     15  C   UNL     1     183.927 188.334 190.260  1.00  0.00     0.021 C 
ATOM     16  C   UNL     1     186.122 188.243 188.862  1.00  0.00     0.008 C 
ATOM     17  C   UNL     1     183.886 188.530 187.736  1.00  0.00     0.012 C 
ATOM     18  C   UNL     1     184.689 187.196 190.909  1.00  0.00    -0.067 C 
ATOM     19  C   UNL     1     186.926 188.093 190.173  1.00  0.00     0.009 C 
ATOM     20  C   UNL     1     186.115 187.500 191.366  1.00  0.00     0.021 C 
ATOM     21  C   UNL     1     184.221 185.927 190.772  1.00  0.00    -0.027 C 
ATOM     22  C   UNL     1     186.770 186.293 192.137  1.00  0.00    -0.023 C 
ATOM     23  C   UNL     1     184.978 184.708 191.226  1.00  0.00     0.031 C 
ATOM     24  C   UNL     1     186.486 184.996 191.303  1.00  0.00     0.002 C 
ATOM     25  C   UNL     1     188.322 186.464 192.369  1.00  0.00     0.010 C 
ATOM     26  C   UNL     1     186.088 186.233 193.547  1.00  0.00     0.012 C 
ATOM     27  C   UNL     1     187.288 183.794 191.829  1.00  0.00     0.036 C 
ATOM     28  C   UNL     1     189.191 185.513 191.525  1.00  0.00     0.032 C 
ATOM     29  C   UNL     1     188.819 184.033 191.743  1.00  0.00     0.114 C 
BRANCH  29  30
ATOM     30  O   UNL     1     189.437 183.575 192.919  1.00  0.00    -0.393 OA
ATOM     31  H   UNL     1     189.793 184.371 193.393  1.00  0.00     0.210 HD
ENDBRANCH  29  30
ENDBRANCH   1  11
TORSDOF 6
ENDMDL
MODEL 5
REMARK VINA RESULT:    -7.157      0.743      1.848
REMARK INTER + INTRA:         -10.609
REMARK INTER:                  -9.706
REMARK INTRA:                  -0.903
REMARK UNBOUND:                -1.151
REMARK SMILES CC[C@H](C=C[C@H](C)[C@@H]1CC[C@@H]2C3=CC[C@@H]4C[C@H](O)CC[C@@]4(C)[C@H]3CC[C@@]21C)C(C)C
REMARK SMILES IDX 6 1 7 2 5 3 4 4 3 5 2 6 1 7 28 8 29 9 30 10 8 11 9 12 26 13
REMARK SMILES IDX 10 14 11 15 25 16 27 17 12 18 24 19 23 20 13 21 21 22 14 23
REMARK SMILES IDX 15 24 20 25 22 26 16 27 19 28 17 29 18 30
REMARK H PARENT 18 31
REMARK Flexibility Score: inf
ROOT
ATOM      1  C   UNL     1     187.061 195.207 193.496  1.00  0.00     0.012 C 
ATOM      2  C   UNL     1     188.149 194.876 194.533  1.00  0.00     0.012 C 
ENDROOT
BRANCH   1   3
ATOM      3  C   UNL     1     186.521 196.584 193.825  1.00  0.00    -0.028 C 
ATOM      4  C   UNL     1     186.871 197.238 194.946  1.00  0.00    -0.027 C 
BRANCH   4   5
ATOM      5  C   UNL     1     186.453 198.676 195.177  1.00  0.00     0.014 C 
BRANCH   5   6
ATOM      6  C   UNL     1     186.518 199.521 193.881  1.00  0.00     0.004 C 
ATOM      7  C   UNL     1     187.901 200.055 193.503  1.00  0.00     0.004 C 
ENDBRANCH   5   6
BRANCH   5   8
ATOM      8  C   UNL     1     185.103 198.805 195.957  1.00  0.00    -0.011 C 
ATOM      9  C   UNL     1     184.723 197.553 196.778  1.00  0.00     0.008 C 
ATOM     10  C   UNL     1     185.136 200.019 196.903  1.00  0.00     0.008 C 
ENDBRANCH   5   8
ENDBRANCH   4   5
ENDBRANCH   1   3
BRANCH   1  11
ATOM     11  C   UNL     1     187.604 195.182 192.030  1.00  0.00     0.002 C 
ATOM     12  C   UNL     1     186.588 195.725 191.024  1.00  0.00     0.005 C 
ATOM     13  C   UNL     1     188.081 193.817 191.421  1.00  0.00    -0.023 C 
ATOM     14  C   UNL     1     187.104 195.306 189.662  1.00  0.00     0.009 C 
ATOM     15  C   UNL     1     187.886 194.005 189.874  1.00  0.00     0.021 C 
ATOM     16  C   UNL     1     187.318 192.541 191.951  1.00  0.00     0.008 C 
ATOM     17  C   UNL     1     189.589 193.606 191.705  1.00  0.00     0.012 C 
ATOM     18  C   UNL     1     187.156 192.826 189.262  1.00  0.00    -0.067 C 
ATOM     19  C   UNL     1     185.896 192.328 191.387  1.00  0.00     0.009 C 
ATOM     20  C   UNL     1     185.781 192.497 189.840  1.00  0.00     0.021 C 
ATOM     21  C   UNL     1     187.851 191.951 188.488  1.00  0.00    -0.027 C 
ATOM     22  C   UNL     1     185.058 191.340 189.054  1.00  0.00    -0.023 C 
ATOM     23  C   UNL     1     187.276 190.660 187.969  1.00  0.00     0.031 C 
ATOM     24  C   UNL     1     186.104 190.191 188.847  1.00  0.00     0.002 C 
ATOM     25  C   UNL     1     183.776 190.786 189.789  1.00  0.00     0.010 C 
ATOM     26  C   UNL     1     184.590 191.947 187.686  1.00  0.00     0.012 C 
ATOM     27  C   UNL     1     185.443 188.910 188.310  1.00  0.00     0.036 C 
ATOM     28  C   UNL     1     183.947 189.367 190.363  1.00  0.00     0.032 C 
ATOM     29  C   UNL     1     184.379 188.350 189.290  1.00  0.00     0.114 C 
BRANCH  29  30
ATOM     30  O   UNL     1     183.244 187.936 188.570  1.00  0.00    -0.393 OA
ATOM     31  H   UNL     1     183.162 186.954 188.690  1.00  0.00     0.210 HD
ENDBRANCH  29  30
ENDBRANCH   1  11
TORSDOF 6
ENDMDL
MODEL 6
REMARK VINA RESULT:    -6.906      1.922      3.087
REMARK INTER + INTRA:         -10.277
REMARK INTER:                  -8.801
REMARK INTRA:                  -1.476
REMARK UNBOUND:                -1.151
REMARK SMILES CC[C@H](C=C[C@H](C)[C@@H]1CC[C@@H]2C3=CC[C@@H]4C[C@H](O)CC[C@@]4(C)[C@H]3CC[C@@]21C)C(C)C
REMARK SMILES IDX 6 1 7 2 5 3 4 4 3 5 2 6 1 7 28 8 29 9 30 10 8 11 9 12 26 13
REMARK SMILES IDX 10 14 11 15 25 16 27 17 12 18 24 19 23 20 13 21 21 22 14 23
REMARK SMILES IDX 15 24 20 25 22 26 16 27 19 28 17 29 18 30
REMARK H PARENT 18 31
REMARK Flexibility Score: inf
ROOT
ATOM      1  C   UNL     1     188.433 195.481 192.555  1.00  0.00     0.012 C 
ATOM      2  C   UNL     1     189.129 196.835 192.785  1.00  0.00     0.012 C 
ENDROOT
BRANCH   1   3
ATOM      3  C   UNL     1     187.240 195.416 193.487  1.00  0.00    -0.028 C 
ATOM      4  C   UNL     1     187.309 194.828 194.694  1.00  0.00    -0.027 C 
BRANCH   4   5
ATOM      5  C   UNL     1     186.161 194.917 195.676  1.00  0.00     0.014 C 
BRANCH   5   6
ATOM      6  C   UNL     1     186.549 194.392 197.081  1.00  0.00     0.004 C 
ATOM      7  C   UNL     1     188.038 194.121 197.302  1.00  0.00     0.004 C 
ENDBRANCH   5   6
BRANCH   5   8
ATOM      8  C   UNL     1     185.469 196.321 195.688  1.00  0.00    -0.011 C 
ATOM      9  C   UNL     1     184.088 196.342 196.378  1.00  0.00     0.008 C 
ATOM     10  C   UNL     1     186.373 197.365 196.369  1.00  0.00     0.008 C 
ENDBRANCH   5   8
ENDBRANCH   4   5
ENDBRANCH   1   3
BRANCH   1  11
ATOM     11  C   UNL     1     187.966 195.292 191.075  1.00  0.00     0.002 C 
ATOM     12  C   UNL     1     186.455 195.466 190.914  1.00  0.00     0.005 C 
ATOM     13  C   UNL     1     188.296 193.944 190.342  1.00  0.00    -0.023 C 
ATOM     14  C   UNL     1     186.128 194.908 189.543  1.00  0.00     0.009 C 
ATOM     15  C   UNL     1     187.168 193.820 189.256  1.00  0.00     0.021 C 
ATOM     16  C   UNL     1     188.350 192.669 191.271  1.00  0.00     0.008 C 
ATOM     17  C   UNL     1     189.663 194.050 189.621  1.00  0.00     0.012 C 
ATOM     18  C   UNL     1     186.534 192.444 189.272  1.00  0.00    -0.067 C 
ATOM     19  C   UNL     1     186.982 192.117 191.731  1.00  0.00     0.009 C 
ATOM     20  C   UNL     1     185.920 191.989 190.596  1.00  0.00     0.021 C 
ATOM     21  C   UNL     1     186.809 191.579 188.261  1.00  0.00    -0.027 C 
ATOM     22  C   UNL     1     185.181 190.604 190.472  1.00  0.00    -0.023 C 
ATOM     23  C   UNL     1     186.375 190.137 188.256  1.00  0.00     0.031 C 
ATOM     24  C   UNL     1     186.131 189.635 189.688  1.00  0.00     0.002 C 
ATOM     25  C   UNL     1     184.788 189.975 191.865  1.00  0.00     0.010 C 
ATOM     26  C   UNL     1     183.852 190.870 189.685  1.00  0.00     0.012 C 
ATOM     27  C   UNL     1     185.620 188.184 189.724  1.00  0.00     0.036 C 
ATOM     28  C   UNL     1     185.611 188.731 192.247  1.00  0.00     0.032 C 
ATOM     29  C   UNL     1     185.540 187.630 191.171  1.00  0.00     0.114 C 
BRANCH  29  30
ATOM     30  O   UNL     1     184.346 186.906 191.336  1.00  0.00    -0.393 OA
ATOM     31  H   UNL     1     183.685 187.282 190.698  1.00  0.00     0.210 HD
ENDBRANCH  29  30
ENDBRANCH   1  11
TORSDOF 6
ENDMDL
MODEL 7
REMARK VINA RESULT:    -6.875      3.504      8.512
REMARK INTER + INTRA:         -10.237
REMARK INTER:                  -8.397
REMARK INTRA:                  -1.839
REMARK UNBOUND:                -1.151
REMARK SMILES CC[C@H](C=C[C@H](C)[C@@H]1CC[C@@H]2C3=CC[C@@H]4C[C@H](O)CC[C@@]4(C)[C@H]3CC[C@@]21C)C(C)C
REMARK SMILES IDX 6 1 7 2 5 3 4 4 3 5 2 6 1 7 28 8 29 9 30 10 8 11 9 12 26 13
REMARK SMILES IDX 10 14 11 15 25 16 27 17 12 18 24 19 23 20 13 21 21 22 14 23
REMARK SMILES IDX 15 24 20 25 22 26 16 27 19 28 17 29 18 30
REMARK H PARENT 18 31
REMARK Flexibility Score: inf
ROOT
ATOM      1  C   UNL     1     186.673 189.894 188.693  1.00  0.00     0.012 C 
ATOM      2  C   UNL     1     185.739 188.677 188.569  1.00  0.00     0.012 C 
ENDROOT
BRANCH   1   3
ATOM      3  C   UNL     1     187.357 190.083 187.355  1.00  0.00    -0.028 C 
ATOM      4  C   UNL     1     188.681 189.912 187.199  1.00  0.00    -0.027 C 
BRANCH   4   5
ATOM      5  C   UNL     1     189.320 189.943 185.827  1.00  0.00     0.014 C 
BRANCH   5   6
ATOM      6  C   UNL     1     188.276 189.805 184.691  1.00  0.00     0.004 C 
ATOM      7  C   UNL     1     187.872 191.107 183.997  1.00  0.00     0.004 C 
ENDBRANCH   5   6
BRANCH   5   8
ATOM      8  C   UNL     1     190.315 191.136 185.640  1.00  0.00    -0.011 C 
ATOM      9  C   UNL     1     190.863 191.717 186.961  1.00  0.00     0.008 C 
ATOM     10  C   UNL     1     191.505 190.718 184.757  1.00  0.00     0.008 C 
ENDBRANCH   5   8
ENDBRANCH   4   5
ENDBRANCH   1   3
BRANCH   1  11
ATOM     11  C   UNL     1     185.908 191.197 189.093  1.00  0.00     0.002 C 
ATOM     12  C   UNL     1     185.904 192.236 187.971  1.00  0.00     0.005 C 
ATOM     13  C   UNL     1     186.368 191.985 190.369  1.00  0.00    -0.023 C 
ATOM     14  C   UNL     1     185.460 193.532 188.622  1.00  0.00     0.009 C 
ATOM     15  C   UNL     1     185.915 193.462 190.084  1.00  0.00     0.021 C 
ATOM     16  C   UNL     1     187.911 191.904 190.691  1.00  0.00     0.008 C 
ATOM     17  C   UNL     1     185.607 191.470 191.616  1.00  0.00     0.012 C 
ATOM     18  C   UNL     1     187.035 194.446 190.353  1.00  0.00    -0.067 C 
ATOM     19  C   UNL     1     188.828 192.764 189.794  1.00  0.00     0.009 C 
ATOM     20  C   UNL     1     188.336 194.229 189.580  1.00  0.00     0.021 C 
ATOM     21  C   UNL     1     186.964 195.243 191.451  1.00  0.00    -0.027 C 
ATOM     22  C   UNL     1     189.387 195.373 189.837  1.00  0.00    -0.023 C 
ATOM     23  C   UNL     1     188.089 196.132 191.909  1.00  0.00     0.031 C 
ATOM     24  C   UNL     1     189.439 195.621 191.384  1.00  0.00     0.002 C 
ATOM     25  C   UNL     1     190.828 195.038 189.288  1.00  0.00     0.010 C 
ATOM     26  C   UNL     1     188.874 196.639 189.068  1.00  0.00     0.012 C 
ATOM     27  C   UNL     1     190.609 196.541 191.773  1.00  0.00     0.036 C 
ATOM     28  C   UNL     1     191.871 194.766 190.388  1.00  0.00     0.032 C 
ATOM     29  C   UNL     1     191.983 195.932 191.389  1.00  0.00     0.114 C 
BRANCH  29  30
ATOM     30  O   UNL     1     192.806 196.929 190.838  1.00  0.00    -0.393 OA
ATOM     31  H   UNL     1     192.343 197.797 190.969  1.00  0.00     0.210 HD
ENDBRANCH  29  30
ENDBRANCH   1  11
TORSDOF 6
ENDMDL
MODEL 8
REMARK VINA RESULT:    -6.825      3.204      6.059
REMARK INTER + INTRA:         -10.171
REMARK INTER:                  -9.430
REMARK INTRA:                  -0.741
REMARK UNBOUND:                -1.151
REMARK SMILES CC[C@H](C=C[C@H](C)[C@@H]1CC[C@@H]2C3=CC[C@@H]4C[C@H](O)CC[C@@]4(C)[C@H]3CC[C@@]21C)C(C)C
REMARK SMILES IDX 6 1 7 2 5 3 4 4 3 5 2 6 1 7 28 8 29 9 30 10 8 11 9 12 26 13
REMARK SMILES IDX 10 14 11 15 25 16 27 17 12 18 24 19 23 20 13 21 21 22 14 23
REMARK SMILES IDX 15 24 20 25 22 26 16 27 19 28 17 29 18 30
REMARK H PARENT 18 31
REMARK Flexibility Score: inf
ROOT
ATOM      1  C   UNL     1     186.068 191.504 190.673  1.00  0.00     0.012 C 
ATOM      2  C   UNL     1     187.531 191.332 191.118  1.00  0.00     0.012 C 
ENDROOT
BRANCH   1   3
ATOM      3  C   UNL     1     185.886 192.948 190.251  1.00  0.00    -0.028 C 
ATOM      4  C   UNL     1     186.652 193.937 190.742  1.00  0.00    -0.027 C 
BRANCH   4   5
ATOM      5  C   UNL     1     186.567 195.344 190.188  1.00  0.00     0.014 C 
BRANCH   5   6
ATOM      6  C   UNL     1     186.160 196.376 191.270  1.00  0.00     0.004 C 
ATOM      7  C   UNL     1     186.547 196.023 192.706  1.00  0.00     0.004 C 
ENDBRANCH   5   6
BRANCH   5   8
ATOM      8  C   UNL     1     187.828 195.754 189.356  1.00  0.00    -0.011 C 
ATOM      9  C   UNL     1     188.313 197.197 189.610  1.00  0.00     0.008 C 
ATOM     10  C   UNL     1     188.996 194.789 189.630  1.00  0.00     0.008 C 
ENDBRANCH   5   8
ENDBRANCH   4   5
ENDBRANCH   1   3
BRANCH   1  11
ATOM     11  C   UNL     1     185.684 190.550 189.496  1.00  0.00     0.002 C 
ATOM     12  C   UNL     1     186.395 189.199 189.586  1.00  0.00     0.005 C 
ATOM     13  C   UNL     1     185.921 191.031 188.021  1.00  0.00    -0.023 C 
ATOM     14  C   UNL     1     186.209 188.553 188.227  1.00  0.00     0.009 C 
ATOM     15  C   UNL     1     186.099 189.696 187.213  1.00  0.00     0.021 C 
ATOM     16  C   UNL     1     187.151 191.999 187.819  1.00  0.00     0.008 C 
ATOM     17  C   UNL     1     184.663 191.763 187.491  1.00  0.00     0.012 C 
ATOM     18  C   UNL     1     187.322 189.749 186.319  1.00  0.00    -0.067 C 
ATOM     19  C   UNL     1     188.544 191.331 187.855  1.00  0.00     0.009 C 
ATOM     20  C   UNL     1     188.659 190.028 187.004  1.00  0.00     0.021 C 
ATOM     21  C   UNL     1     187.152 189.868 184.976  1.00  0.00    -0.027 C 
ATOM     22  C   UNL     1     189.876 189.939 186.009  1.00  0.00    -0.023 C 
ATOM     23  C   UNL     1     188.283 190.099 184.010  1.00  0.00     0.031 C 
ATOM     24  C   UNL     1     189.486 190.741 184.720  1.00  0.00     0.002 C 
ATOM     25  C   UNL     1     191.223 190.495 186.613  1.00  0.00     0.010 C 
ATOM     26  C   UNL     1     190.093 188.418 185.697  1.00  0.00     0.012 C 
ATOM     27  C   UNL     1     190.690 190.932 183.782  1.00  0.00     0.036 C 
ATOM     28  C   UNL     1     191.688 191.824 185.989  1.00  0.00     0.032 C 
ATOM     29  C   UNL     1     191.833 191.733 184.458  1.00  0.00     0.114 C 
BRANCH  29  30
ATOM     30  O   UNL     1     193.072 191.142 184.151  1.00  0.00    -0.393 OA
ATOM     31  H   UNL     1     193.327 190.577 184.926  1.00  0.00     0.210 HD
ENDBRANCH  29  30
ENDBRANCH   1  11
TORSDOF 6
ENDMDL
MODEL 9
REMARK VINA RESULT:    -6.658      4.057      8.570
REMARK INTER + INTRA:          -9.950
REMARK INTER:                  -8.431
REMARK INTRA:                  -1.519
REMARK UNBOUND:                -1.151
REMARK SMILES CC[C@H](C=C[C@H](C)[C@@H]1CC[C@@H]2C3=CC[C@@H]4C[C@H](O)CC[C@@]4(C)[C@H]3CC[C@@]21C)C(C)C
REMARK SMILES IDX 6 1 7 2 5 3 4 4 3 5 2 6 1 7 28 8 29 9 30 10 8 11 9 12 26 13
REMARK SMILES IDX 10 14 11 15 25 16 27 17 12 18 24 19 23 20 13 21 21 22 14 23
REMARK SMILES IDX 15 24 20 25 22 26 16 27 19 28 17 29 18 30
REMARK H PARENT 18 31
REMARK Flexibility Score: inf
ROOT
ATOM      1  C   UNL     1     185.393 186.117 192.697  1.00  0.00     0.012 C 
ATOM      2  C   UNL     1     185.468 184.622 193.056  1.00  0.00     0.012 C 
ENDROOT
BRANCH   1   3
ATOM      3  C   UNL     1     186.735 186.735 193.034  1.00  0.00    -0.028 C 
ATOM      4  C   UNL     1     187.776 185.996 193.452  1.00  0.00    -0.027 C 
BRANCH   4   5
ATOM      5  C   UNL     1     189.152 186.605 193.625  1.00  0.00     0.014 C 
BRANCH   5   6
ATOM      6  C   UNL     1     189.207 188.076 193.139  1.00  0.00     0.004 C 
ATOM      7  C   UNL     1     189.605 188.279 191.676  1.00  0.00     0.004 C 
ENDBRANCH   5   6
BRANCH   5   8
ATOM      8  C   UNL     1     189.747 186.382 195.054  1.00  0.00    -0.011 C 
ATOM      9  C   UNL     1     190.270 187.668 195.731  1.00  0.00     0.008 C 
ATOM     10  C   UNL     1     188.704 185.730 195.981  1.00  0.00     0.008 C 
ENDBRANCH   5   8
ENDBRANCH   4   5
ENDBRANCH   1   3
BRANCH   1  11
ATOM     11  C   UNL     1     185.059 186.354 191.189  1.00  0.00     0.002 C 
ATOM     12  C   UNL     1     186.309 186.346 190.307  1.00  0.00     0.005 C 
ATOM     13  C   UNL     1     184.286 187.656 190.778  1.00  0.00    -0.023 C 
ATOM     14  C   UNL     1     185.871 186.934 188.979  1.00  0.00     0.009 C 
ATOM     15  C   UNL     1     184.724 187.902 189.290  1.00  0.00     0.021 C 
ATOM     16  C   UNL     1     184.570 188.919 191.681  1.00  0.00     0.008 C 
ATOM     17  C   UNL     1     182.759 187.400 190.805  1.00  0.00     0.012 C 
ATOM     18  C   UNL     1     185.150 189.339 189.068  1.00  0.00    -0.067 C 
ATOM     19  C   UNL     1     185.928 189.618 191.449  1.00  0.00     0.009 C 
ATOM     20  C   UNL     1     186.284 189.860 189.950  1.00  0.00     0.021 C 
ATOM     21  C   UNL     1     184.335 190.167 188.363  1.00  0.00    -0.027 C 
ATOM     22  C   UNL     1     186.732 191.317 189.556  1.00  0.00    -0.023 C 
ATOM     23  C   UNL     1     184.571 191.647 188.224  1.00  0.00     0.031 C 
ATOM     24  C   UNL     1     185.432 192.175 189.382  1.00  0.00     0.002 C 
ATOM     25  C   UNL     1     187.692 191.987 190.614  1.00  0.00     0.010 C 
ATOM     26  C   UNL     1     187.528 191.197 188.210  1.00  0.00     0.012 C 
ATOM     27  C   UNL     1     185.754 193.673 189.240  1.00  0.00     0.036 C 
ATOM     28  C   UNL     1     187.043 193.135 191.411  1.00  0.00     0.032 C 
ATOM     29  C   UNL     1     186.475 194.234 190.494  1.00  0.00     0.114 C 
BRANCH  29  30
ATOM     30  O   UNL     1     187.522 195.085 190.097  1.00  0.00    -0.393 OA
ATOM     31  H   UNL     1     187.236 195.528 189.257  1.00  0.00     0.210 HD
ENDBRANCH  29  30
ENDBRANCH   1  11
TORSDOF 6
ENDMDL
