MODEL 1
REMARK VINA RESULT:    -4.377      0.000      0.000
REMARK INTER + INTRA:         -12.886
REMARK INTER:                  -9.495
REMARK INTRA:                  -3.391
REMARK UNBOUND:                -3.391
REMARK SMILES CCCCCCCCCCCCCCCCCCCCCC(=O)[O-]
REMARK SMILES IDX 12 1 11 2 10 3 9 4 8 5 7 6 6 7 5 8 4 9 3 10 2 11 1 12 13 13
REMARK SMILES IDX 14 14 15 15 16 16 17 17 18 18 19 19 20 20 21 21 22 22 23 23
REMARK SMILES IDX 24 24
REMARK H PARENT
REMARK Flexibility Score: inf
ROOT
ATOM      1  C   UNL     1     -53.244  14.266 -28.412  1.00  0.00     0.000 C 
ENDROOT
BRANCH   1   2
ATOM      2  C   UNL     1     -53.375  15.670 -27.799  1.00  0.00     0.000 C 
BRANCH   2   3
ATOM      3  C   UNL     1     -54.105  16.663 -28.724  1.00  0.00     0.000 C 
BRANCH   3   4
ATOM      4  C   UNL     1     -53.428  18.037 -28.875  1.00  0.00    -0.000 C 
BRANCH   4   5
ATOM      5  C   UNL     1     -52.769  18.235 -30.248  1.00  0.00    -0.000 C 
BRANCH   5   6
ATOM      6  C   UNL     1     -51.489  17.394 -30.372  1.00  0.00    -0.000 C 
BRANCH   6   7
ATOM      7  C   UNL     1     -51.557  16.365 -31.514  1.00  0.00    -0.000 C 
BRANCH   7   8
ATOM      8  C   UNL     1     -50.326  15.443 -31.632  1.00  0.00    -0.000 C 
BRANCH   8   9
ATOM      9  C   UNL     1     -50.523  14.019 -31.076  1.00  0.00    -0.000 C 
BRANCH   9  10
ATOM     10  C   UNL     1     -49.279  13.405 -30.403  1.00  0.00    -0.000 C 
BRANCH  10  11
ATOM     11  C   UNL     1     -49.559  12.654 -29.090  1.00  0.00    -0.003 C 
ATOM     12  C   UNL     1     -48.604  11.485 -28.854  1.00  0.00     0.004 C 
ENDBRANCH  10  11
ENDBRANCH   9  10
ENDBRANCH   8   9
ENDBRANCH   7   8
ENDBRANCH   6   7
ENDBRANCH   5   6
ENDBRANCH   4   5
ENDBRANCH   3   4
ENDBRANCH   2   3
ENDBRANCH   1   2
BRANCH   1  13
ATOM     13  C   UNL     1     -53.970  14.132 -29.762  1.00  0.00     0.000 C 
BRANCH  13  14
ATOM     14  C   UNL     1     -53.954  12.720 -30.381  1.00  0.00     0.000 C 
BRANCH  14  15
ATOM     15  C   UNL     1     -53.048  11.703 -29.659  1.00  0.00     0.000 C 
BRANCH  15  16
ATOM     16  C   UNL     1     -52.948  10.322 -30.339  1.00  0.00     0.000 C 
BRANCH  16  17
ATOM     17  C   UNL     1     -51.519   9.873 -30.693  1.00  0.00     0.000 C 
BRANCH  17  18
ATOM     18  C   UNL     1     -51.011  10.479 -32.010  1.00  0.00     0.000 C 
BRANCH  18  19
ATOM     19  C   UNL     1     -49.536  10.130 -32.241  1.00  0.00     0.000 C 
BRANCH  19  20
ATOM     20  C   UNL     1     -49.346   8.613 -32.385  1.00  0.00     0.006 C 
BRANCH  20  21
ATOM     21  C   UNL     1     -47.935   8.162 -31.984  1.00  0.00     0.053 C 
BRANCH  21  22
ATOM     22  C   UNL     1     -47.716   8.269 -30.506  1.00  0.00     0.041 C 
ATOM     23  O   UNL     1     -48.614   7.900 -29.704  1.00  0.00    -0.550 OA
ATOM     24  O   UNL     1     -46.536   8.815 -30.014  1.00  0.00    -0.550 OA
ENDBRANCH  21  22
ENDBRANCH  20  21
ENDBRANCH  19  20
ENDBRANCH  18  19
ENDBRANCH  17  18
ENDBRANCH  16  17
ENDBRANCH  15  16
ENDBRANCH  14  15
ENDBRANCH  13  14
ENDBRANCH   1  13
TORSDOF 20
ENDMDL
MODEL 2
REMARK VINA RESULT:    -4.374      3.223      8.130
REMARK INTER + INTRA:         -12.879
REMARK INTER:                  -9.562
REMARK INTRA:                  -3.317
REMARK UNBOUND:                -3.391
REMARK SMILES CCCCCCCCCCCCCCCCCCCCCC(=O)[O-]
REMARK SMILES IDX 12 1 11 2 10 3 9 4 8 5 7 6 6 7 5 8 4 9 3 10 2 11 1 12 13 13
REMARK SMILES IDX 14 14 15 15 16 16 17 17 18 18 19 19 20 20 21 21 22 22 23 23
REMARK SMILES IDX 24 24
REMARK H PARENT
REMARK Flexibility Score: inf
ROOT
ATOM      1  C   UNL     1     -48.009   7.740 -32.693  1.00  0.00     0.000 C 
ENDROOT
BRANCH   1   2
ATOM      2  C   UNL     1     -49.190   6.988 -33.328  1.00  0.00     0.000 C 
BRANCH   2   3
ATOM      3  C   UNL     1     -50.282   6.615 -32.309  1.00  0.00     0.000 C 
BRANCH   3   4
ATOM      4  C   UNL     1     -51.584   6.062 -32.917  1.00  0.00    -0.000 C 
BRANCH   4   5
ATOM      5  C   UNL     1     -52.162   6.963 -34.019  1.00  0.00    -0.000 C 
BRANCH   5   6
ATOM      6  C   UNL     1     -53.499   7.580 -33.582  1.00  0.00    -0.000 C 
BRANCH   6   7
ATOM      7  C   UNL     1     -53.892   7.200 -32.144  1.00  0.00    -0.000 C 
BRANCH   7   8
ATOM      8  C   UNL     1     -53.963   8.382 -31.154  1.00  0.00    -0.000 C 
BRANCH   8   9
ATOM      9  C   UNL     1     -52.621   8.770 -30.504  1.00  0.00    -0.000 C 
BRANCH   9  10
ATOM     10  C   UNL     1     -52.377  10.286 -30.368  1.00  0.00    -0.000 C 
BRANCH  10  11
ATOM     11  C   UNL     1     -51.926  10.986 -31.663  1.00  0.00    -0.003 C 
ATOM     12  C   UNL     1     -50.988  10.127 -32.510  1.00  0.00     0.004 C 
ENDBRANCH  10  11
ENDBRANCH   9  10
ENDBRANCH   8   9
ENDBRANCH   7   8
ENDBRANCH   6   7
ENDBRANCH   5   6
ENDBRANCH   4   5
ENDBRANCH   3   4
ENDBRANCH   2   3
ENDBRANCH   1   2
BRANCH   1  13
ATOM     13  C   UNL     1     -47.384   6.982 -31.508  1.00  0.00     0.000 C 
BRANCH  13  14
ATOM     14  C   UNL     1     -47.289   7.779 -30.192  1.00  0.00     0.000 C 
BRANCH  14  15
ATOM     15  C   UNL     1     -47.395   9.309 -30.349  1.00  0.00     0.000 C 
BRANCH  15  16
ATOM     16  C   UNL     1     -48.660   9.941 -29.733  1.00  0.00     0.000 C 
BRANCH  16  17
ATOM     17  C   UNL     1     -48.411  11.196 -28.879  1.00  0.00     0.000 C 
BRANCH  17  18
ATOM     18  C   UNL     1     -49.483  12.278 -29.078  1.00  0.00     0.000 C 
BRANCH  18  19
ATOM     19  C   UNL     1     -49.160  13.151 -30.297  1.00  0.00     0.000 C 
BRANCH  19  20
ATOM     20  C   UNL     1     -50.348  14.055 -30.657  1.00  0.00     0.006 C 
BRANCH  20  21
ATOM     21  C   UNL     1     -51.461  14.001 -29.602  1.00  0.00     0.053 C 
BRANCH  21  22
ATOM     22  C   UNL     1     -52.248  15.275 -29.558  1.00  0.00     0.041 C 
ATOM     23  O   UNL     1     -52.405  15.885 -28.468  1.00  0.00    -0.550 OA
ATOM     24  O   UNL     1     -52.842  15.768 -30.714  1.00  0.00    -0.550 OA
ENDBRANCH  21  22
ENDBRANCH  20  21
ENDBRANCH  19  20
ENDBRANCH  18  19
ENDBRANCH  17  18
ENDBRANCH  16  17
ENDBRANCH  15  16
ENDBRANCH  14  15
ENDBRANCH  13  14
ENDBRANCH   1  13
TORSDOF 20
ENDMDL
MODEL 3
REMARK VINA RESULT:    -4.365      1.381      2.210
REMARK INTER + INTRA:         -12.860
REMARK INTER:                  -9.846
REMARK INTRA:                  -3.014
REMARK UNBOUND:                -3.391
REMARK SMILES CCCCCCCCCCCCCCCCCCCCCC(=O)[O-]
REMARK SMILES IDX 12 1 11 2 10 3 9 4 8 5 7 6 6 7 5 8 4 9 3 10 2 11 1 12 13 13
REMARK SMILES IDX 14 14 15 15 16 16 17 17 18 18 19 19 20 20 21 21 22 22 23 23
REMARK SMILES IDX 24 24
REMARK H PARENT
REMARK Flexibility Score: inf
ROOT
ATOM      1  C   UNL     1     -52.969  12.216 -28.573  1.00  0.00     0.000 C 
ENDROOT
BRANCH   1   2
ATOM      2  C   UNL     1     -53.955  13.321 -28.159  1.00  0.00     0.000 C 
BRANCH   2   3
ATOM      3  C   UNL     1     -53.745  14.634 -28.935  1.00  0.00     0.000 C 
BRANCH   3   4
ATOM      4  C   UNL     1     -52.909  15.701 -28.205  1.00  0.00    -0.000 C 
BRANCH   4   5
ATOM      5  C   UNL     1     -52.565  16.906 -29.094  1.00  0.00    -0.000 C 
BRANCH   5   6
ATOM      6  C   UNL     1     -52.451  16.490 -30.568  1.00  0.00    -0.000 C 
BRANCH   6   7
ATOM      7  C   UNL     1     -51.045  16.720 -31.148  1.00  0.00    -0.000 C 
BRANCH   7   8
ATOM      8  C   UNL     1     -50.395  15.477 -31.791  1.00  0.00    -0.000 C 
BRANCH   8   9
ATOM      9  C   UNL     1     -50.841  14.127 -31.198  1.00  0.00    -0.000 C 
BRANCH   9  10
ATOM     10  C   UNL     1     -49.693  13.163 -30.837  1.00  0.00    -0.000 C 
BRANCH  10  11
ATOM     11  C   UNL     1     -49.511  12.911 -29.330  1.00  0.00    -0.003 C 
ATOM     12  C   UNL     1     -48.949  11.524 -29.020  1.00  0.00     0.004 C 
ENDBRANCH  10  11
ENDBRANCH   9  10
ENDBRANCH   8   9
ENDBRANCH   7   8
ENDBRANCH   6   7
ENDBRANCH   5   6
ENDBRANCH   4   5
ENDBRANCH   3   4
ENDBRANCH   2   3
ENDBRANCH   1   2
BRANCH   1  13
ATOM     13  C   UNL     1     -53.282  11.623 -29.960  1.00  0.00     0.000 C 
BRANCH  13  14
ATOM     14  C   UNL     1     -52.445  10.390 -30.353  1.00  0.00     0.000 C 
BRANCH  14  15
ATOM     15  C   UNL     1     -51.808  10.456 -31.756  1.00  0.00     0.000 C 
BRANCH  15  16
ATOM     16  C   UNL     1     -50.753   9.369 -32.043  1.00  0.00     0.000 C 
BRANCH  16  17
ATOM     17  C   UNL     1     -51.317   7.953 -32.254  1.00  0.00     0.000 C 
BRANCH  17  18
ATOM     18  C   UNL     1     -50.633   6.899 -31.370  1.00  0.00     0.000 C 
BRANCH  18  19
ATOM     19  C   UNL     1     -49.775   7.565 -30.288  1.00  0.00     0.000 C 
BRANCH  19  20
ATOM     20  C   UNL     1     -48.484   6.770 -30.041  1.00  0.00     0.006 C 
BRANCH  20  21
ATOM     21  C   UNL     1     -47.657   6.592 -31.321  1.00  0.00     0.053 C 
BRANCH  21  22
ATOM     22  C   UNL     1     -47.322   7.908 -31.954  1.00  0.00     0.041 C 
ATOM     23  O   UNL     1     -47.593   8.115 -33.166  1.00  0.00    -0.550 OA
ATOM     24  O   UNL     1     -46.675   8.892 -31.215  1.00  0.00    -0.550 OA
ENDBRANCH  21  22
ENDBRANCH  20  21
ENDBRANCH  19  20
ENDBRANCH  18  19
ENDBRANCH  17  18
ENDBRANCH  16  17
ENDBRANCH  15  16
ENDBRANCH  14  15
ENDBRANCH  13  14
ENDBRANCH   1  13
TORSDOF 20
ENDMDL
MODEL 4
REMARK VINA RESULT:    -4.363      1.388      4.297
REMARK INTER + INTRA:         -12.854
REMARK INTER:                  -9.180
REMARK INTRA:                  -3.674
REMARK UNBOUND:                -3.391
REMARK SMILES CCCCCCCCCCCCCCCCCCCCCC(=O)[O-]
REMARK SMILES IDX 12 1 11 2 10 3 9 4 8 5 7 6 6 7 5 8 4 9 3 10 2 11 1 12 13 13
REMARK SMILES IDX 14 14 15 15 16 16 17 17 18 18 19 19 20 20 21 21 22 22 23 23
REMARK SMILES IDX 24 24
REMARK H PARENT
REMARK Flexibility Score: inf
ROOT
ATOM      1  C   UNL     1     -49.061  12.344 -29.621  1.00  0.00     0.000 C 
ENDROOT
BRANCH   1   2
ATOM      2  C   UNL     1     -50.214  13.360 -29.583  1.00  0.00     0.000 C 
BRANCH   2   3
ATOM      3  C   UNL     1     -50.220  14.307 -30.796  1.00  0.00     0.000 C 
BRANCH   3   4
ATOM      4  C   UNL     1     -51.525  14.319 -31.612  1.00  0.00    -0.000 C 
BRANCH   4   5
ATOM      5  C   UNL     1     -52.311  13.003 -31.508  1.00  0.00    -0.000 C 
BRANCH   5   6
ATOM      6  C   UNL     1     -53.658  13.219 -30.801  1.00  0.00    -0.000 C 
BRANCH   6   7
ATOM      7  C   UNL     1     -53.780  12.423 -29.490  1.00  0.00    -0.000 C 
BRANCH   7   8
ATOM      8  C   UNL     1     -53.827  13.281 -28.209  1.00  0.00    -0.000 C 
BRANCH   8   9
ATOM      9  C   UNL     1     -54.004  14.794 -28.444  1.00  0.00    -0.000 C 
BRANCH   9  10
ATOM     10  C   UNL     1     -52.747  15.647 -28.175  1.00  0.00    -0.000 C 
BRANCH  10  11
ATOM     11  C   UNL     1     -52.598  16.880 -29.082  1.00  0.00    -0.003 C 
ATOM     12  C   UNL     1     -53.631  16.922 -30.208  1.00  0.00     0.004 C 
ENDBRANCH  10  11
ENDBRANCH   9  10
ENDBRANCH   8   9
ENDBRANCH   7   8
ENDBRANCH   6   7
ENDBRANCH   5   6
ENDBRANCH   4   5
ENDBRANCH   3   4
ENDBRANCH   2   3
ENDBRANCH   1   2
BRANCH   1  13
ATOM     13  C   UNL     1     -49.436  11.040 -30.349  1.00  0.00     0.000 C 
BRANCH  13  14
ATOM     14  C   UNL     1     -50.662  10.298 -29.780  1.00  0.00     0.000 C 
BRANCH  14  15
ATOM     15  C   UNL     1     -51.473   9.491 -30.814  1.00  0.00     0.000 C 
BRANCH  15  16
ATOM     16  C   UNL     1     -50.876   9.470 -32.236  1.00  0.00     0.000 C 
BRANCH  16  17
ATOM     17  C   UNL     1     -51.121   8.172 -33.025  1.00  0.00     0.000 C 
BRANCH  17  18
ATOM     18  C   UNL     1     -49.912   7.224 -33.007  1.00  0.00     0.000 C 
BRANCH  18  19
ATOM     19  C   UNL     1     -49.950   6.311 -31.776  1.00  0.00     0.000 C 
BRANCH  19  20
ATOM     20  C   UNL     1     -48.572   6.238 -31.102  1.00  0.00     0.006 C 
BRANCH  20  21
ATOM     21  C   UNL     1     -48.380   7.337 -30.049  1.00  0.00     0.053 C 
BRANCH  21  22
ATOM     22  C   UNL     1     -47.066   8.037 -30.211  1.00  0.00     0.041 C 
ATOM     23  O   UNL     1     -46.216   8.014 -29.281  1.00  0.00    -0.550 OA
ATOM     24  O   UNL     1     -46.794   8.750 -31.372  1.00  0.00    -0.550 OA
ENDBRANCH  21  22
ENDBRANCH  20  21
ENDBRANCH  19  20
ENDBRANCH  18  19
ENDBRANCH  17  18
ENDBRANCH  16  17
ENDBRANCH  15  16
ENDBRANCH  14  15
ENDBRANCH  13  14
ENDBRANCH   1  13
TORSDOF 20
ENDMDL
MODEL 5
REMARK VINA RESULT:    -4.330      3.139      7.923
REMARK INTER + INTRA:         -12.784
REMARK INTER:                  -9.342
REMARK INTRA:                  -3.441
REMARK UNBOUND:                -3.391
REMARK SMILES CCCCCCCCCCCCCCCCCCCCCC(=O)[O-]
REMARK SMILES IDX 12 1 11 2 10 3 9 4 8 5 7 6 6 7 5 8 4 9 3 10 2 11 1 12 13 13
REMARK SMILES IDX 14 14 15 15 16 16 17 17 18 18 19 19 20 20 21 21 22 22 23 23
REMARK SMILES IDX 24 24
REMARK H PARENT
REMARK Flexibility Score: inf
ROOT
ATOM      1  C   UNL     1     -49.607   9.002 -33.096  1.00  0.00     0.000 C 
ENDROOT
BRANCH   1   2
ATOM      2  C   UNL     1     -49.466   7.482 -32.916  1.00  0.00     0.000 C 
BRANCH   2   3
ATOM      3  C   UNL     1     -48.029   6.981 -33.148  1.00  0.00     0.000 C 
BRANCH   3   4
ATOM      4  C   UNL     1     -47.363   6.313 -31.931  1.00  0.00    -0.000 C 
BRANCH   4   5
ATOM      5  C   UNL     1     -48.030   6.689 -30.599  1.00  0.00    -0.000 C 
BRANCH   5   6
ATOM      6  C   UNL     1     -47.032   7.380 -29.659  1.00  0.00    -0.000 C 
BRANCH   6   7
ATOM      7  C   UNL     1     -46.557   8.744 -30.188  1.00  0.00    -0.000 C 
BRANCH   7   8
ATOM      8  C   UNL     1     -47.649   9.831 -30.261  1.00  0.00    -0.000 C 
BRANCH   8   9
ATOM      9  C   UNL     1     -48.212  10.282 -28.899  1.00  0.00    -0.000 C 
BRANCH   9  10
ATOM     10  C   UNL     1     -48.913  11.656 -28.906  1.00  0.00    -0.000 C 
BRANCH  10  11
ATOM     11  C   UNL     1     -49.257  12.198 -30.305  1.00  0.00    -0.003 C 
ATOM     12  C   UNL     1     -49.234  13.725 -30.375  1.00  0.00     0.004 C 
ENDBRANCH  10  11
ENDBRANCH   9  10
ENDBRANCH   8   9
ENDBRANCH   7   8
ENDBRANCH   6   7
ENDBRANCH   5   6
ENDBRANCH   4   5
ENDBRANCH   3   4
ENDBRANCH   2   3
ENDBRANCH   1   2
BRANCH   1  13
ATOM     13  C   UNL     1     -50.741   9.603 -32.246  1.00  0.00     0.000 C 
BRANCH  13  14
ATOM     14  C   UNL     1     -51.132   8.786 -30.998  1.00  0.00     0.000 C 
BRANCH  14  15
ATOM     15  C   UNL     1     -52.380   9.296 -30.250  1.00  0.00     0.000 C 
BRANCH  15  16
ATOM     16  C   UNL     1     -52.552  10.829 -30.240  1.00  0.00     0.000 C 
BRANCH  16  17
ATOM     17  C   UNL     1     -52.570  11.473 -28.843  1.00  0.00     0.000 C 
BRANCH  17  18
ATOM     18  C   UNL     1     -52.714  13.002 -28.891  1.00  0.00     0.000 C 
BRANCH  18  19
ATOM     19  C   UNL     1     -52.930  13.487 -30.329  1.00  0.00     0.000 C 
BRANCH  19  20
ATOM     20  C   UNL     1     -53.310  14.974 -30.357  1.00  0.00     0.006 C 
BRANCH  20  21
ATOM     21  C   UNL     1     -52.323  15.842 -29.564  1.00  0.00     0.053 C 
BRANCH  21  22
ATOM     22  C   UNL     1     -51.735  16.929 -30.410  1.00  0.00     0.041 C 
ATOM     23  O   UNL     1     -50.830  16.663 -31.245  1.00  0.00    -0.550 OA
ATOM     24  O   UNL     1     -52.157  18.243 -30.249  1.00  0.00    -0.550 OA
ENDBRANCH  21  22
ENDBRANCH  20  21
ENDBRANCH  19  20
ENDBRANCH  18  19
ENDBRANCH  17  18
ENDBRANCH  16  17
ENDBRANCH  15  16
ENDBRANCH  14  15
ENDBRANCH  13  14
ENDBRANCH   1  13
TORSDOF 20
ENDMDL
MODEL 6
REMARK VINA RESULT:    -4.330      3.178      7.965
REMARK INTER + INTRA:         -12.782
REMARK INTER:                  -9.543
REMARK INTRA:                  -3.239
REMARK UNBOUND:                -3.391
REMARK SMILES CCCCCCCCCCCCCCCCCCCCCC(=O)[O-]
REMARK SMILES IDX 12 1 11 2 10 3 9 4 8 5 7 6 6 7 5 8 4 9 3 10 2 11 1 12 13 13
REMARK SMILES IDX 14 14 15 15 16 16 17 17 18 18 19 19 20 20 21 21 22 22 23 23
REMARK SMILES IDX 24 24
REMARK H PARENT
REMARK Flexibility Score: inf
ROOT
ATOM      1  C   UNL     1     -47.417   8.393 -31.287  1.00  0.00     0.000 C 
ENDROOT
BRANCH   1   2
ATOM      2  C   UNL     1     -47.842   8.175 -32.749  1.00  0.00     0.000 C 
BRANCH   2   3
ATOM      3  C   UNL     1     -48.457   6.785 -32.994  1.00  0.00     0.000 C 
BRANCH   3   4
ATOM      4  C   UNL     1     -49.894   6.603 -32.475  1.00  0.00    -0.000 C 
BRANCH   4   5
ATOM      5  C   UNL     1     -50.948   6.653 -33.592  1.00  0.00    -0.000 C 
BRANCH   5   6
ATOM      6  C   UNL     1     -51.968   7.773 -33.339  1.00  0.00    -0.000 C 
BRANCH   6   7
ATOM      7  C   UNL     1     -51.610   8.644 -32.122  1.00  0.00    -0.000 C 
BRANCH   7   8
ATOM      8  C   UNL     1     -51.088  10.055 -32.464  1.00  0.00    -0.000 C 
BRANCH   8   9
ATOM      9  C   UNL     1     -51.806  11.210 -31.739  1.00  0.00    -0.000 C 
BRANCH   9  10
ATOM     10  C   UNL     1     -52.584  10.801 -30.472  1.00  0.00    -0.000 C 
BRANCH  10  11
ATOM     11  C   UNL     1     -53.493  11.897 -29.890  1.00  0.00    -0.003 C 
ATOM     12  C   UNL     1     -53.128  12.277 -28.456  1.00  0.00     0.004 C 
ENDBRANCH  10  11
ENDBRANCH   9  10
ENDBRANCH   8   9
ENDBRANCH   7   8
ENDBRANCH   6   7
ENDBRANCH   5   6
ENDBRANCH   4   5
ENDBRANCH   3   4
ENDBRANCH   2   3
ENDBRANCH   1   2
BRANCH   1  13
ATOM     13  C   UNL     1     -47.899   9.740 -30.718  1.00  0.00     0.000 C 
BRANCH  13  14
ATOM     14  C   UNL     1     -48.479   9.682 -29.291  1.00  0.00     0.000 C 
BRANCH  14  15
ATOM     15  C   UNL     1     -49.434  10.836 -28.928  1.00  0.00     0.000 C 
BRANCH  15  16
ATOM     16  C   UNL     1     -48.839  12.250 -29.093  1.00  0.00     0.000 C 
BRANCH  16  17
ATOM     17  C   UNL     1     -49.812  13.305 -29.646  1.00  0.00     0.000 C 
BRANCH  17  18
ATOM     18  C   UNL     1     -49.257  14.045 -30.873  1.00  0.00     0.000 C 
BRANCH  18  19
ATOM     19  C   UNL     1     -50.357  14.860 -31.565  1.00  0.00     0.000 C 
BRANCH  19  20
ATOM     20  C   UNL     1     -51.588  15.003 -30.659  1.00  0.00     0.006 C 
BRANCH  20  21
ATOM     21  C   UNL     1     -51.972  16.471 -30.426  1.00  0.00     0.053 C 
BRANCH  21  22
ATOM     22  C   UNL     1     -52.296  16.740 -28.989  1.00  0.00     0.041 C 
ATOM     23  O   UNL     1     -52.260  17.916 -28.540  1.00  0.00    -0.550 OA
ATOM     24  O   UNL     1     -52.598  15.687 -28.134  1.00  0.00    -0.550 OA
ENDBRANCH  21  22
ENDBRANCH  20  21
ENDBRANCH  19  20
ENDBRANCH  18  19
ENDBRANCH  17  18
ENDBRANCH  16  17
ENDBRANCH  15  16
ENDBRANCH  14  15
ENDBRANCH  13  14
ENDBRANCH   1  13
TORSDOF 20
ENDMDL
MODEL 7
REMARK VINA RESULT:    -4.319      3.320      7.672
REMARK INTER + INTRA:         -12.760
REMARK INTER:                  -9.905
REMARK INTRA:                  -2.854
REMARK UNBOUND:                -3.391
REMARK SMILES CCCCCCCCCCCCCCCCCCCCCC(=O)[O-]
REMARK SMILES IDX 12 1 11 2 10 3 9 4 8 5 7 6 6 7 5 8 4 9 3 10 2 11 1 12 13 13
REMARK SMILES IDX 14 14 15 15 16 16 17 17 18 18 19 19 20 20 21 21 22 22 23 23
REMARK SMILES IDX 24 24
REMARK H PARENT
REMARK Flexibility Score: inf
ROOT
ATOM      1  C   UNL     1     -49.623  13.280 -30.493  1.00  0.00     0.000 C 
ENDROOT
BRANCH   1   2
ATOM      2  C   UNL     1     -49.632  12.056 -29.563  1.00  0.00     0.000 C 
BRANCH   2   3
ATOM      3  C   UNL     1     -48.222  11.507 -29.278  1.00  0.00     0.000 C 
BRANCH   3   4
ATOM      4  C   UNL     1     -48.117   9.972 -29.215  1.00  0.00    -0.000 C 
BRANCH   4   5
ATOM      5  C   UNL     1     -46.946   9.416 -30.040  1.00  0.00    -0.000 C 
BRANCH   5   6
ATOM      6  C   UNL     1     -47.299   8.050 -30.646  1.00  0.00    -0.000 C 
BRANCH   6   7
ATOM      7  C   UNL     1     -47.306   8.062 -32.185  1.00  0.00    -0.000 C 
BRANCH   7   8
ATOM      8  C   UNL     1     -48.445   7.251 -32.837  1.00  0.00    -0.000 C 
BRANCH   8   9
ATOM      9  C   UNL     1     -49.814   7.957 -32.867  1.00  0.00    -0.000 C 
BRANCH   9  10
ATOM     10  C   UNL     1     -49.753   9.498 -32.856  1.00  0.00    -0.000 C 
BRANCH  10  11
ATOM     11  C   UNL     1     -50.987  10.188 -32.248  1.00  0.00    -0.003 C 
ATOM     12  C   UNL     1     -51.983   9.203 -31.638  1.00  0.00     0.004 C 
ENDBRANCH  10  11
ENDBRANCH   9  10
ENDBRANCH   8   9
ENDBRANCH   7   8
ENDBRANCH   6   7
ENDBRANCH   5   6
ENDBRANCH   4   5
ENDBRANCH   3   4
ENDBRANCH   2   3
ENDBRANCH   1   2
BRANCH   1  13
ATOM     13  C   UNL     1     -50.932  14.088 -30.433  1.00  0.00     0.000 C 
BRANCH  13  14
ATOM     14  C   UNL     1     -52.046  13.608 -31.385  1.00  0.00     0.000 C 
BRANCH  14  15
ATOM     15  C   UNL     1     -53.379  13.248 -30.699  1.00  0.00     0.000 C 
BRANCH  15  16
ATOM     16  C   UNL     1     -53.240  12.581 -29.315  1.00  0.00     0.000 C 
BRANCH  16  17
ATOM     17  C   UNL     1     -53.901  13.345 -28.155  1.00  0.00     0.000 C 
BRANCH  17  18
ATOM     18  C   UNL     1     -54.113  14.834 -28.463  1.00  0.00     0.000 C 
BRANCH  18  19
ATOM     19  C   UNL     1     -53.031  15.691 -27.796  1.00  0.00     0.000 C 
BRANCH  19  20
ATOM     20  C   UNL     1     -53.158  17.163 -28.215  1.00  0.00     0.006 C 
BRANCH  20  21
ATOM     21  C   UNL     1     -52.014  17.607 -29.137  1.00  0.00     0.053 C 
BRANCH  21  22
ATOM     22  C   UNL     1     -52.490  17.843 -30.538  1.00  0.00     0.041 C 
ATOM     23  O   UNL     1     -53.155  16.959 -31.139  1.00  0.00    -0.550 OA
ATOM     24  O   UNL     1     -52.164  19.024 -31.195  1.00  0.00    -0.550 OA
ENDBRANCH  21  22
ENDBRANCH  20  21
ENDBRANCH  19  20
ENDBRANCH  18  19
ENDBRANCH  17  18
ENDBRANCH  16  17
ENDBRANCH  15  16
ENDBRANCH  14  15
ENDBRANCH  13  14
ENDBRANCH   1  13
TORSDOF 20
ENDMDL
MODEL 8
REMARK VINA RESULT:    -4.294      3.229      8.197
REMARK INTER + INTRA:         -12.706
REMARK INTER:                  -9.599
REMARK INTRA:                  -3.106
REMARK UNBOUND:                -3.391
REMARK SMILES CCCCCCCCCCCCCCCCCCCCCC(=O)[O-]
REMARK SMILES IDX 12 1 11 2 10 3 9 4 8 5 7 6 6 7 5 8 4 9 3 10 2 11 1 12 13 13
REMARK SMILES IDX 14 14 15 15 16 16 17 17 18 18 19 19 20 20 21 21 22 22 23 23
REMARK SMILES IDX 24 24
REMARK H PARENT
REMARK Flexibility Score: inf
ROOT
ATOM      1  C   UNL     1     -47.217   9.494 -30.101  1.00  0.00     0.000 C 
ENDROOT
BRANCH   1   2
ATOM      2  C   UNL     1     -46.991   7.982 -29.942  1.00  0.00     0.000 C 
BRANCH   2   3
ATOM      3  C   UNL     1     -48.305   7.184 -29.856  1.00  0.00     0.000 C 
BRANCH   3   4
ATOM      4  C   UNL     1     -48.580   6.242 -31.042  1.00  0.00    -0.000 C 
BRANCH   4   5
ATOM      5  C   UNL     1     -47.426   6.200 -32.055  1.00  0.00    -0.000 C 
BRANCH   5   6
ATOM      6  C   UNL     1     -47.721   7.101 -33.264  1.00  0.00    -0.000 C 
BRANCH   6   7
ATOM      7  C   UNL     1     -49.147   7.679 -33.246  1.00  0.00    -0.000 C 
BRANCH   7   8
ATOM      8  C   UNL     1     -49.224   9.218 -33.160  1.00  0.00    -0.000 C 
BRANCH   8   9
ATOM      9  C   UNL     1     -50.350   9.765 -32.262  1.00  0.00    -0.000 C 
BRANCH   9  10
ATOM     10  C   UNL     1     -51.776   9.353 -32.681  1.00  0.00    -0.000 C 
BRANCH  10  11
ATOM     11  C   UNL     1     -52.396   8.224 -31.839  1.00  0.00    -0.003 C 
ATOM     12  C   UNL     1     -51.895   8.211 -30.396  1.00  0.00     0.004 C 
ENDBRANCH  10  11
ENDBRANCH   9  10
ENDBRANCH   8   9
ENDBRANCH   7   8
ENDBRANCH   6   7
ENDBRANCH   5   6
ENDBRANCH   4   5
ENDBRANCH   3   4
ENDBRANCH   2   3
ENDBRANCH   1   2
BRANCH   1  13
ATOM     13  C   UNL     1     -48.385  10.018 -29.245  1.00  0.00     0.000 C 
BRANCH  13  14
ATOM     14  C   UNL     1     -48.460  11.551 -29.100  1.00  0.00     0.000 C 
BRANCH  14  15
ATOM     15  C   UNL     1     -49.793  12.183 -29.548  1.00  0.00     0.000 C 
BRANCH  15  16
ATOM     16  C   UNL     1     -51.058  11.508 -28.978  1.00  0.00     0.000 C 
BRANCH  16  17
ATOM     17  C   UNL     1     -52.389  12.090 -29.483  1.00  0.00     0.000 C 
BRANCH  17  18
ATOM     18  C   UNL     1     -52.204  13.119 -30.609  1.00  0.00     0.000 C 
BRANCH  18  19
ATOM     19  C   UNL     1     -52.944  14.422 -30.288  1.00  0.00     0.000 C 
BRANCH  19  20
ATOM     20  C   UNL     1     -52.167  15.258 -29.260  1.00  0.00     0.006 C 
BRANCH  20  21
ATOM     21  C   UNL     1     -52.444  16.760 -29.402  1.00  0.00     0.053 C 
BRANCH  21  22
ATOM     22  C   UNL     1     -51.633  17.373 -30.502  1.00  0.00     0.041 C 
ATOM     23  O   UNL     1     -51.957  18.493 -30.980  1.00  0.00    -0.550 OA
ATOM     24  O   UNL     1     -50.543  16.691 -31.027  1.00  0.00    -0.550 OA
ENDBRANCH  21  22
ENDBRANCH  20  21
ENDBRANCH  19  20
ENDBRANCH  18  19
ENDBRANCH  17  18
ENDBRANCH  16  17
ENDBRANCH  15  16
ENDBRANCH  14  15
ENDBRANCH  13  14
ENDBRANCH   1  13
TORSDOF 20
ENDMDL
MODEL 9
REMARK VINA RESULT:    -4.276      2.118      5.514
REMARK INTER + INTRA:         -12.667
REMARK INTER:                  -9.543
REMARK INTRA:                  -3.124
REMARK UNBOUND:                -3.391
REMARK SMILES CCCCCCCCCCCCCCCCCCCCCC(=O)[O-]
REMARK SMILES IDX 12 1 11 2 10 3 9 4 8 5 7 6 6 7 5 8 4 9 3 10 2 11 1 12 13 13
REMARK SMILES IDX 14 14 15 15 16 16 17 17 18 18 19 19 20 20 21 21 22 22 23 23
REMARK SMILES IDX 24 24
REMARK H PARENT
REMARK Flexibility Score: inf
ROOT
ATOM      1  C   UNL     1     -48.130  11.097 -28.883  1.00  0.00     0.000 C 
ENDROOT
BRANCH   1   2
ATOM      2  C   UNL     1     -49.560  11.656 -28.819  1.00  0.00     0.000 C 
BRANCH   2   3
ATOM      3  C   UNL     1     -49.733  12.957 -29.624  1.00  0.00     0.000 C 
BRANCH   3   4
ATOM      4  C   UNL     1     -50.084  12.767 -31.110  1.00  0.00    -0.000 C 
BRANCH   4   5
ATOM      5  C   UNL     1     -51.250  11.791 -31.332  1.00  0.00    -0.000 C 
BRANCH   5   6
ATOM      6  C   UNL     1     -52.602  12.507 -31.196  1.00  0.00    -0.000 C 
BRANCH   6   7
ATOM      7  C   UNL     1     -53.303  12.215 -29.858  1.00  0.00    -0.000 C 
BRANCH   7   8
ATOM      8  C   UNL     1     -53.365  13.408 -28.882  1.00  0.00    -0.000 C 
BRANCH   8   9
ATOM      9  C   UNL     1     -53.414  14.796 -29.551  1.00  0.00    -0.000 C 
BRANCH   9  10
ATOM     10  C   UNL     1     -52.252  15.740 -29.181  1.00  0.00    -0.000 C 
BRANCH  10  11
ATOM     11  C   UNL     1     -51.894  16.776 -30.261  1.00  0.00    -0.003 C 
ATOM     12  C   UNL     1     -51.077  16.184 -31.409  1.00  0.00     0.004 C 
ENDBRANCH  10  11
ENDBRANCH   9  10
ENDBRANCH   8   9
ENDBRANCH   7   8
ENDBRANCH   6   7
ENDBRANCH   5   6
ENDBRANCH   4   5
ENDBRANCH   3   4
ENDBRANCH   2   3
ENDBRANCH   1   2
BRANCH   1  13
ATOM     13  C   UNL     1     -48.047   9.749 -29.623  1.00  0.00     0.000 C 
BRANCH  13  14
ATOM     14  C   UNL     1     -46.620   9.249 -29.924  1.00  0.00     0.000 C 
BRANCH  14  15
ATOM     15  C   UNL     1     -46.375   7.758 -29.621  1.00  0.00     0.000 C 
BRANCH  15  16
ATOM     16  C   UNL     1     -47.443   6.796 -30.178  1.00  0.00     0.000 C 
BRANCH  16  17
ATOM     17  C   UNL     1     -47.136   6.218 -31.571  1.00  0.00     0.000 C 
BRANCH  17  18
ATOM     18  C   UNL     1     -48.170   6.630 -32.631  1.00  0.00     0.000 C 
BRANCH  18  19
ATOM     19  C   UNL     1     -47.980   8.096 -33.039  1.00  0.00     0.000 C 
BRANCH  19  20
ATOM     20  C   UNL     1     -49.313   8.857 -32.994  1.00  0.00     0.006 C 
BRANCH  20  21
ATOM     21  C   UNL     1     -50.315   8.219 -32.023  1.00  0.00     0.053 C 
BRANCH  21  22
ATOM     22  C   UNL     1     -51.639   7.965 -32.677  1.00  0.00     0.041 C 
ATOM     23  O   UNL     1     -52.267   8.909 -33.224  1.00  0.00    -0.550 OA
ATOM     24  O   UNL     1     -52.198   6.693 -32.647  1.00  0.00    -0.550 OA
ENDBRANCH  21  22
ENDBRANCH  20  21
ENDBRANCH  19  20
ENDBRANCH  18  19
ENDBRANCH  17  18
ENDBRANCH  16  17
ENDBRANCH  15  16
ENDBRANCH  14  15
ENDBRANCH  13  14
ENDBRANCH   1  13
TORSDOF 20
ENDMDL
