MODEL 1
REMARK VINA RESULT:    -2.526      0.000      0.000
REMARK INTER + INTRA:         -12.300
REMARK INTER:                  -6.367
REMARK INTRA:                  -5.934
REMARK UNBOUND:                -5.934
REMARK SMILES CCCCCCCCCCCCCCCCCCCCCCCCCCCC(=O)[O-]
REMARK SMILES IDX 15 1 16 2 17 3 18 4 19 5 20 6 21 7 22 8 23 9 24 10 25 11
REMARK SMILES IDX 26 12 27 13 28 14 29 15 30 16 14 17 13 18 12 19 11 20 10 21
REMARK SMILES IDX 9 22 8 23 7 24 6 25 5 26 4 27 3 28 2 29 1 30
REMARK H PARENT
REMARK Flexibility Score: inf
ROOT
ATOM      1  C   UNL     1     -96.352 -28.019  82.767  1.00  0.00     0.000 C 
ENDROOT
BRANCH   1   2
ATOM      2  C   UNL     1     -97.161 -28.177  84.065  1.00  0.00     0.000 C 
BRANCH   2   3
ATOM      3  C   UNL     1     -97.422 -26.837  84.775  1.00  0.00     0.000 C 
BRANCH   3   4
ATOM      4  C   UNL     1     -98.899 -26.391  84.730  1.00  0.00     0.000 C 
BRANCH   4   5
ATOM      5  C   UNL     1     -99.084 -25.067  83.969  1.00  0.00     0.000 C 
BRANCH   5   6
ATOM      6  C   UNL     1     -99.391 -25.278  82.478  1.00  0.00     0.000 C 
BRANCH   6   7
ATOM      7  C   UNL     1     -99.834 -26.714  82.162  1.00  0.00     0.000 C 
BRANCH   7   8
ATOM      8  C   UNL     1    -100.694 -26.755  80.892  1.00  0.00     0.000 C 
BRANCH   8   9
ATOM      9  C   UNL     1    -102.138 -27.165  81.216  1.00  0.00     0.000 C 
BRANCH   9  10
ATOM     10  C   UNL     1    -102.842 -26.165  82.147  1.00  0.00     0.000 C 
BRANCH  10  11
ATOM     11  C   UNL     1    -103.240 -26.786  83.495  1.00  0.00     0.000 C 
BRANCH  11  12
ATOM     12  C   UNL     1    -102.766 -25.910  84.664  1.00  0.00     0.006 C 
BRANCH  12  13
ATOM     13  C   UNL     1    -102.335 -26.742  85.878  1.00  0.00     0.053 C 
BRANCH  13  14
ATOM     14  C   UNL     1    -103.514 -27.274  86.635  1.00  0.00     0.041 C 
ATOM     15  O   UNL     1    -104.347 -26.481  87.150  1.00  0.00    -0.550 OA
ATOM     16  O   UNL     1    -103.708 -28.645  86.747  1.00  0.00    -0.550 OA
ENDBRANCH  13  14
ENDBRANCH  12  13
ENDBRANCH  11  12
ENDBRANCH  10  11
ENDBRANCH   9  10
ENDBRANCH   8   9
ENDBRANCH   7   8
ENDBRANCH   6   7
ENDBRANCH   5   6
ENDBRANCH   4   5
ENDBRANCH   3   4
ENDBRANCH   2   3
ENDBRANCH   1   2
BRANCH   1  17
ATOM     17  C   UNL     1     -95.970 -26.558  82.481  1.00  0.00     0.000 C 
BRANCH  17  18
ATOM     18  C   UNL     1     -95.542 -26.333  81.021  1.00  0.00     0.000 C 
BRANCH  18  19
ATOM     19  C   UNL     1     -96.709 -25.881  80.125  1.00  0.00     0.000 C 
BRANCH  19  20
ATOM     20  C   UNL     1     -97.225 -26.955  79.145  1.00  0.00     0.000 C 
BRANCH  20  21
ATOM     21  C   UNL     1     -96.268 -28.141  78.905  1.00  0.00     0.000 C 
BRANCH  21  22
ATOM     22  C   UNL     1     -96.881 -29.534  79.137  1.00  0.00    -0.000 C 
BRANCH  22  23
ATOM     23  C   UNL     1     -98.179 -29.487  79.961  1.00  0.00    -0.000 C 
BRANCH  23  24
ATOM     24  C   UNL     1     -99.186 -30.580  79.559  1.00  0.00    -0.000 C 
BRANCH  24  25
ATOM     25  C   UNL     1    -100.645 -30.112  79.403  1.00  0.00    -0.000 C 
BRANCH  25  26
ATOM     26  C   UNL     1    -101.637 -30.964  80.212  1.00  0.00    -0.000 C 
BRANCH  26  27
ATOM     27  C   UNL     1    -101.320 -30.982  81.719  1.00  0.00    -0.000 C 
BRANCH  27  28
ATOM     28  C   UNL     1    -102.462 -30.509  82.642  1.00  0.00    -0.000 C 
BRANCH  28  29
ATOM     29  C   UNL     1    -102.033 -30.141  84.073  1.00  0.00    -0.003 C 
ATOM     30  C   UNL     1    -100.590 -29.643  84.152  1.00  0.00     0.004 C 
ENDBRANCH  28  29
ENDBRANCH  27  28
ENDBRANCH  26  27
ENDBRANCH  25  26
ENDBRANCH  24  25
ENDBRANCH  23  24
ENDBRANCH  22  23
ENDBRANCH  21  22
ENDBRANCH  20  21
ENDBRANCH  19  20
ENDBRANCH  18  19
ENDBRANCH  17  18
ENDBRANCH   1  17
TORSDOF 26
ENDMDL
MODEL 2
REMARK VINA RESULT:    -2.482      1.425      2.154
REMARK INTER + INTRA:         -12.188
REMARK INTER:                  -6.601
REMARK INTRA:                  -5.588
REMARK UNBOUND:                -5.934
REMARK SMILES CCCCCCCCCCCCCCCCCCCCCCCCCCCC(=O)[O-]
REMARK SMILES IDX 15 1 16 2 17 3 18 4 19 5 20 6 21 7 22 8 23 9 24 10 25 11
REMARK SMILES IDX 26 12 27 13 28 14 29 15 30 16 14 17 13 18 12 19 11 20 10 21
REMARK SMILES IDX 9 22 8 23 7 24 6 25 5 26 4 27 3 28 2 29 1 30
REMARK H PARENT
REMARK Flexibility Score: inf
ROOT
ATOM      1  C   UNL     1     -96.599 -27.984  82.857  1.00  0.00     0.000 C 
ENDROOT
BRANCH   1   2
ATOM      2  C   UNL     1     -97.296 -28.088  84.223  1.00  0.00     0.000 C 
BRANCH   2   3
ATOM      3  C   UNL     1     -97.475 -26.724  84.911  1.00  0.00     0.000 C 
BRANCH   3   4
ATOM      4  C   UNL     1     -98.947 -26.268  85.007  1.00  0.00     0.000 C 
BRANCH   4   5
ATOM      5  C   UNL     1     -99.168 -24.881  84.379  1.00  0.00     0.000 C 
BRANCH   5   6
ATOM      6  C   UNL     1     -99.004 -24.889  82.851  1.00  0.00     0.000 C 
BRANCH   6   7
ATOM      7  C   UNL     1    -100.238 -25.446  82.126  1.00  0.00     0.000 C 
BRANCH   7   8
ATOM      8  C   UNL     1     -99.946 -26.831  81.534  1.00  0.00     0.000 C 
BRANCH   8   9
ATOM      9  C   UNL     1    -100.934 -27.879  82.066  1.00  0.00     0.000 C 
BRANCH   9  10
ATOM     10  C   UNL     1    -100.239 -29.172  82.519  1.00  0.00     0.000 C 
BRANCH  10  11
ATOM     11  C   UNL     1    -100.624 -29.584  83.948  1.00  0.00     0.000 C 
BRANCH  11  12
ATOM     12  C   UNL     1    -101.761 -28.702  84.486  1.00  0.00     0.006 C 
BRANCH  12  13
ATOM     13  C   UNL     1    -103.072 -29.481  84.653  1.00  0.00     0.053 C 
BRANCH  13  14
ATOM     14  C   UNL     1    -103.398 -29.720  86.096  1.00  0.00     0.041 C 
ATOM     15  O   UNL     1    -103.971 -28.825  86.773  1.00  0.00    -0.550 OA
ATOM     16  O   UNL     1    -103.096 -30.942  86.684  1.00  0.00    -0.550 OA
ENDBRANCH  13  14
ENDBRANCH  12  13
ENDBRANCH  11  12
ENDBRANCH  10  11
ENDBRANCH   9  10
ENDBRANCH   8   9
ENDBRANCH   7   8
ENDBRANCH   6   7
ENDBRANCH   5   6
ENDBRANCH   4   5
ENDBRANCH   3   4
ENDBRANCH   2   3
ENDBRANCH   1   2
BRANCH   1  17
ATOM     17  C   UNL     1     -95.996 -26.593  82.605  1.00  0.00     0.000 C 
BRANCH  17  18
ATOM     18  C   UNL     1     -95.441 -26.438  81.179  1.00  0.00     0.000 C 
BRANCH  18  19
ATOM     19  C   UNL     1     -96.520 -26.628  80.099  1.00  0.00     0.000 C 
BRANCH  19  20
ATOM     20  C   UNL     1     -96.118 -27.564  78.940  1.00  0.00     0.000 C 
BRANCH  20  21
ATOM     21  C   UNL     1     -96.460 -29.054  79.149  1.00  0.00     0.000 C 
BRANCH  21  22
ATOM     22  C   UNL     1     -97.870 -29.331  79.701  1.00  0.00    -0.000 C 
BRANCH  22  23
ATOM     23  C   UNL     1     -98.483 -30.629  79.149  1.00  0.00    -0.000 C 
BRANCH  23  24
ATOM     24  C   UNL     1    -100.023 -30.608  79.139  1.00  0.00    -0.000 C 
BRANCH  24  25
ATOM     25  C   UNL     1    -100.664 -29.469  78.325  1.00  0.00    -0.000 C 
BRANCH  25  26
ATOM     26  C   UNL     1    -102.071 -29.095  78.821  1.00  0.00    -0.000 C 
BRANCH  26  27
ATOM     27  C   UNL     1    -103.106 -30.212  78.582  1.00  0.00    -0.000 C 
BRANCH  27  28
ATOM     28  C   UNL     1    -104.039 -30.515  79.773  1.00  0.00    -0.000 C 
BRANCH  28  29
ATOM     29  C   UNL     1    -103.352 -30.537  81.150  1.00  0.00    -0.003 C 
ATOM     30  C   UNL     1    -102.649 -31.862  81.443  1.00  0.00     0.004 C 
ENDBRANCH  28  29
ENDBRANCH  27  28
ENDBRANCH  26  27
ENDBRANCH  25  26
ENDBRANCH  24  25
ENDBRANCH  23  24
ENDBRANCH  22  23
ENDBRANCH  21  22
ENDBRANCH  20  21
ENDBRANCH  19  20
ENDBRANCH  18  19
ENDBRANCH  17  18
ENDBRANCH   1  17
TORSDOF 26
ENDMDL
MODEL 3
REMARK VINA RESULT:    -2.465      1.662      3.416
REMARK INTER + INTRA:         -12.145
REMARK INTER:                  -6.492
REMARK INTRA:                  -5.653
REMARK UNBOUND:                -5.934
REMARK SMILES CCCCCCCCCCCCCCCCCCCCCCCCCCCC(=O)[O-]
REMARK SMILES IDX 15 1 16 2 17 3 18 4 19 5 20 6 21 7 22 8 23 9 24 10 25 11
REMARK SMILES IDX 26 12 27 13 28 14 29 15 30 16 14 17 13 18 12 19 11 20 10 21
REMARK SMILES IDX 9 22 8 23 7 24 6 25 5 26 4 27 3 28 2 29 1 30
REMARK H PARENT
REMARK Flexibility Score: inf
ROOT
ATOM      1  C   UNL     1     -97.527 -28.133  83.937  1.00  0.00     0.000 C 
ENDROOT
BRANCH   1   2
ATOM      2  C   UNL     1     -97.668 -26.857  84.784  1.00  0.00     0.000 C 
BRANCH   2   3
ATOM      3  C   UNL     1     -99.094 -26.279  84.763  1.00  0.00     0.000 C 
BRANCH   3   4
ATOM      4  C   UNL     1     -99.146 -24.777  84.408  1.00  0.00     0.000 C 
BRANCH   4   5
ATOM      5  C   UNL     1    -100.386 -24.421  83.570  1.00  0.00     0.000 C 
BRANCH   5   6
ATOM      6  C   UNL     1    -101.359 -25.602  83.420  1.00  0.00     0.000 C 
BRANCH   6   7
ATOM      7  C   UNL     1    -101.589 -25.996  81.953  1.00  0.00     0.000 C 
BRANCH   7   8
ATOM      8  C   UNL     1    -101.920 -27.489  81.833  1.00  0.00     0.000 C 
BRANCH   8   9
ATOM      9  C   UNL     1    -100.649 -28.345  81.931  1.00  0.00     0.000 C 
BRANCH   9  10
ATOM     10  C   UNL     1    -100.803 -29.526  82.902  1.00  0.00     0.000 C 
BRANCH  10  11
ATOM     11  C   UNL     1    -101.368 -29.103  84.266  1.00  0.00     0.000 C 
BRANCH  11  12
ATOM     12  C   UNL     1    -101.744 -30.332  85.108  1.00  0.00     0.006 C 
BRANCH  12  13
ATOM     13  C   UNL     1    -103.130 -30.194  85.752  1.00  0.00     0.053 C 
BRANCH  13  14
ATOM     14  C   UNL     1    -103.251 -31.023  86.995  1.00  0.00     0.041 C 
ATOM     15  O   UNL     1    -103.876 -30.580  87.995  1.00  0.00    -0.550 OA
ATOM     16  O   UNL     1    -102.699 -32.298  87.037  1.00  0.00    -0.550 OA
ENDBRANCH  13  14
ENDBRANCH  12  13
ENDBRANCH  11  12
ENDBRANCH  10  11
ENDBRANCH   9  10
ENDBRANCH   8   9
ENDBRANCH   7   8
ENDBRANCH   6   7
ENDBRANCH   5   6
ENDBRANCH   4   5
ENDBRANCH   3   4
ENDBRANCH   2   3
ENDBRANCH   1   2
BRANCH   1  17
ATOM     17  C   UNL     1     -96.665 -27.919  82.683  1.00  0.00     0.000 C 
BRANCH  17  18
ATOM     18  C   UNL     1     -96.081 -26.499  82.603  1.00  0.00     0.000 C 
BRANCH  18  19
ATOM     19  C   UNL     1     -96.558 -25.732  81.357  1.00  0.00     0.000 C 
BRANCH  19  20
ATOM     20  C   UNL     1     -98.070 -25.837  81.071  1.00  0.00     0.000 C 
BRANCH  20  21
ATOM     21  C   UNL     1     -98.483 -25.579  79.607  1.00  0.00     0.000 C 
BRANCH  21  22
ATOM     22  C   UNL     1     -97.350 -25.712  78.573  1.00  0.00    -0.000 C 
BRANCH  22  23
ATOM     23  C   UNL     1     -97.275 -27.114  77.945  1.00  0.00    -0.000 C 
BRANCH  23  24
ATOM     24  C   UNL     1     -96.079 -27.938  78.458  1.00  0.00    -0.000 C 
BRANCH  24  25
ATOM     25  C   UNL     1     -96.438 -29.279  79.126  1.00  0.00    -0.000 C 
BRANCH  25  26
ATOM     26  C   UNL     1     -97.854 -29.290  79.725  1.00  0.00    -0.000 C 
BRANCH  26  27
ATOM     27  C   UNL     1     -98.670 -30.530  79.310  1.00  0.00    -0.000 C 
BRANCH  27  28
ATOM     28  C   UNL     1     -99.634 -30.320  78.124  1.00  0.00    -0.000 C 
BRANCH  28  29
ATOM     29  C   UNL     1    -100.953 -29.609  78.475  1.00  0.00    -0.003 C 
ATOM     30  C   UNL     1    -100.906 -28.104  78.211  1.00  0.00     0.004 C 
ENDBRANCH  28  29
ENDBRANCH  27  28
ENDBRANCH  26  27
ENDBRANCH  25  26
ENDBRANCH  24  25
ENDBRANCH  23  24
ENDBRANCH  22  23
ENDBRANCH  21  22
ENDBRANCH  20  21
ENDBRANCH  19  20
ENDBRANCH  18  19
ENDBRANCH  17  18
ENDBRANCH   1  17
TORSDOF 26
ENDMDL
MODEL 4
REMARK VINA RESULT:    -2.446      2.439      5.637
REMARK INTER + INTRA:         -12.098
REMARK INTER:                  -6.573
REMARK INTRA:                  -5.525
REMARK UNBOUND:                -5.934
REMARK SMILES CCCCCCCCCCCCCCCCCCCCCCCCCCCC(=O)[O-]
REMARK SMILES IDX 15 1 16 2 17 3 18 4 19 5 20 6 21 7 22 8 23 9 24 10 25 11
REMARK SMILES IDX 26 12 27 13 28 14 29 15 30 16 14 17 13 18 12 19 11 20 10 21
REMARK SMILES IDX 9 22 8 23 7 24 6 25 5 26 4 27 3 28 2 29 1 30
REMARK H PARENT
REMARK Flexibility Score: inf
ROOT
ATOM      1  C   UNL     1     -96.680 -28.243  83.461  1.00  0.00     0.000 C 
ENDROOT
BRANCH   1   2
ATOM      2  C   UNL     1     -96.188 -27.669  82.122  1.00  0.00     0.000 C 
BRANCH   2   3
ATOM      3  C   UNL     1     -95.866 -26.166  82.196  1.00  0.00     0.000 C 
BRANCH   3   4
ATOM      4  C   UNL     1     -95.854 -25.469  80.818  1.00  0.00     0.000 C 
BRANCH   4   5
ATOM      5  C   UNL     1     -94.605 -25.830  79.996  1.00  0.00     0.000 C 
BRANCH   5   6
ATOM      6  C   UNL     1     -94.881 -25.868  78.484  1.00  0.00     0.000 C 
BRANCH   6   7
ATOM      7  C   UNL     1     -96.284 -25.354  78.125  1.00  0.00     0.000 C 
BRANCH   7   8
ATOM      8  C   UNL     1     -97.049 -26.390  77.290  1.00  0.00     0.000 C 
BRANCH   8   9
ATOM      9  C   UNL     1     -97.817 -27.366  78.192  1.00  0.00     0.000 C 
BRANCH   9  10
ATOM     10  C   UNL     1     -97.198 -28.773  78.205  1.00  0.00     0.000 C 
BRANCH  10  11
ATOM     11  C   UNL     1     -97.617 -29.596  79.433  1.00  0.00     0.000 C 
BRANCH  11  12
ATOM     12  C   UNL     1     -98.580 -30.723  79.034  1.00  0.00     0.006 C 
BRANCH  12  13
ATOM     13  C   UNL     1     -99.904 -30.187  78.473  1.00  0.00     0.053 C 
BRANCH  13  14
ATOM     14  C   UNL     1    -101.085 -30.735  79.215  1.00  0.00     0.041 C 
ATOM     15  O   UNL     1    -101.020 -31.865  79.766  1.00  0.00    -0.550 OA
ATOM     16  O   UNL     1    -102.249 -29.983  79.321  1.00  0.00    -0.550 OA
ENDBRANCH  13  14
ENDBRANCH  12  13
ENDBRANCH  11  12
ENDBRANCH  10  11
ENDBRANCH   9  10
ENDBRANCH   8   9
ENDBRANCH   7   8
ENDBRANCH   6   7
ENDBRANCH   5   6
ENDBRANCH   4   5
ENDBRANCH   3   4
ENDBRANCH   2   3
ENDBRANCH   1   2
BRANCH   1  17
ATOM     17  C   UNL     1     -96.916 -27.154  84.520  1.00  0.00     0.000 C 
BRANCH  17  18
ATOM     18  C   UNL     1     -98.409 -26.856  84.739  1.00  0.00     0.000 C 
BRANCH  18  19
ATOM     19  C   UNL     1     -98.719 -25.349  84.737  1.00  0.00     0.000 C 
BRANCH  19  20
ATOM     20  C   UNL     1     -98.984 -24.745  83.343  1.00  0.00     0.000 C 
BRANCH  20  21
ATOM     21  C   UNL     1    -100.064 -25.466  82.508  1.00  0.00     0.000 C 
BRANCH  21  22
ATOM     22  C   UNL     1     -99.537 -26.249  81.292  1.00  0.00    -0.000 C 
BRANCH  22  23
ATOM     23  C   UNL     1    -100.312 -27.553  81.040  1.00  0.00    -0.000 C 
BRANCH  23  24
ATOM     24  C   UNL     1     -99.962 -28.663  82.049  1.00  0.00    -0.000 C 
BRANCH  24  25
ATOM     25  C   UNL     1    -101.165 -29.342  82.730  1.00  0.00    -0.000 C 
BRANCH  25  26
ATOM     26  C   UNL     1    -101.205 -29.107  84.249  1.00  0.00    -0.000 C 
BRANCH  26  27
ATOM     27  C   UNL     1    -102.462 -28.338  84.702  1.00  0.00    -0.000 C 
BRANCH  27  28
ATOM     28  C   UNL     1    -102.308 -26.805  84.776  1.00  0.00    -0.000 C 
BRANCH  28  29
ATOM     29  C   UNL     1    -101.983 -26.249  86.174  1.00  0.00    -0.003 C 
ATOM     30  C   UNL     1    -103.215 -25.705  86.898  1.00  0.00     0.004 C 
ENDBRANCH  28  29
ENDBRANCH  27  28
ENDBRANCH  26  27
ENDBRANCH  25  26
ENDBRANCH  24  25
ENDBRANCH  23  24
ENDBRANCH  22  23
ENDBRANCH  21  22
ENDBRANCH  20  21
ENDBRANCH  19  20
ENDBRANCH  18  19
ENDBRANCH  17  18
ENDBRANCH   1  17
TORSDOF 26
ENDMDL
MODEL 5
REMARK VINA RESULT:    -2.444      1.540      3.059
REMARK INTER + INTRA:         -12.091
REMARK INTER:                  -6.401
REMARK INTRA:                  -5.690
REMARK UNBOUND:                -5.934
REMARK SMILES CCCCCCCCCCCCCCCCCCCCCCCCCCCC(=O)[O-]
REMARK SMILES IDX 15 1 16 2 17 3 18 4 19 5 20 6 21 7 22 8 23 9 24 10 25 11
REMARK SMILES IDX 26 12 27 13 28 14 29 15 30 16 14 17 13 18 12 19 11 20 10 21
REMARK SMILES IDX 9 22 8 23 7 24 6 25 5 26 4 27 3 28 2 29 1 30
REMARK H PARENT
REMARK Flexibility Score: inf
ROOT
ATOM      1  C   UNL     1     -96.440 -28.364  83.654  1.00  0.00     0.000 C 
ENDROOT
BRANCH   1   2
ATOM      2  C   UNL     1     -97.232 -27.725  84.807  1.00  0.00     0.000 C 
BRANCH   2   3
ATOM      3  C   UNL     1     -97.818 -26.350  84.441  1.00  0.00     0.000 C 
BRANCH   3   4
ATOM      4  C   UNL     1     -99.266 -26.144  84.937  1.00  0.00     0.000 C 
BRANCH   4   5
ATOM      5  C   UNL     1    -100.084 -25.253  83.987  1.00  0.00     0.000 C 
BRANCH   5   6
ATOM      6  C   UNL     1     -99.259 -24.742  82.795  1.00  0.00     0.000 C 
BRANCH   6   7
ATOM      7  C   UNL     1     -99.923 -25.043  81.443  1.00  0.00     0.000 C 
BRANCH   7   8
ATOM      8  C   UNL     1     -99.767 -26.524  81.073  1.00  0.00     0.000 C 
BRANCH   8   9
ATOM      9  C   UNL     1    -101.135 -27.187  80.863  1.00  0.00     0.000 C 
BRANCH   9  10
ATOM     10  C   UNL     1    -101.494 -28.174  81.986  1.00  0.00     0.000 C 
BRANCH  10  11
ATOM     11  C   UNL     1    -100.255 -28.768  82.673  1.00  0.00     0.000 C 
BRANCH  11  12
ATOM     12  C   UNL     1    -100.658 -29.642  83.870  1.00  0.00     0.006 C 
BRANCH  12  13
ATOM     13  C   UNL     1    -102.179 -29.813  83.980  1.00  0.00     0.053 C 
BRANCH  13  14
ATOM     14  C   UNL     1    -102.685 -29.440  85.341  1.00  0.00     0.041 C 
ATOM     15  O   UNL     1    -102.768 -28.229  85.677  1.00  0.00    -0.550 OA
ATOM     16  O   UNL     1    -103.091 -30.431  86.227  1.00  0.00    -0.550 OA
ENDBRANCH  13  14
ENDBRANCH  12  13
ENDBRANCH  11  12
ENDBRANCH  10  11
ENDBRANCH   9  10
ENDBRANCH   8   9
ENDBRANCH   7   8
ENDBRANCH   6   7
ENDBRANCH   5   6
ENDBRANCH   4   5
ENDBRANCH   3   4
ENDBRANCH   2   3
ENDBRANCH   1   2
BRANCH   1  17
ATOM     17  C   UNL     1     -97.005 -27.997  82.273  1.00  0.00     0.000 C 
BRANCH  17  18
ATOM     18  C   UNL     1     -95.939 -27.405  81.336  1.00  0.00     0.000 C 
BRANCH  18  19
ATOM     19  C   UNL     1     -95.690 -25.908  81.591  1.00  0.00     0.000 C 
BRANCH  19  20
ATOM     20  C   UNL     1     -95.085 -25.140  80.398  1.00  0.00     0.000 C 
BRANCH  20  21
ATOM     21  C   UNL     1     -95.615 -25.555  79.010  1.00  0.00     0.000 C 
BRANCH  21  22
ATOM     22  C   UNL     1     -97.035 -25.063  78.678  1.00  0.00    -0.000 C 
BRANCH  22  23
ATOM     23  C   UNL     1     -97.856 -26.096  77.887  1.00  0.00    -0.000 C 
BRANCH  23  24
ATOM     24  C   UNL     1     -96.977 -27.122  77.147  1.00  0.00    -0.000 C 
BRANCH  24  25
ATOM     25  C   UNL     1     -97.584 -28.530  76.999  1.00  0.00    -0.000 C 
BRANCH  25  26
ATOM     26  C   UNL     1     -97.344 -29.419  78.230  1.00  0.00    -0.000 C 
BRANCH  26  27
ATOM     27  C   UNL     1     -98.499 -29.357  79.248  1.00  0.00    -0.000 C 
BRANCH  27  28
ATOM     28  C   UNL     1     -98.939 -30.715  79.833  1.00  0.00    -0.000 C 
BRANCH  28  29
ATOM     29  C   UNL     1    -100.442 -31.021  79.708  1.00  0.00    -0.003 C 
ATOM     30  C   UNL     1    -100.958 -31.928  80.826  1.00  0.00     0.004 C 
ENDBRANCH  28  29
ENDBRANCH  27  28
ENDBRANCH  26  27
ENDBRANCH  25  26
ENDBRANCH  24  25
ENDBRANCH  23  24
ENDBRANCH  22  23
ENDBRANCH  21  22
ENDBRANCH  20  21
ENDBRANCH  19  20
ENDBRANCH  18  19
ENDBRANCH  17  18
ENDBRANCH   1  17
TORSDOF 26
ENDMDL
MODEL 6
REMARK VINA RESULT:    -2.411     12.710     16.506
REMARK INTER + INTRA:         -12.010
REMARK INTER:                  -7.580
REMARK INTRA:                  -4.430
REMARK UNBOUND:                -5.934
REMARK SMILES CCCCCCCCCCCCCCCCCCCCCCCCCCCC(=O)[O-]
REMARK SMILES IDX 15 1 16 2 17 3 18 4 19 5 20 6 21 7 22 8 23 9 24 10 25 11
REMARK SMILES IDX 26 12 27 13 28 14 29 15 30 16 14 17 13 18 12 19 11 20 10 21
REMARK SMILES IDX 9 22 8 23 7 24 6 25 5 26 4 27 3 28 2 29 1 30
REMARK H PARENT
REMARK Flexibility Score: inf
ROOT
ATOM      1  C   UNL     1    -103.332 -39.193  93.690  1.00  0.00     0.000 C 
ENDROOT
BRANCH   1   2
ATOM      2  C   UNL     1    -102.223 -39.973  94.414  1.00  0.00     0.000 C 
BRANCH   2   3
ATOM      3  C   UNL     1    -102.168 -39.676  95.923  1.00  0.00     0.000 C 
BRANCH   3   4
ATOM      4  C   UNL     1    -100.747 -39.768  96.519  1.00  0.00     0.000 C 
BRANCH   4   5
ATOM      5  C   UNL     1     -99.656 -39.610  95.447  1.00  0.00     0.000 C 
BRANCH   5   6
ATOM      6  C   UNL     1     -98.656 -40.778  95.442  1.00  0.00     0.000 C 
BRANCH   6   7
ATOM      7  C   UNL     1     -98.294 -41.242  94.023  1.00  0.00     0.000 C 
BRANCH   7   8
ATOM      8  C   UNL     1     -98.795 -40.240  92.975  1.00  0.00     0.000 C 
BRANCH   8   9
ATOM      9  C   UNL     1     -98.640 -40.803  91.555  1.00  0.00     0.000 C 
BRANCH   9  10
ATOM     10  C   UNL     1     -97.301 -41.529  91.349  1.00  0.00     0.000 C 
BRANCH  10  11
ATOM     11  C   UNL     1     -96.522 -41.004  90.133  1.00  0.00     0.000 C 
BRANCH  11  12
ATOM     12  C   UNL     1     -97.438 -40.193  89.204  1.00  0.00     0.006 C 
BRANCH  12  13
ATOM     13  C   UNL     1     -97.195 -40.513  87.723  1.00  0.00     0.053 C 
BRANCH  13  14
ATOM     14  C   UNL     1     -97.533 -41.936  87.397  1.00  0.00     0.041 C 
ATOM     15  O   UNL     1     -96.616 -42.773  87.183  1.00  0.00    -0.550 OA
ATOM     16  O   UNL     1     -98.861 -42.344  87.359  1.00  0.00    -0.550 OA
ENDBRANCH  13  14
ENDBRANCH  12  13
ENDBRANCH  11  12
ENDBRANCH  10  11
ENDBRANCH   9  10
ENDBRANCH   8   9
ENDBRANCH   7   8
ENDBRANCH   6   7
ENDBRANCH   5   6
ENDBRANCH   4   5
ENDBRANCH   3   4
ENDBRANCH   2   3
ENDBRANCH   1   2
BRANCH   1  17
ATOM     17  C   UNL     1    -102.800 -38.365  92.509  1.00  0.00     0.000 C 
BRANCH  17  18
ATOM     18  C   UNL     1    -101.305 -38.029  92.649  1.00  0.00     0.000 C 
BRANCH  18  19
ATOM     19  C   UNL     1    -100.988 -36.571  92.272  1.00  0.00     0.000 C 
BRANCH  19  20
ATOM     20  C   UNL     1    -100.827 -35.614  93.471  1.00  0.00     0.000 C 
BRANCH  20  21
ATOM     21  C   UNL     1    -100.898 -36.282  94.861  1.00  0.00     0.000 C 
BRANCH  21  22
ATOM     22  C   UNL     1    -102.080 -35.839  95.741  1.00  0.00    -0.000 C 
BRANCH  22  23
ATOM     23  C   UNL     1    -101.853 -34.469  96.403  1.00  0.00    -0.000 C 
BRANCH  23  24
ATOM     24  C   UNL     1    -102.810 -33.383  95.878  1.00  0.00    -0.000 C 
BRANCH  24  25
ATOM     25  C   UNL     1    -102.138 -32.212  95.135  1.00  0.00    -0.000 C 
BRANCH  25  26
ATOM     26  C   UNL     1    -102.235 -32.339  93.605  1.00  0.00    -0.000 C 
BRANCH  26  27
ATOM     27  C   UNL     1    -103.642 -32.743  93.126  1.00  0.00    -0.000 C 
BRANCH  27  28
ATOM     28  C   UNL     1    -103.699 -33.431  91.746  1.00  0.00    -0.000 C 
BRANCH  28  29
ATOM     29  C   UNL     1    -104.108 -34.914  91.774  1.00  0.00    -0.003 C 
ATOM     30  C   UNL     1    -104.745 -35.330  93.100  1.00  0.00     0.004 C 
ENDBRANCH  28  29
ENDBRANCH  27  28
ENDBRANCH  26  27
ENDBRANCH  25  26
ENDBRANCH  24  25
ENDBRANCH  23  24
ENDBRANCH  22  23
ENDBRANCH  21  22
ENDBRANCH  20  21
ENDBRANCH  19  20
ENDBRANCH  18  19
ENDBRANCH  17  18
ENDBRANCH   1  17
TORSDOF 26
ENDMDL
MODEL 7
REMARK VINA RESULT:    -2.372      1.388      4.604
REMARK INTER + INTRA:         -11.912
REMARK INTER:                  -6.032
REMARK INTRA:                  -5.880
REMARK UNBOUND:                -5.934
REMARK SMILES CCCCCCCCCCCCCCCCCCCCCCCCCCCC(=O)[O-]
REMARK SMILES IDX 15 1 16 2 17 3 18 4 19 5 20 6 21 7 22 8 23 9 24 10 25 11
REMARK SMILES IDX 26 12 27 13 28 14 29 15 30 16 14 17 13 18 12 19 11 20 10 21
REMARK SMILES IDX 9 22 8 23 7 24 6 25 5 26 4 27 3 28 2 29 1 30
REMARK H PARENT
REMARK Flexibility Score: inf
ROOT
ATOM      1  C   UNL     1     -98.120 -29.507  79.691  1.00  0.00     0.000 C 
ENDROOT
BRANCH   1   2
ATOM      2  C   UNL     1     -99.443 -29.649  78.920  1.00  0.00     0.000 C 
BRANCH   2   3
ATOM      3  C   UNL     1    -100.214 -28.322  78.803  1.00  0.00     0.000 C 
BRANCH   3   4
ATOM      4  C   UNL     1    -100.348 -27.565  80.142  1.00  0.00     0.000 C 
BRANCH   4   5
ATOM      5  C   UNL     1    -101.813 -27.434  80.591  1.00  0.00     0.000 C 
BRANCH   5   6
ATOM      6  C   UNL     1    -102.795 -28.099  79.614  1.00  0.00     0.000 C 
BRANCH   6   7
ATOM      7  C   UNL     1    -103.627 -29.209  80.273  1.00  0.00     0.000 C 
BRANCH   7   8
ATOM      8  C   UNL     1    -102.873 -30.546  80.247  1.00  0.00     0.000 C 
BRANCH   8   9
ATOM      9  C   UNL     1    -102.535 -31.016  81.668  1.00  0.00     0.000 C 
BRANCH   9  10
ATOM     10  C   UNL     1    -101.095 -30.671  82.080  1.00  0.00     0.000 C 
BRANCH  10  11
ATOM     11  C   UNL     1    -101.025 -29.901  83.407  1.00  0.00     0.000 C 
BRANCH  11  12
ATOM     12  C   UNL     1    -102.387 -29.282  83.755  1.00  0.00     0.006 C 
BRANCH  12  13
ATOM     13  C   UNL     1    -102.378 -28.585  85.121  1.00  0.00     0.053 C 
BRANCH  13  14
ATOM     14  C   UNL     1    -102.304 -27.094  84.986  1.00  0.00     0.041 C 
ATOM     15  O   UNL     1    -102.714 -26.532  83.936  1.00  0.00    -0.550 OA
ATOM     16  O   UNL     1    -101.808 -26.325  86.030  1.00  0.00    -0.550 OA
ENDBRANCH  13  14
ENDBRANCH  12  13
ENDBRANCH  11  12
ENDBRANCH  10  11
ENDBRANCH   9  10
ENDBRANCH   8   9
ENDBRANCH   7   8
ENDBRANCH   6   7
ENDBRANCH   5   6
ENDBRANCH   4   5
ENDBRANCH   3   4
ENDBRANCH   2   3
ENDBRANCH   1   2
BRANCH   1  17
ATOM     17  C   UNL     1     -96.893 -29.518  78.766  1.00  0.00     0.000 C 
BRANCH  17  18
ATOM     18  C   UNL     1     -96.122 -28.188  78.791  1.00  0.00     0.000 C 
BRANCH  18  19
ATOM     19  C   UNL     1     -96.768 -27.111  77.901  1.00  0.00     0.000 C 
BRANCH  19  20
ATOM     20  C   UNL     1     -97.108 -25.792  78.625  1.00  0.00     0.000 C 
BRANCH  20  21
ATOM     21  C   UNL     1     -97.301 -25.910  80.152  1.00  0.00     0.000 C 
BRANCH  21  22
ATOM     22  C   UNL     1     -96.164 -25.318  81.004  1.00  0.00    -0.000 C 
BRANCH  22  23
ATOM     23  C   UNL     1     -95.691 -26.271  82.115  1.00  0.00    -0.000 C 
BRANCH  23  24
ATOM     24  C   UNL     1     -96.545 -27.550  82.212  1.00  0.00    -0.000 C 
BRANCH  24  25
ATOM     25  C   UNL     1     -96.433 -28.321  83.540  1.00  0.00    -0.000 C 
BRANCH  25  26
ATOM     26  C   UNL     1     -97.697 -28.207  84.408  1.00  0.00    -0.000 C 
BRANCH  26  27
ATOM     27  C   UNL     1     -98.663 -27.112  83.917  1.00  0.00    -0.000 C 
BRANCH  27  28
ATOM     28  C   UNL     1     -98.659 -25.808  84.742  1.00  0.00    -0.000 C 
BRANCH  28  29
ATOM     29  C   UNL     1     -99.194 -24.568  84.003  1.00  0.00    -0.003 C 
ATOM     30  C   UNL     1     -99.859 -24.911  82.670  1.00  0.00     0.004 C 
ENDBRANCH  28  29
ENDBRANCH  27  28
ENDBRANCH  26  27
ENDBRANCH  25  26
ENDBRANCH  24  25
ENDBRANCH  23  24
ENDBRANCH  22  23
ENDBRANCH  21  22
ENDBRANCH  20  21
ENDBRANCH  19  20
ENDBRANCH  18  19
ENDBRANCH  17  18
ENDBRANCH   1  17
TORSDOF 26
ENDMDL
MODEL 8
REMARK VINA RESULT:    -2.369      3.069      6.303
REMARK INTER + INTRA:         -11.903
REMARK INTER:                  -6.256
REMARK INTRA:                  -5.647
REMARK UNBOUND:                -5.934
REMARK SMILES CCCCCCCCCCCCCCCCCCCCCCCCCCCC(=O)[O-]
REMARK SMILES IDX 15 1 16 2 17 3 18 4 19 5 20 6 21 7 22 8 23 9 24 10 25 11
REMARK SMILES IDX 26 12 27 13 28 14 29 15 30 16 14 17 13 18 12 19 11 20 10 21
REMARK SMILES IDX 9 22 8 23 7 24 6 25 5 26 4 27 3 28 2 29 1 30
REMARK H PARENT
REMARK Flexibility Score: inf
ROOT
ATOM      1  C   UNL     1     -99.686 -26.803  78.670  1.00  0.00     0.000 C 
ENDROOT
BRANCH   1   2
ATOM      2  C   UNL     1     -99.733 -26.145  80.059  1.00  0.00     0.000 C 
BRANCH   2   3
ATOM      3  C   UNL     1    -100.578 -26.940  81.070  1.00  0.00     0.000 C 
BRANCH   3   4
ATOM      4  C   UNL     1     -99.785 -28.042  81.806  1.00  0.00     0.000 C 
BRANCH   4   5
ATOM      5  C   UNL     1    -100.662 -28.824  82.799  1.00  0.00     0.000 C 
BRANCH   5   6
ATOM      6  C   UNL     1    -100.958 -30.257  82.328  1.00  0.00     0.000 C 
BRANCH   6   7
ATOM      7  C   UNL     1    -102.452 -30.494  82.060  1.00  0.00     0.000 C 
BRANCH   7   8
ATOM      8  C   UNL     1    -102.899 -29.781  80.777  1.00  0.00     0.000 C 
BRANCH   8   9
ATOM      9  C   UNL     1    -103.898 -30.639  79.988  1.00  0.00     0.000 C 
BRANCH   9  10
ATOM     10  C   UNL     1    -103.989 -30.232  78.509  1.00  0.00     0.000 C 
BRANCH  10  11
ATOM     11  C   UNL     1    -103.365 -31.273  77.567  1.00  0.00     0.000 C 
BRANCH  11  12
ATOM     12  C   UNL     1    -103.497 -32.688  78.149  1.00  0.00     0.006 C 
BRANCH  12  13
ATOM     13  C   UNL     1    -102.137 -33.380  78.312  1.00  0.00     0.053 C 
BRANCH  13  14
ATOM     14  C   UNL     1    -102.100 -34.256  79.527  1.00  0.00     0.041 C 
ATOM     15  O   UNL     1    -102.088 -35.509  79.406  1.00  0.00    -0.550 OA
ATOM     16  O   UNL     1    -102.049 -33.686  80.794  1.00  0.00    -0.550 OA
ENDBRANCH  13  14
ENDBRANCH  12  13
ENDBRANCH  11  12
ENDBRANCH  10  11
ENDBRANCH   9  10
ENDBRANCH   8   9
ENDBRANCH   7   8
ENDBRANCH   6   7
ENDBRANCH   5   6
ENDBRANCH   4   5
ENDBRANCH   3   4
ENDBRANCH   2   3
ENDBRANCH   1   2
BRANCH   1  17
ATOM     17  C   UNL     1    -100.856 -27.770  78.434  1.00  0.00     0.000 C 
BRANCH  17  18
ATOM     18  C   UNL     1    -100.700 -28.581  77.136  1.00  0.00     0.000 C 
BRANCH  18  19
ATOM     19  C   UNL     1     -99.887 -29.872  77.338  1.00  0.00     0.000 C 
BRANCH  19  20
ATOM     20  C   UNL     1     -99.918 -30.439  78.772  1.00  0.00     0.000 C 
BRANCH  20  21
ATOM     21  C   UNL     1     -98.538 -30.623  79.437  1.00  0.00     0.000 C 
BRANCH  21  22
ATOM     22  C   UNL     1     -97.413 -29.742  78.866  1.00  0.00    -0.000 C 
BRANCH  22  23
ATOM     23  C   UNL     1     -96.824 -28.774  79.907  1.00  0.00    -0.000 C 
BRANCH  23  24
ATOM     24  C   UNL     1     -96.049 -27.606  79.270  1.00  0.00    -0.000 C 
BRANCH  24  25
ATOM     25  C   UNL     1     -96.044 -26.295  80.080  1.00  0.00    -0.000 C 
BRANCH  25  26
ATOM     26  C   UNL     1     -95.668 -26.504  81.556  1.00  0.00    -0.000 C 
BRANCH  26  27
ATOM     27  C   UNL     1     -96.753 -26.000  82.527  1.00  0.00    -0.000 C 
BRANCH  27  28
ATOM     28  C   UNL     1     -96.965 -26.864  83.788  1.00  0.00    -0.000 C 
BRANCH  28  29
ATOM     29  C   UNL     1     -96.493 -28.324  83.664  1.00  0.00    -0.003 C 
ATOM     30  C   UNL     1     -96.152 -28.954  85.015  1.00  0.00     0.004 C 
ENDBRANCH  28  29
ENDBRANCH  27  28
ENDBRANCH  26  27
ENDBRANCH  25  26
ENDBRANCH  24  25
ENDBRANCH  23  24
ENDBRANCH  22  23
ENDBRANCH  21  22
ENDBRANCH  20  21
ENDBRANCH  19  20
ENDBRANCH  18  19
ENDBRANCH  17  18
ENDBRANCH   1  17
TORSDOF 26
ENDMDL
MODEL 9
REMARK VINA RESULT:    -2.346      1.334      4.210
REMARK INTER + INTRA:         -11.846
REMARK INTER:                  -5.773
REMARK INTRA:                  -6.073
REMARK UNBOUND:                -5.934
REMARK SMILES CCCCCCCCCCCCCCCCCCCCCCCCCCCC(=O)[O-]
REMARK SMILES IDX 15 1 16 2 17 3 18 4 19 5 20 6 21 7 22 8 23 9 24 10 25 11
REMARK SMILES IDX 26 12 27 13 28 14 29 15 30 16 14 17 13 18 12 19 11 20 10 21
REMARK SMILES IDX 9 22 8 23 7 24 6 25 5 26 4 27 3 28 2 29 1 30
REMARK H PARENT
REMARK Flexibility Score: inf
ROOT
ATOM      1  C   UNL     1     -99.096 -26.053  84.757  1.00  0.00     0.000 C 
ENDROOT
BRANCH   1   2
ATOM      2  C   UNL     1     -99.090 -24.708  84.013  1.00  0.00     0.000 C 
BRANCH   2   3
ATOM      3  C   UNL     1    -100.034 -24.690  82.798  1.00  0.00     0.000 C 
BRANCH   3   4
ATOM      4  C   UNL     1     -99.301 -24.809  81.445  1.00  0.00     0.000 C 
BRANCH   4   5
ATOM      5  C   UNL     1     -99.943 -25.864  80.528  1.00  0.00     0.000 C 
BRANCH   5   6
ATOM      6  C   UNL     1    -101.016 -26.700  81.245  1.00  0.00     0.000 C 
BRANCH   6   7
ATOM      7  C   UNL     1    -101.770 -27.639  80.292  1.00  0.00     0.000 C 
BRANCH   7   8
ATOM      8  C   UNL     1    -102.285 -28.878  81.037  1.00  0.00     0.000 C 
BRANCH   8   9
ATOM      9  C   UNL     1    -101.183 -29.491  81.912  1.00  0.00     0.000 C 
BRANCH   9  10
ATOM     10  C   UNL     1    -101.738 -30.172  83.174  1.00  0.00     0.000 C 
BRANCH  10  11
ATOM     11  C   UNL     1    -102.803 -29.325  83.886  1.00  0.00     0.000 C 
BRANCH  11  12
ATOM     12  C   UNL     1    -102.150 -28.248  84.765  1.00  0.00     0.006 C 
BRANCH  12  13
ATOM     13  C   UNL     1    -102.672 -26.841  84.447  1.00  0.00     0.053 C 
BRANCH  13  14
ATOM     14  C   UNL     1    -102.832 -26.013  85.686  1.00  0.00     0.041 C 
ATOM     15  O   UNL     1    -102.076 -26.200  86.676  1.00  0.00    -0.550 OA
ATOM     16  O   UNL     1    -103.798 -25.016  85.736  1.00  0.00    -0.550 OA
ENDBRANCH  13  14
ENDBRANCH  12  13
ENDBRANCH  11  12
ENDBRANCH  10  11
ENDBRANCH   9  10
ENDBRANCH   8   9
ENDBRANCH   7   8
ENDBRANCH   6   7
ENDBRANCH   5   6
ENDBRANCH   4   5
ENDBRANCH   3   4
ENDBRANCH   2   3
ENDBRANCH   1   2
BRANCH   1  17
ATOM     17  C   UNL     1     -97.685 -26.521  85.145  1.00  0.00     0.000 C 
BRANCH  17  18
ATOM     18  C   UNL     1     -97.350 -27.915  84.587  1.00  0.00     0.000 C 
BRANCH  18  19
ATOM     19  C   UNL     1     -98.241 -28.306  83.394  1.00  0.00     0.000 C 
BRANCH  19  20
ATOM     20  C   UNL     1     -97.592 -28.106  82.009  1.00  0.00     0.000 C 
BRANCH  20  21
ATOM     21  C   UNL     1     -96.115 -27.660  82.033  1.00  0.00     0.000 C 
BRANCH  21  22
ATOM     22  C   UNL     1     -95.883 -26.151  81.834  1.00  0.00    -0.000 C 
BRANCH  22  23
ATOM     23  C   UNL     1     -95.130 -25.828  80.533  1.00  0.00    -0.000 C 
BRANCH  23  24
ATOM     24  C   UNL     1     -96.037 -25.212  79.452  1.00  0.00    -0.000 C 
BRANCH  24  25
ATOM     25  C   UNL     1     -96.484 -26.174  78.334  1.00  0.00    -0.000 C 
BRANCH  25  26
ATOM     26  C   UNL     1     -95.785 -27.541  78.407  1.00  0.00    -0.000 C 
BRANCH  26  27
ATOM     27  C   UNL     1     -96.770 -28.723  78.319  1.00  0.00    -0.000 C 
BRANCH  27  28
ATOM     28  C   UNL     1     -98.264 -28.346  78.406  1.00  0.00    -0.000 C 
BRANCH  28  29
ATOM     29  C   UNL     1     -99.232 -29.538  78.509  1.00  0.00    -0.003 C 
ATOM     30  C   UNL     1     -98.750 -30.611  79.486  1.00  0.00     0.004 C 
ENDBRANCH  28  29
ENDBRANCH  27  28
ENDBRANCH  26  27
ENDBRANCH  25  26
ENDBRANCH  24  25
ENDBRANCH  23  24
ENDBRANCH  22  23
ENDBRANCH  21  22
ENDBRANCH  20  21
ENDBRANCH  19  20
ENDBRANCH  18  19
ENDBRANCH  17  18
ENDBRANCH   1  17
TORSDOF 26
ENDMDL
