MODEL 1
REMARK VINA RESULT:   106.637      0.000      0.000
REMARK INTER + INTRA:         172.805
REMARK INTER:                 150.275
REMARK INTRA:                  22.530
REMARK UNBOUND:                22.530
REMARK SMILES C[C@H]1O[C@H](O[C@@H]2CC[C@@]3(C)[C@H](CC[C@@]4(C)[C@H]3C=C[C@@]35OC[C@]6(CCC(C)(C)C[C@H]63)[C@H](O)C[C@]45C)[C@]2(C)CO)[C@@H](O)[C@H](O[C@@H]2O[C@@H](CO)[C@@H](O)[C@H](O)[C@@H]2O)[C@@H]1O
REMARK SMILES IDX 1 1 2 2 54 3 41 4 39 5 4 6 3 7 55 8 42 10 43 11 52 12 44 13
REMARK SMILES IDX 50 14 45 15 48 16 53 17 51 19 46 21 47 22 49 24 5 26 6 27
REMARK SMILES IDX 7 28 35 29 8 30 11 31 36 32 9 33 12 34 10 35 16 36 13 37
REMARK SMILES IDX 14 38 17 39 15 40 33 41 18 42 19 43 32 44 34 45 29 46 20 47
REMARK SMILES IDX 30 48 22 49 28 50 21 51 23 52 25 53 24 54 26 55 27 56 37 57
REMARK SMILES IDX 38 58 31 60 40 62
REMARK H PARENT 55 9 53 18 51 20 47 23 49 25 38 59 31 61 40 63
REMARK Flexibility Score: inf
ROOT
ATOM      1  C   UNL     1       4.383  44.226 286.302  1.00  0.00     0.041 C 
ATOM      2  C   UNL     1       5.037  45.591 285.884  1.00  0.00     0.150 C 
ATOM      3  C   UNL     1       4.180  47.049 285.940  1.00  0.00     0.175 C 
ATOM      4  C   UNL     1       3.492  47.595 284.287  1.00  0.00     0.186 C 
ATOM      5  C   UNL     1       3.639  46.354 283.751  1.00  0.00     0.202 C 
ATOM      6  C   UNL     1       5.341  46.669 283.875  1.00  0.00     0.282 C 
ATOM      7  O   UNL     1       5.839  45.651 284.726  1.00  0.00    -0.344 OA
ENDROOT
BRANCH   3   8
ATOM      8  O   UNL     1       5.406  47.664 286.363  1.00  0.00    -0.388 OA
ATOM      9  H   UNL     1       6.027  47.882 285.643  1.00  0.00     0.211 HD
ENDBRANCH   3   8
BRANCH   4  10
ATOM     10  O   UNL     1       3.955  48.518 283.077  1.00  0.00    -0.341 OA
BRANCH  10  11
ATOM     11  C   UNL     1       4.390  48.094 281.702  1.00  0.00     0.282 C 
ATOM     12  C   UNL     1       5.240  46.838 281.635  1.00  0.00     0.202 C 
ATOM     13  O   UNL     1       3.398  47.812 280.728  1.00  0.00    -0.341 OA
ATOM     14  C   UNL     1       4.344  45.590 282.044  1.00  0.00     0.179 C 
ATOM     15  C   UNL     1       3.112  46.503 280.143  1.00  0.00     0.178 C 
ATOM     16  C   UNL     1       3.293  45.124 281.030  1.00  0.00     0.177 C 
BRANCH  12  17
ATOM     17  O   UNL     1       6.621  47.027 281.392  1.00  0.00    -0.385 OA
ATOM     18  H   UNL     1       7.121  46.171 281.686  1.00  0.00     0.211 HD
ENDBRANCH  12  17
BRANCH  14  19
ATOM     19  O   UNL     1       4.703  45.205 283.363  1.00  0.00    -0.387 OA
ATOM     20  H   UNL     1       5.368  45.834 283.694  1.00  0.00     0.211 HD
ENDBRANCH  14  19
BRANCH  15  21
ATOM     21  C   UNL     1       3.829  46.425 278.791  1.00  0.00     0.191 C 
BRANCH  21  22
ATOM     22  O   UNL     1       3.504  47.461 277.922  1.00  0.00    -0.394 OA
ATOM     23  H   UNL     1       2.510  47.561 277.877  1.00  0.00     0.210 HD
ENDBRANCH  21  22
ENDBRANCH  15  21
BRANCH  16  24
ATOM     24  O   UNL     1       3.786  44.114 280.224  1.00  0.00    -0.387 OA
ATOM     25  H   UNL     1       3.011  43.628 279.774  1.00  0.00     0.211 HD
ENDBRANCH  16  24
ENDBRANCH  10  11
ENDBRANCH   4  10
BRANCH   6  26
ATOM     26  O   UNL     1       5.816  48.165 284.234  1.00  0.00    -0.346 OA
BRANCH  26  27
ATOM     27  C   UNL     1       5.510  49.785 284.166  1.00  0.00     0.130 C 
ATOM     28  C   UNL     1       6.807  50.367 283.692  1.00  0.00     0.033 C 
ATOM     29  C   UNL     1       4.697  51.279 284.818  1.00  0.00     0.020 C 
ATOM     30  C   UNL     1       6.585  51.219 282.393  1.00  0.00     0.010 C 
ATOM     31  C   UNL     1       4.954  52.444 283.586  1.00  0.00     0.006 C 
ATOM     32  C   UNL     1       2.883  51.285 284.804  1.00  0.00     0.017 C 
ATOM     33  C   UNL     1       5.106  51.887 282.108  1.00  0.00    -0.022 C 
ATOM     34  C   UNL     1       5.949  53.792 283.637  1.00  0.00     0.005 C 
ATOM     35  C   UNL     1       4.080  50.911 281.358  1.00  0.00     0.012 C 
ATOM     36  C   UNL     1       4.917  53.152 281.116  1.00  0.00     0.024 C 
ATOM     37  C   UNL     1       6.751  54.315 282.263  1.00  0.00     0.008 C 
ATOM     38  C   UNL     1       6.296  53.813 280.742  1.00  0.00    -0.017 C 
ATOM     39  C   UNL     1       3.640  53.498 280.254  1.00  0.00    -0.024 C 
ATOM     40  C   UNL     1       7.374  52.863 280.148  1.00  0.00     0.013 C 
ATOM     41  C   UNL     1       6.056  54.846 279.488  1.00  0.00     0.009 C 
ATOM     42  C   UNL     1       3.739  54.063 279.013  1.00  0.00     0.005 C 
ATOM     43  C   UNL     1       5.076  54.102 278.401  1.00  0.00     0.096 C 
ATOM     44  C   UNL     1       7.358  55.315 278.702  1.00  0.00     0.043 C 
ATOM     45  C   UNL     1       5.354  56.117 280.054  1.00  0.00     0.015 C 
ATOM     46  C   UNL     1       5.122  54.712 276.955  1.00  0.00     0.037 C 
ATOM     47  O   UNL     1       5.392  52.731 278.190  1.00  0.00    -0.369 OA
ATOM     48  C   UNL     1       7.640  54.750 277.229  1.00  0.00     0.124 C 
ATOM     49  C   UNL     1       6.435  54.044 276.485  1.00  0.00     0.026 C 
ATOM     50  C   UNL     1       3.905  54.244 276.114  1.00  0.00     0.014 C 
ATOM     51  C   UNL     1       6.135  52.614 276.984  1.00  0.00     0.171 C 
ATOM     52  C   UNL     1       6.636  54.034 274.932  1.00  0.00     0.013 C 
ATOM     53  C   UNL     1       4.103  54.327 274.590  1.00  0.00    -0.035 C 
ATOM     54  C   UNL     1       5.379  53.572 274.158  1.00  0.00     0.007 C 
ATOM     55  C   UNL     1       2.876  53.710 273.849  1.00  0.00     0.011 C 
ATOM     56  C   UNL     1       4.237  55.843 274.165  1.00  0.00     0.011 C 
BRANCH  29  57
ATOM     57  C   UNL     1       5.508  51.377 286.399  1.00  0.00     0.165 C 
BRANCH  57  58
ATOM     58  O   UNL     1       6.392  52.480 286.611  1.00  0.00    -0.396 OA
ATOM     59  H   UNL     1       5.984  53.137 287.292  1.00  0.00     0.210 HD
ENDBRANCH  57  58
ENDBRANCH  29  57
BRANCH  48  60
ATOM     60  O   UNL     1       8.787  53.973 277.212  1.00  0.00    -0.392 OA
ATOM     61  H   UNL     1       9.350  54.282 277.961  1.00  0.00     0.210 HD
ENDBRANCH  48  60
ENDBRANCH  26  27
ENDBRANCH   6  26
BRANCH   5  62
ATOM     62  O   UNL     1       2.877  45.432 284.554  1.00  0.00    -0.385 OA
ATOM     63  H   UNL     1       3.371  45.343 285.463  1.00  0.00     0.211 HD
ENDBRANCH   5  62
TORSDOF 14
ENDMDL
MODEL 2
REMARK VINA RESULT:   107.713      2.391      9.955
REMARK INTER + INTRA:         174.321
REMARK INTER:                 164.817
REMARK INTRA:                   9.504
REMARK UNBOUND:                22.530
REMARK SMILES C[C@H]1O[C@H](O[C@@H]2CC[C@@]3(C)[C@H](CC[C@@]4(C)[C@H]3C=C[C@@]35OC[C@]6(CCC(C)(C)C[C@H]63)[C@H](O)C[C@]45C)[C@]2(C)CO)[C@@H](O)[C@H](O[C@@H]2O[C@@H](CO)[C@@H](O)[C@H](O)[C@@H]2O)[C@@H]1O
REMARK SMILES IDX 1 1 2 2 54 3 41 4 39 5 4 6 3 7 55 8 42 10 43 11 52 12 44 13
REMARK SMILES IDX 50 14 45 15 48 16 53 17 51 19 46 21 47 22 49 24 5 26 6 27
REMARK SMILES IDX 7 28 35 29 8 30 11 31 36 32 9 33 12 34 10 35 16 36 13 37
REMARK SMILES IDX 14 38 17 39 15 40 33 41 18 42 19 43 32 44 34 45 29 46 20 47
REMARK SMILES IDX 30 48 22 49 28 50 21 51 23 52 25 53 24 54 26 55 27 56 37 57
REMARK SMILES IDX 38 58 31 60 40 62
REMARK H PARENT 55 9 53 18 51 20 47 23 49 25 38 59 31 61 40 63
REMARK Flexibility Score: inf
ROOT
ATOM      1  C   UNL     1      10.061  56.121 273.731  1.00  0.00     0.041 C 
ATOM      2  C   UNL     1       8.970  55.019 273.976  1.00  0.00     0.150 C 
ATOM      3  C   UNL     1       7.497  55.368 274.732  1.00  0.00     0.175 C 
ATOM      4  C   UNL     1       7.447  54.927 276.550  1.00  0.00     0.186 C 
ATOM      5  C   UNL     1       8.803  54.848 276.627  1.00  0.00     0.202 C 
ATOM      6  C   UNL     1       8.627  53.447 275.619  1.00  0.00     0.282 C 
ATOM      7  O   UNL     1       9.360  53.747 274.445  1.00  0.00    -0.344 OA
ENDROOT
BRANCH   3   8
ATOM      8  O   UNL     1       6.897  54.432 273.825  1.00  0.00    -0.388 OA
ATOM      9  H   UNL     1       7.434  54.219 273.038  1.00  0.00     0.211 HD
ENDBRANCH   3   8
BRANCH   4  10
ATOM     10  O   UNL     1       7.009  53.682 277.438  1.00  0.00    -0.341 OA
BRANCH  10  11
ATOM     11  C   UNL     1       6.928  53.595 278.937  1.00  0.00     0.282 C 
ATOM     12  C   UNL     1       5.827  54.412 279.588  1.00  0.00     0.202 C 
ATOM     13  O   UNL     1       6.726  52.325 279.537  1.00  0.00    -0.341 OA
ATOM     14  C   UNL     1       4.420  53.785 279.193  1.00  0.00     0.179 C 
ATOM     15  C   UNL     1       5.535  51.899 280.273  1.00  0.00     0.178 C 
ATOM     16  C   UNL     1       4.040  52.454 279.852  1.00  0.00     0.177 C 
BRANCH  12  17
ATOM     17  O   UNL     1       6.232  55.596 280.249  1.00  0.00    -0.385 OA
ATOM     18  H   UNL     1       5.638  56.373 279.913  1.00  0.00     0.211 HD
ENDBRANCH  12  17
BRANCH  14  19
ATOM     19  O   UNL     1       3.826  54.623 278.212  1.00  0.00    -0.387 OA
ATOM     20  H   UNL     1       3.544  55.447 278.646  1.00  0.00     0.211 HD
ENDBRANCH  14  19
BRANCH  15  21
ATOM     21  C   UNL     1       5.821  52.068 281.768  1.00  0.00     0.191 C 
BRANCH  21  22
ATOM     22  O   UNL     1       5.371  51.008 282.549  1.00  0.00    -0.394 OA
ATOM     23  H   UNL     1       6.150  50.449 282.835  1.00  0.00     0.210 HD
ENDBRANCH  21  22
ENDBRANCH  15  21
BRANCH  16  24
ATOM     24  O   UNL     1       3.282  52.657 280.992  1.00  0.00    -0.387 OA
ATOM     25  H   UNL     1       3.259  51.799 281.541  1.00  0.00     0.211 HD
ENDBRANCH  16  24
ENDBRANCH  10  11
ENDBRANCH   4  10
BRANCH   6  26
ATOM     26  O   UNL     1       7.146  52.861 275.380  1.00  0.00    -0.346 OA
BRANCH  26  27
ATOM     27  C   UNL     1       6.095  51.600 275.554  1.00  0.00     0.130 C 
ATOM     28  C   UNL     1       6.984  50.450 275.915  1.00  0.00     0.033 C 
ATOM     29  C   UNL     1       4.586  50.708 275.059  1.00  0.00     0.020 C 
ATOM     30  C   UNL     1       6.522  49.802 277.268  1.00  0.00     0.010 C 
ATOM     31  C   UNL     1       4.377  49.553 276.309  1.00  0.00     0.006 C 
ATOM     32  C   UNL     1       3.017  51.595 275.263  1.00  0.00     0.017 C 
ATOM     33  C   UNL     1       4.949  49.945 277.736  1.00  0.00    -0.022 C 
ATOM     34  C   UNL     1       4.570  47.890 276.216  1.00  0.00     0.005 C 
ATOM     35  C   UNL     1       4.626  51.290 278.544  1.00  0.00     0.012 C 
ATOM     36  C   UNL     1       4.278  48.925 278.799  1.00  0.00     0.024 C 
ATOM     37  C   UNL     1       5.163  47.024 277.520  1.00  0.00     0.008 C 
ATOM     38  C   UNL     1       5.188  47.666 279.056  1.00  0.00    -0.017 C 
ATOM     39  C   UNL     1       3.103  49.242 279.804  1.00  0.00    -0.024 C 
ATOM     40  C   UNL     1       6.653  47.956 279.490  1.00  0.00     0.013 C 
ATOM     41  C   UNL     1       4.616  46.871 280.374  1.00  0.00     0.009 C 
ATOM     42  C   UNL     1       3.052  48.687 281.053  1.00  0.00     0.005 C 
ATOM     43  C   UNL     1       4.258  47.987 281.523  1.00  0.00     0.096 C 
ATOM     44  C   UNL     1       5.601  45.812 281.040  1.00  0.00     0.043 C 
ATOM     45  C   UNL     1       3.323  46.117 279.943  1.00  0.00     0.015 C 
ATOM     46  C   UNL     1       4.162  47.416 282.982  1.00  0.00     0.037 C 
ATOM     47  O   UNL     1       5.227  49.022 281.637  1.00  0.00    -0.369 OA
ATOM     48  C   UNL     1       6.289  46.147 282.448  1.00  0.00     0.124 C 
ATOM     49  C   UNL     1       5.678  47.346 283.281  1.00  0.00     0.026 C 
ATOM     50  C   UNL     1       3.436  48.412 283.924  1.00  0.00     0.014 C 
ATOM     51  C   UNL     1       6.063  48.744 282.752  1.00  0.00     0.171 C 
ATOM     52  C   UNL     1       6.033  47.237 284.803  1.00  0.00     0.013 C 
ATOM     53  C   UNL     1       3.739  48.225 285.420  1.00  0.00    -0.035 C 
ATOM     54  C   UNL     1       5.261  48.249 285.683  1.00  0.00     0.007 C 
ATOM     55  C   UNL     1       3.065  49.356 286.257  1.00  0.00     0.011 C 
ATOM     56  C   UNL     1       3.160  46.834 285.898  1.00  0.00     0.011 C 
BRANCH  29  57
ATOM     57  C   UNL     1       5.060  50.242 273.408  1.00  0.00     0.165 C 
BRANCH  57  58
ATOM     58  O   UNL     1       6.457  50.108 273.144  1.00  0.00    -0.396 OA
ATOM     59  H   UNL     1       6.615  49.937 272.139  1.00  0.00     0.210 HD
ENDBRANCH  57  58
ENDBRANCH  29  57
BRANCH  48  60
ATOM     60  O   UNL     1       7.663  46.258 282.310  1.00  0.00    -0.392 OA
ATOM     61  H   UNL     1       8.000  46.666 283.143  1.00  0.00     0.210 HD
ENDBRANCH  48  60
ENDBRANCH  26  27
ENDBRANCH   6  26
BRANCH   5  62
ATOM     62  O   UNL     1       9.344  56.125 276.233  1.00  0.00    -0.385 OA
ATOM     63  H   UNL     1       8.639  56.843 276.490  1.00  0.00     0.211 HD
ENDBRANCH   5  62
TORSDOF 14
ENDMDL
