MODEL 1
REMARK VINA RESULT:    -6.308      0.000      0.000
REMARK INTER + INTRA:          -7.482
REMARK INTER:                  -7.230
REMARK INTRA:                  -0.252
REMARK UNBOUND:                -0.252
REMARK SMILES CC1(C)CC[C@]23CO[C@@]4(C=C[C@@H]5[C@]6(C)CC[C@@H](O)[C@](C)(CO)[C@@H]6CC[C@@]5(C)[C@]4(C)C[C@H]2O)[C@H]3C1
REMARK SMILES IDX 1 1 2 2 4 3 5 4 6 5 7 6 8 7 9 8 33 9 34 10 10 11 11 12 12 13
REMARK SMILES IDX 13 14 15 15 16 16 17 17 19 18 23 19 24 20 25 21 26 22 28 23
REMARK SMILES IDX 30 24 31 25 29 26 27 27 20 28 14 29 3 30 32 31 21 33 22 34
REMARK SMILES IDX 18 36
REMARK H PARENT 32 32 22 35 18 37
REMARK Flexibility Score: inf
ROOT
ATOM      1  C   UNL     1      30.894  27.104  58.478  1.00  0.00     0.011 C 
ATOM      2  C   UNL     1      30.332  25.906  59.275  1.00  0.00    -0.035 C 
ATOM      3  C   UNL     1      29.145  26.402  60.135  1.00  0.00     0.007 C 
ATOM      4  C   UNL     1      28.396  25.264  60.841  1.00  0.00     0.013 C 
ATOM      5  C   UNL     1      27.993  24.083  59.910  1.00  0.00     0.026 C 
ATOM      6  C   UNL     1      26.893  24.448  58.911  1.00  0.00     0.171 C 
ATOM      7  O   UNL     1      27.043  23.607  57.784  1.00  0.00    -0.369 OA
ATOM      8  C   UNL     1      28.212  22.818  57.964  1.00  0.00     0.096 C 
ATOM      9  C   UNL     1      29.094  23.640  58.952  1.00  0.00     0.037 C 
ATOM     10  C   UNL     1      29.825  24.837  58.277  1.00  0.00     0.014 C 
ATOM     11  C   UNL     1      28.835  22.615  56.580  1.00  0.00     0.005 C 
ATOM     12  C   UNL     1      28.616  21.527  55.809  1.00  0.00    -0.024 C 
ATOM     13  C   UNL     1      28.008  20.228  56.341  1.00  0.00     0.024 C 
ATOM     14  C   UNL     1      27.614  19.157  55.230  1.00  0.00    -0.022 C 
ATOM     15  C   UNL     1      26.656  19.771  54.163  1.00  0.00     0.010 C 
ATOM     16  C   UNL     1      26.120  18.760  53.141  1.00  0.00     0.033 C 
ATOM     17  C   UNL     1      25.418  17.571  53.828  1.00  0.00     0.123 C 
ATOM     18  C   UNL     1      26.329  16.817  54.858  1.00  0.00     0.020 C 
ATOM     19  C   UNL     1      26.949  17.867  55.901  1.00  0.00     0.006 C 
ATOM     20  C   UNL     1      25.925  18.255  57.008  1.00  0.00     0.005 C 
ATOM     21  C   UNL     1      26.471  19.213  58.076  1.00  0.00     0.008 C 
ATOM     22  C   UNL     1      27.000  20.551  57.500  1.00  0.00    -0.017 C 
ATOM     23  C   UNL     1      27.818  21.415  58.607  1.00  0.00     0.009 C 
ATOM     24  C   UNL     1      26.991  21.666  59.918  1.00  0.00     0.043 C 
ATOM     25  C   UNL     1      27.501  22.869  60.775  1.00  0.00     0.124 C 
ATOM     26  C   UNL     1      29.139  20.668  59.057  1.00  0.00     0.015 C 
ATOM     27  C   UNL     1      25.763  21.353  56.950  1.00  0.00     0.013 C 
ATOM     28  C   UNL     1      27.469  16.060  54.109  1.00  0.00     0.017 C 
ATOM     29  C   UNL     1      28.965  18.753  54.529  1.00  0.00     0.012 C 
ATOM     30  C   UNL     1      31.472  25.352  60.164  1.00  0.00     0.011 C 
ENDROOT
BRANCH  25  31
ATOM     31  O   UNL     1      28.518  22.453  61.655  1.00  0.00    -0.392 OA
ATOM     32  H   UNL     1      29.279  22.153  61.094  1.00  0.00     0.210 HD
ENDBRANCH  25  31
BRANCH  18  33
ATOM     33  C   UNL     1      25.496  15.679  55.579  1.00  0.00     0.165 C 
BRANCH  33  34
ATOM     34  O   UNL     1      25.485  14.458  54.883  1.00  0.00    -0.396 OA
ATOM     35  H   UNL     1      25.172  14.624  53.958  1.00  0.00     0.210 HD
ENDBRANCH  33  34
ENDBRANCH  18  33
BRANCH  17  36
ATOM     36  O   UNL     1      24.875  16.687  52.875  1.00  0.00    -0.392 OA
ATOM     37  H   UNL     1      23.897  16.610  53.044  1.00  0.00     0.210 HD
ENDBRANCH  17  36
TORSDOF 4
ENDMDL
MODEL 2
REMARK VINA RESULT:    -4.681      1.505      2.819
REMARK INTER + INTRA:          -5.617
REMARK INTER:                  -5.479
REMARK INTRA:                  -0.138
REMARK UNBOUND:                -0.252
REMARK SMILES CC1(C)CC[C@]23CO[C@@]4(C=C[C@@H]5[C@]6(C)CC[C@@H](O)[C@](C)(CO)[C@@H]6CC[C@@]5(C)[C@]4(C)C[C@H]2O)[C@H]3C1
REMARK SMILES IDX 1 1 2 2 4 3 5 4 6 5 7 6 8 7 9 8 33 9 34 10 10 11 11 12 12 13
REMARK SMILES IDX 13 14 15 15 16 16 17 17 19 18 23 19 24 20 25 21 26 22 28 23
REMARK SMILES IDX 30 24 31 25 29 26 27 27 20 28 14 29 3 30 32 31 21 33 22 34
REMARK SMILES IDX 18 36
REMARK H PARENT 32 32 22 35 18 37
REMARK Flexibility Score: inf
ROOT
ATOM      1  C   UNL     1      25.553  26.949  59.696  1.00  0.00     0.011 C 
ATOM      2  C   UNL     1      26.837  26.215  59.249  1.00  0.00    -0.035 C 
ATOM      3  C   UNL     1      27.717  25.962  60.496  1.00  0.00     0.007 C 
ATOM      4  C   UNL     1      28.942  25.086  60.200  1.00  0.00     0.013 C 
ATOM      5  C   UNL     1      28.623  23.771  59.431  1.00  0.00     0.026 C 
ATOM      6  C   UNL     1      27.853  22.750  60.272  1.00  0.00     0.171 C 
ATOM      7  O   UNL     1      27.103  21.945  59.385  1.00  0.00    -0.369 OA
ATOM      8  C   UNL     1      27.270  22.451  58.067  1.00  0.00     0.096 C 
ATOM      9  C   UNL     1      27.655  23.948  58.266  1.00  0.00     0.037 C 
ATOM     10  C   UNL     1      26.441  24.855  58.622  1.00  0.00     0.014 C 
ATOM     11  C   UNL     1      25.945  22.232  57.330  1.00  0.00     0.005 C 
ATOM     12  C   UNL     1      25.693  21.168  56.537  1.00  0.00    -0.024 C 
ATOM     13  C   UNL     1      26.785  20.237  56.007  1.00  0.00     0.024 C 
ATOM     14  C   UNL     1      26.262  18.913  55.291  1.00  0.00    -0.022 C 
ATOM     15  C   UNL     1      25.307  18.104  56.222  1.00  0.00     0.010 C 
ATOM     16  C   UNL     1      24.877  16.745  55.655  1.00  0.00     0.033 C 
ATOM     17  C   UNL     1      26.091  15.868  55.289  1.00  0.00     0.123 C 
ATOM     18  C   UNL     1      27.074  16.552  54.276  1.00  0.00     0.020 C 
ATOM     19  C   UNL     1      27.489  18.003  54.822  1.00  0.00     0.006 C 
ATOM     20  C   UNL     1      28.593  17.913  55.917  1.00  0.00     0.005 C 
ATOM     21  C   UNL     1      29.082  19.270  56.444  1.00  0.00     0.008 C 
ATOM     22  C   UNL     1      27.955  20.145  57.048  1.00  0.00    -0.017 C 
ATOM     23  C   UNL     1      28.448  21.667  57.336  1.00  0.00     0.009 C 
ATOM     24  C   UNL     1      29.738  21.732  58.230  1.00  0.00     0.043 C 
ATOM     25  C   UNL     1      29.957  23.108  58.937  1.00  0.00     0.124 C 
ATOM     26  C   UNL     1      28.807  22.419  55.991  1.00  0.00     0.015 C 
ATOM     27  C   UNL     1      27.466  19.444  58.369  1.00  0.00     0.013 C 
ATOM     28  C   UNL     1      26.398  16.675  52.875  1.00  0.00     0.017 C 
ATOM     29  C   UNL     1      25.452  19.402  54.031  1.00  0.00     0.012 C 
ATOM     30  C   UNL     1      27.566  27.117  58.224  1.00  0.00     0.011 C 
ENDROOT
BRANCH  25  31
ATOM     31  O   UNL     1      30.658  23.991  58.094  1.00  0.00    -0.392 OA
ATOM     32  H   UNL     1      31.612  23.946  58.359  1.00  0.00     0.210 HD
ENDBRANCH  25  31
BRANCH  18  33
ATOM     33  C   UNL     1      28.332  15.621  54.036  1.00  0.00     0.165 C 
BRANCH  33  34
ATOM     34  O   UNL     1      28.002  14.316  53.628  1.00  0.00    -0.396 OA
ATOM     35  H   UNL     1      28.460  13.673  54.226  1.00  0.00     0.210 HD
ENDBRANCH  33  34
ENDBRANCH  18  33
BRANCH  17  36
ATOM     36  O   UNL     1      25.679  14.601  54.831  1.00  0.00    -0.392 OA
ATOM     37  H   UNL     1      25.473  14.036  55.625  1.00  0.00     0.210 HD
ENDBRANCH  17  36
TORSDOF 4
ENDMDL
MODEL 3
REMARK VINA RESULT:    -4.386      1.952      8.405
REMARK INTER + INTRA:          -5.279
REMARK INTER:                  -5.365
REMARK INTRA:                   0.086
REMARK UNBOUND:                -0.252
REMARK SMILES CC1(C)CC[C@]23CO[C@@]4(C=C[C@@H]5[C@]6(C)CC[C@@H](O)[C@](C)(CO)[C@@H]6CC[C@@]5(C)[C@]4(C)C[C@H]2O)[C@H]3C1
REMARK SMILES IDX 1 1 2 2 4 3 5 4 6 5 7 6 8 7 9 8 33 9 34 10 10 11 11 12 12 13
REMARK SMILES IDX 13 14 15 15 16 16 17 17 19 18 23 19 24 20 25 21 26 22 28 23
REMARK SMILES IDX 30 24 31 25 29 26 27 27 20 28 14 29 3 30 32 31 21 33 22 34
REMARK SMILES IDX 18 36
REMARK H PARENT 32 32 22 35 18 37
REMARK Flexibility Score: inf
ROOT
ATOM      1  C   UNL     1      26.882  15.005  54.618  1.00  0.00     0.011 C 
ATOM      2  C   UNL     1      26.727  16.475  54.166  1.00  0.00    -0.035 C 
ATOM      3  C   UNL     1      25.227  16.753  53.908  1.00  0.00     0.007 C 
ATOM      4  C   UNL     1      24.931  18.231  53.619  1.00  0.00     0.013 C 
ATOM      5  C   UNL     1      25.544  19.224  54.649  1.00  0.00     0.026 C 
ATOM      6  C   UNL     1      24.876  19.159  56.025  1.00  0.00     0.171 C 
ATOM      7  O   UNL     1      25.830  19.570  56.983  1.00  0.00    -0.369 OA
ATOM      8  C   UNL     1      27.068  19.791  56.319  1.00  0.00     0.096 C 
ATOM      9  C   UNL     1      26.987  18.915  55.033  1.00  0.00     0.037 C 
ATOM     10  C   UNL     1      27.228  17.401  55.301  1.00  0.00     0.014 C 
ATOM     11  C   UNL     1      28.179  19.383  57.292  1.00  0.00     0.005 C 
ATOM     12  C   UNL     1      28.830  20.252  58.096  1.00  0.00    -0.024 C 
ATOM     13  C   UNL     1      28.788  21.769  57.904  1.00  0.00     0.024 C 
ATOM     14  C   UNL     1      29.422  22.622  59.091  1.00  0.00    -0.022 C 
ATOM     15  C   UNL     1      28.770  22.261  60.461  1.00  0.00     0.010 C 
ATOM     16  C   UNL     1      29.228  23.144  61.629  1.00  0.00     0.033 C 
ATOM     17  C   UNL     1      29.001  24.641  61.337  1.00  0.00     0.123 C 
ATOM     18  C   UNL     1      29.699  25.136  60.023  1.00  0.00     0.020 C 
ATOM     19  C   UNL     1      29.279  24.187  58.798  1.00  0.00     0.006 C 
ATOM     20  C   UNL     1      27.867  24.546  58.249  1.00  0.00     0.005 C 
ATOM     21  C   UNL     1      27.425  23.715  57.035  1.00  0.00     0.008 C 
ATOM     22  C   UNL     1      27.401  22.189  57.301  1.00  0.00    -0.017 C 
ATOM     23  C   UNL     1      27.205  21.331  55.935  1.00  0.00     0.009 C 
ATOM     24  C   UNL     1      25.937  21.769  55.117  1.00  0.00     0.043 C 
ATOM     25  C   UNL     1      25.426  20.693  54.106  1.00  0.00     0.124 C 
ATOM     26  C   UNL     1      28.439  21.509  54.961  1.00  0.00     0.015 C 
ATOM     27  C   UNL     1      26.243  21.903  58.327  1.00  0.00     0.013 C 
ATOM     28  C   UNL     1      31.248  25.130  60.206  1.00  0.00     0.017 C 
ATOM     29  C   UNL     1      30.946  22.227  59.133  1.00  0.00     0.012 C 
ATOM     30  C   UNL     1      27.560  16.664  52.875  1.00  0.00     0.011 C 
ENDROOT
BRANCH  25  31
ATOM     31  O   UNL     1      26.098  20.813  52.875  1.00  0.00    -0.392 OA
ATOM     32  H   UNL     1      26.766  21.539  52.981  1.00  0.00     0.210 HD
ENDBRANCH  25  31
BRANCH  18  33
ATOM     33  C   UNL     1      29.330  26.653  59.758  1.00  0.00     0.165 C 
BRANCH  33  34
ATOM     34  O   UNL     1      29.706  27.113  58.483  1.00  0.00    -0.396 OA
ATOM     35  H   UNL     1      30.093  28.020  58.577  1.00  0.00     0.210 HD
ENDBRANCH  33  34
ENDBRANCH  18  33
BRANCH  17  36
ATOM     36  O   UNL     1      29.366  25.432  62.445  1.00  0.00    -0.392 OA
ATOM     37  H   UNL     1      28.587  26.000  62.692  1.00  0.00     0.210 HD
ENDBRANCH  17  36
TORSDOF 4
ENDMDL
MODEL 4
REMARK VINA RESULT:    -4.333      1.726      3.022
REMARK INTER + INTRA:          -5.218
REMARK INTER:                  -4.954
REMARK INTRA:                  -0.264
REMARK UNBOUND:                -0.252
REMARK SMILES CC1(C)CC[C@]23CO[C@@]4(C=C[C@@H]5[C@]6(C)CC[C@@H](O)[C@](C)(CO)[C@@H]6CC[C@@]5(C)[C@]4(C)C[C@H]2O)[C@H]3C1
REMARK SMILES IDX 1 1 2 2 4 3 5 4 6 5 7 6 8 7 9 8 33 9 34 10 10 11 11 12 12 13
REMARK SMILES IDX 13 14 15 15 16 16 17 17 19 18 23 19 24 20 25 21 26 22 28 23
REMARK SMILES IDX 30 24 31 25 29 26 27 27 20 28 14 29 3 30 32 31 21 33 22 34
REMARK SMILES IDX 18 36
REMARK H PARENT 32 32 22 35 18 37
REMARK Flexibility Score: inf
ROOT
ATOM      1  C   UNL     1      31.597  25.779  61.753  1.00  0.00     0.011 C 
ATOM      2  C   UNL     1      30.372  25.910  60.820  1.00  0.00    -0.035 C 
ATOM      3  C   UNL     1      30.660  27.023  59.785  1.00  0.00     0.007 C 
ATOM      4  C   UNL     1      29.582  27.125  58.697  1.00  0.00     0.013 C 
ATOM      5  C   UNL     1      29.222  25.772  58.018  1.00  0.00     0.026 C 
ATOM      6  C   UNL     1      30.341  25.223  57.131  1.00  0.00     0.171 C 
ATOM      7  O   UNL     1      30.203  23.817  57.090  1.00  0.00    -0.369 OA
ATOM      8  C   UNL     1      29.145  23.443  57.963  1.00  0.00     0.096 C 
ATOM      9  C   UNL     1      29.053  24.610  58.991  1.00  0.00     0.037 C 
ATOM     10  C   UNL     1      30.166  24.566  60.078  1.00  0.00     0.014 C 
ATOM     11  C   UNL     1      29.524  22.091  58.576  1.00  0.00     0.005 C 
ATOM     12  C   UNL     1      29.105  20.901  58.090  1.00  0.00    -0.024 C 
ATOM     13  C   UNL     1      27.949  20.759  57.098  1.00  0.00     0.024 C 
ATOM     14  C   UNL     1      27.768  19.307  56.470  1.00  0.00    -0.022 C 
ATOM     15  C   UNL     1      29.084  18.811  55.796  1.00  0.00     0.010 C 
ATOM     16  C   UNL     1      28.946  17.481  55.044  1.00  0.00     0.033 C 
ATOM     17  C   UNL     1      27.824  17.536  53.987  1.00  0.00     0.123 C 
ATOM     18  C   UNL     1      26.427  17.934  54.577  1.00  0.00     0.020 C 
ATOM     19  C   UNL     1      26.563  19.293  55.420  1.00  0.00     0.006 C 
ATOM     20  C   UNL     1      26.589  20.545  54.494  1.00  0.00     0.005 C 
ATOM     21  C   UNL     1      26.658  21.887  55.238  1.00  0.00     0.008 C 
ATOM     22  C   UNL     1      27.891  22.020  56.167  1.00  0.00    -0.017 C 
ATOM     23  C   UNL     1      27.788  23.318  57.140  1.00  0.00     0.009 C 
ATOM     24  C   UNL     1      27.543  24.655  56.351  1.00  0.00     0.043 C 
ATOM     25  C   UNL     1      27.930  25.944  57.143  1.00  0.00     0.124 C 
ATOM     26  C   UNL     1      26.582  23.181  58.156  1.00  0.00     0.015 C 
ATOM     27  C   UNL     1      29.170  22.092  55.253  1.00  0.00     0.013 C 
ATOM     28  C   UNL     1      25.884  16.787  55.485  1.00  0.00     0.017 C 
ATOM     29  C   UNL     1      27.427  18.358  57.680  1.00  0.00     0.012 C 
ATOM     30  C   UNL     1      29.145  26.263  61.696  1.00  0.00     0.011 C 
ENDROOT
BRANCH  25  31
ATOM     31  O   UNL     1      26.854  26.374  57.942  1.00  0.00    -0.392 OA
ATOM     32  H   UNL     1      26.066  25.829  57.683  1.00  0.00     0.210 HD
ENDBRANCH  25  31
BRANCH  18  33
ATOM     33  C   UNL     1      25.366  18.058  53.408  1.00  0.00     0.165 C 
BRANCH  33  34
ATOM     34  O   UNL     1      24.906  16.820  52.926  1.00  0.00    -0.396 OA
ATOM     35  H   UNL     1      25.010  16.145  53.642  1.00  0.00     0.210 HD
ENDBRANCH  33  34
ENDBRANCH  18  33
BRANCH  17  36
ATOM     36  O   UNL     1      27.754  16.330  53.263  1.00  0.00    -0.392 OA
ATOM     37  H   UNL     1      27.037  16.420  52.578  1.00  0.00     0.210 HD
ENDBRANCH  17  36
TORSDOF 4
ENDMDL
MODEL 5
REMARK VINA RESULT:    -4.127      1.906      8.546
REMARK INTER + INTRA:          -4.982
REMARK INTER:                  -4.720
REMARK INTRA:                  -0.262
REMARK UNBOUND:                -0.252
REMARK SMILES CC1(C)CC[C@]23CO[C@@]4(C=C[C@@H]5[C@]6(C)CC[C@@H](O)[C@](C)(CO)[C@@H]6CC[C@@]5(C)[C@]4(C)C[C@H]2O)[C@H]3C1
REMARK SMILES IDX 1 1 2 2 4 3 5 4 6 5 7 6 8 7 9 8 33 9 34 10 10 11 11 12 12 13
REMARK SMILES IDX 13 14 15 15 16 16 17 17 19 18 23 19 24 20 25 21 26 22 28 23
REMARK SMILES IDX 30 24 31 25 29 26 27 27 20 28 14 29 3 30 32 31 21 33 22 34
REMARK SMILES IDX 18 36
REMARK H PARENT 32 32 22 35 18 37
REMARK Flexibility Score: inf
ROOT
ATOM      1  C   UNL     1      24.875  14.731  55.494  1.00  0.00     0.011 C 
ATOM      2  C   UNL     1      25.887  15.708  54.856  1.00  0.00    -0.035 C 
ATOM      3  C   UNL     1      25.294  16.232  53.527  1.00  0.00     0.007 C 
ATOM      4  C   UNL     1      26.138  17.344  52.889  1.00  0.00     0.013 C 
ATOM      5  C   UNL     1      26.518  18.501  53.858  1.00  0.00     0.026 C 
ATOM      6  C   UNL     1      25.325  19.371  54.260  1.00  0.00     0.171 C 
ATOM      7  O   UNL     1      25.610  19.927  55.528  1.00  0.00    -0.369 OA
ATOM      8  C   UNL     1      26.844  19.391  55.988  1.00  0.00     0.096 C 
ATOM      9  C   UNL     1      26.990  18.036  55.231  1.00  0.00     0.037 C 
ATOM     10  C   UNL     1      26.105  16.900  55.821  1.00  0.00     0.014 C 
ATOM     11  C   UNL     1      26.736  19.255  57.510  1.00  0.00     0.005 C 
ATOM     12  C   UNL     1      27.191  20.183  58.381  1.00  0.00    -0.024 C 
ATOM     13  C   UNL     1      28.157  21.303  57.988  1.00  0.00     0.024 C 
ATOM     14  C   UNL     1      28.382  22.425  59.096  1.00  0.00    -0.022 C 
ATOM     15  C   UNL     1      27.029  23.052  59.553  1.00  0.00     0.010 C 
ATOM     16  C   UNL     1      27.177  24.239  60.513  1.00  0.00     0.033 C 
ATOM     17  C   UNL     1      28.074  25.345  59.921  1.00  0.00     0.123 C 
ATOM     18  C   UNL     1      29.502  24.841  59.514  1.00  0.00     0.020 C 
ATOM     19  C   UNL     1      29.370  23.559  58.556  1.00  0.00     0.006 C 
ATOM     20  C   UNL     1      29.036  23.967  57.091  1.00  0.00     0.005 C 
ATOM     21  C   UNL     1      28.953  22.792  56.104  1.00  0.00     0.008 C 
ATOM     22  C   UNL     1      27.903  21.723  56.498  1.00  0.00    -0.017 C 
ATOM     23  C   UNL     1      28.035  20.375  55.600  1.00  0.00     0.009 C 
ATOM     24  C   UNL     1      27.981  20.661  54.056  1.00  0.00     0.043 C 
ATOM     25  C   UNL     1      27.602  19.419  53.189  1.00  0.00     0.124 C 
ATOM     26  C   UNL     1      29.412  19.642  55.863  1.00  0.00     0.015 C 
ATOM     27  C   UNL     1      26.479  22.376  56.342  1.00  0.00     0.013 C 
ATOM     28  C   UNL     1      30.326  24.480  60.789  1.00  0.00     0.017 C 
ATOM     29  C   UNL     1      29.041  21.687  60.322  1.00  0.00     0.012 C 
ATOM     30  C   UNL     1      27.205  14.933  54.613  1.00  0.00     0.011 C 
ENDROOT
BRANCH  25  31
ATOM     31  O   UNL     1      28.751  18.667  52.875  1.00  0.00    -0.392 OA
ATOM     32  H   UNL     1      29.408  19.297  52.482  1.00  0.00     0.210 HD
ENDBRANCH  25  31
BRANCH  18  33
ATOM     33  C   UNL     1      30.312  26.017  58.830  1.00  0.00     0.165 C 
BRANCH  33  34
ATOM     34  O   UNL     1      30.912  26.899  59.746  1.00  0.00    -0.396 OA
ATOM     35  H   UNL     1      31.571  27.458  59.261  1.00  0.00     0.210 HD
ENDBRANCH  33  34
ENDBRANCH  18  33
BRANCH  17  36
ATOM     36  O   UNL     1      28.146  26.454  60.787  1.00  0.00    -0.392 OA
ATOM     37  H   UNL     1      27.894  26.152  61.701  1.00  0.00     0.210 HD
ENDBRANCH  17  36
TORSDOF 4
ENDMDL
MODEL 6
REMARK VINA RESULT:    -4.040      1.882      3.690
REMARK INTER + INTRA:          -4.883
REMARK INTER:                  -4.611
REMARK INTRA:                  -0.271
REMARK UNBOUND:                -0.252
REMARK SMILES CC1(C)CC[C@]23CO[C@@]4(C=C[C@@H]5[C@]6(C)CC[C@@H](O)[C@](C)(CO)[C@@H]6CC[C@@]5(C)[C@]4(C)C[C@H]2O)[C@H]3C1
REMARK SMILES IDX 1 1 2 2 4 3 5 4 6 5 7 6 8 7 9 8 33 9 34 10 10 11 11 12 12 13
REMARK SMILES IDX 13 14 15 15 16 16 17 17 19 18 23 19 24 20 25 21 26 22 28 23
REMARK SMILES IDX 30 24 31 25 29 26 27 27 20 28 14 29 3 30 32 31 21 33 22 34
REMARK SMILES IDX 18 36
REMARK H PARENT 32 32 22 35 18 37
REMARK Flexibility Score: inf
ROOT
ATOM      1  C   UNL     1      31.910  25.295  63.752  1.00  0.00     0.011 C 
ATOM      2  C   UNL     1      30.910  25.745  62.664  1.00  0.00    -0.035 C 
ATOM      3  C   UNL     1      31.626  26.740  61.720  1.00  0.00     0.007 C 
ATOM      4  C   UNL     1      30.781  27.124  60.498  1.00  0.00     0.013 C 
ATOM      5  C   UNL     1      30.178  25.914  59.726  1.00  0.00     0.026 C 
ATOM      6  C   UNL     1      31.228  25.086  58.983  1.00  0.00     0.171 C 
ATOM      7  O   UNL     1      30.732  23.767  58.872  1.00  0.00    -0.369 OA
ATOM      8  C   UNL     1      29.499  23.689  59.576  1.00  0.00     0.096 C 
ATOM      9  C   UNL     1      29.571  24.841  60.623  1.00  0.00     0.037 C 
ATOM     10  C   UNL     1      30.466  24.504  61.851  1.00  0.00     0.014 C 
ATOM     11  C   UNL     1      29.417  22.286  60.185  1.00  0.00     0.005 C 
ATOM     12  C   UNL     1      28.773  21.251  59.602  1.00  0.00    -0.024 C 
ATOM     13  C   UNL     1      27.774  21.420  58.455  1.00  0.00     0.024 C 
ATOM     14  C   UNL     1      27.309  20.067  57.755  1.00  0.00    -0.022 C 
ATOM     15  C   UNL     1      28.531  19.238  57.252  1.00  0.00     0.010 C 
ATOM     16  C   UNL     1      28.156  17.992  56.440  1.00  0.00     0.033 C 
ATOM     17  C   UNL     1      27.253  18.342  55.240  1.00  0.00     0.123 C 
ATOM     18  C   UNL     1      25.939  19.097  55.645  1.00  0.00     0.020 C 
ATOM     19  C   UNL     1      26.306  20.373  56.548  1.00  0.00     0.006 C 
ATOM     20  C   UNL     1      26.794  21.571  55.682  1.00  0.00     0.005 C 
ATOM     21  C   UNL     1      27.107  22.848  56.477  1.00  0.00     0.008 C 
ATOM     22  C   UNL     1      28.185  22.650  57.572  1.00  0.00    -0.017 C 
ATOM     23  C   UNL     1      28.289  23.929  58.568  1.00  0.00     0.009 C 
ATOM     24  C   UNL     1      28.521  25.282  57.803  1.00  0.00     0.043 C 
ATOM     25  C   UNL     1      29.116  26.423  58.688  1.00  0.00     0.124 C 
ATOM     26  C   UNL     1      26.957  24.119  59.402  1.00  0.00     0.015 C 
ATOM     27  C   UNL     1      29.555  22.377  56.847  1.00  0.00     0.013 C 
ATOM     28  C   UNL     1      24.990  18.137  56.427  1.00  0.00     0.017 C 
ATOM     29  C   UNL     1      26.561  19.244  58.871  1.00  0.00     0.012 C 
ATOM     30  C   UNL     1      29.708  26.414  63.373  1.00  0.00     0.011 C 
ENDROOT
BRANCH  25  31
ATOM     31  O   UNL     1      28.088  27.125  59.346  1.00  0.00    -0.392 OA
ATOM     32  H   UNL     1      28.308  27.118  60.313  1.00  0.00     0.210 HD
ENDBRANCH  25  31
BRANCH  18  33
ATOM     33  C   UNL     1      25.128  19.498  54.346  1.00  0.00     0.165 C 
BRANCH  33  34
ATOM     34  O   UNL     1      25.855  19.340  53.153  1.00  0.00    -0.396 OA
ATOM     35  H   UNL     1      25.236  19.030  52.445  1.00  0.00     0.210 HD
ENDBRANCH  33  34
ENDBRANCH  18  33
BRANCH  17  36
ATOM     36  O   UNL     1      26.972  17.197  54.469  1.00  0.00    -0.392 OA
ATOM     37  H   UNL     1      27.409  16.415  54.903  1.00  0.00     0.210 HD
ENDBRANCH  17  36
TORSDOF 4
ENDMDL
