MODEL 1
REMARK VINA RESULT:    -5.584      0.000      0.000
REMARK INTER + INTRA:          -7.184
REMARK INTER:                  -6.890
REMARK INTRA:                  -0.294
REMARK UNBOUND:                -0.294
REMARK SMILES COc1cc(-c2oc3cc(O)cc(O)c3c(=O)c2O)ccc1O
REMARK SMILES IDX 6 1 18 2 16 3 17 4 15 5 13 6 12 7 10 8 9 9 8 10 7 11 5 12
REMARK SMILES IDX 3 13 22 14 4 15 21 16 20 17 2 18 1 19 23 20 19 22 14 24
REMARK SMILES IDX 11 26
REMARK H PARENT 23 21 19 23 14 25 11 27
REMARK Flexibility Score: inf
ROOT
ATOM      1  C   UNL     1      -1.179  49.741  23.838  1.00  0.00     0.180 A 
ATOM      2  C   UNL     1      -1.964  50.817  24.296  1.00  0.00     0.208 A 
ATOM      3  C   UNL     1      -3.006  50.559  25.200  1.00  0.00     0.238 A 
ATOM      4  O   UNL     1      -3.709  51.516  25.626  1.00  0.00    -0.285 OA
ATOM      5  C   UNL     1      -3.259  49.235  25.614  1.00  0.00     0.111 A 
ATOM      6  C   UNL     1      -4.291  48.889  26.518  1.00  0.00     0.134 A 
ATOM      7  C   UNL     1      -4.485  47.546  26.872  1.00  0.00     0.093 A 
ATOM      8  C   UNL     1      -3.669  46.544  26.342  1.00  0.00     0.123 A 
ATOM      9  C   UNL     1      -2.646  46.879  25.448  1.00  0.00     0.094 A 
ATOM     10  C   UNL     1      -2.436  48.212  25.083  1.00  0.00     0.146 A 
ATOM     11  O   UNL     1      -1.455  48.504  24.237  1.00  0.00    -0.452 OA
ENDROOT
BRANCH   1  12
ATOM     12  C   UNL     1      -0.051  49.937  22.898  1.00  0.00     0.025 A 
ATOM     13  C   UNL     1       0.818  50.495  20.681  1.00  0.00     0.161 A 
ATOM     14  C   UNL     1       2.125  50.354  21.166  1.00  0.00     0.157 A 
ATOM     15  C   UNL     1      -0.269  50.292  21.556  1.00  0.00     0.062 A 
ATOM     16  C   UNL     1       2.345  50.022  22.508  1.00  0.00     0.051 A 
ATOM     17  C   UNL     1       1.266  49.823  23.370  1.00  0.00     0.016 A 
BRANCH  13  18
ATOM     18  O   UNL     1       0.638  50.840  19.331  1.00  0.00    -0.493 OA
ATOM     19  C   UNL     1       0.114  52.085  18.880  1.00  0.00     0.278 C 
ENDBRANCH  13  18
BRANCH  14  20
ATOM     20  O   UNL     1       3.204  50.550  20.305  1.00  0.00    -0.504 OA
ATOM     21  H   UNL     1       3.100  51.050  19.429  1.00  0.00     0.293 HD
ENDBRANCH  14  20
ENDBRANCH   1  12
BRANCH   2  22
ATOM     22  O   UNL     1      -1.724  52.113  23.833  1.00  0.00    -0.502 OA
ATOM     23  H   UNL     1      -0.848  52.382  23.401  1.00  0.00     0.293 HD
ENDBRANCH   2  22
BRANCH   6  24
ATOM     24  O   UNL     1      -5.124  49.866  27.065  1.00  0.00    -0.507 OA
ATOM     25  H   UNL     1      -4.806  50.487  27.800  1.00  0.00     0.293 HD
ENDBRANCH   6  24
BRANCH   8  26
ATOM     26  O   UNL     1      -3.883  45.217  26.710  1.00  0.00    -0.508 OA
ATOM     27  H   UNL     1      -4.478  44.973  27.492  1.00  0.00     0.293 HD
ENDBRANCH   8  26
TORSDOF 6
ENDMDL
MODEL 2
REMARK VINA RESULT:    -5.582      1.212      2.946
REMARK INTER + INTRA:          -7.182
REMARK INTER:                  -6.843
REMARK INTRA:                  -0.339
REMARK UNBOUND:                -0.294
REMARK SMILES COc1cc(-c2oc3cc(O)cc(O)c3c(=O)c2O)ccc1O
REMARK SMILES IDX 6 1 18 2 16 3 17 4 15 5 13 6 12 7 10 8 9 9 8 10 7 11 5 12
REMARK SMILES IDX 3 13 22 14 4 15 21 16 20 17 2 18 1 19 23 20 19 22 14 24
REMARK SMILES IDX 11 26
REMARK H PARENT 23 21 19 23 14 25 11 27
REMARK Flexibility Score: inf
ROOT
ATOM      1  C   UNL     1      -0.973  49.789  23.875  1.00  0.00     0.180 A 
ATOM      2  C   UNL     1      -1.347  48.510  24.331  1.00  0.00     0.208 A 
ATOM      3  C   UNL     1      -2.440  48.393  25.203  1.00  0.00     0.238 A 
ATOM      4  O   UNL     1      -2.790  47.252  25.610  1.00  0.00    -0.285 OA
ATOM      5  C   UNL     1      -3.127  49.553  25.619  1.00  0.00     0.111 A 
ATOM      6  C   UNL     1      -4.236  49.523  26.499  1.00  0.00     0.134 A 
ATOM      7  C   UNL     1      -4.859  50.722  26.873  1.00  0.00     0.093 A 
ATOM      8  C   UNL     1      -4.397  51.948  26.387  1.00  0.00     0.123 A 
ATOM      9  C   UNL     1      -3.303  51.984  25.517  1.00  0.00     0.094 A 
ATOM     10  C   UNL     1      -2.668  50.799  25.131  1.00  0.00     0.146 A 
ATOM     11  O   UNL     1      -1.634  50.861  24.300  1.00  0.00    -0.452 OA
ENDROOT
BRANCH   1  12
ATOM     12  C   UNL     1       0.157  49.990  22.940  1.00  0.00     0.025 A 
ATOM     13  C   UNL     1       1.029  50.520  20.716  1.00  0.00     0.161 A 
ATOM     14  C   UNL     1       2.335  50.419  21.213  1.00  0.00     0.157 A 
ATOM     15  C   UNL     1      -0.059  50.312  21.588  1.00  0.00     0.062 A 
ATOM     16  C   UNL     1       2.553  50.120  22.563  1.00  0.00     0.051 A 
ATOM     17  C   UNL     1       1.472  49.915  23.422  1.00  0.00     0.016 A 
BRANCH  13  18
ATOM     18  O   UNL     1       0.851  50.832  19.359  1.00  0.00    -0.493 OA
ATOM     19  C   UNL     1       0.368  52.082  18.875  1.00  0.00     0.278 C 
ENDBRANCH  13  18
BRANCH  14  20
ATOM     20  O   UNL     1       3.415  50.620  20.355  1.00  0.00    -0.504 OA
ATOM     21  H   UNL     1       3.290  50.693  19.352  1.00  0.00     0.293 HD
ENDBRANCH  14  20
ENDBRANCH   1  12
BRANCH   2  22
ATOM     22  O   UNL     1      -0.619  47.382  23.943  1.00  0.00    -0.502 OA
ATOM     23  H   UNL     1       0.394  47.363  23.945  1.00  0.00     0.293 HD
ENDBRANCH   2  22
BRANCH   6  24
ATOM     24  O   UNL     1      -4.720  48.316  27.002  1.00  0.00    -0.507 OA
ATOM     25  H   UNL     1      -5.582  47.904  26.662  1.00  0.00     0.293 HD
ENDBRANCH   6  24
BRANCH   8  26
ATOM     26  O   UNL     1      -5.034  53.125  26.775  1.00  0.00    -0.508 OA
ATOM     27  H   UNL     1      -5.099  53.922  26.154  1.00  0.00     0.293 HD
ENDBRANCH   8  26
TORSDOF 6
ENDMDL
MODEL 3
REMARK VINA RESULT:    -5.406      1.580      7.149
REMARK INTER + INTRA:          -6.964
REMARK INTER:                  -6.843
REMARK INTRA:                  -0.121
REMARK UNBOUND:                -0.294
REMARK SMILES COc1cc(-c2oc3cc(O)cc(O)c3c(=O)c2O)ccc1O
REMARK SMILES IDX 6 1 18 2 16 3 17 4 15 5 13 6 12 7 10 8 9 9 8 10 7 11 5 12
REMARK SMILES IDX 3 13 22 14 4 15 21 16 20 17 2 18 1 19 23 20 19 22 14 24
REMARK SMILES IDX 11 26
REMARK H PARENT 23 21 19 23 14 25 11 27
REMARK Flexibility Score: inf
ROOT
ATOM      1  C   UNL     1      -1.055  49.739  22.719  1.00  0.00     0.180 A 
ATOM      2  C   UNL     1      -1.799  50.547  21.838  1.00  0.00     0.208 A 
ATOM      3  C   UNL     1      -1.120  51.282  20.854  1.00  0.00     0.238 A 
ATOM      4  O   UNL     1      -1.776  52.001  20.052  1.00  0.00    -0.285 OA
ATOM      5  C   UNL     1       0.287  51.213  20.780  1.00  0.00     0.111 A 
ATOM      6  C   UNL     1       1.048  51.925  19.821  1.00  0.00     0.134 A 
ATOM      7  C   UNL     1       2.446  51.812  19.819  1.00  0.00     0.093 A 
ATOM      8  C   UNL     1       3.096  51.003  20.754  1.00  0.00     0.123 A 
ATOM      9  C   UNL     1       2.351  50.297  21.703  1.00  0.00     0.094 A 
ATOM     10  C   UNL     1       0.956  50.395  21.721  1.00  0.00     0.146 A 
ATOM     11  O   UNL     1       0.271  49.710  22.629  1.00  0.00    -0.452 OA
ENDROOT
BRANCH   1  12
ATOM     12  C   UNL     1      -1.702  48.921  23.770  1.00  0.00     0.025 A 
ATOM     13  C   UNL     1      -3.178  48.701  25.708  1.00  0.00     0.161 A 
ATOM     14  C   UNL     1      -2.954  47.318  25.713  1.00  0.00     0.157 A 
ATOM     15  C   UNL     1      -2.553  49.499  24.728  1.00  0.00     0.062 A 
ATOM     16  C   UNL     1      -2.125  46.737  24.746  1.00  0.00     0.051 A 
ATOM     17  C   UNL     1      -1.510  47.531  23.777  1.00  0.00     0.016 A 
BRANCH  13  18
ATOM     18  O   UNL     1      -4.025  49.245  26.687  1.00  0.00    -0.493 OA
ATOM     19  C   UNL     1      -4.002  50.605  27.109  1.00  0.00     0.278 C 
ENDBRANCH  13  18
BRANCH  14  20
ATOM     20  O   UNL     1      -3.566  46.524  26.681  1.00  0.00    -0.504 OA
ATOM     21  H   UNL     1      -3.042  45.840  27.215  1.00  0.00     0.293 HD
ENDBRANCH  14  20
ENDBRANCH   1  12
BRANCH   2  22
ATOM     22  O   UNL     1      -3.188  50.636  21.964  1.00  0.00    -0.502 OA
ATOM     23  H   UNL     1      -3.762  49.837  22.208  1.00  0.00     0.293 HD
ENDBRANCH   2  22
BRANCH   6  24
ATOM     24  O   UNL     1       0.428  52.742  18.875  1.00  0.00    -0.507 OA
ATOM     25  H   UNL     1       0.196  53.708  19.075  1.00  0.00     0.293 HD
ENDBRANCH   6  24
BRANCH   8  26
ATOM     26  O   UNL     1       4.487  50.908  20.731  1.00  0.00    -0.508 OA
ATOM     27  H   UNL     1       5.055  51.268  21.488  1.00  0.00     0.293 HD
ENDBRANCH   8  26
TORSDOF 6
ENDMDL
MODEL 4
REMARK VINA RESULT:    -5.134      1.765      7.372
REMARK INTER + INTRA:          -6.629
REMARK INTER:                  -6.238
REMARK INTRA:                  -0.391
REMARK UNBOUND:                -0.294
REMARK SMILES COc1cc(-c2oc3cc(O)cc(O)c3c(=O)c2O)ccc1O
REMARK SMILES IDX 6 1 18 2 16 3 17 4 15 5 13 6 12 7 10 8 9 9 8 10 7 11 5 12
REMARK SMILES IDX 3 13 22 14 4 15 21 16 20 17 2 18 1 19 23 20 19 22 14 24
REMARK SMILES IDX 11 26
REMARK H PARENT 23 21 19 23 14 25 11 27
REMARK Flexibility Score: inf
ROOT
ATOM      1  C   UNL     1      -1.728  50.315  24.564  1.00  0.00     0.180 A 
ATOM      2  C   UNL     1      -0.430  49.767  24.546  1.00  0.00     0.208 A 
ATOM      3  C   UNL     1       0.336  49.877  23.376  1.00  0.00     0.238 A 
ATOM      4  O   UNL     1       1.503  49.399  23.352  1.00  0.00    -0.285 OA
ATOM      5  C   UNL     1      -0.210  50.512  22.241  1.00  0.00     0.111 A 
ATOM      6  C   UNL     1       0.494  50.660  21.022  1.00  0.00     0.134 A 
ATOM      7  C   UNL     1      -0.124  51.295  19.935  1.00  0.00     0.093 A 
ATOM      8  C   UNL     1      -1.428  51.784  20.043  1.00  0.00     0.123 A 
ATOM      9  C   UNL     1      -2.129  51.641  21.244  1.00  0.00     0.094 A 
ATOM     10  C   UNL     1      -1.530  51.012  22.340  1.00  0.00     0.146 A 
ATOM     11  O   UNL     1      -2.216  50.893  23.472  1.00  0.00    -0.452 OA
ENDROOT
BRANCH   1  12
ATOM     12  C   UNL     1      -2.589  50.255  25.767  1.00  0.00     0.025 A 
ATOM     13  C   UNL     1      -4.247  49.117  27.160  1.00  0.00     0.161 A 
ATOM     14  C   UNL     1      -4.164  50.157  28.096  1.00  0.00     0.157 A 
ATOM     15  C   UNL     1      -3.449  49.167  25.999  1.00  0.00     0.062 A 
ATOM     16  C   UNL     1      -3.291  51.230  27.878  1.00  0.00     0.051 A 
ATOM     17  C   UNL     1      -2.504  51.275  26.727  1.00  0.00     0.016 A 
BRANCH  13  18
ATOM     18  O   UNL     1      -5.125  48.052  27.419  1.00  0.00    -0.493 OA
ATOM     19  C   UNL     1      -4.742  46.819  28.020  1.00  0.00     0.278 C 
ENDBRANCH  13  18
BRANCH  14  20
ATOM     20  O   UNL     1      -4.952  50.115  29.244  1.00  0.00    -0.504 OA
ATOM     21  H   UNL     1      -4.543  50.155  30.171  1.00  0.00     0.293 HD
ENDBRANCH  14  20
ENDBRANCH   1  12
BRANCH   2  22
ATOM     22  O   UNL     1       0.069  49.100  25.668  1.00  0.00    -0.502 OA
ATOM     23  H   UNL     1       0.898  49.413  26.161  1.00  0.00     0.293 HD
ENDBRANCH   2  22
BRANCH   6  24
ATOM     24  O   UNL     1       1.797  50.183  20.883  1.00  0.00    -0.507 OA
ATOM     25  H   UNL     1       2.080  49.629  20.082  1.00  0.00     0.293 HD
ENDBRANCH   6  24
BRANCH   8  26
ATOM     26  O   UNL     1      -2.020  52.410  18.947  1.00  0.00    -0.508 OA
ATOM     27  H   UNL     1      -2.160  53.413  18.922  1.00  0.00     0.293 HD
ENDBRANCH   8  26
TORSDOF 6
ENDMDL
MODEL 5
REMARK VINA RESULT:    -5.103      2.139      7.083
REMARK INTER + INTRA:          -6.591
REMARK INTER:                  -6.411
REMARK INTRA:                  -0.180
REMARK UNBOUND:                -0.294
REMARK SMILES COc1cc(-c2oc3cc(O)cc(O)c3c(=O)c2O)ccc1O
REMARK SMILES IDX 6 1 18 2 16 3 17 4 15 5 13 6 12 7 10 8 9 9 8 10 7 11 5 12
REMARK SMILES IDX 3 13 22 14 4 15 21 16 20 17 2 18 1 19 23 20 19 22 14 24
REMARK SMILES IDX 11 26
REMARK H PARENT 23 21 19 23 14 25 11 27
REMARK Flexibility Score: inf
ROOT
ATOM      1  C   UNL     1      -1.206  49.447  22.343  1.00  0.00     0.180 A 
ATOM      2  C   UNL     1      -1.926  50.317  21.502  1.00  0.00     0.208 A 
ATOM      3  C   UNL     1      -1.219  51.155  20.627  1.00  0.00     0.238 A 
ATOM      4  O   UNL     1      -1.853  51.931  19.862  1.00  0.00    -0.285 OA
ATOM      5  C   UNL     1       0.192  51.125  20.621  1.00  0.00     0.111 A 
ATOM      6  C   UNL     1       0.980  51.940  19.773  1.00  0.00     0.134 A 
ATOM      7  C   UNL     1       2.379  51.858  19.835  1.00  0.00     0.093 A 
ATOM      8  C   UNL     1       3.003  50.980  20.723  1.00  0.00     0.123 A 
ATOM      9  C   UNL     1       2.230  50.172  21.563  1.00  0.00     0.094 A 
ATOM     10  C   UNL     1       0.834  50.238  21.516  1.00  0.00     0.146 A 
ATOM     11  O   UNL     1       0.123  49.456  22.320  1.00  0.00    -0.452 OA
ENDROOT
BRANCH   1  12
ATOM     12  C   UNL     1      -1.883  48.520  23.278  1.00  0.00     0.025 A 
ATOM     13  C   UNL     1      -3.417  46.666  23.723  1.00  0.00     0.161 A 
ATOM     14  C   UNL     1      -3.101  46.742  25.086  1.00  0.00     0.157 A 
ATOM     15  C   UNL     1      -2.798  47.555  22.820  1.00  0.00     0.062 A 
ATOM     16  C   UNL     1      -2.174  47.687  25.541  1.00  0.00     0.051 A 
ATOM     17  C   UNL     1      -1.563  48.564  24.644  1.00  0.00     0.016 A 
BRANCH  13  18
ATOM     18  O   UNL     1      -4.343  45.698  23.303  1.00  0.00    -0.493 OA
ATOM     19  C   UNL     1      -4.671  45.432  21.943  1.00  0.00     0.278 C 
ENDBRANCH  13  18
BRANCH  14  20
ATOM     20  O   UNL     1      -3.712  45.869  25.984  1.00  0.00    -0.504 OA
ATOM     21  H   UNL     1      -4.522  45.318  25.721  1.00  0.00     0.293 HD
ENDBRANCH  14  20
ENDBRANCH   1  12
BRANCH   2  22
ATOM     22  O   UNL     1      -3.322  50.362  21.562  1.00  0.00    -0.502 OA
ATOM     23  H   UNL     1      -3.858  51.118  21.153  1.00  0.00     0.293 HD
ENDBRANCH   2  22
BRANCH   6  24
ATOM     24  O   UNL     1       0.387  52.828  18.875  1.00  0.00    -0.507 OA
ATOM     25  H   UNL     1       0.931  53.329  18.183  1.00  0.00     0.293 HD
ENDBRANCH   6  24
BRANCH   8  26
ATOM     26  O   UNL     1       4.395  50.919  20.765  1.00  0.00    -0.508 OA
ATOM     27  H   UNL     1       4.882  50.451  21.520  1.00  0.00     0.293 HD
ENDBRANCH   8  26
TORSDOF 6
ENDMDL
MODEL 6
REMARK VINA RESULT:    -5.017      1.263      1.721
REMARK INTER + INTRA:          -6.484
REMARK INTER:                  -6.477
REMARK INTRA:                  -0.007
REMARK UNBOUND:                -0.294
REMARK SMILES COc1cc(-c2oc3cc(O)cc(O)c3c(=O)c2O)ccc1O
REMARK SMILES IDX 6 1 18 2 16 3 17 4 15 5 13 6 12 7 10 8 9 9 8 10 7 11 5 12
REMARK SMILES IDX 3 13 22 14 4 15 21 16 20 17 2 18 1 19 23 20 19 22 14 24
REMARK SMILES IDX 11 26
REMARK H PARENT 23 21 19 23 14 25 11 27
REMARK Flexibility Score: inf
ROOT
ATOM      1  C   UNL     1      -1.402  49.139  23.257  1.00  0.00     0.180 A 
ATOM      2  C   UNL     1      -2.133  50.305  23.556  1.00  0.00     0.208 A 
ATOM      3  C   UNL     1      -3.109  50.255  24.563  1.00  0.00     0.238 A 
ATOM      4  O   UNL     1      -3.763  51.296  24.846  1.00  0.00    -0.285 OA
ATOM      5  C   UNL     1      -3.353  49.040  25.237  1.00  0.00     0.111 A 
ATOM      6  C   UNL     1      -4.323  48.904  26.260  1.00  0.00     0.134 A 
ATOM      7  C   UNL     1      -4.512  47.658  26.876  1.00  0.00     0.093 A 
ATOM      8  C   UNL     1      -3.755  46.550  26.491  1.00  0.00     0.123 A 
ATOM      9  C   UNL     1      -2.796  46.678  25.481  1.00  0.00     0.094 A 
ATOM     10  C   UNL     1      -2.590  47.912  24.856  1.00  0.00     0.146 A 
ATOM     11  O   UNL     1      -1.669  48.008  23.903  1.00  0.00    -0.452 OA
ENDROOT
BRANCH   1  12
ATOM     12  C   UNL     1      -0.343  49.119  22.222  1.00  0.00     0.025 A 
ATOM     13  C   UNL     1       1.882  49.744  21.423  1.00  0.00     0.161 A 
ATOM     14  C   UNL     1       1.661  49.005  20.252  1.00  0.00     0.157 A 
ATOM     15  C   UNL     1       0.877  49.791  22.410  1.00  0.00     0.062 A 
ATOM     16  C   UNL     1       0.456  48.316  20.074  1.00  0.00     0.051 A 
ATOM     17  C   UNL     1      -0.536  48.366  21.054  1.00  0.00     0.016 A 
BRANCH  13  18
ATOM     18  O   UNL     1       3.109  50.412  21.571  1.00  0.00    -0.493 OA
ATOM     19  C   UNL     1       3.569  51.453  20.715  1.00  0.00     0.278 C 
ENDBRANCH  13  18
BRANCH  14  20
ATOM     20  O   UNL     1       2.650  48.957  19.271  1.00  0.00    -0.504 OA
ATOM     21  H   UNL     1       2.456  49.210  18.309  1.00  0.00     0.293 HD
ENDBRANCH  14  20
ENDBRANCH   1  12
BRANCH   2  22
ATOM     22  O   UNL     1      -1.905  51.483  22.839  1.00  0.00    -0.502 OA
ATOM     23  H   UNL     1      -2.632  52.173  22.685  1.00  0.00     0.293 HD
ENDBRANCH   2  22
BRANCH   6  24
ATOM     24  O   UNL     1      -5.095  49.991  26.667  1.00  0.00    -0.507 OA
ATOM     25  H   UNL     1      -5.921  50.280  26.155  1.00  0.00     0.293 HD
ENDBRANCH   6  24
BRANCH   8  26
ATOM     26  O   UNL     1      -3.964  45.323  27.118  1.00  0.00    -0.508 OA
ATOM     27  H   UNL     1      -3.303  44.561  27.025  1.00  0.00     0.293 HD
ENDBRANCH   8  26
TORSDOF 6
ENDMDL
MODEL 7
REMARK VINA RESULT:    -4.967      1.740      7.130
REMARK INTER + INTRA:          -6.423
REMARK INTER:                  -6.022
REMARK INTRA:                  -0.401
REMARK UNBOUND:                -0.294
REMARK SMILES COc1cc(-c2oc3cc(O)cc(O)c3c(=O)c2O)ccc1O
REMARK SMILES IDX 6 1 18 2 16 3 17 4 15 5 13 6 12 7 10 8 9 9 8 10 7 11 5 12
REMARK SMILES IDX 3 13 22 14 4 15 21 16 20 17 2 18 1 19 23 20 19 22 14 24
REMARK SMILES IDX 11 26
REMARK H PARENT 23 21 19 23 14 25 11 27
REMARK Flexibility Score: inf
ROOT
ATOM      1  C   UNL     1      -2.542  50.323  24.675  1.00  0.00     0.180 A 
ATOM      2  C   UNL     1      -3.237  50.777  23.538  1.00  0.00     0.208 A 
ATOM      3  C   UNL     1      -2.554  50.865  22.315  1.00  0.00     0.238 A 
ATOM      4  O   UNL     1      -3.169  51.262  21.288  1.00  0.00    -0.285 OA
ATOM      5  C   UNL     1      -1.188  50.519  22.253  1.00  0.00     0.111 A 
ATOM      6  C   UNL     1      -0.426  50.583  21.062  1.00  0.00     0.134 A 
ATOM      7  C   UNL     1       0.931  50.230  21.085  1.00  0.00     0.093 A 
ATOM      8  C   UNL     1       1.540  49.816  22.272  1.00  0.00     0.123 A 
ATOM      9  C   UNL     1       0.792  49.749  23.452  1.00  0.00     0.094 A 
ATOM     10  C   UNL     1      -0.562  50.095  23.450  1.00  0.00     0.146 A 
ATOM     11  O   UNL     1      -1.251  50.019  24.583  1.00  0.00    -0.452 OA
ENDROOT
BRANCH   1  12
ATOM     12  C   UNL     1      -3.199  50.185  25.995  1.00  0.00     0.025 A 
ATOM     13  C   UNL     1      -4.455  48.877  27.636  1.00  0.00     0.161 A 
ATOM     14  C   UNL     1      -4.385  49.950  28.535  1.00  0.00     0.157 A 
ATOM     15  C   UNL     1      -3.853  48.997  26.368  1.00  0.00     0.062 A 
ATOM     16  C   UNL     1      -3.715  51.126  28.174  1.00  0.00     0.051 A 
ATOM     17  C   UNL     1      -3.120  51.240  26.917  1.00  0.00     0.016 A 
BRANCH  13  18
ATOM     18  O   UNL     1      -5.125  47.710  28.039  1.00  0.00    -0.493 OA
ATOM     19  C   UNL     1      -4.642  46.388  27.824  1.00  0.00     0.278 C 
ENDBRANCH  13  18
BRANCH  14  20
ATOM     20  O   UNL     1      -4.981  49.838  29.790  1.00  0.00    -0.504 OA
ATOM     21  H   UNL     1      -5.906  49.440  29.904  1.00  0.00     0.293 HD
ENDBRANCH  14  20
ENDBRANCH   1  12
BRANCH   2  22
ATOM     22  O   UNL     1      -4.577  51.162  23.637  1.00  0.00    -0.502 OA
ATOM     23  H   UNL     1      -5.340  50.525  23.440  1.00  0.00     0.293 HD
ENDBRANCH   2  22
BRANCH   6  24
ATOM     24  O   UNL     1      -1.005  50.994  19.861  1.00  0.00    -0.507 OA
ATOM     25  H   UNL     1      -1.231  50.335  19.125  1.00  0.00     0.293 HD
ENDBRANCH   6  24
BRANCH   8  26
ATOM     26  O   UNL     1       2.890  49.471  22.267  1.00  0.00    -0.508 OA
ATOM     27  H   UNL     1       3.481  49.633  23.074  1.00  0.00     0.293 HD
ENDBRANCH   8  26
TORSDOF 6
ENDMDL
MODEL 8
REMARK VINA RESULT:    -4.937      2.089      6.863
REMARK INTER + INTRA:          -6.386
REMARK INTER:                  -6.557
REMARK INTRA:                   0.171
REMARK UNBOUND:                -0.294
REMARK SMILES COc1cc(-c2oc3cc(O)cc(O)c3c(=O)c2O)ccc1O
REMARK SMILES IDX 6 1 18 2 16 3 17 4 15 5 13 6 12 7 10 8 9 9 8 10 7 11 5 12
REMARK SMILES IDX 3 13 22 14 4 15 21 16 20 17 2 18 1 19 23 20 19 22 14 24
REMARK SMILES IDX 11 26
REMARK H PARENT 23 21 19 23 14 25 11 27
REMARK Flexibility Score: inf
ROOT
ATOM      1  C   UNL     1      -1.281  49.784  24.067  1.00  0.00     0.180 A 
ATOM      2  C   UNL     1       0.078  50.152  24.051  1.00  0.00     0.208 A 
ATOM      3  C   UNL     1       0.869  49.782  22.952  1.00  0.00     0.238 A 
ATOM      4  O   UNL     1       2.085  50.114  22.922  1.00  0.00    -0.285 OA
ATOM      5  C   UNL     1       0.296  49.036  21.901  1.00  0.00     0.111 A 
ATOM      6  C   UNL     1       1.023  48.619  20.760  1.00  0.00     0.134 A 
ATOM      7  C   UNL     1       0.383  47.871  19.762  1.00  0.00     0.093 A 
ATOM      8  C   UNL     1      -0.967  47.532  19.881  1.00  0.00     0.123 A 
ATOM      9  C   UNL     1      -1.692  47.940  21.005  1.00  0.00     0.094 A 
ATOM     10  C   UNL     1      -1.072  48.688  22.011  1.00  0.00     0.146 A 
ATOM     11  O   UNL     1      -1.783  49.069  23.066  1.00  0.00    -0.452 OA
ENDROOT
BRANCH   1  12
ATOM     12  C   UNL     1      -2.182  50.155  25.182  1.00  0.00     0.025 A 
ATOM     13  C   UNL     1      -4.016  49.638  26.716  1.00  0.00     0.161 A 
ATOM     14  C   UNL     1      -3.832  50.879  27.342  1.00  0.00     0.157 A 
ATOM     15  C   UNL     1      -3.181  49.277  25.639  1.00  0.00     0.062 A 
ATOM     16  C   UNL     1      -2.823  51.744  26.903  1.00  0.00     0.051 A 
ATOM     17  C   UNL     1      -1.999  51.382  25.837  1.00  0.00     0.016 A 
BRANCH  13  18
ATOM     18  O   UNL     1      -5.030  48.792  27.192  1.00  0.00    -0.493 OA
ATOM     19  C   UNL     1      -4.804  47.607  27.949  1.00  0.00     0.278 C 
ENDBRANCH  13  18
BRANCH  14  20
ATOM     20  O   UNL     1      -4.657  51.243  28.405  1.00  0.00    -0.504 OA
ATOM     21  H   UNL     1      -4.949  52.203  28.545  1.00  0.00     0.293 HD
ENDBRANCH  14  20
ENDBRANCH   1  12
BRANCH   2  22
ATOM     22  O   UNL     1       0.634  50.848  25.128  1.00  0.00    -0.502 OA
ATOM     23  H   UNL     1       1.051  51.766  25.023  1.00  0.00     0.293 HD
ENDBRANCH   2  22
BRANCH   6  24
ATOM     24  O   UNL     1       2.373  48.942  20.612  1.00  0.00    -0.507 OA
ATOM     25  H   UNL     1       2.682  49.899  20.492  1.00  0.00     0.293 HD
ENDBRANCH   6  24
BRANCH   8  26
ATOM     26  O   UNL     1      -1.579  46.786  18.875  1.00  0.00    -0.508 OA
ATOM     27  H   UNL     1      -1.819  47.199  17.981  1.00  0.00     0.293 HD
ENDBRANCH   8  26
TORSDOF 6
ENDMDL
MODEL 9
REMARK VINA RESULT:    -4.810      1.848      7.216
REMARK INTER + INTRA:          -6.229
REMARK INTER:                  -6.519
REMARK INTRA:                   0.289
REMARK UNBOUND:                -0.294
REMARK SMILES COc1cc(-c2oc3cc(O)cc(O)c3c(=O)c2O)ccc1O
REMARK SMILES IDX 6 1 18 2 16 3 17 4 15 5 13 6 12 7 10 8 9 9 8 10 7 11 5 12
REMARK SMILES IDX 3 13 22 14 4 15 21 16 20 17 2 18 1 19 23 20 19 22 14 24
REMARK SMILES IDX 11 26
REMARK H PARENT 23 21 19 23 14 25 11 27
REMARK Flexibility Score: inf
ROOT
ATOM      1  C   UNL     1      -1.223  49.667  23.288  1.00  0.00     0.180 A 
ATOM      2  C   UNL     1      -1.793  48.741  22.394  1.00  0.00     0.208 A 
ATOM      3  C   UNL     1      -1.082  48.391  21.236  1.00  0.00     0.238 A 
ATOM      4  O   UNL     1      -1.578  47.555  20.432  1.00  0.00    -0.285 OA
ATOM      5  C   UNL     1       0.172  48.985  20.981  1.00  0.00     0.111 A 
ATOM      6  C   UNL     1       0.950  48.691  19.836  1.00  0.00     0.134 A 
ATOM      7  C   UNL     1       2.184  49.332  19.650  1.00  0.00     0.093 A 
ATOM      8  C   UNL     1       2.653  50.259  20.583  1.00  0.00     0.123 A 
ATOM      9  C   UNL     1       1.889  50.554  21.717  1.00  0.00     0.094 A 
ATOM     10  C   UNL     1       0.658  49.924  21.922  1.00  0.00     0.146 A 
ATOM     11  O   UNL     1      -0.046  50.218  23.009  1.00  0.00    -0.452 OA
ENDROOT
BRANCH   1  12
ATOM     12  C   UNL     1      -1.904  50.071  24.540  1.00  0.00     0.025 A 
ATOM     13  C   UNL     1      -3.521  49.656  26.328  1.00  0.00     0.161 A 
ATOM     14  C   UNL     1      -3.129  50.851  26.949  1.00  0.00     0.157 A 
ATOM     15  C   UNL     1      -2.898  49.267  25.125  1.00  0.00     0.062 A 
ATOM     16  C   UNL     1      -2.124  51.642  26.380  1.00  0.00     0.051 A 
ATOM     17  C   UNL     1      -1.510  51.251  25.189  1.00  0.00     0.016 A 
BRANCH  13  18
ATOM     18  O   UNL     1      -4.524  48.885  26.936  1.00  0.00    -0.493 OA
ATOM     19  C   UNL     1      -4.680  47.480  26.759  1.00  0.00     0.278 C 
ENDBRANCH  13  18
BRANCH  14  20
ATOM     20  O   UNL     1      -3.743  51.243  28.137  1.00  0.00    -0.504 OA
ATOM     21  H   UNL     1      -4.721  51.046  28.320  1.00  0.00     0.293 HD
ENDBRANCH  14  20
ENDBRANCH   1  12
BRANCH   2  22
ATOM     22  O   UNL     1      -3.058  48.205  22.644  1.00  0.00    -0.502 OA
ATOM     23  H   UNL     1      -3.681  47.912  21.900  1.00  0.00     0.293 HD
ENDBRANCH   2  22
BRANCH   6  24
ATOM     24  O   UNL     1       0.509  47.771  18.884  1.00  0.00    -0.507 OA
ATOM     25  H   UNL     1       0.420  48.017  17.905  1.00  0.00     0.293 HD
ENDBRANCH   6  24
BRANCH   8  26
ATOM     26  O   UNL     1       3.882  50.882  20.374  1.00  0.00    -0.508 OA
ATOM     27  H   UNL     1       4.032  51.854  20.620  1.00  0.00     0.293 HD
ENDBRANCH   8  26
TORSDOF 6
ENDMDL
