MODEL 1
REMARK VINA RESULT:    -4.644      0.000      0.000
REMARK INTER + INTRA:          -5.300
REMARK INTER:                  -5.051
REMARK INTRA:                  -0.248
REMARK UNBOUND:                -0.248
REMARK SMILES O=C([O-])c1ccccc1O
REMARK SMILES IDX 4 1 9 2 5 3 8 4 6 5 7 6 2 7 1 8 3 9 10 10
REMARK H PARENT 10 11
REMARK Flexibility Score: inf
ROOT
ATOM      1  C   UNL     1      -0.503 -36.004  21.119  1.00  0.00     0.039 A 
ATOM      2  C   UNL     1      -1.088 -37.197  20.633  1.00  0.00     0.124 A 
ATOM      3  C   UNL     1      -1.296 -35.120  21.879  1.00  0.00     0.014 A 
ATOM      4  C   UNL     1      -2.434 -37.480  20.911  1.00  0.00     0.047 A 
ATOM      5  C   UNL     1      -2.634 -35.415  22.149  1.00  0.00     0.001 A 
ATOM      6  C   UNL     1      -3.203 -36.593  21.666  1.00  0.00     0.004 A 
ENDROOT
BRANCH   1   7
ATOM      7  C   UNL     1       0.918 -35.664  20.849  1.00  0.00     0.075 C 
ATOM      8  O   UNL     1       1.349 -35.629  19.665  1.00  0.00    -0.545 OA
ATOM      9  O   UNL     1       1.798 -35.379  21.886  1.00  0.00    -0.545 OA
ENDBRANCH   1   7
BRANCH   2  10
ATOM     10  O   UNL     1      -0.343 -38.101  19.876  1.00  0.00    -0.507 OA
ATOM     11  H   UNL     1       0.422 -38.630  20.278  1.00  0.00     0.293 HD
ENDBRANCH   2  10
TORSDOF 2
ENDMDL
MODEL 2
REMARK VINA RESULT:    -4.540      2.238      3.292
REMARK INTER + INTRA:          -5.187
REMARK INTER:                  -5.027
REMARK INTRA:                  -0.159
REMARK UNBOUND:                -0.248
REMARK SMILES O=C([O-])c1ccccc1O
REMARK SMILES IDX 4 1 9 2 5 3 8 4 6 5 7 6 2 7 1 8 3 9 10 10
REMARK H PARENT 10 11
REMARK Flexibility Score: inf
ROOT
ATOM      1  C   UNL     1      -1.046 -36.084  21.377  1.00  0.00     0.039 A 
ATOM      2  C   UNL     1      -1.218 -37.444  21.027  1.00  0.00     0.124 A 
ATOM      3  C   UNL     1       0.157 -35.440  21.022  1.00  0.00     0.014 A 
ATOM      4  C   UNL     1      -0.200 -38.124  20.341  1.00  0.00     0.047 A 
ATOM      5  C   UNL     1       1.161 -36.128  20.339  1.00  0.00     0.001 A 
ATOM      6  C   UNL     1       0.983 -37.469  19.998  1.00  0.00     0.004 A 
ENDROOT
BRANCH   1   7
ATOM      7  C   UNL     1      -2.097 -35.325  22.104  1.00  0.00     0.075 C 
ATOM      8  O   UNL     1      -3.288 -35.736  22.111  1.00  0.00    -0.545 OA
ATOM      9  O   UNL     1      -1.793 -34.154  22.787  1.00  0.00    -0.545 OA
ENDBRANCH   1   7
BRANCH   2  10
ATOM     10  O   UNL     1      -2.390 -38.124  21.357  1.00  0.00    -0.507 OA
ATOM     11  H   UNL     1      -2.657 -38.292  22.320  1.00  0.00     0.293 HD
ENDBRANCH   2  10
TORSDOF 2
ENDMDL
MODEL 3
REMARK VINA RESULT:    -4.468      1.217      2.181
REMARK INTER + INTRA:          -5.109
REMARK INTER:                  -4.856
REMARK INTRA:                  -0.253
REMARK UNBOUND:                -0.248
REMARK SMILES O=C([O-])c1ccccc1O
REMARK SMILES IDX 4 1 9 2 5 3 8 4 6 5 7 6 2 7 1 8 3 9 10 10
REMARK H PARENT 10 11
REMARK Flexibility Score: inf
ROOT
ATOM      1  C   UNL     1      -0.707 -36.238  21.043  1.00  0.00     0.039 A 
ATOM      2  C   UNL     1      -1.741 -35.562  21.733  1.00  0.00     0.124 A 
ATOM      3  C   UNL     1      -0.989 -37.487  20.455  1.00  0.00     0.014 A 
ATOM      4  C   UNL     1      -3.017 -36.139  21.821  1.00  0.00     0.047 A 
ATOM      5  C   UNL     1      -2.264 -38.050  20.550  1.00  0.00     0.001 A 
ATOM      6  C   UNL     1      -3.277 -37.376  21.232  1.00  0.00     0.004 A 
ENDROOT
BRANCH   1   7
ATOM      7  C   UNL     1       0.659 -35.665  20.925  1.00  0.00     0.075 C 
ATOM      8  O   UNL     1       1.222 -35.590  19.800  1.00  0.00    -0.545 OA
ATOM      9  O   UNL     1       1.342 -35.202  22.043  1.00  0.00    -0.545 OA
ENDBRANCH   1   7
BRANCH   2  10
ATOM     10  O   UNL     1      -1.509 -34.323  22.332  1.00  0.00    -0.507 OA
ATOM     11  H   UNL     1      -2.142 -33.938  23.024  1.00  0.00     0.293 HD
ENDBRANCH   2  10
TORSDOF 2
ENDMDL
MODEL 4
REMARK VINA RESULT:    -4.412      3.269      5.673
REMARK INTER + INTRA:          -5.048
REMARK INTER:                  -4.823
REMARK INTRA:                  -0.224
REMARK UNBOUND:                -0.248
REMARK SMILES O=C([O-])c1ccccc1O
REMARK SMILES IDX 4 1 9 2 5 3 8 4 6 5 7 6 2 7 1 8 3 9 10 10
REMARK H PARENT 10 11
REMARK Flexibility Score: inf
ROOT
ATOM      1  C   UNL     1       3.177 -36.078  21.425  1.00  0.00     0.039 A 
ATOM      2  C   UNL     1       3.619 -35.569  22.669  1.00  0.00     0.124 A 
ATOM      3  C   UNL     1       4.060 -36.871  20.665  1.00  0.00     0.014 A 
ATOM      4  C   UNL     1       4.916 -35.858  23.123  1.00  0.00     0.047 A 
ATOM      5  C   UNL     1       5.347 -37.151  21.129  1.00  0.00     0.001 A 
ATOM      6  C   UNL     1       5.775 -36.645  22.356  1.00  0.00     0.004 A 
ENDROOT
BRANCH   1   7
ATOM      7  C   UNL     1       1.814 -35.797  20.906  1.00  0.00     0.075 C 
ATOM      8  O   UNL     1       1.595 -35.791  19.665  1.00  0.00    -0.545 OA
ATOM      9  O   UNL     1       0.757 -35.536  21.770  1.00  0.00    -0.545 OA
ENDBRANCH   1   7
BRANCH   2  10
ATOM     10  O   UNL     1       2.781 -34.779  23.457  1.00  0.00    -0.507 OA
ATOM     11  H   UNL     1       1.891 -34.439  23.113  1.00  0.00     0.293 HD
ENDBRANCH   2  10
TORSDOF 2
ENDMDL
MODEL 5
REMARK VINA RESULT:    -4.375      2.880      3.568
REMARK INTER + INTRA:          -5.007
REMARK INTER:                  -4.795
REMARK INTRA:                  -0.212
REMARK UNBOUND:                -0.248
REMARK SMILES O=C([O-])c1ccccc1O
REMARK SMILES IDX 4 1 9 2 5 3 8 4 6 5 7 6 2 7 1 8 3 9 10 10
REMARK H PARENT 10 11
REMARK Flexibility Score: inf
ROOT
ATOM      1  C   UNL     1      -1.761 -34.734  22.328  1.00  0.00     0.039 A 
ATOM      2  C   UNL     1      -2.899 -35.544  22.107  1.00  0.00     0.124 A 
ATOM      3  C   UNL     1      -0.533 -35.117  21.751  1.00  0.00     0.014 A 
ATOM      4  C   UNL     1      -2.791 -36.705  21.325  1.00  0.00     0.047 A 
ATOM      5  C   UNL     1      -0.440 -36.274  20.975  1.00  0.00     0.001 A 
ATOM      6  C   UNL     1      -1.566 -37.067  20.762  1.00  0.00     0.004 A 
ENDROOT
BRANCH   1   7
ATOM      7  C   UNL     1      -1.830 -33.497  23.149  1.00  0.00     0.075 C 
ATOM      8  O   UNL     1      -2.913 -32.861  23.251  1.00  0.00    -0.545 OA
ATOM      9  O   UNL     1      -0.710 -33.015  23.817  1.00  0.00    -0.545 OA
ENDBRANCH   1   7
BRANCH   2  10
ATOM     10  O   UNL     1      -4.136 -35.206  22.657  1.00  0.00    -0.507 OA
ATOM     11  H   UNL     1      -4.409 -35.512  23.584  1.00  0.00     0.293 HD
ENDBRANCH   2  10
TORSDOF 2
ENDMDL
MODEL 6
REMARK VINA RESULT:    -4.295      3.732      4.582
REMARK INTER + INTRA:          -4.920
REMARK INTER:                  -4.682
REMARK INTRA:                  -0.238
REMARK UNBOUND:                -0.248
REMARK SMILES O=C([O-])c1ccccc1O
REMARK SMILES IDX 4 1 9 2 5 3 8 4 6 5 7 6 2 7 1 8 3 9 10 10
REMARK H PARENT 10 11
REMARK Flexibility Score: inf
ROOT
ATOM      1  C   UNL     1       3.139 -36.307  20.489  1.00  0.00     0.039 A 
ATOM      2  C   UNL     1       2.137 -37.304  20.433  1.00  0.00     0.124 A 
ATOM      3  C   UNL     1       3.723 -35.865  19.284  1.00  0.00     0.014 A 
ATOM      4  C   UNL     1       1.743 -37.832  19.195  1.00  0.00     0.047 A 
ATOM      5  C   UNL     1       3.320 -36.399  18.058  1.00  0.00     0.001 A 
ATOM      6  C   UNL     1       2.332 -37.381  18.013  1.00  0.00     0.004 A 
ENDROOT
BRANCH   1   7
ATOM      7  C   UNL     1       3.588 -35.720  21.778  1.00  0.00     0.075 C 
ATOM      8  O   UNL     1       2.769 -35.114  22.520  1.00  0.00    -0.545 OA
ATOM      9  O   UNL     1       4.910 -35.824  22.192  1.00  0.00    -0.545 OA
ENDBRANCH   1   7
BRANCH   2  10
ATOM     10  O   UNL     1       1.531 -37.774  21.599  1.00  0.00    -0.507 OA
ATOM     11  H   UNL     1       1.778 -38.669  22.005  1.00  0.00     0.293 HD
ENDBRANCH   2  10
TORSDOF 2
ENDMDL
MODEL 7
REMARK VINA RESULT:    -4.197      2.209      4.063
REMARK INTER + INTRA:          -4.813
REMARK INTER:                  -4.603
REMARK INTRA:                  -0.210
REMARK UNBOUND:                -0.248
REMARK SMILES O=C([O-])c1ccccc1O
REMARK SMILES IDX 4 1 9 2 5 3 8 4 6 5 7 6 2 7 1 8 3 9 10 10
REMARK H PARENT 10 11
REMARK Flexibility Score: inf
ROOT
ATOM      1  C   UNL     1      -1.502 -37.018  20.998  1.00  0.00     0.039 A 
ATOM      2  C   UNL     1      -0.754 -35.868  21.343  1.00  0.00     0.124 A 
ATOM      3  C   UNL     1      -0.828 -38.125  20.445  1.00  0.00     0.014 A 
ATOM      4  C   UNL     1       0.634 -35.847  21.133  1.00  0.00     0.047 A 
ATOM      5  C   UNL     1       0.553 -38.091  20.241  1.00  0.00     0.001 A 
ATOM      6  C   UNL     1       1.283 -36.953  20.585  1.00  0.00     0.004 A 
ENDROOT
BRANCH   1   7
ATOM      7  C   UNL     1      -2.973 -37.084  21.203  1.00  0.00     0.075 C 
ATOM      8  O   UNL     1      -3.671 -37.899  20.543  1.00  0.00    -0.545 OA
ATOM      9  O   UNL     1      -3.607 -36.254  22.120  1.00  0.00    -0.545 OA
ENDBRANCH   1   7
BRANCH   2  10
ATOM     10  O   UNL     1      -1.377 -34.747  21.893  1.00  0.00    -0.507 OA
ATOM     11  H   UNL     1      -0.895 -34.131  22.536  1.00  0.00     0.293 HD
ENDBRANCH   2  10
TORSDOF 2
ENDMDL
MODEL 8
REMARK VINA RESULT:    -4.146      4.206      5.841
REMARK INTER + INTRA:          -4.758
REMARK INTER:                  -4.512
REMARK INTRA:                  -0.246
REMARK UNBOUND:                -0.248
REMARK SMILES O=C([O-])c1ccccc1O
REMARK SMILES IDX 4 1 9 2 5 3 8 4 6 5 7 6 2 7 1 8 3 9 10 10
REMARK H PARENT 10 11
REMARK Flexibility Score: inf
ROOT
ATOM      1  C   UNL     1       3.855 -36.241  20.802  1.00  0.00     0.039 A 
ATOM      2  C   UNL     1       3.704 -35.904  19.437  1.00  0.00     0.124 A 
ATOM      3  C   UNL     1       4.878 -37.139  21.170  1.00  0.00     0.014 A 
ATOM      4  C   UNL     1       4.564 -36.462  18.478  1.00  0.00     0.047 A 
ATOM      5  C   UNL     1       5.727 -37.687  20.206  1.00  0.00     0.001 A 
ATOM      6  C   UNL     1       5.571 -37.349  18.862  1.00  0.00     0.004 A 
ENDROOT
BRANCH   1   7
ATOM      7  C   UNL     1       2.967 -35.674  21.850  1.00  0.00     0.075 C 
ATOM      8  O   UNL     1       1.726 -35.587  21.653  1.00  0.00    -0.545 OA
ATOM      9  O   UNL     1       3.481 -35.231  23.063  1.00  0.00    -0.545 OA
ENDBRANCH   1   7
BRANCH   2  10
ATOM     10  O   UNL     1       2.706 -35.020  19.025  1.00  0.00    -0.507 OA
ATOM     11  H   UNL     1       1.736 -35.304  18.959  1.00  0.00     0.293 HD
ENDBRANCH   2  10
TORSDOF 2
ENDMDL
MODEL 9
REMARK VINA RESULT:    -4.128      2.209      4.748
REMARK INTER + INTRA:          -4.738
REMARK INTER:                  -4.489
REMARK INTRA:                  -0.250
REMARK UNBOUND:                -0.248
REMARK SMILES O=C([O-])c1ccccc1O
REMARK SMILES IDX 4 1 9 2 5 3 8 4 6 5 7 6 2 7 1 8 3 9 10 10
REMARK H PARENT 10 11
REMARK Flexibility Score: inf
ROOT
ATOM      1  C   UNL     1       1.426 -36.557  20.710  1.00  0.00     0.039 A 
ATOM      2  C   UNL     1       2.382 -35.786  21.412  1.00  0.00     0.124 A 
ATOM      3  C   UNL     1       1.859 -37.355  19.631  1.00  0.00     0.014 A 
ATOM      4  C   UNL     1       3.731 -35.826  21.029  1.00  0.00     0.047 A 
ATOM      5  C   UNL     1       3.205 -37.385  19.261  1.00  0.00     0.001 A 
ATOM      6  C   UNL     1       4.140 -36.622  19.958  1.00  0.00     0.004 A 
ENDROOT
BRANCH   1   7
ATOM      7  C   UNL     1      -0.013 -36.546  21.081  1.00  0.00     0.075 C 
ATOM      8  O   UNL     1      -0.603 -35.455  21.303  1.00  0.00    -0.545 OA
ATOM      9  O   UNL     1      -0.735 -37.728  21.191  1.00  0.00    -0.545 OA
ENDBRANCH   1   7
BRANCH   2  10
ATOM     10  O   UNL     1       2.001 -34.981  22.486  1.00  0.00    -0.507 OA
ATOM     11  H   UNL     1       2.683 -34.493  23.055  1.00  0.00     0.293 HD
ENDBRANCH   2  10
TORSDOF 2
ENDMDL
