MODEL 1
REMARK VINA RESULT:    -3.801      0.000      0.000
REMARK INTER + INTRA:          -3.801
REMARK INTER:                  -3.801
REMARK INTRA:                   0.000
REMARK UNBOUND:                 0.000
REMARK SMILES CC1=CC[C@H]2C[C@@H]1C2(C)C
REMARK SMILES IDX 1 1 2 2 3 3 4 4 5 5 6 6 7 7 8 8 9 9 10 10
REMARK H PARENT
REMARK Flexibility Score: inf
ROOT
ATOM      1  C   UNL     1      30.648  12.158  31.103  1.00  0.00     0.039 C 
ATOM      2  C   UNL     1      31.034  10.885  31.795  1.00  0.00    -0.074 C 
ATOM      3  C   UNL     1      30.838   9.668  31.209  1.00  0.00    -0.027 C 
ATOM      4  C   UNL     1      31.231   8.397  31.988  1.00  0.00     0.031 C 
ATOM      5  C   UNL     1      31.857   8.787  33.371  1.00  0.00    -0.000 C 
ATOM      6  C   UNL     1      32.872   9.908  33.071  1.00  0.00     0.013 C 
ATOM      7  C   UNL     1      31.686  10.885  33.186  1.00  0.00     0.021 C 
ATOM      8  C   UNL     1      30.971   9.844  34.088  1.00  0.00    -0.026 C 
ATOM      9  C   UNL     1      29.426   9.714  33.983  1.00  0.00     0.012 C 
ATOM     10  C   UNL     1      31.346  10.006  35.582  1.00  0.00     0.012 C 
ENDROOT
TORSDOF 0
ENDMDL
MODEL 2
REMARK VINA RESULT:    -3.799      1.027      3.075
REMARK INTER + INTRA:          -3.799
REMARK INTER:                  -3.799
REMARK INTRA:                   0.000
REMARK UNBOUND:                 0.000
REMARK SMILES CC1=CC[C@H]2C[C@@H]1C2(C)C
REMARK SMILES IDX 1 1 2 2 3 3 4 4 5 5 6 6 7 7 8 8 9 9 10 10
REMARK H PARENT
REMARK Flexibility Score: inf
ROOT
ATOM      1  C   UNL     1      31.165   6.984  32.587  1.00  0.00     0.039 C 
ATOM      2  C   UNL     1      31.421   8.346  33.159  1.00  0.00    -0.074 C 
ATOM      3  C   UNL     1      31.244   8.606  34.487  1.00  0.00    -0.027 C 
ATOM      4  C   UNL     1      31.497  10.036  35.005  1.00  0.00     0.031 C 
ATOM      5  C   UNL     1      31.979  10.955  33.830  1.00  0.00    -0.000 C 
ATOM      6  C   UNL     1      33.065  10.149  33.086  1.00  0.00     0.013 C 
ATOM      7  C   UNL     1      31.912   9.511  32.287  1.00  0.00     0.021 C 
ATOM      8  C   UNL     1      31.061  10.773  32.589  1.00  0.00    -0.026 C 
ATOM      9  C   UNL     1      29.533  10.596  32.815  1.00  0.00     0.012 C 
ATOM     10  C   UNL     1      31.271  11.890  31.537  1.00  0.00     0.012 C 
ENDROOT
TORSDOF 0
ENDMDL
MODEL 3
REMARK VINA RESULT:    -3.676      0.967      3.287
REMARK INTER + INTRA:          -3.676
REMARK INTER:                  -3.676
REMARK INTRA:                   0.000
REMARK UNBOUND:                 0.000
REMARK SMILES CC1=CC[C@H]2C[C@@H]1C2(C)C
REMARK SMILES IDX 1 1 2 2 3 3 4 4 5 5 6 6 7 7 8 8 9 9 10 10
REMARK H PARENT
REMARK Flexibility Score: inf
ROOT
ATOM      1  C   UNL     1      30.737   9.850  36.334  1.00  0.00     0.039 C 
ATOM      2  C   UNL     1      30.936   9.539  34.881  1.00  0.00    -0.074 C 
ATOM      3  C   UNL     1      31.491   8.361  34.474  1.00  0.00    -0.027 C 
ATOM      4  C   UNL     1      31.695   8.117  32.965  1.00  0.00     0.031 C 
ATOM      5  C   UNL     1      31.147   9.336  32.146  1.00  0.00    -0.000 C 
ATOM      6  C   UNL     1      29.762   9.655  32.744  1.00  0.00     0.013 C 
ATOM      7  C   UNL     1      30.510  10.520  33.777  1.00  0.00     0.021 C 
ATOM      8  C   UNL     1      31.664  10.671  32.752  1.00  0.00    -0.026 C 
ATOM      9  C   UNL     1      33.123  10.730  33.285  1.00  0.00     0.012 C 
ATOM     10  C   UNL     1      31.447  11.871  31.796  1.00  0.00     0.012 C 
ENDROOT
TORSDOF 0
ENDMDL
MODEL 4
REMARK VINA RESULT:    -3.583      0.828      2.712
REMARK INTER + INTRA:          -3.583
REMARK INTER:                  -3.583
REMARK INTRA:                   0.000
REMARK UNBOUND:                 0.000
REMARK SMILES CC1=CC[C@H]2C[C@@H]1C2(C)C
REMARK SMILES IDX 1 1 2 2 3 3 4 4 5 5 6 6 7 7 8 8 9 9 10 10
REMARK H PARENT
REMARK Flexibility Score: inf
ROOT
ATOM      1  C   UNL     1      31.244   7.446  31.052  1.00  0.00     0.039 C 
ATOM      2  C   UNL     1      30.878   8.683  31.816  1.00  0.00    -0.074 C 
ATOM      3  C   UNL     1      30.556   9.846  31.179  1.00  0.00    -0.027 C 
ATOM      4  C   UNL     1      30.218  11.089  32.026  1.00  0.00     0.031 C 
ATOM      5  C   UNL     1      30.275  10.731  33.551  1.00  0.00    -0.000 C 
ATOM      6  C   UNL     1      29.502   9.404  33.700  1.00  0.00     0.013 C 
ATOM      7  C   UNL     1      30.829   8.700  33.352  1.00  0.00     0.021 C 
ATOM      8  C   UNL     1      31.581   9.952  33.876  1.00  0.00    -0.026 C 
ATOM      9  C   UNL     1      32.895  10.376  33.162  1.00  0.00     0.012 C 
ATOM     10  C   UNL     1      31.855   9.879  35.398  1.00  0.00     0.012 C 
ENDROOT
TORSDOF 0
ENDMDL
MODEL 5
REMARK VINA RESULT:    -3.569      4.846      6.413
REMARK INTER + INTRA:          -3.569
REMARK INTER:                  -3.569
REMARK INTRA:                   0.000
REMARK UNBOUND:                 0.000
REMARK SMILES CC1=CC[C@H]2C[C@@H]1C2(C)C
REMARK SMILES IDX 1 1 2 2 3 3 4 4 5 5 6 6 7 7 8 8 9 9 10 10
REMARK H PARENT
REMARK Flexibility Score: inf
ROOT
ATOM      1  C   UNL     1      30.977   9.393  25.497  1.00  0.00     0.039 C 
ATOM      2  C   UNL     1      30.381   8.247  26.258  1.00  0.00    -0.074 C 
ATOM      3  C   UNL     1      29.042   7.990  26.226  1.00  0.00    -0.027 C 
ATOM      4  C   UNL     1      28.491   6.813  27.056  1.00  0.00     0.031 C 
ATOM      5  C   UNL     1      29.666   6.073  27.783  1.00  0.00    -0.000 C 
ATOM      6  C   UNL     1      30.764   5.880  26.718  1.00  0.00     0.013 C 
ATOM      7  C   UNL     1      31.248   7.294  27.095  1.00  0.00     0.021 C 
ATOM      8  C   UNL     1      30.596   7.099  28.489  1.00  0.00    -0.026 C 
ATOM      9  C   UNL     1      29.953   8.332  29.183  1.00  0.00     0.012 C 
ATOM     10  C   UNL     1      31.557   6.420  29.498  1.00  0.00     0.012 C 
ENDROOT
TORSDOF 0
ENDMDL
MODEL 6
REMARK VINA RESULT:    -3.555      1.140      2.396
REMARK INTER + INTRA:          -3.555
REMARK INTER:                  -3.555
REMARK INTRA:                   0.000
REMARK UNBOUND:                 0.000
REMARK SMILES CC1=CC[C@H]2C[C@@H]1C2(C)C
REMARK SMILES IDX 1 1 2 2 3 3 4 4 5 5 6 6 7 7 8 8 9 9 10 10
REMARK H PARENT
REMARK Flexibility Score: inf
ROOT
ATOM      1  C   UNL     1      28.584  11.151  32.647  1.00  0.00     0.039 C 
ATOM      2  C   UNL     1      30.018  10.749  32.819  1.00  0.00    -0.074 C 
ATOM      3  C   UNL     1      31.031  11.450  32.233  1.00  0.00    -0.027 C 
ATOM      4  C   UNL     1      32.481  10.964  32.427  1.00  0.00     0.031 C 
ATOM      5  C   UNL     1      32.504   9.702  33.357  1.00  0.00    -0.000 C 
ATOM      6  C   UNL     1      31.589  10.044  34.550  1.00  0.00     0.013 C 
ATOM      7  C   UNL     1      30.421   9.540  33.679  1.00  0.00     0.021 C 
ATOM      8  C   UNL     1      31.438   8.670  32.894  1.00  0.00    -0.026 C 
ATOM      9  C   UNL     1      31.213   8.465  31.370  1.00  0.00     0.012 C 
ATOM     10  C   UNL     1      31.647   7.280  33.546  1.00  0.00     0.012 C 
ENDROOT
TORSDOF 0
ENDMDL
MODEL 7
REMARK VINA RESULT:    -3.447      1.208      3.426
REMARK INTER + INTRA:          -3.447
REMARK INTER:                  -3.447
REMARK INTRA:                   0.000
REMARK UNBOUND:                 0.000
REMARK SMILES CC1=CC[C@H]2C[C@@H]1C2(C)C
REMARK SMILES IDX 1 1 2 2 3 3 4 4 5 5 6 6 7 7 8 8 9 9 10 10
REMARK H PARENT
REMARK Flexibility Score: inf
ROOT
ATOM      1  C   UNL     1      29.156   8.555  35.584  1.00  0.00     0.039 C 
ATOM      2  C   UNL     1      30.268   8.975  34.670  1.00  0.00    -0.074 C 
ATOM      3  C   UNL     1      31.192   9.903  35.052  1.00  0.00    -0.027 C 
ATOM      4  C   UNL     1      32.293  10.311  34.051  1.00  0.00     0.031 C 
ATOM      5  C   UNL     1      32.142   9.491  32.724  1.00  0.00    -0.000 C 
ATOM      6  C   UNL     1      31.933   8.026  33.159  1.00  0.00     0.013 C 
ATOM      7  C   UNL     1      30.435   8.369  33.268  1.00  0.00     0.021 C 
ATOM      8  C   UNL     1      30.665   9.509  32.241  1.00  0.00    -0.026 C 
ATOM      9  C   UNL     1      29.848  10.822  32.399  1.00  0.00     0.012 C 
ATOM     10  C   UNL     1      30.522   9.020  30.778  1.00  0.00     0.012 C 
ENDROOT
TORSDOF 0
ENDMDL
MODEL 8
REMARK VINA RESULT:    -3.426      1.696      3.969
REMARK INTER + INTRA:          -3.426
REMARK INTER:                  -3.426
REMARK INTRA:                   0.000
REMARK UNBOUND:                 0.000
REMARK SMILES CC1=CC[C@H]2C[C@@H]1C2(C)C
REMARK SMILES IDX 1 1 2 2 3 3 4 4 5 5 6 6 7 7 8 8 9 9 10 10
REMARK H PARENT
REMARK Flexibility Score: inf
ROOT
ATOM      1  C   UNL     1      31.451   6.631  36.550  1.00  0.00     0.039 C 
ATOM      2  C   UNL     1      30.882   7.722  35.692  1.00  0.00    -0.074 C 
ATOM      3  C   UNL     1      29.630   7.629  35.158  1.00  0.00    -0.027 C 
ATOM      4  C   UNL     1      29.118   8.774  34.261  1.00  0.00     0.031 C 
ATOM      5  C   UNL     1      30.195   9.909  34.172  1.00  0.00    -0.000 C 
ATOM      6  C   UNL     1      30.667  10.153  35.620  1.00  0.00     0.013 C 
ATOM      7  C   UNL     1      31.670   9.005  35.387  1.00  0.00     0.021 C 
ATOM      8  C   UNL     1      31.594   9.305  33.867  1.00  0.00    -0.026 C 
ATOM      9  C   UNL     1      31.688   8.112  32.874  1.00  0.00     0.012 C 
ATOM     10  C   UNL     1      32.615  10.384  33.429  1.00  0.00     0.012 C 
ENDROOT
TORSDOF 0
ENDMDL
