MODEL 1
REMARK VINA RESULT:    -3.053      0.000      0.000
REMARK INTER + INTRA:          -3.712
REMARK INTER:                  -3.589
REMARK INTRA:                  -0.123
REMARK UNBOUND:                -0.123
REMARK SMILES O=C([O-])CCC(=O)[O-]
REMARK SMILES IDX 4 1 2 2 1 3 3 4 5 5 6 6 7 7 8 8
REMARK H PARENT
REMARK Flexibility Score: inf
ROOT
ATOM      1  C   UNL     1       3.946  12.864  12.124  1.00  0.00     0.059 C 
ENDROOT
BRANCH   1   2
ATOM      2  C   UNL     1       4.727  12.138  11.071  1.00  0.00     0.042 C 
ATOM      3  O   UNL     1       4.333  12.142   9.875  1.00  0.00    -0.550 OA
ATOM      4  O   UNL     1       5.911  11.492  11.404  1.00  0.00    -0.550 OA
ENDBRANCH   1   2
BRANCH   1   5
ATOM      5  C   UNL     1       4.864  13.471  13.190  1.00  0.00     0.059 C 
BRANCH   5   6
ATOM      6  C   UNL     1       4.693  12.795  14.515  1.00  0.00     0.042 C 
ATOM      7  O   UNL     1       4.430  13.472  15.544  1.00  0.00    -0.550 OA
ATOM      8  O   UNL     1       4.864  11.421  14.622  1.00  0.00    -0.550 OA
ENDBRANCH   5   6
ENDBRANCH   1   5
TORSDOF 3
ENDMDL
MODEL 2
REMARK VINA RESULT:    -3.019      1.440      1.693
REMARK INTER + INTRA:          -3.671
REMARK INTER:                  -3.550
REMARK INTRA:                  -0.121
REMARK UNBOUND:                -0.123
REMARK SMILES O=C([O-])CCC(=O)[O-]
REMARK SMILES IDX 4 1 2 2 1 3 3 4 5 5 6 6 7 7 8 8
REMARK H PARENT
REMARK Flexibility Score: inf
ROOT
ATOM      1  C   UNL     1       5.414  12.688  12.654  1.00  0.00     0.059 C 
ENDROOT
BRANCH   1   2
ATOM      2  C   UNL     1       4.161  12.507  11.854  1.00  0.00     0.042 C 
ATOM      3  O   UNL     1       3.036  12.555  12.419  1.00  0.00    -0.550 OA
ATOM      4  O   UNL     1       4.232  12.325  10.478  1.00  0.00    -0.550 OA
ENDBRANCH   1   2
BRANCH   1   5
ATOM      5  C   UNL     1       5.356  13.954  13.516  1.00  0.00     0.059 C 
BRANCH   5   6
ATOM      6  C   UNL     1       5.381  13.627  14.977  1.00  0.00     0.042 C 
ATOM      7  O   UNL     1       5.886  14.437  15.799  1.00  0.00    -0.550 OA
ATOM      8  O   UNL     1       4.883  12.411  15.427  1.00  0.00    -0.550 OA
ENDBRANCH   5   6
ENDBRANCH   1   5
TORSDOF 3
ENDMDL
MODEL 3
REMARK VINA RESULT:    -3.015      2.012      2.953
REMARK INTER + INTRA:          -3.666
REMARK INTER:                  -3.541
REMARK INTRA:                  -0.125
REMARK UNBOUND:                -0.123
REMARK SMILES O=C([O-])CCC(=O)[O-]
REMARK SMILES IDX 4 1 2 2 1 3 3 4 5 5 6 6 7 7 8 8
REMARK H PARENT
REMARK Flexibility Score: inf
ROOT
ATOM      1  C   UNL     1       4.962  13.330  12.922  1.00  0.00     0.059 C 
ENDROOT
BRANCH   1   2
ATOM      2  C   UNL     1       3.943  12.627  12.078  1.00  0.00     0.042 C 
ATOM      3  O   UNL     1       2.864  12.227  12.590  1.00  0.00    -0.550 OA
ATOM      4  O   UNL     1       4.166  12.450  10.718  1.00  0.00    -0.550 OA
ENDBRANCH   1   2
BRANCH   1   5
ATOM      5  C   UNL     1       6.068  12.375  13.382  1.00  0.00     0.059 C 
BRANCH   5   6
ATOM      6  C   UNL     1       7.283  12.479  12.512  1.00  0.00     0.042 C 
ATOM      7  O   UNL     1       8.140  13.378  12.723  1.00  0.00    -0.550 OA
ATOM      8  O   UNL     1       7.450  11.609  11.443  1.00  0.00    -0.550 OA
ENDBRANCH   5   6
ENDBRANCH   1   5
TORSDOF 3
ENDMDL
MODEL 4
REMARK VINA RESULT:    -3.006      1.514      3.891
REMARK INTER + INTRA:          -3.656
REMARK INTER:                  -3.536
REMARK INTRA:                  -0.120
REMARK UNBOUND:                -0.123
REMARK SMILES O=C([O-])CCC(=O)[O-]
REMARK SMILES IDX 4 1 2 2 1 3 3 4 5 5 6 6 7 7 8 8
REMARK H PARENT
REMARK Flexibility Score: inf
ROOT
ATOM      1  C   UNL     1       5.371  13.939  13.550  1.00  0.00     0.059 C 
ENDROOT
BRANCH   1   2
ATOM      2  C   UNL     1       5.532  13.591  14.999  1.00  0.00     0.042 C 
ATOM      3  O   UNL     1       4.703  12.827  15.562  1.00  0.00    -0.550 OA
ATOM      4  O   UNL     1       6.617  14.077  15.716  1.00  0.00    -0.550 OA
ENDBRANCH   1   2
BRANCH   1   5
ATOM      5  C   UNL     1       5.432  12.694  12.660  1.00  0.00     0.059 C 
BRANCH   5   6
ATOM      6  C   UNL     1       4.160  12.503  11.892  1.00  0.00     0.042 C 
ATOM      7  O   UNL     1       3.059  12.423  12.498  1.00  0.00    -0.550 OA
ATOM      8  O   UNL     1       4.195  12.375  10.510  1.00  0.00    -0.550 OA
ENDBRANCH   5   6
ENDBRANCH   1   5
TORSDOF 3
ENDMDL
MODEL 5
REMARK VINA RESULT:    -2.983      0.273      3.962
REMARK INTER + INTRA:          -3.629
REMARK INTER:                  -3.505
REMARK INTRA:                  -0.124
REMARK UNBOUND:                -0.123
REMARK SMILES O=C([O-])CCC(=O)[O-]
REMARK SMILES IDX 4 1 2 2 1 3 3 4 5 5 6 6 7 7 8 8
REMARK H PARENT
REMARK Flexibility Score: inf
ROOT
ATOM      1  C   UNL     1       5.104  13.505  13.238  1.00  0.00     0.059 C 
ENDROOT
BRANCH   1   2
ATOM      2  C   UNL     1       4.952  12.931  14.614  1.00  0.00     0.042 C 
ATOM      3  O   UNL     1       5.029  11.687  14.793  1.00  0.00    -0.550 OA
ATOM      4  O   UNL     1       4.765  13.773  15.703  1.00  0.00    -0.550 OA
ENDBRANCH   1   2
BRANCH   1   5
ATOM      5  C   UNL     1       4.121  12.868  12.250  1.00  0.00     0.059 C 
BRANCH   5   6
ATOM      6  C   UNL     1       4.835  12.091  11.186  1.00  0.00     0.042 C 
ATOM      7  O   UNL     1       5.870  11.432  11.469  1.00  0.00    -0.550 OA
ATOM      8  O   UNL     1       4.379  12.127   9.875  1.00  0.00    -0.550 OA
ENDBRANCH   5   6
ENDBRANCH   1   5
TORSDOF 3
ENDMDL
MODEL 6
REMARK VINA RESULT:    -2.944      1.557      3.642
REMARK INTER + INTRA:          -3.584
REMARK INTER:                  -3.487
REMARK INTRA:                  -0.097
REMARK UNBOUND:                -0.123
REMARK SMILES O=C([O-])CCC(=O)[O-]
REMARK SMILES IDX 4 1 2 2 1 3 3 4 5 5 6 6 7 7 8 8
REMARK H PARENT
REMARK Flexibility Score: inf
ROOT
ATOM      1  C   UNL     1       4.703  12.625  13.460  1.00  0.00     0.059 C 
ENDROOT
BRANCH   1   2
ATOM      2  C   UNL     1       5.942  13.456  13.605  1.00  0.00     0.042 C 
ATOM      3  O   UNL     1       5.967  14.416  14.419  1.00  0.00    -0.550 OA
ATOM      4  O   UNL     1       7.079  13.145  12.871  1.00  0.00    -0.550 OA
ENDBRANCH   1   2
BRANCH   1   5
ATOM      5  C   UNL     1       4.003  12.886  12.123  1.00  0.00     0.059 C 
BRANCH   5   6
ATOM      6  C   UNL     1       4.365  11.854  11.100  1.00  0.00     0.042 C 
ATOM      7  O   UNL     1       4.368  12.148   9.875  1.00  0.00    -0.550 OA
ATOM      8  O   UNL     1       4.659  10.556  11.496  1.00  0.00    -0.550 OA
ENDBRANCH   5   6
ENDBRANCH   1   5
TORSDOF 3
ENDMDL
MODEL 7
REMARK VINA RESULT:    -2.934      2.181      3.286
REMARK INTER + INTRA:          -3.571
REMARK INTER:                  -3.381
REMARK INTRA:                  -0.191
REMARK UNBOUND:                -0.123
REMARK SMILES O=C([O-])CCC(=O)[O-]
REMARK SMILES IDX 4 1 2 2 1 3 3 4 5 5 6 6 7 7 8 8
REMARK H PARENT
REMARK Flexibility Score: inf
ROOT
ATOM      1  C   UNL     1       4.378  12.139  10.747  1.00  0.00     0.059 C 
ENDROOT
BRANCH   1   2
ATOM      2  C   UNL     1       3.992  12.641  12.105  1.00  0.00     0.042 C 
ATOM      3  O   UNL     1       2.918  12.258  12.640  1.00  0.00    -0.550 OA
ATOM      4  O   UNL     1       4.836  13.501  12.796  1.00  0.00    -0.550 OA
ENDBRANCH   1   2
BRANCH   1   5
ATOM      5  C   UNL     1       5.718  11.396  10.781  1.00  0.00     0.059 C 
BRANCH   5   6
ATOM      6  C   UNL     1       5.670  10.215  11.700  1.00  0.00     0.042 C 
ATOM      7  O   UNL     1       6.510  10.101  12.631  1.00  0.00    -0.550 OA
ATOM      8  O   UNL     1       4.721   9.220  11.505  1.00  0.00    -0.550 OA
ENDBRANCH   5   6
ENDBRANCH   1   5
TORSDOF 3
ENDMDL
MODEL 8
REMARK VINA RESULT:    -2.929      2.383      3.382
REMARK INTER + INTRA:          -3.566
REMARK INTER:                  -3.458
REMARK INTRA:                  -0.108
REMARK UNBOUND:                -0.123
REMARK SMILES O=C([O-])CCC(=O)[O-]
REMARK SMILES IDX 4 1 2 2 1 3 3 4 5 5 6 6 7 7 8 8
REMARK H PARENT
REMARK Flexibility Score: inf
ROOT
ATOM      1  C   UNL     1       6.275  12.551  13.636  1.00  0.00     0.059 C 
ENDROOT
BRANCH   1   2
ATOM      2  C   UNL     1       7.617  13.051  13.197  1.00  0.00     0.042 C 
ATOM      3  O   UNL     1       8.119  12.651  12.113  1.00  0.00    -0.550 OA
ATOM      4  O   UNL     1       8.296  13.989  13.964  1.00  0.00    -0.550 OA
ENDBRANCH   1   2
BRANCH   1   5
ATOM      5  C   UNL     1       5.143  13.448  13.125  1.00  0.00     0.059 C 
BRANCH   5   6
ATOM      6  C   UNL     1       4.241  12.714  12.181  1.00  0.00     0.042 C 
ATOM      7  O   UNL     1       3.039  12.499  12.490  1.00  0.00    -0.550 OA
ATOM      8  O   UNL     1       4.739  12.232  10.978  1.00  0.00    -0.550 OA
ENDBRANCH   5   6
ENDBRANCH   1   5
TORSDOF 3
ENDMDL
MODEL 9
REMARK VINA RESULT:    -2.913      1.565      2.070
REMARK INTER + INTRA:          -3.547
REMARK INTER:                  -3.427
REMARK INTRA:                  -0.120
REMARK UNBOUND:                -0.123
REMARK SMILES O=C([O-])CCC(=O)[O-]
REMARK SMILES IDX 4 1 2 2 1 3 3 4 5 5 6 6 7 7 8 8
REMARK H PARENT
REMARK Flexibility Score: inf
ROOT
ATOM      1  C   UNL     1       4.360  12.157  10.894  1.00  0.00     0.059 C 
ENDROOT
BRANCH   1   2
ATOM      2  C   UNL     1       4.259  10.665  11.000  1.00  0.00     0.042 C 
ATOM      3  O   UNL     1       5.290   9.975  11.214  1.00  0.00    -0.550 OA
ATOM      4  O   UNL     1       3.022  10.042  10.902  1.00  0.00    -0.550 OA
ENDBRANCH   1   2
BRANCH   1   5
ATOM      5  C   UNL     1       3.678  12.853  12.076  1.00  0.00     0.059 C 
BRANCH   5   6
ATOM      6  C   UNL     1       4.623  13.048  13.222  1.00  0.00     0.042 C 
ATOM      7  O   UNL     1       5.318  14.095  13.300  1.00  0.00    -0.550 OA
ATOM      8  O   UNL     1       4.766  12.054  14.181  1.00  0.00    -0.550 OA
ENDBRANCH   5   6
ENDBRANCH   1   5
TORSDOF 3
ENDMDL
