MODEL 1
REMARK VINA RESULT:    -3.881      0.000      0.000
REMARK INTER + INTRA:          -7.390
REMARK INTER:                  -6.150
REMARK INTRA:                  -1.241
REMARK UNBOUND:                -1.241
REMARK SMILES CCCCCCCCCCCC(=O)[O-]
REMARK SMILES IDX 7 1 8 2 9 3 10 4 11 5 12 6 13 7 14 8 6 9 5 10 4 11 3 12 2 13
REMARK SMILES IDX 1 14
REMARK H PARENT
REMARK Flexibility Score: inf
ROOT
ATOM      1  C   UNL     1       5.272   0.658  -5.066  1.00  0.00     0.000 C 
ENDROOT
BRANCH   1   2
ATOM      2  C   UNL     1       6.134  -0.592  -5.301  1.00  0.00     0.000 C 
BRANCH   2   3
ATOM      3  C   UNL     1       5.588  -1.420  -6.475  1.00  0.00     0.000 C 
BRANCH   3   4
ATOM      4  C   UNL     1       6.282  -2.785  -6.610  1.00  0.00     0.006 C 
BRANCH   4   5
ATOM      5  C   UNL     1       5.873  -3.768  -5.505  1.00  0.00     0.053 C 
BRANCH   5   6
ATOM      6  C   UNL     1       7.047  -4.594  -5.082  1.00  0.00     0.041 C 
ATOM      7  O   UNL     1       7.086  -5.095  -3.928  1.00  0.00    -0.550 OA
ATOM      8  O   UNL     1       8.075  -4.852  -5.981  1.00  0.00    -0.550 OA
ENDBRANCH   5   6
ENDBRANCH   4   5
ENDBRANCH   3   4
ENDBRANCH   2   3
ENDBRANCH   1   2
BRANCH   1   9
ATOM      9  C   UNL     1       4.130   0.791  -6.088  1.00  0.00     0.000 C 
BRANCH   9  10
ATOM     10  C   UNL     1       4.075   2.181  -6.738  1.00  0.00    -0.000 C 
BRANCH  10  11
ATOM     11  C   UNL     1       5.479   2.647  -7.154  1.00  0.00    -0.000 C 
BRANCH  11  12
ATOM     12  C   UNL     1       6.007   1.905  -8.392  1.00  0.00    -0.000 C 
BRANCH  12  13
ATOM     13  C   UNL     1       7.453   1.420  -8.218  1.00  0.00    -0.003 C 
ATOM     14  C   UNL     1       8.110   2.069  -7.004  1.00  0.00     0.004 C 
ENDBRANCH  12  13
ENDBRANCH  11  12
ENDBRANCH  10  11
ENDBRANCH   9  10
ENDBRANCH   1   9
TORSDOF 10
ENDMDL
MODEL 2
REMARK VINA RESULT:    -3.854      1.499      2.046
REMARK INTER + INTRA:          -7.348
REMARK INTER:                  -5.996
REMARK INTRA:                  -1.352
REMARK UNBOUND:                -1.241
REMARK SMILES CCCCCCCCCCCC(=O)[O-]
REMARK SMILES IDX 7 1 8 2 9 3 10 4 11 5 12 6 13 7 14 8 6 9 5 10 4 11 3 12 2 13
REMARK SMILES IDX 1 14
REMARK H PARENT
REMARK Flexibility Score: inf
ROOT
ATOM      1  C   UNL     1       4.834  -0.083  -5.214  1.00  0.00     0.000 C 
ENDROOT
BRANCH   1   2
ATOM      2  C   UNL     1       6.299  -0.163  -5.669  1.00  0.00     0.000 C 
BRANCH   2   3
ATOM      3  C   UNL     1       6.653  -1.586  -6.127  1.00  0.00     0.000 C 
BRANCH   3   4
ATOM      4  C   UNL     1       5.629  -2.632  -5.657  1.00  0.00     0.006 C 
BRANCH   4   5
ATOM      5  C   UNL     1       5.945  -4.042  -6.172  1.00  0.00     0.053 C 
BRANCH   5   6
ATOM      6  C   UNL     1       7.040  -4.660  -5.362  1.00  0.00     0.041 C 
ATOM      7  O   UNL     1       6.900  -4.813  -4.120  1.00  0.00    -0.550 OA
ATOM      8  O   UNL     1       8.197  -5.111  -5.986  1.00  0.00    -0.550 OA
ENDBRANCH   5   6
ENDBRANCH   4   5
ENDBRANCH   3   4
ENDBRANCH   2   3
ENDBRANCH   1   2
BRANCH   1   9
ATOM      9  C   UNL     1       3.978   0.811  -6.126  1.00  0.00     0.000 C 
BRANCH   9  10
ATOM     10  C   UNL     1       4.824   1.729  -7.021  1.00  0.00    -0.000 C 
BRANCH  10  11
ATOM     11  C   UNL     1       4.240   1.800  -8.440  1.00  0.00    -0.000 C 
BRANCH  11  12
ATOM     12  C   UNL     1       3.869   0.418  -8.999  1.00  0.00    -0.000 C 
BRANCH  12  13
ATOM     13  C   UNL     1       5.100  -0.419  -9.373  1.00  0.00    -0.003 C 
ATOM     14  C   UNL     1       4.807  -1.912  -9.259  1.00  0.00     0.004 C 
ENDBRANCH  12  13
ENDBRANCH  11  12
ENDBRANCH  10  11
ENDBRANCH   9  10
ENDBRANCH   1   9
TORSDOF 10
ENDMDL
MODEL 3
REMARK VINA RESULT:    -3.746      0.735      1.116
REMARK INTER + INTRA:          -7.177
REMARK INTER:                  -6.019
REMARK INTRA:                  -1.158
REMARK UNBOUND:                -1.241
REMARK SMILES CCCCCCCCCCCC(=O)[O-]
REMARK SMILES IDX 7 1 8 2 9 3 10 4 11 5 12 6 13 7 14 8 6 9 5 10 4 11 3 12 2 13
REMARK SMILES IDX 1 14
REMARK H PARENT
REMARK Flexibility Score: inf
ROOT
ATOM      1  C   UNL     1       5.238   0.335  -5.056  1.00  0.00     0.000 C 
ENDROOT
BRANCH   1   2
ATOM      2  C   UNL     1       6.301  -0.581  -5.682  1.00  0.00     0.000 C 
BRANCH   2   3
ATOM      3  C   UNL     1       5.743  -1.300  -6.920  1.00  0.00     0.000 C 
BRANCH   3   4
ATOM      4  C   UNL     1       5.925  -2.824  -6.853  1.00  0.00     0.006 C 
BRANCH   4   5
ATOM      5  C   UNL     1       5.970  -3.351  -5.413  1.00  0.00     0.053 C 
BRANCH   5   6
ATOM      6  C   UNL     1       6.654  -4.681  -5.366  1.00  0.00     0.041 C 
ATOM      7  O   UNL     1       6.784  -5.365  -6.415  1.00  0.00    -0.550 OA
ATOM      8  O   UNL     1       7.192  -5.143  -4.171  1.00  0.00    -0.550 OA
ENDBRANCH   5   6
ENDBRANCH   4   5
ENDBRANCH   3   4
ENDBRANCH   2   3
ENDBRANCH   1   2
BRANCH   1   9
ATOM      9  C   UNL     1       4.099   0.674  -6.032  1.00  0.00     0.000 C 
BRANCH   9  10
ATOM     10  C   UNL     1       4.109   2.147  -6.467  1.00  0.00    -0.000 C 
BRANCH  10  11
ATOM     11  C   UNL     1       4.151   2.266  -7.998  1.00  0.00    -0.000 C 
BRANCH  11  12
ATOM     12  C   UNL     1       5.431   2.947  -8.506  1.00  0.00    -0.000 C 
BRANCH  12  13
ATOM     13  C   UNL     1       6.675   2.061  -8.347  1.00  0.00    -0.003 C 
ATOM     14  C   UNL     1       7.625   2.628  -7.297  1.00  0.00     0.004 C 
ENDBRANCH  12  13
ENDBRANCH  11  12
ENDBRANCH  10  11
ENDBRANCH   9  10
ENDBRANCH   1   9
TORSDOF 10
ENDMDL
MODEL 4
REMARK VINA RESULT:    -3.746      1.328      2.635
REMARK INTER + INTRA:          -7.176
REMARK INTER:                  -5.956
REMARK INTRA:                  -1.220
REMARK UNBOUND:                -1.241
REMARK SMILES CCCCCCCCCCCC(=O)[O-]
REMARK SMILES IDX 7 1 8 2 9 3 10 4 11 5 12 6 13 7 14 8 6 9 5 10 4 11 3 12 2 13
REMARK SMILES IDX 1 14
REMARK H PARENT
REMARK Flexibility Score: inf
ROOT
ATOM      1  C   UNL     1       5.683  -1.461  -9.296  1.00  0.00     0.000 C 
ENDROOT
BRANCH   1   2
ATOM      2  C   UNL     1       5.630  -2.418  -8.095  1.00  0.00     0.000 C 
BRANCH   2   3
ATOM      3  C   UNL     1       6.794  -2.149  -7.129  1.00  0.00     0.000 C 
BRANCH   3   4
ATOM      4  C   UNL     1       6.470  -2.555  -5.682  1.00  0.00     0.006 C 
BRANCH   4   5
ATOM      5  C   UNL     1       6.024  -4.018  -5.565  1.00  0.00     0.053 C 
BRANCH   5   6
ATOM      6  C   UNL     1       7.148  -4.867  -5.062  1.00  0.00     0.041 C 
ATOM      7  O   UNL     1       7.150  -5.275  -3.871  1.00  0.00    -0.550 OA
ATOM      8  O   UNL     1       8.169  -5.250  -5.924  1.00  0.00    -0.550 OA
ENDBRANCH   5   6
ENDBRANCH   4   5
ENDBRANCH   3   4
ENDBRANCH   2   3
ENDBRANCH   1   2
BRANCH   1   9
ATOM      9  C   UNL     1       4.665  -0.315  -9.186  1.00  0.00     0.000 C 
BRANCH   9  10
ATOM     10  C   UNL     1       5.332   1.058  -9.016  1.00  0.00    -0.000 C 
BRANCH  10  11
ATOM     11  C   UNL     1       5.377   1.466  -7.535  1.00  0.00    -0.000 C 
BRANCH  11  12
ATOM     12  C   UNL     1       4.085   1.110  -6.783  1.00  0.00    -0.000 C 
BRANCH  12  13
ATOM     13  C   UNL     1       4.345   0.269  -5.525  1.00  0.00    -0.003 C 
ATOM     14  C   UNL     1       5.487   0.853  -4.699  1.00  0.00     0.004 C 
ENDBRANCH  12  13
ENDBRANCH  11  12
ENDBRANCH  10  11
ENDBRANCH   9  10
ENDBRANCH   1   9
TORSDOF 10
ENDMDL
MODEL 5
REMARK VINA RESULT:    -3.716      1.453      2.763
REMARK INTER + INTRA:          -7.130
REMARK INTER:                  -5.998
REMARK INTRA:                  -1.132
REMARK UNBOUND:                -1.241
REMARK SMILES CCCCCCCCCCCC(=O)[O-]
REMARK SMILES IDX 7 1 8 2 9 3 10 4 11 5 12 6 13 7 14 8 6 9 5 10 4 11 3 12 2 13
REMARK SMILES IDX 1 14
REMARK H PARENT
REMARK Flexibility Score: inf
ROOT
ATOM      1  C   UNL     1       6.968  -1.234  -7.702  1.00  0.00     0.000 C 
ENDROOT
BRANCH   1   2
ATOM      2  C   UNL     1       5.684  -2.075  -7.760  1.00  0.00     0.000 C 
BRANCH   2   3
ATOM      3  C   UNL     1       6.004  -3.572  -7.621  1.00  0.00     0.000 C 
BRANCH   3   4
ATOM      4  C   UNL     1       5.576  -4.146  -6.261  1.00  0.00     0.006 C 
BRANCH   4   5
ATOM      5  C   UNL     1       6.709  -4.122  -5.227  1.00  0.00     0.053 C 
BRANCH   5   6
ATOM      6  C   UNL     1       7.300  -5.487  -5.069  1.00  0.00     0.041 C 
ATOM      7  O   UNL     1       7.502  -5.961  -3.920  1.00  0.00    -0.550 OA
ATOM      8  O   UNL     1       7.582  -6.257  -6.191  1.00  0.00    -0.550 OA
ENDBRANCH   5   6
ENDBRANCH   4   5
ENDBRANCH   3   4
ENDBRANCH   2   3
ENDBRANCH   1   2
BRANCH   1   9
ATOM      9  C   UNL     1       7.034  -0.339  -6.454  1.00  0.00     0.000 C 
BRANCH   9  10
ATOM     10  C   UNL     1       5.864  -0.579  -5.488  1.00  0.00    -0.000 C 
BRANCH  10  11
ATOM     11  C   UNL     1       5.377   0.743  -4.877  1.00  0.00    -0.000 C 
BRANCH  11  12
ATOM     12  C   UNL     1       5.049   1.803  -5.941  1.00  0.00    -0.000 C 
BRANCH  12  13
ATOM     13  C   UNL     1       3.794   1.457  -6.754  1.00  0.00    -0.003 C 
ATOM     14  C   UNL     1       4.122   1.301  -8.235  1.00  0.00     0.004 C 
ENDBRANCH  12  13
ENDBRANCH  11  12
ENDBRANCH  10  11
ENDBRANCH   9  10
ENDBRANCH   1   9
TORSDOF 10
ENDMDL
MODEL 6
REMARK VINA RESULT:    -3.399      3.445      5.904
REMARK INTER + INTRA:          -6.627
REMARK INTER:                  -5.412
REMARK INTRA:                  -1.214
REMARK UNBOUND:                -1.241
REMARK SMILES CCCCCCCCCCCC(=O)[O-]
REMARK SMILES IDX 7 1 8 2 9 3 10 4 11 5 12 6 13 7 14 8 6 9 5 10 4 11 3 12 2 13
REMARK SMILES IDX 1 14
REMARK H PARENT
REMARK Flexibility Score: inf
ROOT
ATOM      1  C   UNL     1       7.040  -0.256  -6.597  1.00  0.00     0.000 C 
ENDROOT
BRANCH   1   2
ATOM      2  C   UNL     1       6.071  -0.663  -5.476  1.00  0.00     0.000 C 
BRANCH   2   3
ATOM      3  C   UNL     1       5.213   0.533  -5.034  1.00  0.00     0.000 C 
BRANCH   3   4
ATOM      4  C   UNL     1       4.167   0.933  -6.086  1.00  0.00     0.006 C 
BRANCH   4   5
ATOM      5  C   UNL     1       4.371   2.361  -6.609  1.00  0.00     0.053 C 
BRANCH   5   6
ATOM      6  C   UNL     1       4.714   2.339  -8.065  1.00  0.00     0.041 C 
ATOM      7  O   UNL     1       3.809   2.182  -8.927  1.00  0.00    -0.550 OA
ATOM      8  O   UNL     1       6.027   2.540  -8.473  1.00  0.00    -0.550 OA
ENDBRANCH   5   6
ENDBRANCH   4   5
ENDBRANCH   3   4
ENDBRANCH   2   3
ENDBRANCH   1   2
BRANCH   1   9
ATOM      9  C   UNL     1       6.748  -0.978  -7.923  1.00  0.00     0.000 C 
BRANCH   9  10
ATOM     10  C   UNL     1       5.600  -1.992  -7.806  1.00  0.00    -0.000 C 
BRANCH  10  11
ATOM     11  C   UNL     1       6.003  -3.347  -8.409  1.00  0.00    -0.000 C 
BRANCH  11  12
ATOM     12  C   UNL     1       6.595  -4.307  -7.366  1.00  0.00    -0.000 C 
BRANCH  12  13
ATOM     13  C   UNL     1       5.833  -4.275  -6.033  1.00  0.00    -0.003 C 
ATOM     14  C   UNL     1       6.789  -4.391  -4.849  1.00  0.00     0.004 C 
ENDBRANCH  12  13
ENDBRANCH  11  12
ENDBRANCH  10  11
ENDBRANCH   9  10
ENDBRANCH   1   9
TORSDOF 10
ENDMDL
MODEL 7
REMARK VINA RESULT:    -3.334      1.948      3.583
REMARK INTER + INTRA:          -6.523
REMARK INTER:                  -5.190
REMARK INTRA:                  -1.333
REMARK UNBOUND:                -1.241
REMARK SMILES CCCCCCCCCCCC(=O)[O-]
REMARK SMILES IDX 7 1 8 2 9 3 10 4 11 5 12 6 13 7 14 8 6 9 5 10 4 11 3 12 2 13
REMARK SMILES IDX 1 14
REMARK H PARENT
REMARK Flexibility Score: inf
ROOT
ATOM      1  C   UNL     1       6.242  -1.654  -9.610  1.00  0.00     0.000 C 
ENDROOT
BRANCH   1   2
ATOM      2  C   UNL     1       5.105  -2.687  -9.575  1.00  0.00     0.000 C 
BRANCH   2   3
ATOM      3  C   UNL     1       5.635  -4.071  -9.172  1.00  0.00     0.000 C 
BRANCH   3   4
ATOM      4  C   UNL     1       5.690  -4.264  -7.648  1.00  0.00     0.006 C 
BRANCH   4   5
ATOM      5  C   UNL     1       7.099  -4.606  -7.146  1.00  0.00     0.053 C 
BRANCH   5   6
ATOM      6  C   UNL     1       7.061  -4.969  -5.695  1.00  0.00     0.041 C 
ATOM      7  O   UNL     1       7.962  -5.696  -5.200  1.00  0.00    -0.550 OA
ATOM      8  O   UNL     1       6.056  -4.465  -4.878  1.00  0.00    -0.550 OA
ENDBRANCH   5   6
ENDBRANCH   4   5
ENDBRANCH   3   4
ENDBRANCH   2   3
ENDBRANCH   1   2
BRANCH   1   9
ATOM      9  C   UNL     1       6.165  -0.649  -8.449  1.00  0.00     0.000 C 
BRANCH   9  10
ATOM     10  C   UNL     1       7.301  -0.831  -7.431  1.00  0.00    -0.000 C 
BRANCH  10  11
ATOM     11  C   UNL     1       6.742  -0.997  -6.010  1.00  0.00    -0.000 C 
BRANCH  11  12
ATOM     12  C   UNL     1       5.214  -1.162  -5.990  1.00  0.00    -0.000 C 
BRANCH  12  13
ATOM     13  C   UNL     1       4.512  -0.076  -5.163  1.00  0.00    -0.003 C 
ATOM     14  C   UNL     1       5.513   0.948  -4.637  1.00  0.00     0.004 C 
ENDBRANCH  12  13
ENDBRANCH  11  12
ENDBRANCH  10  11
ENDBRANCH   9  10
ENDBRANCH   1   9
TORSDOF 10
ENDMDL
MODEL 8
REMARK VINA RESULT:    -3.303      1.632      2.926
REMARK INTER + INTRA:          -6.475
REMARK INTER:                  -4.880
REMARK INTRA:                  -1.595
REMARK UNBOUND:                -1.241
REMARK SMILES CCCCCCCCCCCC(=O)[O-]
REMARK SMILES IDX 7 1 8 2 9 3 10 4 11 5 12 6 13 7 14 8 6 9 5 10 4 11 3 12 2 13
REMARK SMILES IDX 1 14
REMARK H PARENT
REMARK Flexibility Score: inf
ROOT
ATOM      1  C   UNL     1       5.819   0.679  -9.310  1.00  0.00     0.000 C 
ENDROOT
BRANCH   1   2
ATOM      2  C   UNL     1       4.596  -0.196  -9.622  1.00  0.00     0.000 C 
BRANCH   2   3
ATOM      3  C   UNL     1       4.787  -1.620  -9.076  1.00  0.00     0.000 C 
BRANCH   3   4
ATOM      4  C   UNL     1       6.065  -1.765  -8.234  1.00  0.00     0.006 C 
BRANCH   4   5
ATOM      5  C   UNL     1       5.927  -2.819  -7.128  1.00  0.00     0.053 C 
BRANCH   5   6
ATOM      6  C   UNL     1       7.217  -2.966  -6.384  1.00  0.00     0.041 C 
ATOM      7  O   UNL     1       7.275  -2.692  -5.156  1.00  0.00    -0.550 OA
ATOM      8  O   UNL     1       8.344  -3.452  -7.036  1.00  0.00    -0.550 OA
ENDBRANCH   5   6
ENDBRANCH   4   5
ENDBRANCH   3   4
ENDBRANCH   2   3
ENDBRANCH   1   2
BRANCH   1   9
ATOM      9  C   UNL     1       5.435   2.103  -8.878  1.00  0.00     0.000 C 
BRANCH   9  10
ATOM     10  C   UNL     1       4.039   2.173  -8.240  1.00  0.00    -0.000 C 
BRANCH  10  11
ATOM     11  C   UNL     1       4.136   2.131  -6.707  1.00  0.00    -0.000 C 
BRANCH  11  12
ATOM     12  C   UNL     1       3.886   0.728  -6.135  1.00  0.00    -0.000 C 
BRANCH  12  13
ATOM     13  C   UNL     1       4.955   0.305  -5.116  1.00  0.00    -0.003 C 
ATOM     14  C   UNL     1       6.353   0.681  -5.597  1.00  0.00     0.004 C 
ENDBRANCH  12  13
ENDBRANCH  11  12
ENDBRANCH  10  11
ENDBRANCH   9  10
ENDBRANCH   1   9
TORSDOF 10
ENDMDL
MODEL 9
REMARK VINA RESULT:    -3.221      2.708      5.713
REMARK INTER + INTRA:          -6.345
REMARK INTER:                  -5.342
REMARK INTRA:                  -1.003
REMARK UNBOUND:                -1.241
REMARK SMILES CCCCCCCCCCCC(=O)[O-]
REMARK SMILES IDX 7 1 8 2 9 3 10 4 11 5 12 6 13 7 14 8 6 9 5 10 4 11 3 12 2 13
REMARK SMILES IDX 1 14
REMARK H PARENT
REMARK Flexibility Score: inf
ROOT
ATOM      1  C   UNL     1       7.348  -0.143  -7.962  1.00  0.00     0.000 C 
ENDROOT
BRANCH   1   2
ATOM      2  C   UNL     1       8.157   0.790  -7.049  1.00  0.00     0.000 C 
BRANCH   2   3
ATOM      3  C   UNL     1       7.503   2.179  -6.968  1.00  0.00     0.000 C 
BRANCH   3   4
ATOM      4  C   UNL     1       6.072   2.193  -7.527  1.00  0.00     0.006 C 
BRANCH   4   5
ATOM      5  C   UNL     1       5.023   2.524  -6.458  1.00  0.00     0.053 C 
BRANCH   5   6
ATOM      6  C   UNL     1       4.709   1.310  -5.642  1.00  0.00     0.041 C 
ATOM      7  O   UNL     1       3.907   0.444  -6.079  1.00  0.00    -0.550 OA
ATOM      8  O   UNL     1       5.341   1.111  -4.421  1.00  0.00    -0.550 OA
ENDBRANCH   5   6
ENDBRANCH   4   5
ENDBRANCH   3   4
ENDBRANCH   2   3
ENDBRANCH   1   2
BRANCH   1   9
ATOM      9  C   UNL     1       7.416  -1.613  -7.516  1.00  0.00     0.000 C 
BRANCH   9  10
ATOM     10  C   UNL     1       7.172  -1.788  -6.009  1.00  0.00    -0.000 C 
BRANCH  10  11
ATOM     11  C   UNL     1       5.763  -2.339  -5.743  1.00  0.00    -0.000 C 
BRANCH  11  12
ATOM     12  C   UNL     1       5.706  -3.873  -5.805  1.00  0.00    -0.000 C 
BRANCH  12  13
ATOM     13  C   UNL     1       6.751  -4.541  -4.900  1.00  0.00    -0.003 C 
ATOM     14  C   UNL     1       7.562  -5.580  -5.668  1.00  0.00     0.004 C 
ENDBRANCH  12  13
ENDBRANCH  11  12
ENDBRANCH  10  11
ENDBRANCH   9  10
ENDBRANCH   1   9
TORSDOF 10
ENDMDL
