MODEL 1
REMARK VINA RESULT:    -3.336      0.000      0.000
REMARK INTER + INTRA:          -4.980
REMARK INTER:                  -4.409
REMARK INTRA:                  -0.571
REMARK UNBOUND:                -0.571
REMARK SMILES C=C[C@H](O)CCCCC
REMARK SMILES IDX 6 1 7 2 8 3 9 4 5 5 3 6 2 7 1 8 4 9
REMARK H PARENT 4 10
REMARK Flexibility Score: inf
ROOT
ATOM      1  C   UNL     1     129.051 139.959 137.555  1.00  0.00     0.003 C 
ENDROOT
BRANCH   1   2
ATOM      2  C   UNL     1     129.325 138.811 136.572  1.00  0.00    -0.000 C 
BRANCH   2   3
ATOM      3  C   UNL     1     129.651 137.514 137.320  1.00  0.00    -0.003 C 
ATOM      4  C   UNL     1     130.989 136.936 136.865  1.00  0.00     0.004 C 
ENDBRANCH   2   3
ENDBRANCH   1   2
BRANCH   1   5
ATOM      5  C   UNL     1     130.027 139.968 138.745  1.00  0.00     0.036 C 
BRANCH   5   6
ATOM      6  C   UNL     1     131.160 141.010 138.606  1.00  0.00     0.136 C 
BRANCH   6   7
ATOM      7  C   UNL     1     132.409 140.379 138.036  1.00  0.00    -0.004 C 
ATOM      8  C   UNL     1     132.701 140.452 136.734  1.00  0.00     0.007 C 
ENDBRANCH   6   7
BRANCH   6   9
ATOM      9  O   UNL     1     131.447 141.611 139.845  1.00  0.00    -0.389 OA
ATOM     10  H   UNL     1     132.369 141.980 139.795  1.00  0.00     0.211 HD
ENDBRANCH   6   9
ENDBRANCH   5   6
ENDBRANCH   1   5
TORSDOF 6
ENDMDL
MODEL 2
REMARK VINA RESULT:    -3.274      2.096      3.777
REMARK INTER + INTRA:          -4.898
REMARK INTER:                  -4.340
REMARK INTRA:                  -0.558
REMARK UNBOUND:                -0.571
REMARK SMILES C=C[C@H](O)CCCCC
REMARK SMILES IDX 6 1 7 2 8 3 9 4 5 5 3 6 2 7 1 8 4 9
REMARK H PARENT 4 10
REMARK Flexibility Score: inf
ROOT
ATOM      1  C   UNL     1     129.826 139.324 138.667  1.00  0.00     0.003 C 
ENDROOT
BRANCH   1   2
ATOM      2  C   UNL     1     130.435 140.729 138.549  1.00  0.00    -0.000 C 
BRANCH   2   3
ATOM      3  C   UNL     1     131.954 140.653 138.360  1.00  0.00    -0.003 C 
ATOM      4  C   UNL     1     132.312 140.228 136.937  1.00  0.00     0.004 C 
ENDBRANCH   2   3
ENDBRANCH   1   2
BRANCH   1   5
ATOM      5  C   UNL     1     128.875 138.989 137.504  1.00  0.00     0.036 C 
BRANCH   5   6
ATOM      6  C   UNL     1     129.307 137.747 136.691  1.00  0.00     0.136 C 
BRANCH   6   7
ATOM      7  C   UNL     1     130.387 136.976 137.414  1.00  0.00    -0.004 C 
ATOM      8  C   UNL     1     131.524 136.622 136.804  1.00  0.00     0.007 C 
ENDBRANCH   6   7
BRANCH   6   9
ATOM      9  O   UNL     1     129.753 138.113 135.409  1.00  0.00    -0.389 OA
ATOM     10  H   UNL     1     130.604 137.631 135.237  1.00  0.00     0.211 HD
ENDBRANCH   6   9
ENDBRANCH   5   6
ENDBRANCH   1   5
TORSDOF 6
ENDMDL
MODEL 3
REMARK VINA RESULT:    -3.254     14.107     15.114
REMARK INTER + INTRA:          -4.871
REMARK INTER:                  -4.491
REMARK INTRA:                  -0.381
REMARK UNBOUND:                -0.571
REMARK SMILES C=C[C@H](O)CCCCC
REMARK SMILES IDX 6 1 7 2 8 3 9 4 5 5 3 6 2 7 1 8 4 9
REMARK H PARENT 4 10
REMARK Flexibility Score: inf
ROOT
ATOM      1  C   UNL     1     138.539 134.899 147.812  1.00  0.00     0.003 C 
ENDROOT
BRANCH   1   2
ATOM      2  C   UNL     1     139.860 134.445 148.454  1.00  0.00    -0.000 C 
BRANCH   2   3
ATOM      3  C   UNL     1     140.485 135.575 149.277  1.00  0.00    -0.003 C 
ATOM      4  C   UNL     1     140.604 135.185 150.749  1.00  0.00     0.004 C 
ENDBRANCH   2   3
ENDBRANCH   1   2
BRANCH   1   5
ATOM      5  C   UNL     1     137.348 134.816 148.782  1.00  0.00     0.036 C 
BRANCH   5   6
ATOM      6  C   UNL     1     137.357 133.548 149.665  1.00  0.00     0.136 C 
BRANCH   6   7
ATOM      7  C   UNL     1     136.343 132.540 149.176  1.00  0.00    -0.004 C 
ATOM      8  C   UNL     1     135.563 132.786 148.118  1.00  0.00     0.007 C 
ENDBRANCH   6   7
BRANCH   6   9
ATOM      9  O   UNL     1     137.106 133.868 151.012  1.00  0.00    -0.389 OA
ATOM     10  H   UNL     1     136.236 134.347 151.050  1.00  0.00     0.211 HD
ENDBRANCH   6   9
ENDBRANCH   5   6
ENDBRANCH   1   5
TORSDOF 6
ENDMDL
MODEL 4
REMARK VINA RESULT:    -3.228     14.115     15.096
REMARK INTER + INTRA:          -4.837
REMARK INTER:                  -4.549
REMARK INTRA:                  -0.288
REMARK UNBOUND:                -0.571
REMARK SMILES C=C[C@H](O)CCCCC
REMARK SMILES IDX 6 1 7 2 8 3 9 4 5 5 3 6 2 7 1 8 4 9
REMARK H PARENT 4 10
REMARK Flexibility Score: inf
ROOT
ATOM      1  C   UNL     1     137.325 134.889 148.587  1.00  0.00     0.003 C 
ENDROOT
BRANCH   1   2
ATOM      2  C   UNL     1     138.220 134.803 149.833  1.00  0.00    -0.000 C 
BRANCH   2   3
ATOM      3  C   UNL     1     139.702 134.895 149.450  1.00  0.00    -0.003 C 
ATOM      4  C   UNL     1     140.564 135.241 150.662  1.00  0.00     0.004 C 
ENDBRANCH   2   3
ENDBRANCH   1   2
BRANCH   1   5
ATOM      5  C   UNL     1     137.055 133.513 147.953  1.00  0.00     0.036 C 
BRANCH   5   6
ATOM      6  C   UNL     1     135.815 132.798 148.533  1.00  0.00     0.136 C 
BRANCH   6   7
ATOM      7  C   UNL     1     136.218 131.603 149.365  1.00  0.00    -0.004 C 
ATOM      8  C   UNL     1     136.146 131.621 150.700  1.00  0.00     0.007 C 
ENDBRANCH   6   7
BRANCH   6   9
ATOM      9  O   UNL     1     134.937 132.397 147.510  1.00  0.00    -0.389 OA
ATOM     10  H   UNL     1     135.179 132.904 146.690  1.00  0.00     0.211 HD
ENDBRANCH   6   9
ENDBRANCH   5   6
ENDBRANCH   1   5
TORSDOF 6
ENDMDL
MODEL 5
REMARK VINA RESULT:    -3.226     14.249     15.406
REMARK INTER + INTRA:          -4.834
REMARK INTER:                  -4.411
REMARK INTRA:                  -0.424
REMARK UNBOUND:                -0.571
REMARK SMILES C=C[C@H](O)CCCCC
REMARK SMILES IDX 6 1 7 2 8 3 9 4 5 5 3 6 2 7 1 8 4 9
REMARK H PARENT 4 10
REMARK Flexibility Score: inf
ROOT
ATOM      1  C   UNL     1     140.550 135.191 150.113  1.00  0.00     0.003 C 
ENDROOT
BRANCH   1   2
ATOM      2  C   UNL     1     141.294 136.285 149.332  1.00  0.00    -0.000 C 
BRANCH   2   3
ATOM      3  C   UNL     1     141.639 135.810 147.916  1.00  0.00    -0.003 C 
ATOM      4  C   UNL     1     143.147 135.645 147.742  1.00  0.00     0.004 C 
ENDBRANCH   2   3
ENDBRANCH   1   2
BRANCH   1   5
ATOM      5  C   UNL     1     139.676 134.305 149.208  1.00  0.00     0.036 C 
BRANCH   5   6
ATOM      6  C   UNL     1     138.178 134.321 149.589  1.00  0.00     0.136 C 
BRANCH   6   7
ATOM      7  C   UNL     1     137.348 134.954 148.496  1.00  0.00    -0.004 C 
ATOM      8  C   UNL     1     137.841 135.159 147.270  1.00  0.00     0.007 C 
ENDBRANCH   6   7
BRANCH   6   9
ATOM      9  O   UNL     1     137.973 135.000 150.803  1.00  0.00    -0.389 OA
ATOM     10  H   UNL     1     137.149 135.548 150.706  1.00  0.00     0.211 HD
ENDBRANCH   6   9
ENDBRANCH   5   6
ENDBRANCH   1   5
TORSDOF 6
ENDMDL
MODEL 6
REMARK VINA RESULT:    -3.221      2.254      3.487
REMARK INTER + INTRA:          -4.828
REMARK INTER:                  -4.229
REMARK INTRA:                  -0.598
REMARK UNBOUND:                -0.571
REMARK SMILES C=C[C@H](O)CCCCC
REMARK SMILES IDX 6 1 7 2 8 3 9 4 5 5 3 6 2 7 1 8 4 9
REMARK H PARENT 4 10
REMARK Flexibility Score: inf
ROOT
ATOM      1  C   UNL     1     129.153 137.754 137.812  1.00  0.00     0.003 C 
ENDROOT
BRANCH   1   2
ATOM      2  C   UNL     1     129.291 138.832 138.899  1.00  0.00    -0.000 C 
BRANCH   2   3
ATOM      3  C   UNL     1     129.590 140.201 138.278  1.00  0.00    -0.003 C 
ATOM      4  C   UNL     1     130.753 140.887 138.991  1.00  0.00     0.004 C 
ENDBRANCH   2   3
ENDBRANCH   1   2
BRANCH   1   5
ATOM      5  C   UNL     1     130.479 137.029 137.524  1.00  0.00     0.036 C 
BRANCH   5   6
ATOM      6  C   UNL     1     131.159 137.483 136.212  1.00  0.00     0.136 C 
BRANCH   6   7
ATOM      7  C   UNL     1     132.271 138.467 136.491  1.00  0.00    -0.004 C 
ATOM      8  C   UNL     1     132.378 139.616 135.815  1.00  0.00     0.007 C 
ENDBRANCH   6   7
BRANCH   6   9
ATOM      9  O   UNL     1     130.223 138.052 135.329  1.00  0.00    -0.389 OA
ATOM     10  H   UNL     1     130.051 138.982 135.632  1.00  0.00     0.211 HD
ENDBRANCH   6   9
ENDBRANCH   5   6
ENDBRANCH   1   5
TORSDOF 6
ENDMDL
MODEL 7
REMARK VINA RESULT:    -3.213     14.136     14.721
REMARK INTER + INTRA:          -4.818
REMARK INTER:                  -4.588
REMARK INTRA:                  -0.229
REMARK UNBOUND:                -0.571
REMARK SMILES C=C[C@H](O)CCCCC
REMARK SMILES IDX 6 1 7 2 8 3 9 4 5 5 3 6 2 7 1 8 4 9
REMARK H PARENT 4 10
REMARK Flexibility Score: inf
ROOT
ATOM      1  C   UNL     1     136.372 133.953 148.683  1.00  0.00     0.003 C 
ENDROOT
BRANCH   1   2
ATOM      2  C   UNL     1     136.075 132.667 147.896  1.00  0.00    -0.000 C 
BRANCH   2   3
ATOM      3  C   UNL     1     135.675 131.528 148.839  1.00  0.00    -0.003 C 
ATOM      4  C   UNL     1     136.203 131.769 150.251  1.00  0.00     0.004 C 
ENDBRANCH   2   3
ENDBRANCH   1   2
BRANCH   1   5
ATOM      5  C   UNL     1     137.715 134.594 148.291  1.00  0.00     0.036 C 
BRANCH   5   6
ATOM      6  C   UNL     1     138.483 135.197 149.489  1.00  0.00     0.136 C 
BRANCH   6   7
ATOM      7  C   UNL     1     139.918 134.722 149.506  1.00  0.00    -0.004 C 
ATOM      8  C   UNL     1     140.820 135.244 150.344  1.00  0.00     0.007 C 
ENDBRANCH   6   7
BRANCH   6   9
ATOM      9  O   UNL     1     137.856 134.876 150.706  1.00  0.00    -0.389 OA
ATOM     10  H   UNL     1     138.428 134.212 151.174  1.00  0.00     0.211 HD
ENDBRANCH   6   9
ENDBRANCH   5   6
ENDBRANCH   1   5
TORSDOF 6
ENDMDL
MODEL 8
REMARK VINA RESULT:    -3.124      1.698      3.327
REMARK INTER + INTRA:          -4.699
REMARK INTER:                  -4.072
REMARK INTRA:                  -0.627
REMARK UNBOUND:                -0.571
REMARK SMILES C=C[C@H](O)CCCCC
REMARK SMILES IDX 6 1 7 2 8 3 9 4 5 5 3 6 2 7 1 8 4 9
REMARK H PARENT 4 10
REMARK Flexibility Score: inf
ROOT
ATOM      1  C   UNL     1     131.182 140.815 138.109  1.00  0.00     0.003 C 
ENDROOT
BRANCH   1   2
ATOM      2  C   UNL     1     132.494 140.089 137.770  1.00  0.00    -0.000 C 
BRANCH   2   3
ATOM      3  C   UNL     1     132.352 139.273 136.481  1.00  0.00    -0.003 C 
ATOM      4  C   UNL     1     132.870 137.850 136.669  1.00  0.00     0.004 C 
ENDBRANCH   2   3
ENDBRANCH   1   2
BRANCH   1   5
ATOM      5  C   UNL     1     130.157 139.897 138.798  1.00  0.00     0.036 C 
BRANCH   5   6
ATOM      6  C   UNL     1     128.929 139.573 137.917  1.00  0.00     0.136 C 
BRANCH   6   7
ATOM      7  C   UNL     1     128.945 138.127 137.477  1.00  0.00    -0.004 C 
ATOM      8  C   UNL     1     129.514 137.173 138.221  1.00  0.00     0.007 C 
ENDBRANCH   6   7
BRANCH   6   9
ATOM      9  O   UNL     1     128.876 140.417 136.794  1.00  0.00    -0.389 OA
ATOM     10  H   UNL     1     129.603 141.087 136.885  1.00  0.00     0.211 HD
ENDBRANCH   6   9
ENDBRANCH   5   6
ENDBRANCH   1   5
TORSDOF 6
ENDMDL
MODEL 9
REMARK VINA RESULT:    -3.119     14.816     15.841
REMARK INTER + INTRA:          -4.693
REMARK INTER:                  -4.496
REMARK INTRA:                  -0.197
REMARK UNBOUND:                -0.571
REMARK SMILES C=C[C@H](O)CCCCC
REMARK SMILES IDX 6 1 7 2 8 3 9 4 5 5 3 6 2 7 1 8 4 9
REMARK H PARENT 4 10
REMARK Flexibility Score: inf
ROOT
ATOM      1  C   UNL     1     140.720 135.438 148.912  1.00  0.00     0.003 C 
ENDROOT
BRANCH   1   2
ATOM      2  C   UNL     1     140.077 135.176 150.283  1.00  0.00    -0.000 C 
BRANCH   2   3
ATOM      3  C   UNL     1     138.598 134.804 150.132  1.00  0.00    -0.003 C 
ATOM      4  C   UNL     1     138.092 135.114 148.725  1.00  0.00     0.004 C 
ENDBRANCH   2   3
ENDBRANCH   1   2
BRANCH   1   5
ATOM      5  C   UNL     1     141.656 136.659 148.918  1.00  0.00     0.036 C 
BRANCH   5   6
ATOM      6  C   UNL     1     142.598 136.721 147.694  1.00  0.00     0.136 C 
BRANCH   6   7
ATOM      7  C   UNL     1     143.501 135.511 147.644  1.00  0.00    -0.004 C 
ATOM      8  C   UNL     1     144.649 135.521 146.958  1.00  0.00     0.007 C 
ENDBRANCH   6   7
BRANCH   6   9
ATOM      9  O   UNL     1     143.369 137.897 147.710  1.00  0.00    -0.389 OA
ATOM     10  H   UNL     1     144.218 137.707 147.230  1.00  0.00     0.211 HD
ENDBRANCH   6   9
ENDBRANCH   5   6
ENDBRANCH   1   5
TORSDOF 6
ENDMDL
