MODEL 1
REMARK VINA RESULT:    -3.974      0.000      0.000
REMARK INTER + INTRA:          -4.549
REMARK INTER:                  -4.439
REMARK INTRA:                  -0.110
REMARK UNBOUND:                -0.110
REMARK SMILES COc1cc2ccc(=O)oc2cc1OC
REMARK SMILES IDX 3 1 13 2 12 3 11 4 5 5 4 6 6 7 7 8 8 9 9 10 10 11 2 12 1 13
REMARK SMILES IDX 14 14 15 15
REMARK H PARENT
REMARK Flexibility Score: inf
ROOT
ATOM      1  C   UNL     1      12.821  12.507  -1.817  1.00  0.00     0.161 A 
ATOM      2  C   UNL     1      12.493  13.792  -2.280  1.00  0.00     0.164 A 
ATOM      3  C   UNL     1      13.480  14.797  -2.314  1.00  0.00     0.098 A 
ATOM      4  C   UNL     1      14.782  14.525  -1.891  1.00  0.00     0.142 A 
ATOM      5  C   UNL     1      15.113  13.235  -1.427  1.00  0.00     0.022 A 
ATOM      6  C   UNL     1      14.136  12.232  -1.391  1.00  0.00     0.062 A 
ATOM      7  C   UNL     1      16.426  12.992  -1.010  1.00  0.00     0.019 A 
ATOM      8  C   UNL     1      17.363  14.024  -1.064  1.00  0.00     0.094 A 
ATOM      9  C   UNL     1      16.962  15.278  -1.537  1.00  0.00     0.336 A 
ATOM     10  O   UNL     1      17.793  16.223  -1.594  1.00  0.00    -0.246 OA
ATOM     11  O   UNL     1      15.707  15.481  -1.927  1.00  0.00    -0.423 OA
ENDROOT
BRANCH   1  12
ATOM     12  O   UNL     1      11.813  11.530  -1.797  1.00  0.00    -0.493 OA
ATOM     13  C   UNL     1      11.769  10.434  -0.890  1.00  0.00     0.278 C 
ENDBRANCH   1  12
BRANCH   2  14
ATOM     14  O   UNL     1      11.173  14.031  -2.697  1.00  0.00    -0.493 OA
ATOM     15  C   UNL     1      10.815  14.772  -3.860  1.00  0.00     0.278 C 
ENDBRANCH   2  14
TORSDOF 2
ENDMDL
MODEL 2
REMARK VINA RESULT:    -3.861     11.563     13.232
REMARK INTER + INTRA:          -4.422
REMARK INTER:                  -4.264
REMARK INTRA:                  -0.158
REMARK UNBOUND:                -0.110
REMARK SMILES COc1cc2ccc(=O)oc2cc1OC
REMARK SMILES IDX 3 1 13 2 12 3 11 4 5 5 4 6 6 7 7 8 8 9 9 10 10 11 2 12 1 13
REMARK SMILES IDX 14 14 15 15
REMARK H PARENT
REMARK Flexibility Score: inf
ROOT
ATOM      1  C   UNL     1       3.394  12.989   7.718  1.00  0.00     0.161 A 
ATOM      2  C   UNL     1       4.100  14.204   7.683  1.00  0.00     0.164 A 
ATOM      3  C   UNL     1       5.509  14.195   7.671  1.00  0.00     0.098 A 
ATOM      4  C   UNL     1       6.209  12.987   7.694  1.00  0.00     0.142 A 
ATOM      5  C   UNL     1       5.502  11.767   7.729  1.00  0.00     0.022 A 
ATOM      6  C   UNL     1       4.101  11.770   7.741  1.00  0.00     0.062 A 
ATOM      7  C   UNL     1       6.231  10.574   7.751  1.00  0.00     0.019 A 
ATOM      8  C   UNL     1       7.625  10.623   7.739  1.00  0.00     0.094 A 
ATOM      9  C   UNL     1       8.258  11.869   7.703  1.00  0.00     0.336 A 
ATOM     10  O   UNL     1       9.515  11.936   7.691  1.00  0.00    -0.246 OA
ATOM     11  O   UNL     1       7.540  12.989   7.683  1.00  0.00    -0.423 OA
ENDROOT
BRANCH   1  12
ATOM     12  O   UNL     1       1.991  13.035   7.730  1.00  0.00    -0.493 OA
ATOM     13  C   UNL     1       1.165  12.742   6.609  1.00  0.00     0.278 C 
ENDBRANCH   1  12
BRANCH   2  14
ATOM     14  O   UNL     1       3.364  15.399   7.661  1.00  0.00    -0.493 OA
ATOM     15  C   UNL     1       3.285  16.279   6.543  1.00  0.00     0.278 C 
ENDBRANCH   2  14
TORSDOF 2
ENDMDL
MODEL 3
REMARK VINA RESULT:    -3.801      1.995      3.260
REMARK INTER + INTRA:          -4.355
REMARK INTER:                  -4.242
REMARK INTRA:                  -0.113
REMARK UNBOUND:                -0.110
REMARK SMILES COc1cc2ccc(=O)oc2cc1OC
REMARK SMILES IDX 3 1 13 2 12 3 11 4 5 5 4 6 6 7 7 8 8 9 9 10 10 11 2 12 1 13
REMARK SMILES IDX 14 14 15 15
REMARK H PARENT
REMARK Flexibility Score: inf
ROOT
ATOM      1  C   UNL     1      12.665  13.031  -2.152  1.00  0.00     0.161 A 
ATOM      2  C   UNL     1      12.621  11.707  -1.683  1.00  0.00     0.164 A 
ATOM      3  C   UNL     1      13.770  11.130  -1.106  1.00  0.00     0.098 A 
ATOM      4  C   UNL     1      14.952  11.865  -0.997  1.00  0.00     0.142 A 
ATOM      5  C   UNL     1      14.998  13.195  -1.466  1.00  0.00     0.022 A 
ATOM      6  C   UNL     1      13.858  13.773  -2.041  1.00  0.00     0.062 A 
ATOM      7  C   UNL     1      16.196  13.905  -1.342  1.00  0.00     0.019 A 
ATOM      8  C   UNL     1      17.303  13.285  -0.764  1.00  0.00     0.094 A 
ATOM      9  C   UNL     1      17.184  11.964  -0.320  1.00  0.00     0.336 A 
ATOM     10  O   UNL     1      18.171  11.386   0.206  1.00  0.00    -0.246 OA
ATOM     11  O   UNL     1      16.032  11.311  -0.450  1.00  0.00    -0.423 OA
ENDROOT
BRANCH   1  12
ATOM     12  O   UNL     1      11.503  13.574  -2.721  1.00  0.00    -0.493 OA
ATOM     13  C   UNL     1      11.433  14.844  -3.360  1.00  0.00     0.278 C 
ENDBRANCH   1  12
BRANCH   2  14
ATOM     14  O   UNL     1      11.417  10.997  -1.810  1.00  0.00    -0.493 OA
ATOM     15  C   UNL     1      11.275   9.765  -2.510  1.00  0.00     0.278 C 
ENDBRANCH   2  14
TORSDOF 2
ENDMDL
MODEL 4
REMARK VINA RESULT:    -3.736      9.762     11.716
REMARK INTER + INTRA:          -4.283
REMARK INTER:                  -4.149
REMARK INTRA:                  -0.134
REMARK UNBOUND:                -0.110
REMARK SMILES COc1cc2ccc(=O)oc2cc1OC
REMARK SMILES IDX 3 1 13 2 12 3 11 4 5 5 4 6 6 7 7 8 8 9 9 10 10 11 2 12 1 13
REMARK SMILES IDX 14 14 15 15
REMARK H PARENT
REMARK Flexibility Score: inf
ROOT
ATOM      1  C   UNL     1       8.412  11.062   9.132  1.00  0.00     0.161 A 
ATOM      2  C   UNL     1       8.498  11.937   8.037  1.00  0.00     0.164 A 
ATOM      3  C   UNL     1       9.113  11.507   6.844  1.00  0.00     0.098 A 
ATOM      4  C   UNL     1       9.638  10.217   6.744  1.00  0.00     0.142 A 
ATOM      5  C   UNL     1       9.551   9.337   7.842  1.00  0.00     0.022 A 
ATOM      6  C   UNL     1       8.941   9.760   9.030  1.00  0.00     0.062 A 
ATOM      7  C   UNL     1      10.085   8.051   7.711  1.00  0.00     0.019 A 
ATOM      8  C   UNL     1      10.683   7.678   6.508  1.00  0.00     0.094 A 
ATOM      9  C   UNL     1      10.732   8.604   5.460  1.00  0.00     0.336 A 
ATOM     10  O   UNL     1      11.267   8.287   4.365  1.00  0.00    -0.246 OA
ATOM     11  O   UNL     1      10.216   9.820   5.612  1.00  0.00    -0.423 OA
ENDROOT
BRANCH   1  12
ATOM     12  O   UNL     1       7.794  11.523  10.305  1.00  0.00    -0.493 OA
ATOM     13  C   UNL     1       8.490  11.980  11.459  1.00  0.00     0.278 C 
ENDBRANCH   1  12
BRANCH   2  14
ATOM     14  O   UNL     1       7.962  13.227   8.173  1.00  0.00    -0.493 OA
ATOM     15  C   UNL     1       6.678  13.622   7.699  1.00  0.00     0.278 C 
ENDBRANCH   2  14
TORSDOF 2
ENDMDL
MODEL 5
REMARK VINA RESULT:    -3.704      9.983     12.178
REMARK INTER + INTRA:          -4.247
REMARK INTER:                  -4.081
REMARK INTRA:                  -0.166
REMARK UNBOUND:                -0.110
REMARK SMILES COc1cc2ccc(=O)oc2cc1OC
REMARK SMILES IDX 3 1 13 2 12 3 11 4 5 5 4 6 6 7 7 8 8 9 9 10 10 11 2 12 1 13
REMARK SMILES IDX 14 14 15 15
REMARK H PARENT
REMARK Flexibility Score: inf
ROOT
ATOM      1  C   UNL     1       8.261   8.391   6.935  1.00  0.00     0.161 A 
ATOM      2  C   UNL     1       9.380   9.240   6.923  1.00  0.00     0.164 A 
ATOM      3  C   UNL     1       9.220  10.614   7.193  1.00  0.00     0.098 A 
ATOM      4  C   UNL     1       7.956  11.136   7.473  1.00  0.00     0.142 A 
ATOM      5  C   UNL     1       6.831  10.285   7.485  1.00  0.00     0.022 A 
ATOM      6  C   UNL     1       6.986   8.919   7.217  1.00  0.00     0.062 A 
ATOM      7  C   UNL     1       5.578  10.838   7.769  1.00  0.00     0.019 A 
ATOM      8  C   UNL     1       5.476  12.205   8.029  1.00  0.00     0.094 A 
ATOM      9  C   UNL     1       6.635  12.988   8.000  1.00  0.00     0.336 A 
ATOM     10  O   UNL     1       6.565  14.223   8.232  1.00  0.00    -0.246 OA
ATOM     11  O   UNL     1       7.814  12.436   7.727  1.00  0.00    -0.423 OA
ENDROOT
BRANCH   1  12
ATOM     12  O   UNL     1       8.457   7.028   6.660  1.00  0.00    -0.493 OA
ATOM     13  C   UNL     1       8.177   6.408   5.411  1.00  0.00     0.278 C 
ENDBRANCH   1  12
BRANCH   2  14
ATOM     14  O   UNL     1      10.636   8.681   6.637  1.00  0.00    -0.493 OA
ATOM     15  C   UNL     1      11.282   8.751   5.370  1.00  0.00     0.278 C 
ENDBRANCH   2  14
TORSDOF 2
ENDMDL
MODEL 6
REMARK VINA RESULT:    -3.692      2.235      4.879
REMARK INTER + INTRA:          -4.233
REMARK INTER:                  -4.115
REMARK INTRA:                  -0.118
REMARK UNBOUND:                -0.110
REMARK SMILES COc1cc2ccc(=O)oc2cc1OC
REMARK SMILES IDX 3 1 13 2 12 3 11 4 5 5 4 6 6 7 7 8 8 9 9 10 10 11 2 12 1 13
REMARK SMILES IDX 14 14 15 15
REMARK H PARENT
REMARK Flexibility Score: inf
ROOT
ATOM      1  C   UNL     1      15.441  11.802  -0.791  1.00  0.00     0.161 A 
ATOM      2  C   UNL     1      14.327  10.945  -0.809  1.00  0.00     0.164 A 
ATOM      3  C   UNL     1      13.106  11.396  -1.348  1.00  0.00     0.098 A 
ATOM      4  C   UNL     1      12.994  12.689  -1.862  1.00  0.00     0.142 A 
ATOM      5  C   UNL     1      14.111  13.550  -1.845  1.00  0.00     0.022 A 
ATOM      6  C   UNL     1      15.327  13.107  -1.311  1.00  0.00     0.062 A 
ATOM      7  C   UNL     1      13.968  14.839  -2.368  1.00  0.00     0.019 A 
ATOM      8  C   UNL     1      12.735  15.234  -2.888  1.00  0.00     0.094 A 
ATOM      9  C   UNL     1      11.671  14.326  -2.872  1.00  0.00     0.336 A 
ATOM     10  O   UNL     1      10.550  14.662  -3.337  1.00  0.00    -0.246 OA
ATOM     11  O   UNL     1      11.835  13.106  -2.368  1.00  0.00    -0.423 OA
ENDROOT
BRANCH   1  12
ATOM     12  O   UNL     1      16.642  11.320  -0.247  1.00  0.00    -0.493 OA
ATOM     13  C   UNL     1      17.796  12.117  -0.005  1.00  0.00     0.278 C 
ENDBRANCH   1  12
BRANCH   2  14
ATOM     14  O   UNL     1      14.475   9.652  -0.283  1.00  0.00    -0.493 OA
ATOM     15  C   UNL     1      13.925   9.217   0.957  1.00  0.00     0.278 C 
ENDBRANCH   2  14
TORSDOF 2
ENDMDL
MODEL 7
REMARK VINA RESULT:    -3.672     10.494     12.564
REMARK INTER + INTRA:          -4.212
REMARK INTER:                  -4.083
REMARK INTRA:                  -0.128
REMARK UNBOUND:                -0.110
REMARK SMILES COc1cc2ccc(=O)oc2cc1OC
REMARK SMILES IDX 3 1 13 2 12 3 11 4 5 5 4 6 6 7 7 8 8 9 9 10 10 11 2 12 1 13
REMARK SMILES IDX 14 14 15 15
REMARK H PARENT
REMARK Flexibility Score: inf
ROOT
ATOM      1  C   UNL     1       8.432  11.689   8.720  1.00  0.00     0.161 A 
ATOM      2  C   UNL     1       8.520  10.677   9.691  1.00  0.00     0.164 A 
ATOM      3  C   UNL     1       9.037   9.414   9.341  1.00  0.00     0.098 A 
ATOM      4  C   UNL     1       9.461   9.161   8.035  1.00  0.00     0.142 A 
ATOM      5  C   UNL     1       9.374  10.176   7.060  1.00  0.00     0.022 A 
ATOM      6  C   UNL     1       8.861  11.433   7.403  1.00  0.00     0.062 A 
ATOM      7  C   UNL     1       9.809   9.892   5.761  1.00  0.00     0.019 A 
ATOM      8  C   UNL     1      10.311   8.624   5.469  1.00  0.00     0.094 A 
ATOM      9  C   UNL     1      10.368   7.668   6.487  1.00  0.00     0.336 A 
ATOM     10  O   UNL     1      10.819   6.517   6.245  1.00  0.00    -0.246 OA
ATOM     11  O   UNL     1       9.948   7.964   7.714  1.00  0.00    -0.423 OA
ENDROOT
BRANCH   1  12
ATOM     12  O   UNL     1       7.911  12.935   9.104  1.00  0.00    -0.493 OA
ATOM     13  C   UNL     1       6.881  13.628   8.410  1.00  0.00     0.278 C 
ENDBRANCH   1  12
BRANCH   2  14
ATOM     14  O   UNL     1       8.082  10.966  10.994  1.00  0.00    -0.493 OA
ATOM     15  C   UNL     1       8.945  11.177  12.107  1.00  0.00     0.278 C 
ENDBRANCH   2  14
TORSDOF 2
ENDMDL
MODEL 8
REMARK VINA RESULT:    -3.663      9.032     11.194
REMARK INTER + INTRA:          -4.201
REMARK INTER:                  -4.081
REMARK INTRA:                  -0.120
REMARK UNBOUND:                -0.110
REMARK SMILES COc1cc2ccc(=O)oc2cc1OC
REMARK SMILES IDX 3 1 13 2 12 3 11 4 5 5 4 6 6 7 7 8 8 9 9 10 10 11 2 12 1 13
REMARK SMILES IDX 14 14 15 15
REMARK H PARENT
REMARK Flexibility Score: inf
ROOT
ATOM      1  C   UNL     1       9.036   7.730   5.328  1.00  0.00     0.161 A 
ATOM      2  C   UNL     1      10.140   8.583   5.161  1.00  0.00     0.164 A 
ATOM      3  C   UNL     1      10.165   9.832   5.813  1.00  0.00     0.098 A 
ATOM      4  C   UNL     1       9.099  10.228   6.623  1.00  0.00     0.142 A 
ATOM      5  C   UNL     1       7.991   9.373   6.792  1.00  0.00     0.022 A 
ATOM      6  C   UNL     1       7.961   8.131   6.146  1.00  0.00     0.062 A 
ATOM      7  C   UNL     1       6.939   9.798   7.610  1.00  0.00     0.019 A 
ATOM      8  C   UNL     1       7.015  11.045   8.231  1.00  0.00     0.094 A 
ATOM      9  C   UNL     1       8.147  11.839   8.018  1.00  0.00     0.336 A 
ATOM     10  O   UNL     1       8.236  12.967   8.570  1.00  0.00    -0.246 OA
ATOM     11  O   UNL     1       9.133  11.410   7.235  1.00  0.00    -0.423 OA
ENDROOT
BRANCH   1  12
ATOM     12  O   UNL     1       9.044   6.494   4.663  1.00  0.00    -0.493 OA
ATOM     13  C   UNL     1       8.098   6.102   3.674  1.00  0.00     0.278 C 
ENDBRANCH   1  12
BRANCH   2  14
ATOM     14  O   UNL     1      11.194   8.152   4.338  1.00  0.00    -0.493 OA
ATOM     15  C   UNL     1      12.572   8.413   4.587  1.00  0.00     0.278 C 
ENDBRANCH   2  14
TORSDOF 2
ENDMDL
MODEL 9
REMARK VINA RESULT:    -3.651     11.738     13.795
REMARK INTER + INTRA:          -4.188
REMARK INTER:                  -4.068
REMARK INTRA:                  -0.120
REMARK UNBOUND:                -0.110
REMARK SMILES COc1cc2ccc(=O)oc2cc1OC
REMARK SMILES IDX 3 1 13 2 12 3 11 4 5 5 4 6 6 7 7 8 8 9 9 10 10 11 2 12 1 13
REMARK SMILES IDX 14 14 15 15
REMARK H PARENT
REMARK Flexibility Score: inf
ROOT
ATOM      1  C   UNL     1       3.055  11.754   7.885  1.00  0.00     0.161 A 
ATOM      2  C   UNL     1       3.595  10.457   7.851  1.00  0.00     0.164 A 
ATOM      3  C   UNL     1       4.993  10.282   7.828  1.00  0.00     0.098 A 
ATOM      4  C   UNL     1       5.845  11.388   7.838  1.00  0.00     0.142 A 
ATOM      5  C   UNL     1       5.304  12.690   7.873  1.00  0.00     0.022 A 
ATOM      6  C   UNL     1       3.915  12.870   7.896  1.00  0.00     0.062 A 
ATOM      7  C   UNL     1       6.184  13.778   7.883  1.00  0.00     0.019 A 
ATOM      8  C   UNL     1       7.559  13.547   7.858  1.00  0.00     0.094 A 
ATOM      9  C   UNL     1       8.023  12.228   7.824  1.00  0.00     0.336 A 
ATOM     10  O   UNL     1       9.261  11.997   7.802  1.00  0.00    -0.246 OA
ATOM     11  O   UNL     1       7.165  11.211   7.816  1.00  0.00    -0.423 OA
ENDROOT
BRANCH   1  12
ATOM     12  O   UNL     1       1.658  11.892   7.907  1.00  0.00    -0.493 OA
ATOM     13  C   UNL     1       0.875  12.355   6.813  1.00  0.00     0.278 C 
ENDBRANCH   1  12
BRANCH   2  14
ATOM     14  O   UNL     1       2.709   9.369   7.841  1.00  0.00    -0.493 OA
ATOM     15  C   UNL     1       3.040   8.062   7.381  1.00  0.00     0.278 C 
ENDBRANCH   2  14
TORSDOF 2
ENDMDL
