MODEL 1
REMARK VINA RESULT:    -2.758      0.000      0.000
REMARK INTER + INTRA:          -4.310
REMARK INTER:                  -4.209
REMARK INTRA:                  -0.100
REMARK UNBOUND:                -0.100
REMARK SMILES CC1=CCC[C@H](C)C(=O)C[C@@H](C(C)C)C(=O)C1
REMARK SMILES IDX 8 1 9 2 6 3 7 4 5 5 4 6 3 7 2 8 1 9 10 11 11 12 15 13 16 14
REMARK SMILES IDX 17 15 12 17 13 18 14 19
REMARK H PARENT
REMARK Flexibility Score: 70.00
ROOT
ATOM      1  C   UNL     1     199.278 150.148 163.878  1.00  0.00     0.136 C 
ATOM      2  O   UNL     1     198.936 150.235 165.049  1.00  0.00    -0.299 OA
ENDROOT
BRANCH   1   3
ATOM      3  C   UNL     1     198.503 149.256 162.929  1.00  0.00     0.053 C 
ATOM      4  C   UNL     1     197.592 148.327 163.736  1.00  0.00     0.016 C 
BRANCH   3   5
ATOM      5  C   UNL     1     197.671 150.076 161.917  1.00  0.00     0.015 C 
BRANCH   5   6
ATOM      6  C   UNL     1     198.223 150.016 160.485  1.00  0.00     0.028 C 
BRANCH   6   7
ATOM      7  C   UNL     1     198.244 151.385 159.848  1.00  0.00    -0.028 C 
ATOM      8  C   UNL     1     199.244 152.290 159.950  1.00  0.00    -0.070 CG0
ATOM      9  C   UNL     1     199.080 153.606 159.231  1.00  0.00     0.039 C 
ATOM     10  G   UNL     1     200.529 152.033 160.714  1.00  0.00     0.000 G0
ENDBRANCH   6   7
ENDBRANCH   5   6
ENDBRANCH   3   5
ENDBRANCH   1   3
BRANCH   1  11
ATOM     11  C   UNL     1     200.496 150.903 163.415  1.00  0.00     0.087 C 
BRANCH  11  12
ATOM     12  C   UNL     1     200.219 152.424 163.293  1.00  0.00     0.066 C 
BRANCH  12  13
ATOM     13  C   UNL     1     200.676 152.906 161.925  1.00  0.00     0.140 C 
ATOM     14  O   UNL     1     201.082 154.054 161.797  1.00  0.00    -0.299 OA
BRANCH  13  15
ATOM     15  C   UNL     1     200.553 152.035 160.702  1.00  0.00     0.106 CG0
ATOM     16  G   UNL     1     199.267 152.324 159.951  1.00  0.00     0.000 G0
ENDBRANCH  13  15
ENDBRANCH  12  13
BRANCH  12  17
ATOM     17  C   UNL     1     200.921 153.249 164.422  1.00  0.00    -0.006 C 
ATOM     18  C   UNL     1     199.916 154.142 165.176  1.00  0.00     0.008 C 
ATOM     19  C   UNL     1     201.635 152.344 165.446  1.00  0.00     0.008 C 
ENDBRANCH  12  17
ENDBRANCH  11  12
ENDBRANCH   1  11
TORSDOF 1
ENDMDL
MODEL 2
REMARK VINA RESULT:    -2.639      3.240      6.177
REMARK INTER + INTRA:          -4.128
REMARK INTER:                  -4.302
REMARK INTRA:                   0.174
REMARK UNBOUND:                -0.100
REMARK SMILES CC1=CCC[C@H](C)C(=O)C[C@@H](C(C)C)C(=O)C1
REMARK SMILES IDX 8 1 9 2 6 3 7 4 5 5 4 6 3 7 2 8 1 9 10 11 11 12 15 13 16 14
REMARK SMILES IDX 17 15 12 17 13 18 14 19
REMARK H PARENT
REMARK Flexibility Score: 70.00
ROOT
ATOM      1  C   UNL     1     200.279 154.970 164.751  1.00  0.00     0.136 C 
ATOM      2  O   UNL     1     199.288 154.876 165.461  1.00  0.00    -0.299 OA
ENDROOT
BRANCH   1   3
ATOM      3  C   UNL     1     200.951 156.315 164.568  1.00  0.00     0.053 C 
ATOM      4  C   UNL     1     200.114 157.398 165.253  1.00  0.00     0.016 C 
BRANCH   3   5
ATOM      5  C   UNL     1     202.394 156.319 165.125  1.00  0.00     0.015 C 
BRANCH   5   6
ATOM      6  C   UNL     1     203.463 156.078 164.050  1.00  0.00     0.028 C 
BRANCH   6   7
ATOM      7  C   UNL     1     204.584 155.214 164.575  1.00  0.00    -0.028 C 
ATOM      8  C   UNL     1     204.615 153.862 164.557  1.00  0.00    -0.070 CG0
ATOM      9  C   UNL     1     205.833 153.177 165.126  1.00  0.00     0.039 C 
ATOM     10  G   UNL     1     203.511 153.009 163.963  1.00  0.00     0.000 G0
ENDBRANCH   6   7
ENDBRANCH   5   6
ENDBRANCH   3   5
ENDBRANCH   1   3
BRANCH   1  11
ATOM     11  C   UNL     1     200.785 153.743 164.038  1.00  0.00     0.087 C 
BRANCH  11  12
ATOM     12  C   UNL     1     201.133 152.602 165.028  1.00  0.00     0.066 C 
BRANCH  12  13
ATOM     13  C   UNL     1     202.639 152.392 165.039  1.00  0.00     0.140 C 
ATOM     14  O   UNL     1     203.156 151.806 165.981  1.00  0.00    -0.299 OA
BRANCH  13  15
ATOM     15  C   UNL     1     203.522 152.970 163.964  1.00  0.00     0.106 CG0
ATOM     16  G   UNL     1     204.599 153.857 164.559  1.00  0.00     0.000 G0
ENDBRANCH  13  15
ENDBRANCH  12  13
BRANCH  12  17
ATOM     17  C   UNL     1     200.400 151.266 164.677  1.00  0.00    -0.006 C 
ATOM     18  C   UNL     1     199.233 150.990 165.646  1.00  0.00     0.008 C 
ATOM     19  C   UNL     1     199.850 151.265 163.236  1.00  0.00     0.008 C 
ENDBRANCH  12  17
ENDBRANCH  11  12
ENDBRANCH   1  11
TORSDOF 1
ENDMDL
MODEL 3
REMARK VINA RESULT:    -2.612      3.569      5.207
REMARK INTER + INTRA:          -4.086
REMARK INTER:                  -3.908
REMARK INTRA:                  -0.178
REMARK UNBOUND:                -0.100
REMARK SMILES CC1=CCC[C@H](C)C(=O)C[C@@H](C(C)C)C(=O)C1
REMARK SMILES IDX 8 1 9 2 6 3 7 4 5 5 4 6 3 7 2 8 1 9 10 11 11 12 15 13 16 14
REMARK SMILES IDX 17 15 12 17 13 18 14 19
REMARK H PARENT
REMARK Flexibility Score: 70.00
ROOT
ATOM      1  C   UNL     1     200.350 154.836 165.084  1.00  0.00     0.136 C 
ATOM      2  O   UNL     1     199.222 154.881 165.553  1.00  0.00    -0.299 OA
ENDROOT
BRANCH   1   3
ATOM      3  C   UNL     1     200.908 153.520 164.583  1.00  0.00     0.053 C 
ATOM      4  C   UNL     1     200.566 152.411 165.582  1.00  0.00     0.016 C 
BRANCH   3   5
ATOM      5  C   UNL     1     200.367 153.162 163.179  1.00  0.00     0.015 C 
BRANCH   5   6
ATOM      6  C   UNL     1     201.468 153.030 162.117  1.00  0.00     0.028 C 
BRANCH   6   7
ATOM      7  C   UNL     1     202.842 153.088 162.743  1.00  0.00    -0.028 C 
ATOM      8  C   UNL     1     203.663 154.163 162.751  1.00  0.00    -0.070 CG0
ATOM      9  C   UNL     1     205.000 154.024 163.435  1.00  0.00     0.039 C 
ATOM     10  G   UNL     1     203.291 155.502 162.144  1.00  0.00     0.000 G0
ENDBRANCH   6   7
ENDBRANCH   5   6
ENDBRANCH   3   5
ENDBRANCH   1   3
BRANCH   1  11
ATOM     11  C   UNL     1     201.180 156.093 165.054  1.00  0.00     0.087 C 
BRANCH  11  12
ATOM     12  C   UNL     1     201.383 156.616 163.608  1.00  0.00     0.066 C 
BRANCH  12  13
ATOM     13  C   UNL     1     202.849 156.477 163.229  1.00  0.00     0.140 C 
ATOM     14  O   UNL     1     203.676 157.216 163.747  1.00  0.00    -0.299 OA
BRANCH  13  15
ATOM     15  C   UNL     1     203.297 155.513 162.161  1.00  0.00     0.106 CG0
ATOM     16  G   UNL     1     203.674 154.171 162.759  1.00  0.00     0.000 G0
ENDBRANCH  13  15
ENDBRANCH  12  13
BRANCH  12  17
ATOM     17  C   UNL     1     200.917 158.100 163.442  1.00  0.00    -0.006 C 
ATOM     18  C   UNL     1     200.126 158.300 162.133  1.00  0.00     0.008 C 
ATOM     19  C   UNL     1     200.039 158.571 164.620  1.00  0.00     0.008 C 
ENDBRANCH  12  17
ENDBRANCH  11  12
ENDBRANCH   1  11
TORSDOF 1
ENDMDL
MODEL 4
REMARK VINA RESULT:    -2.556      2.185      5.281
REMARK INTER + INTRA:          -4.001
REMARK INTER:                  -3.736
REMARK INTRA:                  -0.265
REMARK UNBOUND:                -0.100
REMARK SMILES CC1=CCC[C@H](C)C(=O)C[C@@H](C(C)C)C(=O)C1
REMARK SMILES IDX 8 1 9 2 6 3 7 4 5 5 4 6 3 7 2 8 1 9 10 11 11 12 15 13 16 14
REMARK SMILES IDX 17 15 12 17 13 18 14 19
REMARK H PARENT
REMARK Flexibility Score: 70.00
ROOT
ATOM      1  C   UNL     1     201.020 152.993 162.673  1.00  0.00     0.136 C 
ATOM      2  O   UNL     1     200.789 154.151 162.353  1.00  0.00    -0.299 OA
ENDROOT
BRANCH   1   3
ATOM      3  C   UNL     1     201.535 152.682 164.063  1.00  0.00     0.053 C 
ATOM      4  C   UNL     1     202.828 153.463 164.311  1.00  0.00     0.016 C 
BRANCH   3   5
ATOM      5  C   UNL     1     200.489 153.015 165.153  1.00  0.00     0.015 C 
BRANCH   5   6
ATOM      6  C   UNL     1     199.437 151.913 165.343  1.00  0.00     0.028 C 
BRANCH   6   7
ATOM      7  C   UNL     1     200.085 150.573 165.597  1.00  0.00    -0.028 C 
ATOM      8  C   UNL     1     199.872 149.444 164.883  1.00  0.00    -0.070 CG0
ATOM      9  C   UNL     1     200.623 148.200 165.290  1.00  0.00     0.039 C 
ATOM     10  G   UNL     1     198.953 149.377 163.679  1.00  0.00     0.000 G0
ENDBRANCH   6   7
ENDBRANCH   5   6
ENDBRANCH   3   5
ENDBRANCH   1   3
BRANCH   1  11
ATOM     11  C   UNL     1     200.823 151.901 161.654  1.00  0.00     0.087 C 
BRANCH  11  12
ATOM     12  C   UNL     1     199.451 151.197 161.819  1.00  0.00     0.066 C 
BRANCH  12  13
ATOM     13  C   UNL     1     199.668 149.814 162.412  1.00  0.00     0.140 C 
ATOM     14  O   UNL     1     200.383 149.014 161.822  1.00  0.00    -0.299 OA
BRANCH  13  15
ATOM     15  C   UNL     1     198.951 149.371 163.660  1.00  0.00     0.106 CG0
ATOM     16  G   UNL     1     199.864 149.443 164.869  1.00  0.00     0.000 G0
ENDBRANCH  13  15
ENDBRANCH  12  13
BRANCH  12  17
ATOM     17  C   UNL     1     198.670 151.094 160.468  1.00  0.00    -0.006 C 
ATOM     18  C   UNL     1     197.182 150.762 160.701  1.00  0.00     0.008 C 
ATOM     19  C   UNL     1     198.757 152.394 159.643  1.00  0.00     0.008 C 
ENDBRANCH  12  17
ENDBRANCH  11  12
ENDBRANCH   1  11
TORSDOF 1
ENDMDL
MODEL 5
REMARK VINA RESULT:    -2.507      3.158      4.961
REMARK INTER + INTRA:          -3.926
REMARK INTER:                  -3.903
REMARK INTRA:                  -0.023
REMARK UNBOUND:                -0.100
REMARK SMILES CC1=CCC[C@H](C)C(=O)C[C@@H](C(C)C)C(=O)C1
REMARK SMILES IDX 8 1 9 2 6 3 7 4 5 5 4 6 3 7 2 8 1 9 10 11 11 12 15 13 16 14
REMARK SMILES IDX 17 15 12 17 13 18 14 19
REMARK H PARENT
REMARK Flexibility Score: 70.00
ROOT
ATOM      1  C   UNL     1     198.487 150.008 163.066  1.00  0.00     0.136 C 
ATOM      2  O   UNL     1     199.013 150.979 162.541  1.00  0.00    -0.299 OA
ENDROOT
BRANCH   1   3
ATOM      3  C   UNL     1     197.409 149.242 162.327  1.00  0.00     0.053 C 
ATOM      4  C   UNL     1     197.305 149.768 160.893  1.00  0.00     0.016 C 
BRANCH   3   5
ATOM      5  C   UNL     1     197.685 147.720 162.321  1.00  0.00     0.015 C 
BRANCH   5   6
ATOM      6  C   UNL     1     199.122 147.364 161.914  1.00  0.00     0.028 C 
BRANCH   6   7
ATOM      7  C   UNL     1     199.655 146.213 162.734  1.00  0.00    -0.028 C 
ATOM      8  C   UNL     1     200.744 146.251 163.536  1.00  0.00    -0.070 CG0
ATOM      9  C   UNL     1     201.114 144.993 164.282  1.00  0.00     0.039 C 
ATOM     10  G   UNL     1     201.580 147.498 163.751  1.00  0.00     0.000 G0
ENDBRANCH   6   7
ENDBRANCH   5   6
ENDBRANCH   3   5
ENDBRANCH   1   3
BRANCH   1  11
ATOM     11  C   UNL     1     198.898 149.621 164.462  1.00  0.00     0.087 C 
BRANCH  11  12
ATOM     12  C   UNL     1     200.431 149.736 164.666  1.00  0.00     0.066 C 
BRANCH  12  13
ATOM     13  C   UNL     1     201.010 148.349 164.894  1.00  0.00     0.140 C 
ATOM     14  O   UNL     1     201.099 147.916 166.035  1.00  0.00    -0.299 OA
BRANCH  13  15
ATOM     15  C   UNL     1     201.563 147.530 163.756  1.00  0.00     0.106 CG0
ATOM     16  G   UNL     1     200.749 146.267 163.547  1.00  0.00     0.000 G0
ENDBRANCH  13  15
ENDBRANCH  12  13
BRANCH  12  17
ATOM     17  C   UNL     1     200.803 150.683 165.854  1.00  0.00    -0.006 C 
ATOM     18  C   UNL     1     202.223 151.263 165.690  1.00  0.00     0.008 C 
ATOM     19  C   UNL     1     199.811 151.855 165.998  1.00  0.00     0.008 C 
ENDBRANCH  12  17
ENDBRANCH  11  12
ENDBRANCH   1  11
TORSDOF 1
ENDMDL
MODEL 6
REMARK VINA RESULT:    -2.480      2.762      4.729
REMARK INTER + INTRA:          -3.885
REMARK INTER:                  -3.898
REMARK INTRA:                   0.012
REMARK UNBOUND:                -0.100
REMARK SMILES CC1=CCC[C@H](C)C(=O)C[C@@H](C(C)C)C(=O)C1
REMARK SMILES IDX 8 1 9 2 6 3 7 4 5 5 4 6 3 7 2 8 1 9 10 11 11 12 15 13 16 14
REMARK SMILES IDX 17 15 12 17 13 18 14 19
REMARK H PARENT
REMARK Flexibility Score: 70.00
ROOT
ATOM      1  C   UNL     1     198.931 151.041 161.714  1.00  0.00     0.136 C 
ATOM      2  O   UNL     1     199.646 151.934 161.282  1.00  0.00    -0.299 OA
ENDROOT
BRANCH   1   3
ATOM      3  C   UNL     1     198.089 150.219 160.759  1.00  0.00     0.053 C 
ATOM      4  C   UNL     1     197.104 151.138 160.032  1.00  0.00     0.016 C 
BRANCH   3   5
ATOM      5  C   UNL     1     198.960 149.451 159.737  1.00  0.00     0.015 C 
BRANCH   5   6
ATOM      6  C   UNL     1     199.735 148.280 160.358  1.00  0.00     0.028 C 
BRANCH   6   7
ATOM      7  C   UNL     1     198.819 147.122 160.674  1.00  0.00    -0.028 C 
ATOM      8  C   UNL     1     198.658 146.550 161.889  1.00  0.00    -0.070 CG0
ATOM      9  C   UNL     1     197.686 145.402 162.005  1.00  0.00     0.039 C 
ATOM     10  G   UNL     1     199.371 147.030 163.139  1.00  0.00     0.000 G0
ENDBRANCH   6   7
ENDBRANCH   5   6
ENDBRANCH   3   5
ENDBRANCH   1   3
BRANCH   1  11
ATOM     11  C   UNL     1     198.875 150.805 163.201  1.00  0.00     0.087 C 
BRANCH  11  12
ATOM     12  C   UNL     1     199.725 149.579 163.623  1.00  0.00     0.066 C 
BRANCH  12  13
ATOM     13  C   UNL     1     198.845 148.340 163.633  1.00  0.00     0.140 C 
ATOM     14  O   UNL     1     197.717 148.409 164.105  1.00  0.00    -0.299 OA
BRANCH  13  15
ATOM     15  C   UNL     1     199.359 147.004 163.162  1.00  0.00     0.106 CG0
ATOM     16  G   UNL     1     198.662 146.571 161.886  1.00  0.00     0.000 G0
ENDBRANCH  13  15
ENDBRANCH  12  13
BRANCH  12  17
ATOM     17  C   UNL     1     200.401 149.778 165.020  1.00  0.00    -0.006 C 
ATOM     18  C   UNL     1     201.933 149.898 164.894  1.00  0.00     0.008 C 
ATOM     19  C   UNL     1     199.871 151.028 165.751  1.00  0.00     0.008 C 
ENDBRANCH  12  17
ENDBRANCH  11  12
ENDBRANCH   1  11
TORSDOF 1
ENDMDL
MODEL 7
REMARK VINA RESULT:    -2.386     11.448     13.826
REMARK INTER + INTRA:          -3.741
REMARK INTER:                  -3.740
REMARK INTRA:                  -0.002
REMARK UNBOUND:                -0.100
REMARK SMILES CC1=CCC[C@H](C)C(=O)C[C@@H](C(C)C)C(=O)C1
REMARK SMILES IDX 8 1 9 2 6 3 7 4 5 5 4 6 3 7 2 8 1 9 10 11 11 12 15 13 16 14
REMARK SMILES IDX 17 15 12 17 13 18 14 19
REMARK H PARENT
REMARK Flexibility Score: 70.00
ROOT
ATOM      1  C   UNL     1     209.906 154.944 166.281  1.00  0.00     0.136 C 
ATOM      2  O   UNL     1     209.105 154.109 166.674  1.00  0.00    -0.299 OA
ENDROOT
BRANCH   1   3
ATOM      3  C   UNL     1     209.411 156.216 165.624  1.00  0.00     0.053 C 
ATOM      4  C   UNL     1     207.929 156.061 165.271  1.00  0.00     0.016 C 
BRANCH   3   5
ATOM      5  C   UNL     1     209.619 157.452 166.531  1.00  0.00     0.015 C 
BRANCH   5   6
ATOM      6  C   UNL     1     210.262 158.640 165.801  1.00  0.00     0.028 C 
BRANCH   6   7
ATOM      7  C   UNL     1     211.380 158.186 164.893  1.00  0.00    -0.028 C 
ATOM      8  C   UNL     1     212.601 157.763 165.292  1.00  0.00    -0.070 CG0
ATOM      9  C   UNL     1     213.585 157.342 164.229  1.00  0.00     0.039 C 
ATOM     10  G   UNL     1     213.012 157.654 166.748  1.00  0.00     0.000 G0
ENDBRANCH   6   7
ENDBRANCH   5   6
ENDBRANCH   3   5
ENDBRANCH   1   3
BRANCH   1  11
ATOM     11  C   UNL     1     211.380 154.666 166.424  1.00  0.00     0.087 C 
BRANCH  11  12
ATOM     12  C   UNL     1     211.989 155.397 167.649  1.00  0.00     0.066 C 
BRANCH  12  13
ATOM     13  C   UNL     1     213.182 156.224 167.194  1.00  0.00     0.140 C 
ATOM     14  O   UNL     1     214.305 155.741 167.255  1.00  0.00    -0.299 OA
BRANCH  13  15
ATOM     15  C   UNL     1     213.026 157.657 166.756  1.00  0.00     0.106 CG0
ATOM     16  G   UNL     1     212.607 157.741 165.301  1.00  0.00     0.000 G0
ENDBRANCH  13  15
ENDBRANCH  12  13
BRANCH  12  17
ATOM     17  C   UNL     1     212.414 154.407 168.782  1.00  0.00    -0.006 C 
ATOM     18  C   UNL     1     211.478 154.510 170.003  1.00  0.00     0.008 C 
ATOM     19  C   UNL     1     212.429 152.941 168.300  1.00  0.00     0.008 C 
ENDBRANCH  12  17
ENDBRANCH  11  12
ENDBRANCH   1  11
TORSDOF 1
ENDMDL
MODEL 8
REMARK VINA RESULT:    -2.328      2.996      5.270
REMARK INTER + INTRA:          -3.652
REMARK INTER:                  -3.481
REMARK INTRA:                  -0.171
REMARK UNBOUND:                -0.100
REMARK SMILES CC1=CCC[C@H](C)C(=O)C[C@@H](C(C)C)C(=O)C1
REMARK SMILES IDX 8 1 9 2 6 3 7 4 5 5 4 6 3 7 2 8 1 9 10 11 11 12 15 13 16 14
REMARK SMILES IDX 17 15 12 17 13 18 14 19
REMARK H PARENT
REMARK Flexibility Score: 70.00
ROOT
ATOM      1  C   UNL     1     198.738 147.165 162.960  1.00  0.00     0.136 C 
ATOM      2  O   UNL     1     198.820 146.891 161.771  1.00  0.00    -0.299 OA
ENDROOT
BRANCH   1   3
ATOM      3  C   UNL     1     199.055 146.112 164.002  1.00  0.00     0.053 C 
ATOM      4  C   UNL     1     198.221 144.858 163.726  1.00  0.00     0.016 C 
BRANCH   3   5
ATOM      5  C   UNL     1     200.561 145.760 164.026  1.00  0.00     0.015 C 
BRANCH   5   6
ATOM      6  C   UNL     1     201.474 146.994 163.989  1.00  0.00     0.028 C 
BRANCH   6   7
ATOM      7  C   UNL     1     201.565 147.650 165.346  1.00  0.00    -0.028 C 
ATOM      8  C   UNL     1     201.541 148.982 165.584  1.00  0.00    -0.070 CG0
ATOM      9  C   UNL     1     201.638 149.444 167.016  1.00  0.00     0.039 C 
ATOM     10  G   UNL     1     201.383 150.022 164.492  1.00  0.00     0.000 G0
ENDBRANCH   6   7
ENDBRANCH   5   6
ENDBRANCH   3   5
ENDBRANCH   1   3
BRANCH   1  11
ATOM     11  C   UNL     1     198.279 148.543 163.361  1.00  0.00     0.087 C 
BRANCH  11  12
ATOM     12  C   UNL     1     199.286 149.637 162.922  1.00  0.00     0.066 C 
BRANCH  12  13
ATOM     13  C   UNL     1     199.923 150.253 164.156  1.00  0.00     0.140 C 
ATOM     14  O   UNL     1     199.263 151.005 164.861  1.00  0.00    -0.299 OA
BRANCH  13  15
ATOM     15  C   UNL     1     201.378 150.035 164.484  1.00  0.00     0.106 CG0
ATOM     16  G   UNL     1     201.542 149.000 165.580  1.00  0.00     0.000 G0
ENDBRANCH  13  15
ENDBRANCH  12  13
BRANCH  12  17
ATOM     17  C   UNL     1     198.614 150.745 162.046  1.00  0.00    -0.006 C 
ATOM     18  C   UNL     1     199.643 151.447 161.137  1.00  0.00     0.008 C 
ATOM     19  C   UNL     1     197.483 150.183 161.160  1.00  0.00     0.008 C 
ENDBRANCH  12  17
ENDBRANCH  11  12
ENDBRANCH   1  11
TORSDOF 1
ENDMDL
MODEL 9
REMARK VINA RESULT:    -2.274      2.447      5.583
REMARK INTER + INTRA:          -3.570
REMARK INTER:                  -3.303
REMARK INTRA:                  -0.267
REMARK UNBOUND:                -0.100
REMARK SMILES CC1=CCC[C@H](C)C(=O)C[C@@H](C(C)C)C(=O)C1
REMARK SMILES IDX 8 1 9 2 6 3 7 4 5 5 4 6 3 7 2 8 1 9 10 11 11 12 15 13 16 14
REMARK SMILES IDX 17 15 12 17 13 18 14 19
REMARK H PARENT
REMARK Flexibility Score: 70.00
ROOT
ATOM      1  C   UNL     1     201.794 151.233 162.024  1.00  0.00     0.136 C 
ATOM      2  O   UNL     1     201.997 151.621 160.882  1.00  0.00    -0.299 OA
ENDROOT
BRANCH   1   3
ATOM      3  C   UNL     1     202.289 152.049 163.199  1.00  0.00     0.053 C 
ATOM      4  C   UNL     1     203.755 152.429 162.972  1.00  0.00     0.016 C 
BRANCH   3   5
ATOM      5  C   UNL     1     201.434 153.319 163.420  1.00  0.00     0.015 C 
BRANCH   5   6
ATOM      6  C   UNL     1     200.499 153.219 164.634  1.00  0.00     0.028 C 
BRANCH   6   7
ATOM      7  C   UNL     1     200.984 152.179 165.615  1.00  0.00    -0.028 C 
ATOM      8  C   UNL     1     200.374 151.002 165.886  1.00  0.00    -0.070 CG0
ATOM      9  C   UNL     1     201.019 150.089 166.898  1.00  0.00     0.039 C 
ATOM     10  G   UNL     1     199.103 150.542 165.196  1.00  0.00     0.000 G0
ENDBRANCH   6   7
ENDBRANCH   5   6
ENDBRANCH   3   5
ENDBRANCH   1   3
BRANCH   1  11
ATOM     11  C   UNL     1     201.085 149.919 162.233  1.00  0.00     0.087 C 
BRANCH  11  12
ATOM     12  C   UNL     1     199.603 150.122 162.640  1.00  0.00     0.066 C 
BRANCH  12  13
ATOM     13  C   UNL     1     199.399 149.601 164.054  1.00  0.00     0.140 C 
ATOM     14  O   UNL     1     199.399 148.394 164.255  1.00  0.00    -0.299 OA
BRANCH  13  15
ATOM     15  C   UNL     1     199.104 150.533 165.201  1.00  0.00     0.106 CG0
ATOM     16  G   UNL     1     200.382 150.982 165.883  1.00  0.00     0.000 G0
ENDBRANCH  13  15
ENDBRANCH  12  13
BRANCH  12  17
ATOM     17  C   UNL     1     198.614 149.418 161.654  1.00  0.00    -0.006 C 
ATOM     18  C   UNL     1     197.664 150.433 160.987  1.00  0.00     0.008 C 
ATOM     19  C   UNL     1     199.352 148.639 160.546  1.00  0.00     0.008 C 
ENDBRANCH  12  17
ENDBRANCH  11  12
ENDBRANCH   1  11
TORSDOF 1
ENDMDL
