MODEL 1
REMARK VINA RESULT:    -4.064      0.000      0.000
REMARK INTER + INTRA:          -7.341
REMARK INTER:                  -6.202
REMARK INTRA:                  -1.139
REMARK UNBOUND:                -1.139
REMARK SMILES OC[C@@H]1O[C@H](O[C@@]2(CO)O[C@H](CO)[C@@H](O)[C@H]2O)[C@H](O)[C@@H](O)[C@@H]1O
REMARK SMILES IDX 6 1 5 2 3 3 22 4 4 5 20 6 18 7 2 8 1 9 23 11 21 13 19 15
REMARK SMILES IDX 7 17 16 18 10 19 14 20 11 21 8 22 9 23 17 25 15 27 12 29
REMARK SMILES IDX 13 30
REMARK H PARENT 1 10 23 12 21 14 19 16 9 24 17 26 15 28 13 31
REMARK Flexibility Score: inf
ROOT
ATOM      1  O   UNL     1      18.334  27.995  33.922  1.00  0.00    -0.313 OA
ENDROOT
BRANCH   1   2
ATOM      2  C   UNL     1      19.589  27.976  33.251  1.00  0.00     0.285 C 
ATOM      3  C   UNL     1      21.941  28.022  33.674  1.00  0.00     0.178 C 
ATOM      4  C   UNL     1      22.026  27.707  32.142  1.00  0.00     0.177 C 
ATOM      5  O   UNL     1      20.619  28.034  34.219  1.00  0.00    -0.341 OA
ATOM      6  C   UNL     1      21.085  26.544  31.765  1.00  0.00     0.179 C 
ATOM      7  C   UNL     1      19.700  26.662  32.459  1.00  0.00     0.202 C 
BRANCH   3   8
ATOM      8  C   UNL     1      22.782  27.056  34.526  1.00  0.00     0.191 C 
BRANCH   8   9
ATOM      9  O   UNL     1      22.218  26.902  35.803  1.00  0.00    -0.394 OA
ATOM     10  H   UNL     1      21.566  26.156  35.743  1.00  0.00     0.210 HD
ENDBRANCH   8   9
ENDBRANCH   3   8
BRANCH   4  11
ATOM     11  O   UNL     1      23.341  27.408  31.763  1.00  0.00    -0.387 OA
ATOM     12  H   UNL     1      23.286  26.774  30.997  1.00  0.00     0.211 HD
ENDBRANCH   4  11
BRANCH   6  13
ATOM     13  O   UNL     1      20.924  26.505  30.368  1.00  0.00    -0.387 OA
ATOM     14  H   UNL     1      21.369  25.676  30.057  1.00  0.00     0.211 HD
ENDBRANCH   6  13
BRANCH   7  15
ATOM     15  O   UNL     1      19.502  25.581  33.336  1.00  0.00    -0.385 OA
ATOM     16  H   UNL     1      20.141  24.868  33.066  1.00  0.00     0.211 HD
ENDBRANCH   7  15
ENDBRANCH   1   2
BRANCH   1  17
ATOM     17  C   UNL     1      17.581  29.191  33.729  1.00  0.00     0.224 C 
ATOM     18  C   UNL     1      17.702  30.070  34.995  1.00  0.00     0.208 C 
ATOM     19  O   UNL     1      16.203  28.896  33.511  1.00  0.00    -0.337 OA
ATOM     20  C   UNL     1      16.340  29.961  35.652  1.00  0.00     0.180 C 
ATOM     21  C   UNL     1      15.426  29.502  34.518  1.00  0.00     0.179 C 
BRANCH  17  22
ATOM     22  C   UNL     1      18.133  29.955  32.503  1.00  0.00     0.225 C 
BRANCH  22  23
ATOM     23  O   UNL     1      17.194  29.947  31.458  1.00  0.00    -0.391 OA
ATOM     24  H   UNL     1      16.540  30.674  31.648  1.00  0.00     0.210 HD
ENDBRANCH  22  23
ENDBRANCH  17  22
BRANCH  18  25
ATOM     25  O   UNL     1      18.708  29.621  35.876  1.00  0.00    -0.385 OA
ATOM     26  H   UNL     1      19.541  29.485  35.335  1.00  0.00     0.211 HD
ENDBRANCH  18  25
BRANCH  20  27
ATOM     27  O   UNL     1      16.324  29.029  36.717  1.00  0.00    -0.387 OA
ATOM     28  H   UNL     1      15.735  29.390  37.439  1.00  0.00     0.211 HD
ENDBRANCH  20  27
BRANCH  21  29
ATOM     29  C   UNL     1      14.626  30.674  33.923  1.00  0.00     0.191 C 
BRANCH  29  30
ATOM     30  O   UNL     1      14.507  30.518  32.531  1.00  0.00    -0.394 OA
ATOM     31  H   UNL     1      14.950  29.659  32.312  1.00  0.00     0.210 HD
ENDBRANCH  29  30
ENDBRANCH  21  29
ENDBRANCH   1  17
TORSDOF 13
ENDMDL
MODEL 2
REMARK VINA RESULT:    -3.694      2.181      6.388
REMARK INTER + INTRA:          -6.776
REMARK INTER:                  -5.674
REMARK INTRA:                  -1.102
REMARK UNBOUND:                -1.139
REMARK SMILES OC[C@@H]1O[C@H](O[C@@]2(CO)O[C@H](CO)[C@@H](O)[C@H]2O)[C@H](O)[C@@H](O)[C@@H]1O
REMARK SMILES IDX 6 1 5 2 3 3 22 4 4 5 20 6 18 7 2 8 1 9 23 11 21 13 19 15
REMARK SMILES IDX 7 17 16 18 10 19 14 20 11 21 8 22 9 23 17 25 15 27 12 29
REMARK SMILES IDX 13 30
REMARK H PARENT 1 10 23 12 21 14 19 16 9 24 17 26 15 28 13 31
REMARK Flexibility Score: inf
ROOT
ATOM      1  O   UNL     1      19.510  26.717  32.182  1.00  0.00    -0.313 OA
ENDROOT
BRANCH   1   2
ATOM      2  C   UNL     1      18.800  27.734  31.481  1.00  0.00     0.285 C 
ATOM      3  C   UNL     1      16.584  28.401  30.886  1.00  0.00     0.178 C 
ATOM      4  C   UNL     1      17.314  29.699  30.402  1.00  0.00     0.177 C 
ATOM      5  O   UNL     1      17.417  27.450  31.555  1.00  0.00    -0.341 OA
ATOM      6  C   UNL     1      18.276  30.228  31.486  1.00  0.00     0.179 C 
ATOM      7  C   UNL     1      19.086  29.084  32.158  1.00  0.00     0.202 C 
BRANCH   3   8
ATOM      8  C   UNL     1      15.391  28.699  31.810  1.00  0.00     0.191 C 
BRANCH   8   9
ATOM      9  O   UNL     1      15.800  28.733  33.153  1.00  0.00    -0.394 OA
ATOM     10  H   UNL     1      15.690  27.814  33.512  1.00  0.00     0.210 HD
ENDBRANCH   8   9
ENDBRANCH   3   8
BRANCH   4  11
ATOM     11  O   UNL     1      16.390  30.692  30.050  1.00  0.00    -0.387 OA
ATOM     12  H   UNL     1      16.876  31.561  30.073  1.00  0.00     0.211 HD
ENDBRANCH   4  11
BRANCH   6  13
ATOM     13  O   UNL     1      19.152  31.170  30.917  1.00  0.00    -0.387 OA
ATOM     14  H   UNL     1      20.067  30.901  31.185  1.00  0.00     0.211 HD
ENDBRANCH   6  13
BRANCH   7  15
ATOM     15  O   UNL     1      18.758  28.992  33.522  1.00  0.00    -0.385 OA
ATOM     16  H   UNL     1      17.826  28.648  33.573  1.00  0.00     0.211 HD
ENDBRANCH   7  15
ENDBRANCH   1   2
BRANCH   1  17
ATOM     17  C   UNL     1      20.705  26.281  31.536  1.00  0.00     0.224 C 
ATOM     18  C   UNL     1      21.824  26.143  32.595  1.00  0.00     0.208 C 
ATOM     19  O   UNL     1      21.125  27.224  30.553  1.00  0.00    -0.337 OA
ATOM     20  C   UNL     1      22.743  27.316  32.316  1.00  0.00     0.180 C 
ATOM     21  C   UNL     1      22.409  27.705  30.878  1.00  0.00     0.179 C 
BRANCH  17  22
ATOM     22  C   UNL     1      20.454  24.917  30.853  1.00  0.00     0.225 C 
BRANCH  22  23
ATOM     23  O   UNL     1      20.592  23.873  31.782  1.00  0.00    -0.391 OA
ATOM     24  H   UNL     1      20.492  23.019  31.280  1.00  0.00     0.210 HD
ENDBRANCH  22  23
ENDBRANCH  17  22
BRANCH  18  25
ATOM     25  O   UNL     1      21.335  26.206  33.916  1.00  0.00    -0.385 OA
ATOM     26  H   UNL     1      20.713  26.990  33.969  1.00  0.00     0.211 HD
ENDBRANCH  18  25
BRANCH  20  27
ATOM     27  O   UNL     1      22.518  28.403  33.195  1.00  0.00    -0.387 OA
ATOM     28  H   UNL     1      21.609  28.299  33.594  1.00  0.00     0.211 HD
ENDBRANCH  20  27
BRANCH  21  29
ATOM     29  C   UNL     1      23.441  27.147  29.883  1.00  0.00     0.191 C 
BRANCH  29  30
ATOM     30  O   UNL     1      24.727  27.614  30.210  1.00  0.00    -0.394 OA
ATOM     31  H   UNL     1      25.317  27.339  29.465  1.00  0.00     0.210 HD
ENDBRANCH  29  30
ENDBRANCH  21  29
ENDBRANCH   1  17
TORSDOF 13
ENDMDL
MODEL 3
REMARK VINA RESULT:    -3.635      1.635      6.228
REMARK INTER + INTRA:          -6.687
REMARK INTER:                  -5.844
REMARK INTRA:                  -0.843
REMARK UNBOUND:                -1.139
REMARK SMILES OC[C@@H]1O[C@H](O[C@@]2(CO)O[C@H](CO)[C@@H](O)[C@H]2O)[C@H](O)[C@@H](O)[C@@H]1O
REMARK SMILES IDX 6 1 5 2 3 3 22 4 4 5 20 6 18 7 2 8 1 9 23 11 21 13 19 15
REMARK SMILES IDX 7 17 16 18 10 19 14 20 11 21 8 22 9 23 17 25 15 27 12 29
REMARK SMILES IDX 13 30
REMARK H PARENT 1 10 23 12 21 14 19 16 9 24 17 26 15 28 13 31
REMARK Flexibility Score: inf
ROOT
ATOM      1  O   UNL     1      20.263  28.268  30.913  1.00  0.00    -0.313 OA
ENDROOT
BRANCH   1   2
ATOM      2  C   UNL     1      19.335  29.132  31.561  1.00  0.00     0.285 C 
ATOM      3  C   UNL     1      17.563  30.667  31.094  1.00  0.00     0.178 C 
ATOM      4  C   UNL     1      17.373  30.618  32.648  1.00  0.00     0.177 C 
ATOM      5  O   UNL     1      18.543  29.764  30.574  1.00  0.00    -0.341 OA
ATOM      6  C   UNL     1      17.346  29.161  33.155  1.00  0.00     0.179 C 
ATOM      7  C   UNL     1      18.436  28.285  32.477  1.00  0.00     0.202 C 
BRANCH   3   8
ATOM      8  C   UNL     1      16.253  30.415  30.327  1.00  0.00     0.191 C 
BRANCH   8   9
ATOM      9  O   UNL     1      16.190  29.087  29.877  1.00  0.00    -0.394 OA
ATOM     10  H   UNL     1      15.234  28.816  29.907  1.00  0.00     0.210 HD
ENDBRANCH   8   9
ENDBRANCH   3   8
BRANCH   4  11
ATOM     11  O   UNL     1      16.201  31.285  33.031  1.00  0.00    -0.387 OA
ATOM     12  H   UNL     1      15.759  31.597  32.195  1.00  0.00     0.211 HD
ENDBRANCH   4  11
BRANCH   6  13
ATOM     13  O   UNL     1      17.515  29.148  34.552  1.00  0.00    -0.387 OA
ATOM     14  H   UNL     1      17.082  29.971  34.894  1.00  0.00     0.211 HD
ENDBRANCH   6  13
BRANCH   7  15
ATOM     15  O   UNL     1      17.837  27.266  31.715  1.00  0.00    -0.385 OA
ATOM     16  H   UNL     1      16.869  27.264  31.945  1.00  0.00     0.211 HD
ENDBRANCH   7  15
ENDBRANCH   1   2
BRANCH   1  17
ATOM     17  C   UNL     1      21.439  27.991  31.673  1.00  0.00     0.224 C 
ATOM     18  C   UNL     1      21.748  26.479  31.583  1.00  0.00     0.208 C 
ATOM     19  O   UNL     1      21.251  28.334  33.044  1.00  0.00    -0.337 OA
ATOM     20  C   UNL     1      21.389  25.945  32.955  1.00  0.00     0.180 C 
ATOM     21  C   UNL     1      21.412  27.186  33.844  1.00  0.00     0.179 C 
BRANCH  17  22
ATOM     22  C   UNL     1      22.623  28.807  31.106  1.00  0.00     0.225 C 
BRANCH  22  23
ATOM     23  O   UNL     1      23.838  28.156  31.375  1.00  0.00    -0.391 OA
ATOM     24  H   UNL     1      24.561  28.834  31.277  1.00  0.00     0.210 HD
ENDBRANCH  22  23
ENDBRANCH  17  22
BRANCH  18  25
ATOM     25  O   UNL     1      20.991  25.826  30.588  1.00  0.00    -0.385 OA
ATOM     26  H   UNL     1      20.143  26.346  30.467  1.00  0.00     0.211 HD
ENDBRANCH  18  25
BRANCH  20  27
ATOM     27  O   UNL     1      20.113  25.332  32.982  1.00  0.00    -0.387 OA
ATOM     28  H   UNL     1      19.894  25.026  32.057  1.00  0.00     0.211 HD
ENDBRANCH  20  27
BRANCH  21  29
ATOM     29  C   UNL     1      22.722  27.288  34.644  1.00  0.00     0.191 C 
BRANCH  29  30
ATOM     30  O   UNL     1      22.499  26.923  35.983  1.00  0.00    -0.394 OA
ATOM     31  H   UNL     1      22.940  27.617  36.535  1.00  0.00     0.210 HD
ENDBRANCH  29  30
ENDBRANCH  21  29
ENDBRANCH   1  17
TORSDOF 13
ENDMDL
MODEL 4
REMARK VINA RESULT:    -3.603      1.985      6.337
REMARK INTER + INTRA:          -6.637
REMARK INTER:                  -5.640
REMARK INTRA:                  -0.998
REMARK UNBOUND:                -1.139
REMARK SMILES OC[C@@H]1O[C@H](O[C@@]2(CO)O[C@H](CO)[C@@H](O)[C@H]2O)[C@H](O)[C@@H](O)[C@@H]1O
REMARK SMILES IDX 6 1 5 2 3 3 22 4 4 5 20 6 18 7 2 8 1 9 23 11 21 13 19 15
REMARK SMILES IDX 7 17 16 18 10 19 14 20 11 21 8 22 9 23 17 25 15 27 12 29
REMARK SMILES IDX 13 30
REMARK H PARENT 1 10 23 12 21 14 19 16 9 24 17 26 15 28 13 31
REMARK Flexibility Score: inf
ROOT
ATOM      1  O   UNL     1      18.763  27.127  32.277  1.00  0.00    -0.313 OA
ENDROOT
BRANCH   1   2
ATOM      2  C   UNL     1      18.029  28.168  31.639  1.00  0.00     0.285 C 
ATOM      3  C   UNL     1      15.820  28.736  30.924  1.00  0.00     0.178 C 
ATOM      4  C   UNL     1      16.474  30.136  30.668  1.00  0.00     0.177 C 
ATOM      5  O   UNL     1      16.674  27.774  31.550  1.00  0.00    -0.341 OA
ATOM      6  C   UNL     1      17.294  30.595  31.891  1.00  0.00     0.179 C 
ATOM      7  C   UNL     1      18.141  29.440  32.495  1.00  0.00     0.202 C 
BRANCH   3   8
ATOM      8  C   UNL     1      14.533  28.825  31.763  1.00  0.00     0.191 C 
BRANCH   8   9
ATOM      9  O   UNL     1      14.824  28.699  33.130  1.00  0.00    -0.394 OA
ATOM     10  H   UNL     1      15.716  29.108  33.276  1.00  0.00     0.210 HD
ENDBRANCH   8   9
ENDBRANCH   3   8
BRANCH   4  11
ATOM     11  O   UNL     1      15.500  31.093  30.351  1.00  0.00    -0.387 OA
ATOM     12  H   UNL     1      15.984  31.920  30.078  1.00  0.00     0.211 HD
ENDBRANCH   4  11
BRANCH   6  13
ATOM     13  O   UNL     1      18.129  31.665  31.521  1.00  0.00    -0.387 OA
ATOM     14  H   UNL     1      17.537  32.365  31.144  1.00  0.00     0.211 HD
ENDBRANCH   6  13
BRANCH   7  15
ATOM     15  O   UNL     1      17.710  29.152  33.802  1.00  0.00    -0.385 OA
ATOM     16  H   UNL     1      17.008  29.820  34.029  1.00  0.00     0.211 HD
ENDBRANCH   7  15
ENDBRANCH   1   2
BRANCH   1  17
ATOM     17  C   UNL     1      19.960  26.750  31.599  1.00  0.00     0.224 C 
ATOM     18  C   UNL     1      20.637  25.601  32.381  1.00  0.00     0.208 C 
ATOM     19  O   UNL     1      20.869  27.845  31.523  1.00  0.00    -0.337 OA
ATOM     20  C   UNL     1      21.847  26.252  33.021  1.00  0.00     0.180 C 
ATOM     21  C   UNL     1      22.068  27.509  32.183  1.00  0.00     0.179 C 
BRANCH  17  22
ATOM     22  C   UNL     1      19.615  26.281  30.166  1.00  0.00     0.225 C 
BRANCH  22  23
ATOM     23  O   UNL     1      19.248  24.925  30.171  1.00  0.00    -0.391 OA
ATOM     24  H   UNL     1      20.076  24.398  30.004  1.00  0.00     0.210 HD
ENDBRANCH  22  23
ENDBRANCH  17  22
BRANCH  18  25
ATOM     25  O   UNL     1      19.798  25.045  33.369  1.00  0.00    -0.385 OA
ATOM     26  H   UNL     1      20.359  24.887  34.184  1.00  0.00     0.211 HD
ENDBRANCH  18  25
BRANCH  20  27
ATOM     27  O   UNL     1      21.628  26.588  34.379  1.00  0.00    -0.387 OA
ATOM     28  H   UNL     1      22.298  26.096  34.934  1.00  0.00     0.211 HD
ENDBRANCH  20  27
BRANCH  21  29
ATOM     29  C   UNL     1      23.193  27.314  31.151  1.00  0.00     0.191 C 
BRANCH  29  30
ATOM     30  O   UNL     1      24.104  28.382  31.224  1.00  0.00    -0.394 OA
ATOM     31  H   UNL     1      23.693  29.129  30.720  1.00  0.00     0.210 HD
ENDBRANCH  29  30
ENDBRANCH  21  29
ENDBRANCH   1  17
TORSDOF 13
ENDMDL
MODEL 5
REMARK VINA RESULT:    -3.602      1.589      6.171
REMARK INTER + INTRA:          -6.636
REMARK INTER:                  -5.290
REMARK INTRA:                  -1.347
REMARK UNBOUND:                -1.139
REMARK SMILES OC[C@@H]1O[C@H](O[C@@]2(CO)O[C@H](CO)[C@@H](O)[C@H]2O)[C@H](O)[C@@H](O)[C@@H]1O
REMARK SMILES IDX 6 1 5 2 3 3 22 4 4 5 20 6 18 7 2 8 1 9 23 11 21 13 19 15
REMARK SMILES IDX 7 17 16 18 10 19 14 20 11 21 8 22 9 23 17 25 15 27 12 29
REMARK SMILES IDX 13 30
REMARK H PARENT 1 10 23 12 21 14 19 16 9 24 17 26 15 28 13 31
REMARK Flexibility Score: inf
ROOT
ATOM      1  O   UNL     1      19.360  29.246  33.034  1.00  0.00    -0.313 OA
ENDROOT
BRANCH   1   2
ATOM      2  C   UNL     1      17.958  28.995  32.998  1.00  0.00     0.285 C 
ATOM      3  C   UNL     1      15.927  29.544  34.131  1.00  0.00     0.178 C 
ATOM      4  C   UNL     1      15.276  28.809  32.911  1.00  0.00     0.177 C 
ATOM      5  O   UNL     1      17.345  29.710  34.053  1.00  0.00    -0.341 OA
ATOM      6  C   UNL     1      15.865  29.320  31.580  1.00  0.00     0.179 C 
ATOM      7  C   UNL     1      17.407  29.493  31.651  1.00  0.00     0.202 C 
BRANCH   3   8
ATOM      8  C   UNL     1      15.314  30.933  34.384  1.00  0.00     0.191 C 
BRANCH   8   9
ATOM      9  O   UNL     1      16.175  31.944  33.930  1.00  0.00    -0.394 OA
ATOM     10  H   UNL     1      16.315  32.567  34.690  1.00  0.00     0.210 HD
ENDBRANCH   8   9
ENDBRANCH   3   8
BRANCH   4  11
ATOM     11  O   UNL     1      13.883  28.965  32.916  1.00  0.00    -0.387 OA
ATOM     12  H   UNL     1      13.654  29.548  32.141  1.00  0.00     0.211 HD
ENDBRANCH   4  11
BRANCH   6  13
ATOM     13  O   UNL     1      15.525  28.429  30.545  1.00  0.00    -0.387 OA
ATOM     14  H   UNL     1      15.867  27.540  30.817  1.00  0.00     0.211 HD
ENDBRANCH   6  13
BRANCH   7  15
ATOM     15  O   UNL     1      17.753  30.846  31.486  1.00  0.00    -0.385 OA
ATOM     16  H   UNL     1      18.497  30.877  30.827  1.00  0.00     0.211 HD
ENDBRANCH   7  15
ENDBRANCH   1   2
BRANCH   1  17
ATOM     17  C   UNL     1      20.162  28.079  33.208  1.00  0.00     0.224 C 
ATOM     18  C   UNL     1      21.396  28.177  32.281  1.00  0.00     0.208 C 
ATOM     19  O   UNL     1      19.431  26.903  32.867  1.00  0.00    -0.337 OA
ATOM     20  C   UNL     1      21.118  27.165  31.188  1.00  0.00     0.180 C 
ATOM     21  C   UNL     1      20.079  26.235  31.809  1.00  0.00     0.179 C 
BRANCH  17  22
ATOM     22  C   UNL     1      20.616  27.981  34.683  1.00  0.00     0.225 C 
BRANCH  22  23
ATOM     23  O   UNL     1      21.745  27.153  34.793  1.00  0.00    -0.391 OA
ATOM     24  H   UNL     1      21.458  26.233  34.543  1.00  0.00     0.210 HD
ENDBRANCH  22  23
ENDBRANCH  17  22
BRANCH  18  25
ATOM     25  O   UNL     1      21.561  29.464  31.729  1.00  0.00    -0.385 OA
ATOM     26  H   UNL     1      21.598  29.360  30.733  1.00  0.00     0.211 HD
ENDBRANCH  18  25
BRANCH  20  27
ATOM     27  O   UNL     1      20.613  27.764  30.008  1.00  0.00    -0.387 OA
ATOM     28  H   UNL     1      21.105  28.621  29.859  1.00  0.00     0.211 HD
ENDBRANCH  20  27
BRANCH  21  29
ATOM     29  C   UNL     1      20.717  24.935  32.328  1.00  0.00     0.191 C 
BRANCH  29  30
ATOM     30  O   UNL     1      20.194  24.614  33.593  1.00  0.00    -0.394 OA
ATOM     31  H   UNL     1      19.811  23.704  33.510  1.00  0.00     0.210 HD
ENDBRANCH  29  30
ENDBRANCH  21  29
ENDBRANCH   1  17
TORSDOF 13
ENDMDL
MODEL 6
REMARK VINA RESULT:    -3.517      1.569      6.316
REMARK INTER + INTRA:          -6.507
REMARK INTER:                  -5.503
REMARK INTRA:                  -1.003
REMARK UNBOUND:                -1.139
REMARK SMILES OC[C@@H]1O[C@H](O[C@@]2(CO)O[C@H](CO)[C@@H](O)[C@H]2O)[C@H](O)[C@@H](O)[C@@H]1O
REMARK SMILES IDX 6 1 5 2 3 3 22 4 4 5 20 6 18 7 2 8 1 9 23 11 21 13 19 15
REMARK SMILES IDX 7 17 16 18 10 19 14 20 11 21 8 22 9 23 17 25 15 27 12 29
REMARK SMILES IDX 13 30
REMARK H PARENT 1 10 23 12 21 14 19 16 9 24 17 26 15 28 13 31
REMARK Flexibility Score: inf
ROOT
ATOM      1  O   UNL     1      19.112  28.108  34.094  1.00  0.00    -0.313 OA
ENDROOT
BRANCH   1   2
ATOM      2  C   UNL     1      18.202  29.202  34.048  1.00  0.00     0.285 C 
ATOM      3  C   UNL     1      15.938  29.735  33.496  1.00  0.00     0.178 C 
ATOM      4  C   UNL     1      16.312  31.115  34.135  1.00  0.00     0.177 C 
ATOM      5  O   UNL     1      16.951  28.728  33.590  1.00  0.00    -0.341 OA
ATOM      6  C   UNL     1      17.005  30.921  35.500  1.00  0.00     0.179 C 
ATOM      7  C   UNL     1      18.049  29.771  35.468  1.00  0.00     0.202 C 
BRANCH   3   8
ATOM      8  C   UNL     1      14.644  29.141  34.078  1.00  0.00     0.191 C 
BRANCH   8   9
ATOM      9  O   UNL     1      14.641  29.236  35.479  1.00  0.00    -0.394 OA
ATOM     10  H   UNL     1      14.684  28.309  35.831  1.00  0.00     0.210 HD
ENDBRANCH   8   9
ENDBRANCH   3   8
BRANCH   4  11
ATOM     11  O   UNL     1      15.178  31.925  34.279  1.00  0.00    -0.387 OA
ATOM     12  H   UNL     1      14.485  31.566  33.660  1.00  0.00     0.211 HD
ENDBRANCH   4  11
BRANCH   6  13
ATOM     13  O   UNL     1      17.624  32.125  35.886  1.00  0.00    -0.387 OA
ATOM     14  H   UNL     1      18.224  32.383  35.141  1.00  0.00     0.211 HD
ENDBRANCH   6  13
BRANCH   7  15
ATOM     15  O   UNL     1      17.658  28.736  36.336  1.00  0.00    -0.385 OA
ATOM     16  H   UNL     1      16.813  28.357  35.973  1.00  0.00     0.211 HD
ENDBRANCH   7  15
ENDBRANCH   1   2
BRANCH   1  17
ATOM     17  C   UNL     1      19.974  28.011  32.961  1.00  0.00     0.224 C 
ATOM     18  C   UNL     1      19.612  26.735  32.165  1.00  0.00     0.208 C 
ATOM     19  O   UNL     1      21.338  27.922  33.365  1.00  0.00    -0.337 OA
ATOM     20  C   UNL     1      20.762  25.788  32.443  1.00  0.00     0.180 C 
ATOM     21  C   UNL     1      21.889  26.710  32.904  1.00  0.00     0.179 C 
BRANCH  17  22
ATOM     22  C   UNL     1      19.793  29.260  32.067  1.00  0.00     0.225 C 
BRANCH  22  23
ATOM     23  O   UNL     1      21.040  29.829  31.765  1.00  0.00    -0.391 OA
ATOM     24  H   UNL     1      21.228  29.629  30.807  1.00  0.00     0.210 HD
ENDBRANCH  22  23
ENDBRANCH  17  22
BRANCH  18  25
ATOM     25  O   UNL     1      18.393  26.162  32.579  1.00  0.00    -0.385 OA
ATOM     26  H   UNL     1      18.220  25.368  31.993  1.00  0.00     0.211 HD
ENDBRANCH  18  25
BRANCH  20  27
ATOM     27  O   UNL     1      20.452  24.836  33.444  1.00  0.00    -0.387 OA
ATOM     28  H   UNL     1      20.974  25.064  34.264  1.00  0.00     0.211 HD
ENDBRANCH  20  27
BRANCH  21  29
ATOM     29  C   UNL     1      22.892  26.992  31.772  1.00  0.00     0.191 C 
BRANCH  29  30
ATOM     30  O   UNL     1      23.552  28.211  32.006  1.00  0.00    -0.394 OA
ATOM     31  H   UNL     1      22.840  28.885  32.153  1.00  0.00     0.210 HD
ENDBRANCH  29  30
ENDBRANCH  21  29
ENDBRANCH   1  17
TORSDOF 13
ENDMDL
MODEL 7
REMARK VINA RESULT:    -3.460      1.665      3.527
REMARK INTER + INTRA:          -6.419
REMARK INTER:                  -5.159
REMARK INTRA:                  -1.261
REMARK UNBOUND:                -1.139
REMARK SMILES OC[C@@H]1O[C@H](O[C@@]2(CO)O[C@H](CO)[C@@H](O)[C@H]2O)[C@H](O)[C@@H](O)[C@@H]1O
REMARK SMILES IDX 6 1 5 2 3 3 22 4 4 5 20 6 18 7 2 8 1 9 23 11 21 13 19 15
REMARK SMILES IDX 7 17 16 18 10 19 14 20 11 21 8 22 9 23 17 25 15 27 12 29
REMARK SMILES IDX 13 30
REMARK H PARENT 1 10 23 12 21 14 19 16 9 24 17 26 15 28 13 31
REMARK Flexibility Score: inf
ROOT
ATOM      1  O   UNL     1      18.139  29.689  33.585  1.00  0.00    -0.313 OA
ENDROOT
BRANCH   1   2
ATOM      2  C   UNL     1      19.045  28.590  33.540  1.00  0.00     0.285 C 
ATOM      3  C   UNL     1      19.160  26.281  32.935  1.00  0.00     0.178 C 
ATOM      4  C   UNL     1      20.693  26.496  33.173  1.00  0.00     0.177 C 
ATOM      5  O   UNL     1      18.360  27.463  33.032  1.00  0.00    -0.341 OA
ATOM      6  C   UNL     1      21.192  27.762  32.446  1.00  0.00     0.179 C 
ATOM      7  C   UNL     1      20.207  28.953  32.600  1.00  0.00     0.202 C 
BRANCH   3   8
ATOM      8  C   UNL     1      18.856  25.629  31.575  1.00  0.00     0.191 C 
BRANCH   8   9
ATOM      9  O   UNL     1      18.897  24.229  31.676  1.00  0.00    -0.394 OA
ATOM     10  H   UNL     1      19.187  23.884  30.791  1.00  0.00     0.210 HD
ENDBRANCH   8   9
ENDBRANCH   3   8
BRANCH   4  11
ATOM     11  O   UNL     1      21.427  25.378  32.757  1.00  0.00    -0.387 OA
ATOM     12  H   UNL     1      21.244  24.650  33.412  1.00  0.00     0.211 HD
ENDBRANCH   4  11
BRANCH   6  13
ATOM     13  O   UNL     1      22.461  28.117  32.940  1.00  0.00    -0.387 OA
ATOM     14  H   UNL     1      22.303  28.676  33.743  1.00  0.00     0.211 HD
ENDBRANCH   6  13
BRANCH   7  15
ATOM     15  O   UNL     1      19.685  29.319  31.346  1.00  0.00    -0.385 OA
ATOM     16  H   UNL     1      20.086  28.703  30.675  1.00  0.00     0.211 HD
ENDBRANCH   7  15
ENDBRANCH   1   2
BRANCH   1  17
ATOM     17  C   UNL     1      17.569  29.929  34.870  1.00  0.00     0.224 C 
ATOM     18  C   UNL     1      16.068  29.562  34.828  1.00  0.00     0.208 C 
ATOM     19  O   UNL     1      17.690  31.303  35.232  1.00  0.00    -0.337 OA
ATOM     20  C   UNL     1      15.358  30.901  34.861  1.00  0.00     0.180 C 
ATOM     21  C   UNL     1      16.408  31.854  35.427  1.00  0.00     0.179 C 
BRANCH  17  22
ATOM     22  C   UNL     1      18.295  29.064  35.926  1.00  0.00     0.225 C 
BRANCH  22  23
ATOM     23  O   UNL     1      17.551  29.019  37.116  1.00  0.00    -0.391 OA
ATOM     24  H   UNL     1      16.701  29.510  36.949  1.00  0.00     0.210 HD
ENDBRANCH  22  23
ENDBRANCH  17  22
BRANCH  18  25
ATOM     25  O   UNL     1      15.714  28.847  33.666  1.00  0.00    -0.385 OA
ATOM     26  H   UNL     1      15.198  28.038  33.956  1.00  0.00     0.211 HD
ENDBRANCH  18  25
BRANCH  20  27
ATOM     27  O   UNL     1      14.938  31.324  33.576  1.00  0.00    -0.387 OA
ATOM     28  H   UNL     1      14.031  31.733  33.664  1.00  0.00     0.211 HD
ENDBRANCH  20  27
BRANCH  21  29
ATOM     29  C   UNL     1      16.181  32.125  36.925  1.00  0.00     0.191 C 
BRANCH  29  30
ATOM     30  O   UNL     1      17.402  32.046  37.618  1.00  0.00    -0.394 OA
ATOM     31  H   UNL     1      17.843  31.216  37.304  1.00  0.00     0.210 HD
ENDBRANCH  29  30
ENDBRANCH  21  29
ENDBRANCH   1  17
TORSDOF 13
ENDMDL
MODEL 8
REMARK VINA RESULT:    -3.444      1.437      6.127
REMARK INTER + INTRA:          -6.396
REMARK INTER:                  -5.895
REMARK INTRA:                  -0.501
REMARK UNBOUND:                -1.139
REMARK SMILES OC[C@@H]1O[C@H](O[C@@]2(CO)O[C@H](CO)[C@@H](O)[C@H]2O)[C@H](O)[C@@H](O)[C@@H]1O
REMARK SMILES IDX 6 1 5 2 3 3 22 4 4 5 20 6 18 7 2 8 1 9 23 11 21 13 19 15
REMARK SMILES IDX 7 17 16 18 10 19 14 20 11 21 8 22 9 23 17 25 15 27 12 29
REMARK SMILES IDX 13 30
REMARK H PARENT 1 10 23 12 21 14 19 16 9 24 17 26 15 28 13 31
REMARK Flexibility Score: inf
ROOT
ATOM      1  O   UNL     1      19.782  28.310  33.554  1.00  0.00    -0.313 OA
ENDROOT
BRANCH   1   2
ATOM      2  C   UNL     1      18.372  28.499  33.630  1.00  0.00     0.285 C 
ATOM      3  C   UNL     1      16.712  29.758  34.801  1.00  0.00     0.178 C 
ATOM      4  C   UNL     1      15.761  29.137  33.723  1.00  0.00     0.177 C 
ATOM      5  O   UNL     1      18.102  29.472  34.621  1.00  0.00    -0.341 OA
ATOM      6  C   UNL     1      16.349  29.304  32.306  1.00  0.00     0.179 C 
ATOM      7  C   UNL     1      17.872  29.002  32.266  1.00  0.00     0.202 C 
BRANCH   3   8
ATOM      8  C   UNL     1      16.568  31.286  34.912  1.00  0.00     0.191 C 
BRANCH   8   9
ATOM      9  O   UNL     1      15.502  31.623  35.761  1.00  0.00    -0.394 OA
ATOM     10  H   UNL     1      14.698  31.150  35.418  1.00  0.00     0.210 HD
ENDBRANCH   8   9
ENDBRANCH   3   8
BRANCH   4  11
ATOM     11  O   UNL     1      14.485  29.714  33.788  1.00  0.00    -0.387 OA
ATOM     12  H   UNL     1      14.514  30.403  34.507  1.00  0.00     0.211 HD
ENDBRANCH   4  11
BRANCH   6  13
ATOM     13  O   UNL     1      15.665  28.460  31.413  1.00  0.00    -0.387 OA
ATOM     14  H   UNL     1      14.817  28.921  31.185  1.00  0.00     0.211 HD
ENDBRANCH   6  13
BRANCH   7  15
ATOM     15  O   UNL     1      18.589  30.159  31.913  1.00  0.00    -0.385 OA
ATOM     16  H   UNL     1      19.525  30.026  32.222  1.00  0.00     0.211 HD
ENDBRANCH   7  15
ENDBRANCH   1   2
BRANCH   1  17
ATOM     17  C   UNL     1      20.184  27.189  32.769  1.00  0.00     0.224 C 
ATOM     18  C   UNL     1      21.530  26.655  33.310  1.00  0.00     0.208 C 
ATOM     19  O   UNL     1      20.359  27.560  31.404  1.00  0.00    -0.337 OA
ATOM     20  C   UNL     1      22.541  27.068  32.259  1.00  0.00     0.180 C 
ATOM     21  C   UNL     1      21.691  27.315  31.015  1.00  0.00     0.179 C 
BRANCH  17  22
ATOM     22  C   UNL     1      19.104  26.085  32.857  1.00  0.00     0.225 C 
BRANCH  22  23
ATOM     23  O   UNL     1      19.701  24.837  33.101  1.00  0.00    -0.391 OA
ATOM     24  H   UNL     1      20.580  24.836  32.634  1.00  0.00     0.210 HD
ENDBRANCH  22  23
ENDBRANCH  17  22
BRANCH  18  25
ATOM     25  O   UNL     1      21.871  27.206  34.563  1.00  0.00    -0.385 OA
ATOM     26  H   UNL     1      22.808  26.919  34.772  1.00  0.00     0.211 HD
ENDBRANCH  18  25
BRANCH  20  27
ATOM     27  O   UNL     1      23.253  28.237  32.620  1.00  0.00    -0.387 OA
ATOM     28  H   UNL     1      24.203  27.984  32.793  1.00  0.00     0.211 HD
ENDBRANCH  20  27
BRANCH  21  29
ATOM     29  C   UNL     1      21.739  26.119  30.047  1.00  0.00     0.191 C 
BRANCH  29  30
ATOM     30  O   UNL     1      20.527  25.408  30.101  1.00  0.00    -0.394 OA
ATOM     31  H   UNL     1      20.771  24.448  30.087  1.00  0.00     0.210 HD
ENDBRANCH  29  30
ENDBRANCH  21  29
ENDBRANCH   1  17
TORSDOF 13
ENDMDL
MODEL 9
REMARK VINA RESULT:    -3.191      1.766      2.483
REMARK INTER + INTRA:          -6.009
REMARK INTER:                  -4.721
REMARK INTRA:                  -1.288
REMARK UNBOUND:                -1.139
REMARK SMILES OC[C@@H]1O[C@H](O[C@@]2(CO)O[C@H](CO)[C@@H](O)[C@H]2O)[C@H](O)[C@@H](O)[C@@H]1O
REMARK SMILES IDX 6 1 5 2 3 3 22 4 4 5 20 6 18 7 2 8 1 9 23 11 21 13 19 15
REMARK SMILES IDX 7 17 16 18 10 19 14 20 11 21 8 22 9 23 17 25 15 27 12 29
REMARK SMILES IDX 13 30
REMARK H PARENT 1 10 23 12 21 14 19 16 9 24 17 26 15 28 13 31
REMARK Flexibility Score: inf
ROOT
ATOM      1  O   UNL     1      18.201  29.427  33.212  1.00  0.00    -0.313 OA
ENDROOT
BRANCH   1   2
ATOM      2  C   UNL     1      18.681  28.273  32.528  1.00  0.00     0.285 C 
ATOM      3  C   UNL     1      20.296  27.595  30.902  1.00  0.00     0.178 C 
ATOM      4  C   UNL     1      19.847  26.160  31.340  1.00  0.00     0.177 C 
ATOM      5  O   UNL     1      19.722  28.667  31.656  1.00  0.00    -0.341 OA
ATOM      6  C   UNL     1      19.838  26.030  32.877  1.00  0.00     0.179 C 
ATOM      7  C   UNL     1      19.226  27.280  33.567  1.00  0.00     0.202 C 
BRANCH   3   8
ATOM      8  C   UNL     1      21.824  27.776  30.934  1.00  0.00     0.191 C 
BRANCH   8   9
ATOM      9  O   UNL     1      22.214  28.492  32.077  1.00  0.00    -0.394 OA
ATOM     10  H   UNL     1      21.827  28.020  32.860  1.00  0.00     0.210 HD
ENDBRANCH   8   9
ENDBRANCH   3   8
BRANCH   4  11
ATOM     11  O   UNL     1      20.676  25.182  30.776  1.00  0.00    -0.387 OA
ATOM     12  H   UNL     1      21.164  24.747  31.528  1.00  0.00     0.211 HD
ENDBRANCH   4  11
BRANCH   6  13
ATOM     13  O   UNL     1      19.122  24.876  33.245  1.00  0.00    -0.387 OA
ATOM     14  H   UNL     1      19.239  24.774  34.224  1.00  0.00     0.211 HD
ENDBRANCH   6  13
BRANCH   7  15
ATOM     15  O   UNL     1      20.197  27.927  34.352  1.00  0.00    -0.385 OA
ATOM     16  H   UNL     1      20.964  28.133  33.753  1.00  0.00     0.211 HD
ENDBRANCH   7  15
ENDBRANCH   1   2
BRANCH   1  17
ATOM     17  C   UNL     1      17.052  30.029  32.618  1.00  0.00     0.224 C 
ATOM     18  C   UNL     1      16.293  30.833  33.699  1.00  0.00     0.208 C 
ATOM     19  O   UNL     1      16.174  29.037  32.090  1.00  0.00    -0.337 OA
ATOM     20  C   UNL     1      15.052  30.007  33.971  1.00  0.00     0.180 C 
ATOM     21  C   UNL     1      14.921  29.128  32.729  1.00  0.00     0.179 C 
BRANCH  17  22
ATOM     22  C   UNL     1      17.496  30.970  31.474  1.00  0.00     0.225 C 
BRANCH  22  23
ATOM     23  O   UNL     1      17.339  30.336  30.231  1.00  0.00    -0.391 OA
ATOM     24  H   UNL     1      17.824  30.887  29.558  1.00  0.00     0.210 HD
ENDBRANCH  22  23
ENDBRANCH  17  22
BRANCH  18  25
ATOM     25  O   UNL     1      17.043  30.998  34.882  1.00  0.00    -0.385 OA
ATOM     26  H   UNL     1      17.931  30.557  34.738  1.00  0.00     0.211 HD
ENDBRANCH  18  25
BRANCH  20  27
ATOM     27  O   UNL     1      15.173  29.213  35.137  1.00  0.00    -0.387 OA
ATOM     28  H   UNL     1      14.531  29.560  35.819  1.00  0.00     0.211 HD
ENDBRANCH  20  27
BRANCH  21  29
ATOM     29  C   UNL     1      13.875  29.684  31.747  1.00  0.00     0.191 C 
BRANCH  29  30
ATOM     30  O   UNL     1      14.362  29.605  30.430  1.00  0.00    -0.394 OA
ATOM     31  H   UNL     1      13.773  30.184  29.884  1.00  0.00     0.210 HD
ENDBRANCH  29  30
ENDBRANCH  21  29
ENDBRANCH   1  17
TORSDOF 13
ENDMDL
