MODEL 1
REMARK VINA RESULT:    -4.100      0.000      0.000
REMARK INTER + INTRA:          -4.432
REMARK INTER:                  -4.339
REMARK INTRA:                  -0.093
REMARK UNBOUND:                -0.093
REMARK SMILES C=C(C)[C@H]1CC=C(C)C(=O)C1
REMARK SMILES IDX 8 1 7 2 6 3 5 4 4 5 11 6 9 7 10 8 2 9 1 10 3 11
REMARK H PARENT
REMARK Flexibility Score: inf
ROOT
ATOM      1  C   UNL     1      83.394  32.353  68.047  1.00  0.00     0.048 C 
ATOM      2  C   UNL     1      84.486  31.921  67.108  1.00  0.00    -0.012 C 
ATOM      3  C   UNL     1      85.764  31.910  67.527  1.00  0.00    -0.019 C 
ATOM      4  C   UNL     1      86.897  31.504  66.623  1.00  0.00     0.036 C 
ATOM      5  C   UNL     1      86.446  30.429  65.616  1.00  0.00     0.025 C 
ATOM      6  C   UNL     1      85.217  30.918  64.827  1.00  0.00     0.089 C 
ATOM      7  C   UNL     1      84.140  31.391  65.765  1.00  0.00     0.158 C 
ATOM      8  O   UNL     1      82.939  31.367  65.384  1.00  0.00    -0.295 OA
ENDROOT
BRANCH   5   9
ATOM      9  C   UNL     1      87.580  30.015  64.688  1.00  0.00    -0.077 C 
ATOM     10  C   UNL     1      88.118  30.881  63.813  1.00  0.00     0.008 C 
ATOM     11  C   UNL     1      88.125  28.611  64.739  1.00  0.00     0.039 C 
ENDBRANCH   5   9
TORSDOF 1
ENDMDL
MODEL 2
REMARK VINA RESULT:    -3.727     16.472     17.708
REMARK INTER + INTRA:          -4.038
REMARK INTER:                  -3.949
REMARK INTRA:                  -0.089
REMARK UNBOUND:                -0.093
REMARK SMILES C=C(C)[C@H]1CC=C(C)C(=O)C1
REMARK SMILES IDX 8 1 7 2 6 3 5 4 4 5 11 6 9 7 10 8 2 9 1 10 3 11
REMARK H PARENT
REMARK Flexibility Score: inf
ROOT
ATOM      1  C   UNL     1      75.053  35.847  52.049  1.00  0.00     0.048 C 
ATOM      2  C   UNL     1      74.318  35.290  53.238  1.00  0.00    -0.012 C 
ATOM      3  C   UNL     1      73.820  36.124  54.167  1.00  0.00    -0.019 C 
ATOM      4  C   UNL     1      73.093  35.620  55.384  1.00  0.00     0.036 C 
ATOM      5  C   UNL     1      72.322  34.323  55.073  1.00  0.00     0.025 C 
ATOM      6  C   UNL     1      73.273  33.266  54.482  1.00  0.00     0.089 C 
ATOM      7  C   UNL     1      74.040  33.835  53.320  1.00  0.00     0.158 C 
ATOM      8  O   UNL     1      74.477  33.055  52.431  1.00  0.00    -0.295 OA
ENDROOT
BRANCH   5   9
ATOM      9  C   UNL     1      71.588  33.795  56.299  1.00  0.00    -0.077 C 
ATOM     10  C   UNL     1      70.363  34.241  56.626  1.00  0.00     0.008 C 
ATOM     11  C   UNL     1      72.232  32.752  57.175  1.00  0.00     0.039 C 
ENDBRANCH   5   9
TORSDOF 1
ENDMDL
MODEL 3
REMARK VINA RESULT:    -3.490      2.290      3.721
REMARK INTER + INTRA:          -3.787
REMARK INTER:                  -3.694
REMARK INTRA:                  -0.093
REMARK UNBOUND:                -0.093
REMARK SMILES C=C(C)[C@H]1CC=C(C)C(=O)C1
REMARK SMILES IDX 8 1 7 2 6 3 5 4 4 5 11 6 9 7 10 8 2 9 1 10 3 11
REMARK H PARENT
REMARK Flexibility Score: inf
ROOT
ATOM      1  C   UNL     1      87.726  32.900  66.699  1.00  0.00     0.048 C 
ATOM      2  C   UNL     1      86.612  31.974  66.295  1.00  0.00    -0.012 C 
ATOM      3  C   UNL     1      85.334  32.356  66.456  1.00  0.00    -0.019 C 
ATOM      4  C   UNL     1      84.181  31.462  66.086  1.00  0.00     0.036 C 
ATOM      5  C   UNL     1      84.535  30.570  64.880  1.00  0.00     0.025 C 
ATOM      6  C   UNL     1      85.822  29.775  65.164  1.00  0.00     0.089 C 
ATOM      7  C   UNL     1      86.926  30.695  65.610  1.00  0.00     0.158 C 
ATOM      8  O   UNL     1      88.124  30.352  65.426  1.00  0.00    -0.295 OA
ENDROOT
BRANCH   5   9
ATOM      9  C   UNL     1      83.380  29.653  64.500  1.00  0.00    -0.077 C 
ATOM     10  C   UNL     1      82.163  30.144  64.212  1.00  0.00     0.008 C 
ATOM     11  C   UNL     1      83.588  28.161  64.438  1.00  0.00     0.039 C 
ENDBRANCH   5   9
TORSDOF 1
ENDMDL
MODEL 4
REMARK VINA RESULT:    -3.480     16.524     17.704
REMARK INTER + INTRA:          -3.776
REMARK INTER:                  -3.683
REMARK INTRA:                  -0.093
REMARK UNBOUND:                -0.093
REMARK SMILES C=C(C)[C@H]1CC=C(C)C(=O)C1
REMARK SMILES IDX 8 1 7 2 6 3 5 4 4 5 11 6 9 7 10 8 2 9 1 10 3 11
REMARK H PARENT
REMARK Flexibility Score: inf
ROOT
ATOM      1  C   UNL     1      74.831  34.181  52.377  1.00  0.00     0.048 C 
ATOM      2  C   UNL     1      73.791  34.162  53.463  1.00  0.00    -0.012 C 
ATOM      3  C   UNL     1      72.910  33.148  53.528  1.00  0.00    -0.019 C 
ATOM      4  C   UNL     1      71.838  33.089  54.583  1.00  0.00     0.036 C 
ATOM      5  C   UNL     1      72.318  33.730  55.900  1.00  0.00     0.025 C 
ATOM      6  C   UNL     1      72.808  35.167  55.646  1.00  0.00     0.089 C 
ATOM      7  C   UNL     1      73.817  35.193  54.530  1.00  0.00     0.158 C 
ATOM      8  O   UNL     1      74.665  36.125  54.490  1.00  0.00    -0.295 OA
ENDROOT
BRANCH   5   9
ATOM      9  C   UNL     1      71.240  33.685  56.974  1.00  0.00    -0.077 C 
ATOM     10  C   UNL     1      70.089  34.366  56.837  1.00  0.00     0.008 C 
ATOM     11  C   UNL     1      71.448  32.866  58.221  1.00  0.00     0.039 C 
ENDBRANCH   5   9
TORSDOF 1
ENDMDL
MODEL 5
REMARK VINA RESULT:    -3.224      1.846      3.114
REMARK INTER + INTRA:          -3.506
REMARK INTER:                  -3.411
REMARK INTRA:                  -0.095
REMARK UNBOUND:                -0.093
REMARK SMILES C=C(C)[C@H]1CC=C(C)C(=O)C1
REMARK SMILES IDX 8 1 7 2 6 3 5 4 4 5 11 6 9 7 10 8 2 9 1 10 3 11
REMARK H PARENT
REMARK Flexibility Score: inf
ROOT
ATOM      1  C   UNL     1      83.298  29.239  64.331  1.00  0.00     0.048 C 
ATOM      2  C   UNL     1      84.335  30.187  64.867  1.00  0.00    -0.012 C 
ATOM      3  C   UNL     1      85.580  29.745  65.116  1.00  0.00    -0.019 C 
ATOM      4  C   UNL     1      86.650  30.647  65.670  1.00  0.00     0.036 C 
ATOM      5  C   UNL     1      86.471  32.094  65.172  1.00  0.00     0.025 C 
ATOM      6  C   UNL     1      85.055  32.600  65.501  1.00  0.00     0.089 C 
ATOM      7  C   UNL     1      84.017  31.631  65.004  1.00  0.00     0.158 C 
ATOM      8  O   UNL     1      82.860  32.053  64.736  1.00  0.00    -0.295 OA
ENDROOT
BRANCH   5   9
ATOM      9  C   UNL     1      87.543  33.019  65.732  1.00  0.00    -0.077 C 
ATOM     10  C   UNL     1      88.125  32.776  66.919  1.00  0.00     0.008 C 
ATOM     11  C   UNL     1      87.974  34.236  64.955  1.00  0.00     0.039 C 
ENDBRANCH   5   9
TORSDOF 1
ENDMDL
MODEL 6
REMARK VINA RESULT:    -3.212      2.135      3.068
REMARK INTER + INTRA:          -3.493
REMARK INTER:                  -3.396
REMARK INTRA:                  -0.098
REMARK UNBOUND:                -0.093
REMARK SMILES C=C(C)[C@H]1CC=C(C)C(=O)C1
REMARK SMILES IDX 8 1 7 2 6 3 5 4 4 5 11 6 9 7 10 8 2 9 1 10 3 11
REMARK H PARENT
REMARK Flexibility Score: inf
ROOT
ATOM      1  C   UNL     1      81.849  30.101  64.154  1.00  0.00     0.048 C 
ATOM      2  C   UNL     1      83.268  30.424  64.531  1.00  0.00    -0.012 C 
ATOM      3  C   UNL     1      83.614  31.693  64.812  1.00  0.00    -0.019 C 
ATOM      4  C   UNL     1      85.023  32.074  65.178  1.00  0.00     0.036 C 
ATOM      5  C   UNL     1      85.726  30.935  65.943  1.00  0.00     0.025 C 
ATOM      6  C   UNL     1      85.667  29.630  65.128  1.00  0.00     0.089 C 
ATOM      7  C   UNL     1      84.253  29.328  64.713  1.00  0.00     0.158 C 
ATOM      8  O   UNL     1      83.921  28.134  64.484  1.00  0.00    -0.295 OA
ENDROOT
BRANCH   5   9
ATOM      9  C   UNL     1      87.157  31.303  66.311  1.00  0.00    -0.077 C 
ATOM     10  C   UNL     1      88.125  30.373  66.368  1.00  0.00     0.008 C 
ATOM     11  C   UNL     1      87.513  32.734  66.620  1.00  0.00     0.039 C 
ENDBRANCH   5   9
TORSDOF 1
ENDMDL
MODEL 7
REMARK VINA RESULT:    -3.008     16.826     17.327
REMARK INTER + INTRA:          -3.277
REMARK INTER:                  -3.181
REMARK INTRA:                  -0.096
REMARK UNBOUND:                -0.093
REMARK SMILES C=C(C)[C@H]1CC=C(C)C(=O)C1
REMARK SMILES IDX 8 1 7 2 6 3 5 4 4 5 11 6 9 7 10 8 2 9 1 10 3 11
REMARK H PARENT
REMARK Flexibility Score: inf
ROOT
ATOM      1  C   UNL     1      71.606  34.575  56.117  1.00  0.00     0.048 C 
ATOM      2  C   UNL     1      72.588  34.729  54.989  1.00  0.00    -0.012 C 
ATOM      3  C   UNL     1      73.200  35.909  54.791  1.00  0.00    -0.019 C 
ATOM      4  C   UNL     1      74.178  36.123  53.667  1.00  0.00     0.036 C 
ATOM      5  C   UNL     1      74.958  34.830  53.356  1.00  0.00     0.025 C 
ATOM      6  C   UNL     1      73.983  33.674  53.069  1.00  0.00     0.089 C 
ATOM      7  C   UNL     1      72.972  33.547  54.176  1.00  0.00     0.158 C 
ATOM      8  O   UNL     1      72.425  32.431  54.384  1.00  0.00    -0.295 OA
ENDROOT
BRANCH   5   9
ATOM      9  C   UNL     1      75.945  35.029  52.214  1.00  0.00    -0.077 C 
ATOM     10  C   UNL     1      75.903  36.125  51.437  1.00  0.00     0.008 C 
ATOM     11  C   UNL     1      76.998  33.988  51.934  1.00  0.00     0.039 C 
ENDBRANCH   5   9
TORSDOF 1
ENDMDL
MODEL 8
REMARK VINA RESULT:    -2.888     16.450     17.348
REMARK INTER + INTRA:          -3.150
REMARK INTER:                  -3.057
REMARK INTRA:                  -0.094
REMARK UNBOUND:                -0.093
REMARK SMILES C=C(C)[C@H]1CC=C(C)C(=O)C1
REMARK SMILES IDX 8 1 7 2 6 3 5 4 4 5 11 6 9 7 10 8 2 9 1 10 3 11
REMARK H PARENT
REMARK Flexibility Score: inf
ROOT
ATOM      1  C   UNL     1      72.351  33.456  54.332  1.00  0.00     0.048 C 
ATOM      2  C   UNL     1      73.641  33.996  53.776  1.00  0.00    -0.012 C 
ATOM      3  C   UNL     1      74.380  33.239  52.947  1.00  0.00    -0.019 C 
ATOM      4  C   UNL     1      75.686  33.723  52.376  1.00  0.00     0.036 C 
ATOM      5  C   UNL     1      75.665  35.248  52.156  1.00  0.00     0.025 C 
ATOM      6  C   UNL     1      75.297  35.971  53.465  1.00  0.00     0.089 C 
ATOM      7  C   UNL     1      74.031  35.403  54.045  1.00  0.00     0.158 C 
ATOM      8  O   UNL     1      73.320  36.125  54.794  1.00  0.00    -0.295 OA
ENDROOT
BRANCH   5   9
ATOM      9  C   UNL     1      76.984  35.753  51.588  1.00  0.00    -0.077 C 
ATOM     10  C   UNL     1      78.077  35.877  52.361  1.00  0.00     0.008 C 
ATOM     11  C   UNL     1      77.087  36.125  50.131  1.00  0.00     0.039 C 
ENDBRANCH   5   9
TORSDOF 1
ENDMDL
