MODEL 1
REMARK VINA RESULT:    -5.554      0.000      0.000
REMARK INTER + INTRA:          -8.917
REMARK INTER:                  -8.476
REMARK INTRA:                  -0.442
REMARK UNBOUND:                -0.442
REMARK SMILES O=C([O-])CCCCCCCCC(=O)[O-]
REMARK SMILES IDX 7 1 6 2 5 3 4 4 2 5 1 6 3 7 8 8 9 9 10 10 11 11 12 12 13 13
REMARK SMILES IDX 14 14
REMARK H PARENT
REMARK Flexibility Score: inf
ROOT
ATOM      1  C   UNL     1      25.882  -1.023  61.641  1.00  0.00     0.000 C 
ENDROOT
BRANCH   1   2
ATOM      2  C   UNL     1      25.331  -2.413  62.006  1.00  0.00     0.000 C 
BRANCH   2   3
ATOM      3  C   UNL     1      23.904  -2.644  61.477  1.00  0.00     0.006 C 
BRANCH   3   4
ATOM      4  C   UNL     1      23.802  -3.706  60.370  1.00  0.00     0.053 C 
BRANCH   4   5
ATOM      5  C   UNL     1      24.066  -3.129  59.014  1.00  0.00     0.041 C 
ATOM      6  O   UNL     1      25.240  -3.087  58.560  1.00  0.00    -0.550 OA
ATOM      7  O   UNL     1      23.011  -2.666  58.237  1.00  0.00    -0.550 OA
ENDBRANCH   4   5
ENDBRANCH   3   4
ENDBRANCH   2   3
ENDBRANCH   1   2
BRANCH   1   8
ATOM      8  C   UNL     1      25.048   0.124  62.236  1.00  0.00     0.000 C 
BRANCH   8   9
ATOM      9  C   UNL     1      25.865   1.313  62.780  1.00  0.00     0.000 C 
BRANCH   9  10
ATOM     10  C   UNL     1      25.455   2.676  62.184  1.00  0.00     0.006 C 
BRANCH  10  11
ATOM     11  C   UNL     1      23.932   2.830  62.076  1.00  0.00     0.053 C 
BRANCH  11  12
ATOM     12  C   UNL     1      23.386   3.505  63.293  1.00  0.00     0.041 C 
ATOM     13  O   UNL     1      22.158   3.432  63.562  1.00  0.00    -0.550 OA
ATOM     14  O   UNL     1      24.242   4.175  64.158  1.00  0.00    -0.550 OA
ENDBRANCH  11  12
ENDBRANCH  10  11
ENDBRANCH   9  10
ENDBRANCH   8   9
ENDBRANCH   1   8
TORSDOF 9
ENDMDL
MODEL 2
REMARK VINA RESULT:    -5.542      1.470      6.834
REMARK INTER + INTRA:          -8.900
REMARK INTER:                  -8.467
REMARK INTRA:                  -0.433
REMARK UNBOUND:                -0.442
REMARK SMILES O=C([O-])CCCCCCCCC(=O)[O-]
REMARK SMILES IDX 7 1 6 2 5 3 4 4 2 5 1 6 3 7 8 8 9 9 10 10 11 11 12 12 13 13
REMARK SMILES IDX 14 14
REMARK H PARENT
REMARK Flexibility Score: inf
ROOT
ATOM      1  C   UNL     1      25.917   1.135  62.664  1.00  0.00     0.000 C 
ENDROOT
BRANCH   1   2
ATOM      2  C   UNL     1      25.270   2.450  62.195  1.00  0.00     0.000 C 
BRANCH   2   3
ATOM      3  C   UNL     1      23.862   2.661  62.780  1.00  0.00     0.006 C 
BRANCH   3   4
ATOM      4  C   UNL     1      23.790   3.719  63.893  1.00  0.00     0.053 C 
BRANCH   4   5
ATOM      5  C   UNL     1      24.088   3.137  65.240  1.00  0.00     0.041 C 
ATOM      6  O   UNL     1      25.275   3.072  65.655  1.00  0.00    -0.550 OA
ATOM      7  O   UNL     1      23.050   2.694  66.051  1.00  0.00    -0.550 OA
ENDBRANCH   4   5
ENDBRANCH   3   4
ENDBRANCH   2   3
ENDBRANCH   1   2
BRANCH   1   8
ATOM      8  C   UNL     1      25.092  -0.106  62.280  1.00  0.00     0.000 C 
BRANCH   8   9
ATOM      9  C   UNL     1      25.887  -1.229  61.586  1.00  0.00     0.000 C 
BRANCH   9  10
ATOM     10  C   UNL     1      25.451  -2.650  62.002  1.00  0.00     0.006 C 
BRANCH  10  11
ATOM     11  C   UNL     1      23.926  -2.788  62.092  1.00  0.00     0.053 C 
BRANCH  11  12
ATOM     12  C   UNL     1      23.390  -3.481  60.880  1.00  0.00     0.041 C 
ATOM     13  O   UNL     1      24.131  -4.246  60.208  1.00  0.00    -0.550 OA
ATOM     14  O   UNL     1      22.058  -3.322  60.521  1.00  0.00    -0.550 OA
ENDBRANCH  11  12
ENDBRANCH  10  11
ENDBRANCH   9  10
ENDBRANCH   8   9
ENDBRANCH   1   8
TORSDOF 9
ENDMDL
MODEL 3
REMARK VINA RESULT:    -5.531      0.181      6.625
REMARK INTER + INTRA:          -8.883
REMARK INTER:                  -8.424
REMARK INTRA:                  -0.459
REMARK UNBOUND:                -0.442
REMARK SMILES O=C([O-])CCCCCCCCC(=O)[O-]
REMARK SMILES IDX 7 1 6 2 5 3 4 4 2 5 1 6 3 7 8 8 9 9 10 10 11 11 12 12 13 13
REMARK SMILES IDX 14 14
REMARK H PARENT
REMARK Flexibility Score: inf
ROOT
ATOM      1  C   UNL     1      25.077   0.150  61.994  1.00  0.00     0.000 C 
ENDROOT
BRANCH   1   2
ATOM      2  C   UNL     1      25.880   1.214  62.762  1.00  0.00     0.000 C 
BRANCH   2   3
ATOM      3  C   UNL     1      25.526   2.649  62.334  1.00  0.00     0.006 C 
BRANCH   3   4
ATOM      4  C   UNL     1      24.033   2.875  62.046  1.00  0.00     0.053 C 
BRANCH   4   5
ATOM      5  C   UNL     1      23.300   3.384  63.248  1.00  0.00     0.041 C 
ATOM      6  O   UNL     1      22.091   3.081  63.431  1.00  0.00    -0.550 OA
ATOM      7  O   UNL     1      23.961   4.168  64.186  1.00  0.00    -0.550 OA
ENDBRANCH   4   5
ENDBRANCH   3   4
ENDBRANCH   2   3
ENDBRANCH   1   2
BRANCH   1   8
ATOM      8  C   UNL     1      25.922  -1.082  61.624  1.00  0.00     0.000 C 
BRANCH   8   9
ATOM      9  C   UNL     1      25.300  -2.440  62.007  1.00  0.00     0.000 C 
BRANCH   9  10
ATOM     10  C   UNL     1      23.846  -2.619  61.523  1.00  0.00     0.006 C 
BRANCH  10  11
ATOM     11  C   UNL     1      23.719  -3.712  60.454  1.00  0.00     0.053 C 
BRANCH  11  12
ATOM     12  C   UNL     1      23.928  -3.137  59.089  1.00  0.00     0.041 C 
ATOM     13  O   UNL     1      22.953  -2.678  58.438  1.00  0.00    -0.550 OA
ATOM     14  O   UNL     1      25.208  -3.062  58.556  1.00  0.00    -0.550 OA
ENDBRANCH  11  12
ENDBRANCH  10  11
ENDBRANCH   9  10
ENDBRANCH   8   9
ENDBRANCH   1   8
TORSDOF 9
ENDMDL
MODEL 4
REMARK VINA RESULT:    -5.517      1.185      1.797
REMARK INTER + INTRA:          -8.862
REMARK INTER:                  -8.402
REMARK INTRA:                  -0.460
REMARK UNBOUND:                -0.442
REMARK SMILES O=C([O-])CCCCCCCCC(=O)[O-]
REMARK SMILES IDX 7 1 6 2 5 3 4 4 2 5 1 6 3 7 8 8 9 9 10 10 11 11 12 12 13 13
REMARK SMILES IDX 14 14
REMARK H PARENT
REMARK Flexibility Score: inf
ROOT
ATOM      1  C   UNL     1      25.163   0.106  62.050  1.00  0.00     0.000 C 
ENDROOT
BRANCH   1   2
ATOM      2  C   UNL     1      25.968  -1.138  61.635  1.00  0.00     0.000 C 
BRANCH   2   3
ATOM      3  C   UNL     1      25.276  -2.454  62.035  1.00  0.00     0.006 C 
BRANCH   3   4
ATOM      4  C   UNL     1      25.567  -3.635  61.095  1.00  0.00     0.053 C 
BRANCH   4   5
ATOM      5  C   UNL     1      24.667  -3.634  59.898  1.00  0.00     0.041 C 
ATOM      6  O   UNL     1      23.458  -3.966  60.013  1.00  0.00    -0.550 OA
ATOM      7  O   UNL     1      25.156  -3.234  58.661  1.00  0.00    -0.550 OA
ENDBRANCH   4   5
ENDBRANCH   3   4
ENDBRANCH   2   3
ENDBRANCH   1   2
BRANCH   1   8
ATOM      8  C   UNL     1      26.007   1.131  62.828  1.00  0.00     0.000 C 
BRANCH   8   9
ATOM      9  C   UNL     1      25.684   2.607  62.526  1.00  0.00     0.000 C 
BRANCH   9  10
ATOM     10  C   UNL     1      24.305   2.823  61.868  1.00  0.00     0.006 C 
BRANCH  10  11
ATOM     11  C   UNL     1      23.380   3.693  62.728  1.00  0.00     0.053 C 
BRANCH  11  12
ATOM     12  C   UNL     1      22.264   2.872  63.292  1.00  0.00     0.041 C 
ATOM     13  O   UNL     1      21.472   3.371  64.134  1.00  0.00    -0.550 OA
ATOM     14  O   UNL     1      22.068   1.570  62.851  1.00  0.00    -0.550 OA
ENDBRANCH  11  12
ENDBRANCH  10  11
ENDBRANCH   9  10
ENDBRANCH   8   9
ENDBRANCH   1   8
TORSDOF 9
ENDMDL
MODEL 5
REMARK VINA RESULT:    -5.454      1.614      2.103
REMARK INTER + INTRA:          -8.766
REMARK INTER:                  -8.385
REMARK INTRA:                  -0.381
REMARK UNBOUND:                -0.442
REMARK SMILES O=C([O-])CCCCCCCCC(=O)[O-]
REMARK SMILES IDX 7 1 6 2 5 3 4 4 2 5 1 6 3 7 8 8 9 9 10 10 11 11 12 12 13 13
REMARK SMILES IDX 14 14
REMARK H PARENT
REMARK Flexibility Score: inf
ROOT
ATOM      1  C   UNL     1      25.063  -0.003  62.091  1.00  0.00     0.000 C 
ENDROOT
BRANCH   1   2
ATOM      2  C   UNL     1      25.923  -1.174  61.584  1.00  0.00     0.000 C 
BRANCH   2   3
ATOM      3  C   UNL     1      25.341  -2.547  61.965  1.00  0.00     0.006 C 
BRANCH   3   4
ATOM      4  C   UNL     1      23.806  -2.618  61.924  1.00  0.00     0.053 C 
BRANCH   4   5
ATOM      5  C   UNL     1      23.314  -3.454  60.783  1.00  0.00     0.041 C 
ATOM      6  O   UNL     1      24.115  -4.176  60.133  1.00  0.00    -0.550 OA
ATOM      7  O   UNL     1      21.963  -3.458  60.456  1.00  0.00    -0.550 OA
ENDBRANCH   4   5
ENDBRANCH   3   4
ENDBRANCH   2   3
ENDBRANCH   1   2
BRANCH   1   8
ATOM      8  C   UNL     1      25.901   1.129  62.710  1.00  0.00     0.000 C 
BRANCH   8   9
ATOM      9  C   UNL     1      25.457   2.555  62.329  1.00  0.00     0.000 C 
BRANCH   9  10
ATOM     10  C   UNL     1      25.500   3.557  63.502  1.00  0.00     0.006 C 
BRANCH  10  11
ATOM     11  C   UNL     1      25.391   2.861  64.865  1.00  0.00     0.053 C 
BRANCH  11  12
ATOM     12  C   UNL     1      24.000   2.974  65.401  1.00  0.00     0.041 C 
ATOM     13  O   UNL     1      23.793   2.925  66.643  1.00  0.00    -0.550 OA
ATOM     14  O   UNL     1      22.936   3.184  64.534  1.00  0.00    -0.550 OA
ENDBRANCH  11  12
ENDBRANCH  10  11
ENDBRANCH   9  10
ENDBRANCH   8   9
ENDBRANCH   1   8
TORSDOF 9
ENDMDL
MODEL 6
REMARK VINA RESULT:    -5.439      1.673      6.445
REMARK INTER + INTRA:          -8.742
REMARK INTER:                  -8.276
REMARK INTRA:                  -0.466
REMARK UNBOUND:                -0.442
REMARK SMILES O=C([O-])CCCCCCCCC(=O)[O-]
REMARK SMILES IDX 7 1 6 2 5 3 4 4 2 5 1 6 3 7 8 8 9 9 10 10 11 11 12 12 13 13
REMARK SMILES IDX 14 14
REMARK H PARENT
REMARK Flexibility Score: inf
ROOT
ATOM      1  C   UNL     1      25.050  -0.101  62.306  1.00  0.00     0.000 C 
ENDROOT
BRANCH   1   2
ATOM      2  C   UNL     1      25.896   1.136  62.655  1.00  0.00     0.000 C 
BRANCH   2   3
ATOM      3  C   UNL     1      25.248   2.451  62.186  1.00  0.00     0.006 C 
BRANCH   3   4
ATOM      4  C   UNL     1      25.533   3.659  63.093  1.00  0.00     0.053 C 
BRANCH   4   5
ATOM      5  C   UNL     1      24.681   3.648  64.324  1.00  0.00     0.041 C 
ATOM      6  O   UNL     1      25.172   3.310  65.433  1.00  0.00    -0.550 OA
ATOM      7  O   UNL     1      23.350   4.042  64.253  1.00  0.00    -0.550 OA
ENDBRANCH   4   5
ENDBRANCH   3   4
ENDBRANCH   2   3
ENDBRANCH   1   2
BRANCH   1   8
ATOM      8  C   UNL     1      25.847  -1.171  61.540  1.00  0.00     0.000 C 
BRANCH   8   9
ATOM      9  C   UNL     1      25.573  -2.624  61.972  1.00  0.00     0.000 C 
BRANCH   9  10
ATOM     10  C   UNL     1      24.092  -2.910  62.298  1.00  0.00     0.006 C 
BRANCH  10  11
ATOM     11  C   UNL     1      23.291  -3.319  61.054  1.00  0.00     0.053 C 
BRANCH  11  12
ATOM     12  C   UNL     1      22.055  -2.487  60.930  1.00  0.00     0.041 C 
ATOM     13  O   UNL     1      21.227  -2.715  60.009  1.00  0.00    -0.550 OA
ATOM     14  O   UNL     1      21.793  -1.490  61.860  1.00  0.00    -0.550 OA
ENDBRANCH  11  12
ENDBRANCH  10  11
ENDBRANCH   9  10
ENDBRANCH   8   9
ENDBRANCH   1   8
TORSDOF 9
ENDMDL
MODEL 7
REMARK VINA RESULT:    -5.357      1.185      6.333
REMARK INTER + INTRA:          -8.616
REMARK INTER:                  -8.098
REMARK INTRA:                  -0.519
REMARK UNBOUND:                -0.442
REMARK SMILES O=C([O-])CCCCCCCCC(=O)[O-]
REMARK SMILES IDX 7 1 6 2 5 3 4 4 2 5 1 6 3 7 8 8 9 9 10 10 11 11 12 12 13 13
REMARK SMILES IDX 14 14
REMARK H PARENT
REMARK Flexibility Score: inf
ROOT
ATOM      1  C   UNL     1      24.977  -0.053  62.198  1.00  0.00     0.000 C 
ENDROOT
BRANCH   1   2
ATOM      2  C   UNL     1      25.883   1.093  62.685  1.00  0.00     0.000 C 
BRANCH   2   3
ATOM      3  C   UNL     1      25.393   2.475  62.218  1.00  0.00     0.006 C 
BRANCH   3   4
ATOM      4  C   UNL     1      23.865   2.643  62.226  1.00  0.00     0.053 C 
BRANCH   4   5
ATOM      5  C   UNL     1      23.394   3.437  63.404  1.00  0.00     0.041 C 
ATOM      6  O   UNL     1      22.162   3.543  63.647  1.00  0.00    -0.550 OA
ATOM      7  O   UNL     1      24.316   4.035  64.254  1.00  0.00    -0.550 OA
ENDBRANCH   4   5
ENDBRANCH   3   4
ENDBRANCH   2   3
ENDBRANCH   1   2
BRANCH   1   8
ATOM      8  C   UNL     1      25.761  -1.175  61.495  1.00  0.00     0.000 C 
BRANCH   8   9
ATOM      9  C   UNL     1      25.486  -2.596  62.026  1.00  0.00     0.000 C 
BRANCH   9  10
ATOM     10  C   UNL     1      24.007  -2.854  62.382  1.00  0.00     0.006 C 
BRANCH  10  11
ATOM     11  C   UNL     1      23.255  -3.577  61.257  1.00  0.00     0.053 C 
BRANCH  11  12
ATOM     12  C   UNL     1      22.307  -2.642  60.577  1.00  0.00     0.041 C 
ATOM     13  O   UNL     1      21.649  -1.805  61.250  1.00  0.00    -0.550 OA
ATOM     14  O   UNL     1      22.185  -2.660  59.193  1.00  0.00    -0.550 OA
ENDBRANCH  11  12
ENDBRANCH  10  11
ENDBRANCH   9  10
ENDBRANCH   8   9
ENDBRANCH   1   8
TORSDOF 9
ENDMDL
MODEL 8
REMARK VINA RESULT:    -5.244      1.482      2.435
REMARK INTER + INTRA:          -8.444
REMARK INTER:                  -7.948
REMARK INTRA:                  -0.497
REMARK UNBOUND:                -0.442
REMARK SMILES O=C([O-])CCCCCCCCC(=O)[O-]
REMARK SMILES IDX 7 1 6 2 5 3 4 4 2 5 1 6 3 7 8 8 9 9 10 10 11 11 12 12 13 13
REMARK SMILES IDX 14 14
REMARK H PARENT
REMARK Flexibility Score: inf
ROOT
ATOM      1  C   UNL     1      25.877   1.113  62.745  1.00  0.00     0.000 C 
ENDROOT
BRANCH   1   2
ATOM      2  C   UNL     1      25.048   0.050  62.003  1.00  0.00     0.000 C 
BRANCH   2   3
ATOM      3  C   UNL     1      25.876  -1.191  61.624  1.00  0.00     0.006 C 
BRANCH   3   4
ATOM      4  C   UNL     1      25.101  -2.517  61.697  1.00  0.00     0.053 C 
BRANCH   4   5
ATOM      5  C   UNL     1      24.970  -3.164  60.353  1.00  0.00     0.041 C 
ATOM      6  O   UNL     1      24.170  -4.123  60.186  1.00  0.00    -0.550 OA
ATOM      7  O   UNL     1      25.707  -2.687  59.276  1.00  0.00    -0.550 OA
ENDBRANCH   4   5
ENDBRANCH   3   4
ENDBRANCH   2   3
ENDBRANCH   1   2
BRANCH   1   8
ATOM      8  C   UNL     1      25.465   2.550  62.382  1.00  0.00     0.000 C 
BRANCH   8   9
ATOM      9  C   UNL     1      25.350   3.518  63.576  1.00  0.00     0.000 C 
BRANCH   9  10
ATOM     10  C   UNL     1      23.897   3.797  64.017  1.00  0.00     0.006 C 
BRANCH  10  11
ATOM     11  C   UNL     1      22.876   3.375  62.952  1.00  0.00     0.053 C 
BRANCH  11  12
ATOM     12  C   UNL     1      21.979   2.302  63.483  1.00  0.00     0.041 C 
ATOM     13  O   UNL     1      21.378   2.462  64.578  1.00  0.00    -0.550 OA
ATOM     14  O   UNL     1      21.769   1.145  62.744  1.00  0.00    -0.550 OA
ENDBRANCH  11  12
ENDBRANCH  10  11
ENDBRANCH   9  10
ENDBRANCH   8   9
ENDBRANCH   1   8
TORSDOF 9
ENDMDL
MODEL 9
REMARK VINA RESULT:    -5.197      1.694      2.106
REMARK INTER + INTRA:          -8.373
REMARK INTER:                  -7.860
REMARK INTRA:                  -0.513
REMARK UNBOUND:                -0.442
REMARK SMILES O=C([O-])CCCCCCCCC(=O)[O-]
REMARK SMILES IDX 7 1 6 2 5 3 4 4 2 5 1 6 3 7 8 8 9 9 10 10 11 11 12 12 13 13
REMARK SMILES IDX 14 14
REMARK H PARENT
REMARK Flexibility Score: inf
ROOT
ATOM      1  C   UNL     1      25.541  -0.131  62.043  1.00  0.00     0.000 C 
ENDROOT
BRANCH   1   2
ATOM      2  C   UNL     1      25.563  -1.639  61.738  1.00  0.00     0.000 C 
BRANCH   2   3
ATOM      3  C   UNL     1      26.077  -1.951  60.321  1.00  0.00     0.006 C 
BRANCH   3   4
ATOM      4  C   UNL     1      25.717  -3.356  59.810  1.00  0.00     0.053 C 
BRANCH   4   5
ATOM      5  C   UNL     1      24.260  -3.478  59.486  1.00  0.00     0.041 C 
ATOM      6  O   UNL     1      23.482  -4.072  60.278  1.00  0.00    -0.550 OA
ATOM      7  O   UNL     1      23.756  -2.907  58.324  1.00  0.00    -0.550 OA
ENDBRANCH   4   5
ENDBRANCH   3   4
ENDBRANCH   2   3
ENDBRANCH   1   2
BRANCH   1   8
ATOM      8  C   UNL     1      24.129   0.392  62.362  1.00  0.00     0.000 C 
BRANCH   8   9
ATOM      9  C   UNL     1      23.990   1.927  62.385  1.00  0.00     0.000 C 
BRANCH   9  10
ATOM     10  C   UNL     1      25.332   2.677  62.249  1.00  0.00     0.006 C 
BRANCH  10  11
ATOM     11  C   UNL     1      25.568   3.662  63.401  1.00  0.00     0.053 C 
BRANCH  11  12
ATOM     12  C   UNL     1      25.738   2.927  64.692  1.00  0.00     0.041 C 
ATOM     13  O   UNL     1      24.938   3.124  65.644  1.00  0.00    -0.550 OA
ATOM     14  O   UNL     1      26.752   1.988  64.827  1.00  0.00    -0.550 OA
ENDBRANCH  11  12
ENDBRANCH  10  11
ENDBRANCH   9  10
ENDBRANCH   8   9
ENDBRANCH   1   8
TORSDOF 9
ENDMDL
