MODEL 1
REMARK VINA RESULT:    -4.179      0.000      0.000
REMARK INTER + INTRA:          -6.435
REMARK INTER:                  -5.889
REMARK INTRA:                  -0.546
REMARK UNBOUND:                -0.546
REMARK SMILES CCCCCCCCC(=O)[O-]
REMARK SMILES IDX 6 1 7 2 8 3 9 4 10 5 11 6 5 7 4 8 3 9 2 10 1 11
REMARK H PARENT
REMARK Flexibility Score: inf
ROOT
ATOM      1  C   UNL     1      -7.379 -31.854  42.632  1.00  0.00     0.000 C 
ENDROOT
BRANCH   1   2
ATOM      2  C   UNL     1      -7.295 -32.214  44.132  1.00  0.00     0.006 C 
BRANCH   2   3
ATOM      3  C   UNL     1      -6.058 -31.628  44.830  1.00  0.00     0.053 C 
BRANCH   3   4
ATOM      4  C   UNL     1      -6.047 -30.131  44.772  1.00  0.00     0.041 C 
ATOM      5  O   UNL     1      -5.019 -29.519  44.381  1.00  0.00    -0.550 OA
ATOM      6  O   UNL     1      -7.166 -29.412  45.172  1.00  0.00    -0.550 OA
ENDBRANCH   3   4
ENDBRANCH   2   3
ENDBRANCH   1   2
BRANCH   1   7
ATOM      7  C   UNL     1      -7.627 -33.067  41.720  1.00  0.00     0.000 C 
BRANCH   7   8
ATOM      8  C   UNL     1      -9.045 -33.085  41.126  1.00  0.00    -0.000 C 
BRANCH   8   9
ATOM      9  C   UNL     1      -9.970 -34.088  41.836  1.00  0.00    -0.000 C 
BRANCH   9  10
ATOM     10  C   UNL     1     -10.684 -33.474  43.050  1.00  0.00    -0.003 C 
ATOM     11  C   UNL     1     -10.392 -34.271  44.318  1.00  0.00     0.004 C 
ENDBRANCH   9  10
ENDBRANCH   8   9
ENDBRANCH   7   8
ENDBRANCH   1   7
TORSDOF 7
ENDMDL
MODEL 2
REMARK VINA RESULT:    -4.122      2.327      3.888
REMARK INTER + INTRA:          -6.355
REMARK INTER:                  -5.995
REMARK INTRA:                  -0.360
REMARK UNBOUND:                -0.546
REMARK SMILES CCCCCCCCC(=O)[O-]
REMARK SMILES IDX 6 1 7 2 8 3 9 4 10 5 11 6 5 7 4 8 3 9 2 10 1 11
REMARK H PARENT
REMARK Flexibility Score: inf
ROOT
ATOM      1  C   UNL     1     -10.276 -33.456  42.223  1.00  0.00     0.000 C 
ENDROOT
BRANCH   1   2
ATOM      2  C   UNL     1      -9.456 -33.492  40.913  1.00  0.00     0.006 C 
BRANCH   2   3
ATOM      3  C   UNL     1      -7.967 -33.174  41.119  1.00  0.00     0.053 C 
BRANCH   3   4
ATOM      4  C   UNL     1      -7.773 -31.877  41.845  1.00  0.00     0.041 C 
ATOM      5  O   UNL     1      -8.020 -30.785  41.271  1.00  0.00    -0.550 OA
ATOM      6  O   UNL     1      -7.297 -31.877  43.150  1.00  0.00    -0.550 OA
ENDBRANCH   3   4
ENDBRANCH   2   3
ENDBRANCH   1   2
BRANCH   1   7
ATOM      7  C   UNL     1     -10.204 -34.764  43.030  1.00  0.00     0.000 C 
BRANCH   7   8
ATOM      8  C   UNL     1     -10.449 -34.549  44.533  1.00  0.00    -0.000 C 
BRANCH   8   9
ATOM      9  C   UNL     1     -10.636 -35.870  45.296  1.00  0.00    -0.000 C 
BRANCH   9  10
ATOM     10  C   UNL     1     -10.186 -37.091  44.480  1.00  0.00    -0.003 C 
ATOM     11  C   UNL     1     -11.305 -38.124  44.376  1.00  0.00     0.004 C 
ENDBRANCH   9  10
ENDBRANCH   8   9
ENDBRANCH   7   8
ENDBRANCH   1   7
TORSDOF 7
ENDMDL
MODEL 3
REMARK VINA RESULT:    -4.096      3.977      5.605
REMARK INTER + INTRA:          -6.318
REMARK INTER:                  -5.789
REMARK INTRA:                  -0.529
REMARK UNBOUND:                -0.546
REMARK SMILES CCCCCCCCC(=O)[O-]
REMARK SMILES IDX 6 1 7 2 8 3 9 4 10 5 11 6 5 7 4 8 3 9 2 10 1 11
REMARK H PARENT
REMARK Flexibility Score: inf
ROOT
ATOM      1  C   UNL     1     -10.572 -33.625  43.201  1.00  0.00     0.000 C 
ENDROOT
BRANCH   1   2
ATOM      2  C   UNL     1     -10.327 -34.382  44.526  1.00  0.00     0.006 C 
BRANCH   2   3
ATOM      3  C   UNL     1      -9.879 -35.838  44.321  1.00  0.00     0.053 C 
BRANCH   3   4
ATOM      4  C   UNL     1     -10.817 -36.804  44.978  1.00  0.00     0.041 C 
ATOM      5  O   UNL     1     -11.192 -37.840  44.368  1.00  0.00    -0.550 OA
ATOM      6  O   UNL     1     -11.296 -36.547  46.257  1.00  0.00    -0.550 OA
ENDBRANCH   3   4
ENDBRANCH   2   3
ENDBRANCH   1   2
BRANCH   1   7
ATOM      7  C   UNL     1      -9.905 -34.284  41.982  1.00  0.00     0.000 C 
BRANCH   7   8
ATOM      8  C   UNL     1      -9.377 -33.258  40.966  1.00  0.00    -0.000 C 
BRANCH   8   9
ATOM      9  C   UNL     1      -7.878 -32.967  41.144  1.00  0.00    -0.000 C 
BRANCH   9  10
ATOM     10  C   UNL     1      -7.616 -31.762  42.059  1.00  0.00    -0.003 C 
ATOM     11  C   UNL     1      -7.199 -32.215  43.456  1.00  0.00     0.004 C 
ENDBRANCH   9  10
ENDBRANCH   8   9
ENDBRANCH   7   8
ENDBRANCH   1   7
TORSDOF 7
ENDMDL
MODEL 4
REMARK VINA RESULT:    -4.032      2.382      4.758
REMARK INTER + INTRA:          -6.229
REMARK INTER:                  -5.802
REMARK INTRA:                  -0.427
REMARK UNBOUND:                -0.546
REMARK SMILES CCCCCCCCC(=O)[O-]
REMARK SMILES IDX 6 1 7 2 8 3 9 4 10 5 11 6 5 7 4 8 3 9 2 10 1 11
REMARK H PARENT
REMARK Flexibility Score: inf
ROOT
ATOM      1  C   UNL     1      -8.998 -33.865  43.759  1.00  0.00     0.000 C 
ENDROOT
BRANCH   1   2
ATOM      2  C   UNL     1     -10.095 -33.476  42.744  1.00  0.00     0.006 C 
BRANCH   2   3
ATOM      3  C   UNL     1      -9.605 -33.478  41.287  1.00  0.00     0.053 C 
BRANCH   3   4
ATOM      4  C   UNL     1      -8.343 -32.686  41.127  1.00  0.00     0.041 C 
ATOM      5  O   UNL     1      -7.250 -33.270  40.910  1.00  0.00    -0.550 OA
ATOM      6  O   UNL     1      -8.373 -31.301  41.240  1.00  0.00    -0.550 OA
ENDBRANCH   3   4
ENDBRANCH   2   3
ENDBRANCH   1   2
BRANCH   1   7
ATOM      7  C   UNL     1      -9.209 -33.260  45.157  1.00  0.00     0.000 C 
BRANCH   7   8
ATOM      8  C   UNL     1      -8.078 -32.304  45.569  1.00  0.00    -0.000 C 
BRANCH   8   9
ATOM      9  C   UNL     1      -7.044 -32.097  44.450  1.00  0.00    -0.000 C 
BRANCH   9  10
ATOM     10  C   UNL     1      -5.951 -31.088  44.837  1.00  0.00    -0.003 C 
ATOM     11  C   UNL     1      -6.204 -29.730  44.189  1.00  0.00     0.004 C 
ENDBRANCH   9  10
ENDBRANCH   8   9
ENDBRANCH   7   8
ENDBRANCH   1   7
TORSDOF 7
ENDMDL
MODEL 5
REMARK VINA RESULT:    -4.000      2.799      4.808
REMARK INTER + INTRA:          -6.183
REMARK INTER:                  -5.686
REMARK INTRA:                  -0.497
REMARK UNBOUND:                -0.546
REMARK SMILES CCCCCCCCC(=O)[O-]
REMARK SMILES IDX 6 1 7 2 8 3 9 4 10 5 11 6 5 7 4 8 3 9 2 10 1 11
REMARK H PARENT
REMARK Flexibility Score: inf
ROOT
ATOM      1  C   UNL     1      -9.828 -33.562  41.348  1.00  0.00     0.000 C 
ENDROOT
BRANCH   1   2
ATOM      2  C   UNL     1     -10.444 -33.607  42.765  1.00  0.00     0.006 C 
BRANCH   2   3
ATOM      3  C   UNL     1     -10.330 -34.986  43.435  1.00  0.00     0.053 C 
BRANCH   3   4
ATOM      4  C   UNL     1     -10.326 -34.877  44.929  1.00  0.00     0.041 C 
ATOM      5  O   UNL     1     -10.943 -35.721  45.629  1.00  0.00    -0.550 OA
ATOM      6  O   UNL     1      -9.658 -33.827  45.547  1.00  0.00    -0.550 OA
ENDBRANCH   3   4
ENDBRANCH   2   3
ENDBRANCH   1   2
BRANCH   1   7
ATOM      7  C   UNL     1      -8.308 -33.327  41.345  1.00  0.00     0.000 C 
BRANCH   7   8
ATOM      8  C   UNL     1      -7.937 -31.840  41.218  1.00  0.00    -0.000 C 
BRANCH   8   9
ATOM      9  C   UNL     1      -7.538 -31.215  42.565  1.00  0.00    -0.000 C 
BRANCH   9  10
ATOM     10  C   UNL     1      -7.122 -32.267  43.604  1.00  0.00    -0.003 C 
ATOM     11  C   UNL     1      -6.256 -31.646  44.697  1.00  0.00     0.004 C 
ENDBRANCH   9  10
ENDBRANCH   8   9
ENDBRANCH   7   8
ENDBRANCH   1   7
TORSDOF 7
ENDMDL
MODEL 6
REMARK VINA RESULT:    -3.980      9.250     10.852
REMARK INTER + INTRA:          -6.156
REMARK INTER:                  -5.879
REMARK INTRA:                  -0.277
REMARK UNBOUND:                -0.546
REMARK SMILES CCCCCCCCC(=O)[O-]
REMARK SMILES IDX 6 1 7 2 8 3 9 4 10 5 11 6 5 7 4 8 3 9 2 10 1 11
REMARK H PARENT
REMARK Flexibility Score: inf
ROOT
ATOM      1  C   UNL     1      -5.365 -35.129  53.154  1.00  0.00     0.000 C 
ENDROOT
BRANCH   1   2
ATOM      2  C   UNL     1      -4.302 -35.992  53.871  1.00  0.00     0.006 C 
BRANCH   2   3
ATOM      3  C   UNL     1      -3.482 -35.211  54.910  1.00  0.00     0.053 C 
BRANCH   3   4
ATOM      4  C   UNL     1      -2.043 -35.097  54.509  1.00  0.00     0.041 C 
ATOM      5  O   UNL     1      -1.168 -35.797  55.082  1.00  0.00    -0.550 OA
ATOM      6  O   UNL     1      -1.667 -34.201  53.517  1.00  0.00    -0.550 OA
ENDBRANCH   3   4
ENDBRANCH   2   3
ENDBRANCH   1   2
BRANCH   1   7
ATOM      7  C   UNL     1      -4.979 -34.746  51.716  1.00  0.00     0.000 C 
BRANCH   7   8
ATOM      8  C   UNL     1      -5.828 -33.590  51.161  1.00  0.00    -0.000 C 
BRANCH   8   9
ATOM      9  C   UNL     1      -5.327 -32.213  51.625  1.00  0.00    -0.000 C 
BRANCH   9  10
ATOM     10  C   UNL     1      -5.791 -31.075  50.703  1.00  0.00    -0.003 C 
ATOM     11  C   UNL     1      -7.076 -30.437  51.224  1.00  0.00     0.004 C 
ENDBRANCH   9  10
ENDBRANCH   8   9
ENDBRANCH   7   8
ENDBRANCH   1   7
TORSDOF 7
ENDMDL
MODEL 7
REMARK VINA RESULT:    -3.947      1.186      2.395
REMARK INTER + INTRA:          -6.108
REMARK INTER:                  -5.534
REMARK INTRA:                  -0.575
REMARK UNBOUND:                -0.546
REMARK SMILES CCCCCCCCC(=O)[O-]
REMARK SMILES IDX 6 1 7 2 8 3 9 4 10 5 11 6 5 7 4 8 3 9 2 10 1 11
REMARK H PARENT
REMARK Flexibility Score: inf
ROOT
ATOM      1  C   UNL     1      -7.596 -32.104  45.378  1.00  0.00     0.000 C 
ENDROOT
BRANCH   1   2
ATOM      2  C   UNL     1      -6.711 -31.837  44.139  1.00  0.00     0.006 C 
BRANCH   2   3
ATOM      3  C   UNL     1      -6.765 -30.378  43.657  1.00  0.00     0.053 C 
BRANCH   3   4
ATOM      4  C   UNL     1      -5.832 -29.503  44.437  1.00  0.00     0.041 C 
ATOM      5  O   UNL     1      -6.247 -28.432  44.951  1.00  0.00    -0.550 OA
ATOM      6  O   UNL     1      -4.496 -29.861  44.577  1.00  0.00    -0.550 OA
ENDBRANCH   3   4
ENDBRANCH   2   3
ENDBRANCH   1   2
BRANCH   1   7
ATOM      7  C   UNL     1      -8.841 -32.955  45.073  1.00  0.00     0.000 C 
BRANCH   7   8
ATOM      8  C   UNL     1      -8.755 -33.668  43.713  1.00  0.00    -0.000 C 
BRANCH   8   9
ATOM      9  C   UNL     1     -10.071 -33.590  42.922  1.00  0.00    -0.000 C 
BRANCH   9  10
ATOM     10  C   UNL     1      -9.842 -33.489  41.406  1.00  0.00    -0.003 C 
ATOM     11  C   UNL     1      -8.366 -33.264  41.088  1.00  0.00     0.004 C 
ENDBRANCH   9  10
ENDBRANCH   8   9
ENDBRANCH   7   8
ENDBRANCH   1   7
TORSDOF 7
ENDMDL
MODEL 8
REMARK VINA RESULT:    -3.945      2.845      4.363
REMARK INTER + INTRA:          -6.106
REMARK INTER:                  -5.626
REMARK INTRA:                  -0.480
REMARK UNBOUND:                -0.546
REMARK SMILES CCCCCCCCC(=O)[O-]
REMARK SMILES IDX 6 1 7 2 8 3 9 4 10 5 11 6 5 7 4 8 3 9 2 10 1 11
REMARK H PARENT
REMARK Flexibility Score: inf
ROOT
ATOM      1  C   UNL     1     -10.179 -34.815  43.074  1.00  0.00     0.000 C 
ENDROOT
BRANCH   1   2
ATOM      2  C   UNL     1     -10.444 -34.604  44.581  1.00  0.00     0.006 C 
BRANCH   2   3
ATOM      3  C   UNL     1      -9.465 -33.619  45.239  1.00  0.00     0.053 C 
BRANCH   3   4
ATOM      4  C   UNL     1      -9.393 -33.819  46.723  1.00  0.00     0.041 C 
ATOM      5  O   UNL     1      -9.806 -34.889  47.240  1.00  0.00    -0.550 OA
ATOM      6  O   UNL     1      -8.889 -32.810  47.536  1.00  0.00    -0.550 OA
ENDBRANCH   3   4
ENDBRANCH   2   3
ENDBRANCH   1   2
BRANCH   1   7
ATOM      7  C   UNL     1     -10.326 -33.534  42.236  1.00  0.00     0.000 C 
BRANCH   7   8
ATOM      8  C   UNL     1      -9.495 -33.570  40.943  1.00  0.00    -0.000 C 
BRANCH   8   9
ATOM      9  C   UNL     1      -8.009 -33.262  41.187  1.00  0.00    -0.000 C 
BRANCH   9  10
ATOM     10  C   UNL     1      -7.799 -31.983  42.010  1.00  0.00    -0.003 C 
ATOM     11  C   UNL     1      -8.098 -30.739  41.177  1.00  0.00     0.004 C 
ENDBRANCH   9  10
ENDBRANCH   8   9
ENDBRANCH   7   8
ENDBRANCH   1   7
TORSDOF 7
ENDMDL
MODEL 9
REMARK VINA RESULT:    -3.821      8.930     10.462
REMARK INTER + INTRA:          -5.932
REMARK INTER:                  -5.608
REMARK INTRA:                  -0.324
REMARK UNBOUND:                -0.546
REMARK SMILES CCCCCCCCC(=O)[O-]
REMARK SMILES IDX 6 1 7 2 8 3 9 4 10 5 11 6 5 7 4 8 3 9 2 10 1 11
REMARK H PARENT
REMARK Flexibility Score: inf
ROOT
ATOM      1  C   UNL     1      -4.736 -35.380  52.657  1.00  0.00     0.000 C 
ENDROOT
BRANCH   1   2
ATOM      2  C   UNL     1      -4.361 -34.428  53.816  1.00  0.00     0.006 C 
BRANCH   2   3
ATOM      3  C   UNL     1      -3.546 -35.111  54.926  1.00  0.00     0.053 C 
BRANCH   3   4
ATOM      4  C   UNL     1      -2.079 -35.097  54.624  1.00  0.00     0.041 C 
ATOM      5  O   UNL     1      -1.617 -34.307  53.759  1.00  0.00    -0.550 OA
ATOM      6  O   UNL     1      -1.225 -35.973  55.282  1.00  0.00    -0.550 OA
ENDBRANCH   3   4
ENDBRANCH   2   3
ENDBRANCH   1   2
BRANCH   1   7
ATOM      7  C   UNL     1      -5.376 -34.666  51.455  1.00  0.00     0.000 C 
BRANCH   7   8
ATOM      8  C   UNL     1      -5.392 -33.136  51.613  1.00  0.00    -0.000 C 
BRANCH   8   9
ATOM      9  C   UNL     1      -6.111 -32.431  50.452  1.00  0.00    -0.000 C 
BRANCH   9  10
ATOM     10  C   UNL     1      -6.147 -33.284  49.175  1.00  0.00    -0.003 C 
ATOM     11  C   UNL     1      -5.540 -32.530  47.994  1.00  0.00     0.004 C 
ENDBRANCH   9  10
ENDBRANCH   8   9
ENDBRANCH   7   8
ENDBRANCH   1   7
TORSDOF 7
ENDMDL
