MODEL 1
REMARK VINA RESULT:    16.838      0.000      0.000
REMARK INTER + INTRA:          37.110
REMARK INTER:                  38.494
REMARK INTRA:                  -1.384
REMARK UNBOUND:                -1.384
REMARK SMILES CCCCCCCCCCCCCCCCCCCCCCCC(=O)[O-]
REMARK SMILES IDX 13 1 14 2 15 3 16 4 17 5 18 6 19 7 20 8 21 9 22 10 23 11
REMARK SMILES IDX 24 12 25 13 26 14 12 15 11 16 10 17 9 18 8 19 7 20 6 21 5 22
REMARK SMILES IDX 4 23 3 24 2 25 1 26
REMARK H PARENT
REMARK Flexibility Score: inf
ROOT
ATOM      1  C   UNL     1      99.881 100.357  10.613  1.00  0.00     0.000 C 
ENDROOT
BRANCH   1   2
ATOM      2  C   UNL     1      98.750  99.451  11.130  1.00  0.00     0.000 C 
BRANCH   2   3
ATOM      3  C   UNL     1      98.261  99.850  12.530  1.00  0.00     0.000 C 
BRANCH   3   4
ATOM      4  C   UNL     1      96.736  99.695  12.640  1.00  0.00     0.000 C 
BRANCH   4   5
ATOM      5  C   UNL     1      95.978 100.964  12.221  1.00  0.00     0.000 C 
BRANCH   5   6
ATOM      6  C   UNL     1      94.702 100.654  11.424  1.00  0.00     0.000 C 
BRANCH   6   7
ATOM      7  C   UNL     1      94.918 100.905   9.924  1.00  0.00     0.000 C 
BRANCH   7   8
ATOM      8  C   UNL     1      95.793  99.829   9.255  1.00  0.00     0.000 C 
BRANCH   8   9
ATOM      9  C   UNL     1      95.247  99.278   7.925  1.00  0.00     0.000 C 
BRANCH   9  10
ATOM     10  C   UNL     1      93.802  98.763   8.036  1.00  0.00     0.006 C 
BRANCH  10  11
ATOM     11  C   UNL     1      92.771  99.877   7.810  1.00  0.00     0.053 C 
BRANCH  11  12
ATOM     12  C   UNL     1      92.435 100.037   6.359  1.00  0.00     0.041 C 
ATOM     13  O   UNL     1      93.049  99.366   5.488  1.00  0.00    -0.550 OA
ATOM     14  O   UNL     1      91.470 100.956   5.967  1.00  0.00    -0.550 OA
ENDBRANCH  11  12
ENDBRANCH  10  11
ENDBRANCH   9  10
ENDBRANCH   8   9
ENDBRANCH   7   8
ENDBRANCH   6   7
ENDBRANCH   5   6
ENDBRANCH   4   5
ENDBRANCH   3   4
ENDBRANCH   2   3
ENDBRANCH   1   2
BRANCH   1  15
ATOM     15  C   UNL     1     101.249  99.663  10.453  1.00  0.00     0.000 C 
BRANCH  15  16
ATOM     16  C   UNL     1     101.188  98.148  10.171  1.00  0.00     0.000 C 
BRANCH  16  17
ATOM     17  C   UNL     1     102.176  97.292  10.985  1.00  0.00     0.000 C 
BRANCH  17  18
ATOM     18  C   UNL     1     102.341  95.870  10.420  1.00  0.00    -0.000 C 
BRANCH  18  19
ATOM     19  C   UNL     1     101.006  95.260   9.963  1.00  0.00    -0.000 C 
BRANCH  19  20
ATOM     20  C   UNL     1     100.776  93.851  10.527  1.00  0.00    -0.000 C 
BRANCH  20  21
ATOM     21  C   UNL     1      99.378  93.730  11.150  1.00  0.00    -0.000 C 
BRANCH  21  22
ATOM     22  C   UNL     1      98.583  95.052  11.081  1.00  0.00    -0.000 C 
BRANCH  22  23
ATOM     23  C   UNL     1      98.556  95.830  12.411  1.00  0.00    -0.000 C 
BRANCH  23  24
ATOM     24  C   UNL     1      97.943  95.067  13.602  1.00  0.00    -0.000 C 
BRANCH  24  25
ATOM     25  C   UNL     1      98.763  93.857  14.085  1.00  0.00    -0.003 C 
ATOM     26  C   UNL     1      97.889  92.701  14.574  1.00  0.00     0.004 C 
ENDBRANCH  24  25
ENDBRANCH  23  24
ENDBRANCH  22  23
ENDBRANCH  21  22
ENDBRANCH  20  21
ENDBRANCH  19  20
ENDBRANCH  18  19
ENDBRANCH  17  18
ENDBRANCH  16  17
ENDBRANCH  15  16
ENDBRANCH   1  15
TORSDOF 22
ENDMDL
MODEL 2
REMARK VINA RESULT:    16.970      0.855      2.158
REMARK INTER + INTRA:          37.411
REMARK INTER:                  38.468
REMARK INTRA:                  -1.056
REMARK UNBOUND:                -1.384
REMARK SMILES CCCCCCCCCCCCCCCCCCCCCCCC(=O)[O-]
REMARK SMILES IDX 13 1 14 2 15 3 16 4 17 5 18 6 19 7 20 8 21 9 22 10 23 11
REMARK SMILES IDX 24 12 25 13 26 14 12 15 11 16 10 17 9 18 8 19 7 20 6 21 5 22
REMARK SMILES IDX 4 23 3 24 2 25 1 26
REMARK H PARENT
REMARK Flexibility Score: inf
ROOT
ATOM      1  C   UNL     1      98.749  98.670  10.862  1.00  0.00     0.000 C 
ENDROOT
BRANCH   1   2
ATOM      2  C   UNL     1      97.748  98.294  11.969  1.00  0.00     0.000 C 
BRANCH   2   3
ATOM      3  C   UNL     1      97.671  99.345  13.085  1.00  0.00     0.000 C 
BRANCH   3   4
ATOM      4  C   UNL     1      96.225  99.823  13.288  1.00  0.00     0.000 C 
BRANCH   4   5
ATOM      5  C   UNL     1      95.918 101.125  12.531  1.00  0.00     0.000 C 
BRANCH   5   6
ATOM      6  C   UNL     1      94.591 101.062  11.760  1.00  0.00     0.000 C 
BRANCH   6   7
ATOM      7  C   UNL     1      94.836 101.082  10.244  1.00  0.00     0.000 C 
BRANCH   7   8
ATOM      8  C   UNL     1      95.473  99.781   9.722  1.00  0.00     0.000 C 
BRANCH   8   9
ATOM      9  C   UNL     1      95.526  99.649   8.188  1.00  0.00     0.000 C 
BRANCH   9  10
ATOM     10  C   UNL     1      94.310  98.907   7.607  1.00  0.00     0.006 C 
BRANCH  10  11
ATOM     11  C   UNL     1      93.035  99.759   7.650  1.00  0.00     0.053 C 
BRANCH  11  12
ATOM     12  C   UNL     1      92.390  99.862   6.303  1.00  0.00     0.041 C 
ATOM     13  O   UNL     1      91.589 100.802   6.054  1.00  0.00    -0.550 OA
ATOM     14  O   UNL     1      92.645  98.900   5.335  1.00  0.00    -0.550 OA
ENDBRANCH  11  12
ENDBRANCH  10  11
ENDBRANCH   9  10
ENDBRANCH   8   9
ENDBRANCH   7   8
ENDBRANCH   6   7
ENDBRANCH   5   6
ENDBRANCH   4   5
ENDBRANCH   3   4
ENDBRANCH   2   3
ENDBRANCH   1   2
BRANCH   1  15
ATOM     15  C   UNL     1      99.935  99.541  11.327  1.00  0.00     0.000 C 
BRANCH  15  16
ATOM     16  C   UNL     1     100.183 100.812  10.491  1.00  0.00     0.000 C 
BRANCH  16  17
ATOM     17  C   UNL     1     101.643 101.032  10.053  1.00  0.00     0.000 C 
BRANCH  17  18
ATOM     18  C   UNL     1     102.275  99.774   9.431  1.00  0.00    -0.000 C 
BRANCH  18  19
ATOM     19  C   UNL     1     102.240  98.566  10.382  1.00  0.00    -0.000 C 
BRANCH  19  20
ATOM     20  C   UNL     1     101.813  97.271   9.676  1.00  0.00    -0.000 C 
BRANCH  20  21
ATOM     21  C   UNL     1     101.970  96.061  10.608  1.00  0.00    -0.000 C 
BRANCH  21  22
ATOM     22  C   UNL     1     100.973  94.928  10.280  1.00  0.00    -0.000 C 
BRANCH  22  23
ATOM     23  C   UNL     1      99.544  95.190  10.794  1.00  0.00    -0.000 C 
BRANCH  23  24
ATOM     24  C   UNL     1      99.019  94.164  11.817  1.00  0.00    -0.000 C 
BRANCH  24  25
ATOM     25  C   UNL     1      98.313  94.774  13.041  1.00  0.00    -0.003 C 
ATOM     26  C   UNL     1      98.334  93.855  14.263  1.00  0.00     0.004 C 
ENDBRANCH  24  25
ENDBRANCH  23  24
ENDBRANCH  22  23
ENDBRANCH  21  22
ENDBRANCH  20  21
ENDBRANCH  19  20
ENDBRANCH  18  19
ENDBRANCH  17  18
ENDBRANCH  16  17
ENDBRANCH  15  16
ENDBRANCH   1  15
TORSDOF 22
ENDMDL
MODEL 3
REMARK VINA RESULT:    17.964      2.089      3.925
REMARK INTER + INTRA:          39.684
REMARK INTER:                  39.959
REMARK INTRA:                  -0.274
REMARK UNBOUND:                -1.384
REMARK SMILES CCCCCCCCCCCCCCCCCCCCCCCC(=O)[O-]
REMARK SMILES IDX 13 1 14 2 15 3 16 4 17 5 18 6 19 7 20 8 21 9 22 10 23 11
REMARK SMILES IDX 24 12 25 13 26 14 12 15 11 16 10 17 9 18 8 19 7 20 6 21 5 22
REMARK SMILES IDX 4 23 3 24 2 25 1 26
REMARK H PARENT
REMARK Flexibility Score: inf
ROOT
ATOM      1  C   UNL     1     100.883  96.488  10.364  1.00  0.00     0.000 C 
ENDROOT
BRANCH   1   2
ATOM      2  C   UNL     1     101.966  97.563  10.560  1.00  0.00     0.000 C 
BRANCH   2   3
ATOM      3  C   UNL     1     101.657  98.864   9.805  1.00  0.00     0.000 C 
BRANCH   3   4
ATOM      4  C   UNL     1     101.280  99.986  10.785  1.00  0.00     0.000 C 
BRANCH   4   5
ATOM      5  C   UNL     1      99.785 100.340  10.737  1.00  0.00     0.000 C 
BRANCH   5   6
ATOM      6  C   UNL     1      98.905  99.142  10.349  1.00  0.00     0.000 C 
BRANCH   6   7
ATOM      7  C   UNL     1      97.432  99.559  10.229  1.00  0.00     0.000 C 
BRANCH   7   8
ATOM      8  C   UNL     1      96.944  99.626   8.771  1.00  0.00     0.000 C 
BRANCH   8   9
ATOM      9  C   UNL     1      95.415  99.707   8.597  1.00  0.00     0.000 C 
BRANCH   9  10
ATOM     10  C   UNL     1      94.833  98.502   7.838  1.00  0.00     0.006 C 
BRANCH  10  11
ATOM     11  C   UNL     1      93.306  98.578   7.714  1.00  0.00     0.053 C 
BRANCH  11  12
ATOM     12  C   UNL     1      92.879  99.635   6.742  1.00  0.00     0.041 C 
ATOM     13  O   UNL     1      91.961 100.442   7.045  1.00  0.00    -0.550 OA
ATOM     14  O   UNL     1      93.472  99.706   5.488  1.00  0.00    -0.550 OA
ENDBRANCH  11  12
ENDBRANCH  10  11
ENDBRANCH   9  10
ENDBRANCH   8   9
ENDBRANCH   7   8
ENDBRANCH   6   7
ENDBRANCH   5   6
ENDBRANCH   4   5
ENDBRANCH   3   4
ENDBRANCH   2   3
ENDBRANCH   1   2
BRANCH   1  15
ATOM     15  C   UNL     1     101.408  95.040  10.294  1.00  0.00     0.000 C 
BRANCH  15  16
ATOM     16  C   UNL     1     100.473  93.972  10.896  1.00  0.00     0.000 C 
BRANCH  16  17
ATOM     17  C   UNL     1      98.973  94.317  10.853  1.00  0.00     0.000 C 
BRANCH  17  18
ATOM     18  C   UNL     1      98.657  95.687  11.477  1.00  0.00    -0.000 C 
BRANCH  18  19
ATOM     19  C   UNL     1      98.335  95.590  12.977  1.00  0.00    -0.000 C 
BRANCH  19  20
ATOM     20  C   UNL     1      98.389  94.148  13.501  1.00  0.00    -0.000 C 
BRANCH  20  21
ATOM     21  C   UNL     1      98.781  94.117  14.985  1.00  0.00    -0.000 C 
BRANCH  21  22
ATOM     22  C   UNL     1      99.084  95.523  15.547  1.00  0.00    -0.000 C 
BRANCH  22  23
ATOM     23  C   UNL     1      99.995  95.513  16.790  1.00  0.00    -0.000 C 
BRANCH  23  24
ATOM     24  C   UNL     1      99.634  96.549  17.873  1.00  0.00    -0.000 C 
BRANCH  24  25
ATOM     25  C   UNL     1      98.813  97.750  17.371  1.00  0.00    -0.003 C 
ATOM     26  C   UNL     1      98.496  98.759  18.475  1.00  0.00     0.004 C 
ENDBRANCH  24  25
ENDBRANCH  23  24
ENDBRANCH  22  23
ENDBRANCH  21  22
ENDBRANCH  20  21
ENDBRANCH  19  20
ENDBRANCH  18  19
ENDBRANCH  17  18
ENDBRANCH  16  17
ENDBRANCH  15  16
ENDBRANCH   1  15
TORSDOF 22
ENDMDL
MODEL 4
REMARK VINA RESULT:    18.374      4.341      8.673
REMARK INTER + INTRA:          40.621
REMARK INTER:                  40.829
REMARK INTRA:                  -0.207
REMARK UNBOUND:                -1.384
REMARK SMILES CCCCCCCCCCCCCCCCCCCCCCCC(=O)[O-]
REMARK SMILES IDX 13 1 14 2 15 3 16 4 17 5 18 6 19 7 20 8 21 9 22 10 23 11
REMARK SMILES IDX 24 12 25 13 26 14 12 15 11 16 10 17 9 18 8 19 7 20 6 21 5 22
REMARK SMILES IDX 4 23 3 24 2 25 1 26
REMARK H PARENT
REMARK Flexibility Score: inf
ROOT
ATOM      1  C   UNL     1     101.573  97.847  10.340  1.00  0.00     0.000 C 
ENDROOT
BRANCH   1   2
ATOM      2  C   UNL     1     102.595  96.697  10.337  1.00  0.00     0.000 C 
BRANCH   2   3
ATOM      3  C   UNL     1     101.953  95.331  10.052  1.00  0.00     0.000 C 
BRANCH   3   4
ATOM      4  C   UNL     1     100.490  95.307  10.520  1.00  0.00     0.000 C 
BRANCH   4   5
ATOM      5  C   UNL     1      99.930  93.881  10.649  1.00  0.00     0.000 C 
BRANCH   5   6
ATOM      6  C   UNL     1      98.650  93.822  11.495  1.00  0.00     0.000 C 
BRANCH   6   7
ATOM      7  C   UNL     1      98.546  95.045  12.419  1.00  0.00     0.000 C 
BRANCH   7   8
ATOM      8  C   UNL     1      98.065  94.687  13.837  1.00  0.00     0.000 C 
BRANCH   8   9
ATOM      9  C   UNL     1      99.175  94.609  14.902  1.00  0.00     0.000 C 
BRANCH   9  10
ATOM     10  C   UNL     1      98.939  95.563  16.085  1.00  0.00     0.006 C 
BRANCH  10  11
ATOM     11  C   UNL     1     100.154  95.639  17.020  1.00  0.00     0.053 C 
BRANCH  11  12
ATOM     12  C   UNL     1     100.289  96.992  17.647  1.00  0.00     0.041 C 
ATOM     13  O   UNL     1      99.272  97.713  17.825  1.00  0.00    -0.550 OA
ATOM     14  O   UNL     1     101.544  97.472  17.999  1.00  0.00    -0.550 OA
ENDBRANCH  11  12
ENDBRANCH  10  11
ENDBRANCH   9  10
ENDBRANCH   8   9
ENDBRANCH   7   8
ENDBRANCH   6   7
ENDBRANCH   5   6
ENDBRANCH   4   5
ENDBRANCH   3   4
ENDBRANCH   2   3
ENDBRANCH   1   2
BRANCH   1  15
ATOM     15  C   UNL     1     102.154  99.234   9.998  1.00  0.00     0.000 C 
BRANCH  15  16
ATOM     16  C   UNL     1     101.155 100.405  10.088  1.00  0.00     0.000 C 
BRANCH  16  17
ATOM     17  C   UNL     1      99.892 100.124  10.924  1.00  0.00     0.000 C 
BRANCH  17  18
ATOM     18  C   UNL     1      99.334  98.707  10.704  1.00  0.00    -0.000 C 
BRANCH  18  19
ATOM     19  C   UNL     1      97.798  98.666  10.750  1.00  0.00    -0.000 C 
BRANCH  19  20
ATOM     20  C   UNL     1      97.150  99.504   9.638  1.00  0.00    -0.000 C 
BRANCH  20  21
ATOM     21  C   UNL     1      96.672  98.609   8.485  1.00  0.00    -0.000 C 
BRANCH  21  22
ATOM     22  C   UNL     1      95.595  99.292   7.614  1.00  0.00    -0.000 C 
BRANCH  22  23
ATOM     23  C   UNL     1      94.188  99.280   8.243  1.00  0.00    -0.000 C 
BRANCH  23  24
ATOM     24  C   UNL     1      93.058  98.804   7.308  1.00  0.00    -0.000 C 
BRANCH  24  25
ATOM     25  C   UNL     1      92.811  99.703   6.083  1.00  0.00    -0.003 C 
ATOM     26  C   UNL     1      91.558 100.569   6.221  1.00  0.00     0.004 C 
ENDBRANCH  24  25
ENDBRANCH  23  24
ENDBRANCH  22  23
ENDBRANCH  21  22
ENDBRANCH  20  21
ENDBRANCH  19  20
ENDBRANCH  18  19
ENDBRANCH  17  18
ENDBRANCH  16  17
ENDBRANCH  15  16
ENDBRANCH   1  15
TORSDOF 22
ENDMDL
MODEL 5
REMARK VINA RESULT:    18.639      3.323      8.313
REMARK INTER + INTRA:          41.227
REMARK INTER:                  41.824
REMARK INTRA:                  -0.597
REMARK UNBOUND:                -1.384
REMARK SMILES CCCCCCCCCCCCCCCCCCCCCCCC(=O)[O-]
REMARK SMILES IDX 13 1 14 2 15 3 16 4 17 5 18 6 19 7 20 8 21 9 22 10 23 11
REMARK SMILES IDX 24 12 25 13 26 14 12 15 11 16 10 17 9 18 8 19 7 20 6 21 5 22
REMARK SMILES IDX 4 23 3 24 2 25 1 26
REMARK H PARENT
REMARK Flexibility Score: inf
ROOT
ATOM      1  C   UNL     1      98.023  99.334  11.035  1.00  0.00     0.000 C 
ENDROOT
BRANCH   1   2
ATOM      2  C   UNL     1      99.561  99.283  11.016  1.00  0.00     0.000 C 
BRANCH   2   3
ATOM      3  C   UNL     1     100.206 100.665  11.199  1.00  0.00     0.000 C 
BRANCH   3   4
ATOM      4  C   UNL     1     101.521 100.762  10.411  1.00  0.00     0.000 C 
BRANCH   4   5
ATOM      5  C   UNL     1     101.655  99.668   9.339  1.00  0.00     0.000 C 
BRANCH   5   6
ATOM      6  C   UNL     1     102.487  98.469   9.818  1.00  0.00     0.000 C 
BRANCH   6   7
ATOM      7  C   UNL     1     101.603  97.442  10.542  1.00  0.00     0.000 C 
BRANCH   7   8
ATOM      8  C   UNL     1     101.910  95.991  10.131  1.00  0.00     0.000 C 
BRANCH   8   9
ATOM      9  C   UNL     1     100.930  94.936  10.678  1.00  0.00     0.000 C 
BRANCH   9  10
ATOM     10  C   UNL     1      99.459  95.375  10.582  1.00  0.00     0.006 C 
BRANCH  10  11
ATOM     11  C   UNL     1      98.525  94.455  11.378  1.00  0.00     0.053 C 
BRANCH  11  12
ATOM     12  C   UNL     1      98.329  94.941  12.781  1.00  0.00     0.041 C 
ATOM     13  O   UNL     1      98.058  96.151  13.001  1.00  0.00    -0.550 OA
ATOM     14  O   UNL     1      98.482  94.065  13.848  1.00  0.00    -0.550 OA
ENDBRANCH  11  12
ENDBRANCH  10  11
ENDBRANCH   9  10
ENDBRANCH   8   9
ENDBRANCH   7   8
ENDBRANCH   6   7
ENDBRANCH   5   6
ENDBRANCH   4   5
ENDBRANCH   3   4
ENDBRANCH   2   3
ENDBRANCH   1   2
BRANCH   1  15
ATOM     15  C   UNL     1      97.400  99.667  12.406  1.00  0.00     0.000 C 
BRANCH  15  16
ATOM     16  C   UNL     1      95.876  99.897  12.396  1.00  0.00     0.000 C 
BRANCH  16  17
ATOM     17  C   UNL     1      95.379 100.944  11.382  1.00  0.00     0.000 C 
BRANCH  17  18
ATOM     18  C   UNL     1      94.529 100.328  10.257  1.00  0.00    -0.000 C 
BRANCH  18  19
ATOM     19  C   UNL     1      95.377  99.893   9.050  1.00  0.00    -0.000 C 
BRANCH  19  20
ATOM     20  C   UNL     1      94.564  99.109   8.009  1.00  0.00    -0.000 C 
BRANCH  20  21
ATOM     21  C   UNL     1      93.161  99.709   7.843  1.00  0.00    -0.000 C 
BRANCH  21  22
ATOM     22  C   UNL     1      92.639  99.602   6.394  1.00  0.00    -0.000 C 
BRANCH  22  23
ATOM     23  C   UNL     1      92.928  98.242   5.728  1.00  0.00    -0.000 C 
BRANCH  23  24
ATOM     24  C   UNL     1      92.237  98.020   4.369  1.00  0.00    -0.000 C 
BRANCH  24  25
ATOM     25  C   UNL     1      91.418  96.721   4.264  1.00  0.00    -0.003 C 
ATOM     26  C   UNL     1      92.292  95.468   4.191  1.00  0.00     0.004 C 
ENDBRANCH  24  25
ENDBRANCH  23  24
ENDBRANCH  22  23
ENDBRANCH  21  22
ENDBRANCH  20  21
ENDBRANCH  19  20
ENDBRANCH  18  19
ENDBRANCH  17  18
ENDBRANCH  16  17
ENDBRANCH  15  16
ENDBRANCH   1  15
TORSDOF 22
ENDMDL
MODEL 6
REMARK VINA RESULT:    18.770      5.371      9.152
REMARK INTER + INTRA:          41.526
REMARK INTER:                  41.853
REMARK INTRA:                  -0.327
REMARK UNBOUND:                -1.384
REMARK SMILES CCCCCCCCCCCCCCCCCCCCCCCC(=O)[O-]
REMARK SMILES IDX 13 1 14 2 15 3 16 4 17 5 18 6 19 7 20 8 21 9 22 10 23 11
REMARK SMILES IDX 24 12 25 13 26 14 12 15 11 16 10 17 9 18 8 19 7 20 6 21 5 22
REMARK SMILES IDX 4 23 3 24 2 25 1 26
REMARK H PARENT
REMARK Flexibility Score: inf
ROOT
ATOM      1  C   UNL     1      98.614  94.312  11.285  1.00  0.00     0.000 C 
ENDROOT
BRANCH   1   2
ATOM      2  C   UNL     1      98.611  95.353  12.418  1.00  0.00     0.000 C 
BRANCH   2   3
ATOM      3  C   UNL     1      98.040  94.802  13.733  1.00  0.00     0.000 C 
BRANCH   3   4
ATOM      4  C   UNL     1      98.588  93.395  14.019  1.00  0.00     0.000 C 
BRANCH   4   5
ATOM      5  C   UNL     1      97.770  92.643  15.080  1.00  0.00     0.000 C 
BRANCH   5   6
ATOM      6  C   UNL     1      97.016  91.437  14.501  1.00  0.00     0.000 C 
BRANCH   6   7
ATOM      7  C   UNL     1      95.885  90.994  15.442  1.00  0.00     0.000 C 
BRANCH   7   8
ATOM      8  C   UNL     1      94.609  90.572  14.690  1.00  0.00     0.000 C 
BRANCH   8   9
ATOM      9  C   UNL     1      93.488  89.999  15.576  1.00  0.00     0.000 C 
BRANCH   9  10
ATOM     10  C   UNL     1      93.468  88.461  15.600  1.00  0.00     0.006 C 
BRANCH  10  11
ATOM     11  C   UNL     1      92.452  87.910  16.609  1.00  0.00     0.053 C 
BRANCH  11  12
ATOM     12  C   UNL     1      91.193  87.454  15.939  1.00  0.00     0.041 C 
ATOM     13  O   UNL     1      90.086  87.964  16.255  1.00  0.00    -0.550 OA
ATOM     14  O   UNL     1      91.239  86.441  14.991  1.00  0.00    -0.550 OA
ENDBRANCH  11  12
ENDBRANCH  10  11
ENDBRANCH   9  10
ENDBRANCH   8   9
ENDBRANCH   7   8
ENDBRANCH   6   7
ENDBRANCH   5   6
ENDBRANCH   4   5
ENDBRANCH   3   4
ENDBRANCH   2   3
ENDBRANCH   1   2
BRANCH   1  15
ATOM     15  C   UNL     1      99.972  93.624  11.038  1.00  0.00     0.000 C 
BRANCH  15  16
ATOM     16  C   UNL     1     101.036  94.499  10.346  1.00  0.00     0.000 C 
BRANCH  16  17
ATOM     17  C   UNL     1     100.814  96.018  10.472  1.00  0.00     0.000 C 
BRANCH  17  18
ATOM     18  C   UNL     1     102.092  96.832  10.204  1.00  0.00    -0.000 C 
BRANCH  18  19
ATOM     19  C   UNL     1     101.962  98.297  10.653  1.00  0.00    -0.000 C 
BRANCH  19  20
ATOM     20  C   UNL     1     101.860  99.271   9.471  1.00  0.00    -0.000 C 
BRANCH  20  21
ATOM     21  C   UNL     1     101.223 100.598   9.907  1.00  0.00    -0.000 C 
BRANCH  21  22
ATOM     22  C   UNL     1     100.308 100.439  11.141  1.00  0.00    -0.000 C 
BRANCH  22  23
ATOM     23  C   UNL     1      99.253  99.326  10.993  1.00  0.00    -0.000 C 
BRANCH  23  24
ATOM     24  C   UNL     1      97.915  99.594  11.708  1.00  0.00    -0.000 C 
BRANCH  24  25
ATOM     25  C   UNL     1      97.819  99.026  13.136  1.00  0.00    -0.003 C 
ATOM     26  C   UNL     1      96.378  98.873  13.623  1.00  0.00     0.004 C 
ENDBRANCH  24  25
ENDBRANCH  23  24
ENDBRANCH  22  23
ENDBRANCH  21  22
ENDBRANCH  20  21
ENDBRANCH  19  20
ENDBRANCH  18  19
ENDBRANCH  17  18
ENDBRANCH  16  17
ENDBRANCH  15  16
ENDBRANCH   1  15
TORSDOF 22
ENDMDL
MODEL 7
REMARK VINA RESULT:    18.985      2.363      4.395
REMARK INTER + INTRA:          42.018
REMARK INTER:                  44.123
REMARK INTRA:                  -2.105
REMARK UNBOUND:                -1.384
REMARK SMILES CCCCCCCCCCCCCCCCCCCCCCCC(=O)[O-]
REMARK SMILES IDX 13 1 14 2 15 3 16 4 17 5 18 6 19 7 20 8 21 9 22 10 23 11
REMARK SMILES IDX 24 12 25 13 26 14 12 15 11 16 10 17 9 18 8 19 7 20 6 21 5 22
REMARK SMILES IDX 4 23 3 24 2 25 1 26
REMARK H PARENT
REMARK Flexibility Score: inf
ROOT
ATOM      1  C   UNL     1     102.210  96.777  10.285  1.00  0.00     0.000 C 
ENDROOT
BRANCH   1   2
ATOM      2  C   UNL     1     101.752  98.164  10.768  1.00  0.00     0.000 C 
BRANCH   2   3
ATOM      3  C   UNL     1     101.867  99.242   9.680  1.00  0.00     0.000 C 
BRANCH   3   4
ATOM      4  C   UNL     1     101.245 100.564  10.152  1.00  0.00     0.000 C 
BRANCH   4   5
ATOM      5  C   UNL     1     100.126 100.359  11.187  1.00  0.00     0.000 C 
BRANCH   5   6
ATOM      6  C   UNL     1      98.816  99.869  10.553  1.00  0.00     0.000 C 
BRANCH   6   7
ATOM      7  C   UNL     1      98.064  98.927  11.505  1.00  0.00     0.000 C 
BRANCH   7   8
ATOM      8  C   UNL     1      97.383  99.669  12.669  1.00  0.00     0.000 C 
BRANCH   8   9
ATOM      9  C   UNL     1      96.229 100.604  12.261  1.00  0.00     0.000 C 
BRANCH   9  10
ATOM     10  C   UNL     1      95.212  99.930  11.324  1.00  0.00     0.006 C 
BRANCH  10  11
ATOM     11  C   UNL     1      95.036 100.700  10.009  1.00  0.00     0.053 C 
BRANCH  11  12
ATOM     12  C   UNL     1      95.077  99.789   8.821  1.00  0.00     0.041 C 
ATOM     13  O   UNL     1      94.011  99.309   8.354  1.00  0.00    -0.550 OA
ATOM     14  O   UNL     1      96.296  99.442   8.254  1.00  0.00    -0.550 OA
ENDBRANCH  11  12
ENDBRANCH  10  11
ENDBRANCH   9  10
ENDBRANCH   8   9
ENDBRANCH   7   8
ENDBRANCH   6   7
ENDBRANCH   5   6
ENDBRANCH   4   5
ENDBRANCH   3   4
ENDBRANCH   2   3
ENDBRANCH   1   2
BRANCH   1  15
ATOM     15  C   UNL     1     101.124  95.683  10.322  1.00  0.00     0.000 C 
BRANCH  15  16
ATOM     16  C   UNL     1      99.686  96.193  10.545  1.00  0.00     0.000 C 
BRANCH  16  17
ATOM     17  C   UNL     1      98.658  95.107  10.914  1.00  0.00     0.000 C 
BRANCH  17  18
ATOM     18  C   UNL     1      99.293  93.904  11.633  1.00  0.00    -0.000 C 
BRANCH  18  19
ATOM     19  C   UNL     1      98.595  93.577  12.963  1.00  0.00    -0.000 C 
BRANCH  19  20
ATOM     20  C   UNL     1      98.284  94.833  13.791  1.00  0.00    -0.000 C 
BRANCH  20  21
ATOM     21  C   UNL     1      98.457  94.557  15.292  1.00  0.00    -0.000 C 
BRANCH  21  22
ATOM     22  C   UNL     1      99.778  95.127  15.851  1.00  0.00    -0.000 C 
BRANCH  22  23
ATOM     23  C   UNL     1      99.665  95.657  17.294  1.00  0.00    -0.000 C 
BRANCH  23  24
ATOM     24  C   UNL     1     100.606  96.829  17.635  1.00  0.00    -0.000 C 
BRANCH  24  25
ATOM     25  C   UNL     1      99.907  98.186  17.825  1.00  0.00    -0.003 C 
ATOM     26  C   UNL     1      98.382  98.080  17.807  1.00  0.00     0.004 C 
ENDBRANCH  24  25
ENDBRANCH  23  24
ENDBRANCH  22  23
ENDBRANCH  21  22
ENDBRANCH  20  21
ENDBRANCH  19  20
ENDBRANCH  18  19
ENDBRANCH  17  18
ENDBRANCH  16  17
ENDBRANCH  15  16
ENDBRANCH   1  15
TORSDOF 22
ENDMDL
MODEL 8
REMARK VINA RESULT:    19.060      4.808      8.232
REMARK INTER + INTRA:          42.190
REMARK INTER:                  43.973
REMARK INTRA:                  -1.782
REMARK UNBOUND:                -1.384
REMARK SMILES CCCCCCCCCCCCCCCCCCCCCCCC(=O)[O-]
REMARK SMILES IDX 13 1 14 2 15 3 16 4 17 5 18 6 19 7 20 8 21 9 22 10 23 11
REMARK SMILES IDX 24 12 25 13 26 14 12 15 11 16 10 17 9 18 8 19 7 20 6 21 5 22
REMARK SMILES IDX 4 23 3 24 2 25 1 26
REMARK H PARENT
REMARK Flexibility Score: inf
ROOT
ATOM      1  C   UNL     1      99.312  94.499  10.691  1.00  0.00     0.000 C 
ENDROOT
BRANCH   1   2
ATOM      2  C   UNL     1      98.722  95.782  11.303  1.00  0.00     0.000 C 
BRANCH   2   3
ATOM      3  C   UNL     1      98.226  95.582  12.742  1.00  0.00     0.000 C 
BRANCH   3   4
ATOM      4  C   UNL     1      98.226  94.092  13.118  1.00  0.00     0.000 C 
BRANCH   4   5
ATOM      5  C   UNL     1      98.565  93.853  14.598  1.00  0.00     0.000 C 
BRANCH   5   6
ATOM      6  C   UNL     1      98.926  95.148  15.340  1.00  0.00     0.000 C 
BRANCH   6   7
ATOM      7  C   UNL     1      99.944  94.875  16.458  1.00  0.00     0.000 C 
BRANCH   7   8
ATOM      8  C   UNL     1      99.871  95.904  17.601  1.00  0.00     0.000 C 
BRANCH   8   9
ATOM      9  C   UNL     1     100.727  97.168  17.397  1.00  0.00     0.000 C 
BRANCH   9  10
ATOM     10  C   UNL     1     100.034  98.449  17.892  1.00  0.00     0.006 C 
BRANCH  10  11
ATOM     11  C   UNL     1      98.546  98.225  18.189  1.00  0.00     0.053 C 
BRANCH  11  12
ATOM     12  C   UNL     1      97.949  99.378  18.937  1.00  0.00     0.041 C 
ATOM     13  O   UNL     1      98.615  99.969  19.827  1.00  0.00    -0.550 OA
ATOM     14  O   UNL     1      96.644  99.774  18.675  1.00  0.00    -0.550 OA
ENDBRANCH  11  12
ENDBRANCH  10  11
ENDBRANCH   9  10
ENDBRANCH   8   9
ENDBRANCH   7   8
ENDBRANCH   6   7
ENDBRANCH   5   6
ENDBRANCH   4   5
ENDBRANCH   3   4
ENDBRANCH   2   3
ENDBRANCH   1   2
BRANCH   1  15
ATOM     15  C   UNL     1     100.852  94.422  10.703  1.00  0.00     0.000 C 
BRANCH  15  16
ATOM     16  C   UNL     1     101.573  95.551   9.939  1.00  0.00     0.000 C 
BRANCH  16  17
ATOM     17  C   UNL     1     101.966  96.770  10.794  1.00  0.00     0.000 C 
BRANCH  17  18
ATOM     18  C   UNL     1     101.439  98.096  10.220  1.00  0.00    -0.000 C 
BRANCH  18  19
ATOM     19  C   UNL     1     102.566  98.999   9.694  1.00  0.00    -0.000 C 
BRANCH  19  20
ATOM     20  C   UNL     1     102.347 100.480  10.038  1.00  0.00    -0.000 C 
BRANCH  20  21
ATOM     21  C   UNL     1     100.916 100.917   9.693  1.00  0.00    -0.000 C 
BRANCH  21  22
ATOM     22  C   UNL     1     100.008 101.009  10.939  1.00  0.00    -0.000 C 
BRANCH  22  23
ATOM     23  C   UNL     1      98.895  99.944  10.976  1.00  0.00    -0.000 C 
BRANCH  23  24
ATOM     24  C   UNL     1      98.537  99.421  12.380  1.00  0.00    -0.000 C 
BRANCH  24  25
ATOM     25  C   UNL     1      97.034  99.433  12.712  1.00  0.00    -0.003 C 
ATOM     26  C   UNL     1      96.680  98.556  13.913  1.00  0.00     0.004 C 
ENDBRANCH  24  25
ENDBRANCH  23  24
ENDBRANCH  22  23
ENDBRANCH  21  22
ENDBRANCH  20  21
ENDBRANCH  19  20
ENDBRANCH  18  19
ENDBRANCH  17  18
ENDBRANCH  16  17
ENDBRANCH  15  16
ENDBRANCH   1  15
TORSDOF 22
ENDMDL
