MODEL 1
REMARK VINA RESULT:    -5.870      0.000      0.000
REMARK INTER + INTRA:          -6.447
REMARK INTER:                  -6.213
REMARK INTRA:                  -0.234
REMARK UNBOUND:                -0.234
REMARK SMILES O=c1cc(-c2ccccc2)oc2ccccc12
REMARK SMILES IDX 4 1 3 2 2 3 1 4 17 5 16 6 15 7 14 8 13 9 12 10 11 11 5 12
REMARK SMILES IDX 8 13 7 14 9 15 6 16 10 17
REMARK H PARENT
REMARK Flexibility Score: inf
ROOT
ATOM      1  C   UNL     1      16.233  16.363  12.113  1.00  0.00     0.138 A 
ATOM      2  C   UNL     1      17.392  16.680  11.373  1.00  0.00     0.100 A 
ATOM      3  C   UNL     1      17.277  16.992  10.017  1.00  0.00     0.193 A 
ATOM      4  O   UNL     1      18.312  17.277   9.354  1.00  0.00    -0.289 OA
ATOM      5  C   UNL     1      16.013  16.986   9.410  1.00  0.00     0.065 A 
ATOM      6  C   UNL     1      15.829  17.291   8.049  1.00  0.00     0.016 A 
ATOM      7  C   UNL     1      14.545  17.269   7.494  1.00  0.00     0.001 A 
ATOM      8  C   UNL     1      13.442  16.945   8.289  1.00  0.00     0.004 A 
ATOM      9  C   UNL     1      13.616  16.641   9.642  1.00  0.00     0.048 A 
ATOM     10  C   UNL     1      14.896  16.660  10.207  1.00  0.00     0.138 A 
ATOM     11  O   UNL     1      15.051  16.370  11.494  1.00  0.00    -0.456 OA
ENDROOT
BRANCH   1  12
ATOM     12  C   UNL     1      16.266  16.018  13.568  1.00  0.00     0.017 A 
ATOM     13  C   UNL     1      16.391  15.295  16.293  1.00  0.00     0.000 A 
ATOM     14  C   UNL     1      15.611  16.379  15.894  1.00  0.00     0.001 A 
ATOM     15  C   UNL     1      17.109  14.568  15.344  1.00  0.00     0.001 A 
ATOM     16  C   UNL     1      15.545  16.742  14.545  1.00  0.00     0.012 A 
ATOM     17  C   UNL     1      17.048  14.924  13.995  1.00  0.00     0.012 A 
ENDBRANCH   1  12
TORSDOF 1
ENDMDL
MODEL 2
REMARK VINA RESULT:    -5.869      0.058      1.173
REMARK INTER + INTRA:          -6.446
REMARK INTER:                  -6.210
REMARK INTRA:                  -0.236
REMARK UNBOUND:                -0.234
REMARK SMILES O=c1cc(-c2ccccc2)oc2ccccc12
REMARK SMILES IDX 4 1 3 2 2 3 1 4 17 5 16 6 15 7 14 8 13 9 12 10 11 11 5 12
REMARK SMILES IDX 8 13 7 14 9 15 6 16 10 17
REMARK H PARENT
REMARK Flexibility Score: inf
ROOT
ATOM      1  C   UNL     1      16.275  16.323  12.080  1.00  0.00     0.138 A 
ATOM      2  C   UNL     1      17.427  16.655  11.335  1.00  0.00     0.100 A 
ATOM      3  C   UNL     1      17.301  16.987   9.985  1.00  0.00     0.193 A 
ATOM      4  O   UNL     1      18.330  17.285   9.320  1.00  0.00    -0.289 OA
ATOM      5  C   UNL     1      16.032  16.986   9.388  1.00  0.00     0.065 A 
ATOM      6  C   UNL     1      15.837  17.312   8.033  1.00  0.00     0.016 A 
ATOM      7  C   UNL     1      14.548  17.294   7.489  1.00  0.00     0.001 A 
ATOM      8  C   UNL     1      13.453  16.955   8.286  1.00  0.00     0.004 A 
ATOM      9  C   UNL     1      13.638  16.631   9.633  1.00  0.00     0.048 A 
ATOM     10  C   UNL     1      14.922  16.646  10.189  1.00  0.00     0.138 A 
ATOM     11  O   UNL     1      15.088  16.336  11.470  1.00  0.00    -0.456 OA
ENDROOT
BRANCH   1  12
ATOM     12  C   UNL     1      16.320  15.956  13.529  1.00  0.00     0.017 A 
ATOM     13  C   UNL     1      16.342  15.336  16.282  1.00  0.00     0.000 A 
ATOM     14  C   UNL     1      17.103  14.581  15.391  1.00  0.00     0.001 A 
ATOM     15  C   UNL     1      15.570  16.398  15.812  1.00  0.00     0.001 A 
ATOM     16  C   UNL     1      17.096  14.883  14.025  1.00  0.00     0.012 A 
ATOM     17  C   UNL     1      15.558  16.707  14.449  1.00  0.00     0.012 A 
ENDBRANCH   1  12
TORSDOF 1
ENDMDL
MODEL 3
REMARK VINA RESULT:    -5.836      2.634      4.767
REMARK INTER + INTRA:          -6.411
REMARK INTER:                  -6.164
REMARK INTRA:                  -0.248
REMARK UNBOUND:                -0.234
REMARK SMILES O=c1cc(-c2ccccc2)oc2ccccc12
REMARK SMILES IDX 4 1 3 2 2 3 1 4 17 5 16 6 15 7 14 8 13 9 12 10 11 11 5 12
REMARK SMILES IDX 8 13 7 14 9 15 6 16 10 17
REMARK H PARENT
REMARK Flexibility Score: inf
ROOT
ATOM      1  C   UNL     1      14.832  16.839  10.481  1.00  0.00     0.138 A 
ATOM      2  C   UNL     1      15.283  16.468   9.196  1.00  0.00     0.100 A 
ATOM      3  C   UNL     1      16.650  16.491   8.915  1.00  0.00     0.193 A 
ATOM      4  O   UNL     1      17.054  16.158   7.767  1.00  0.00    -0.289 OA
ATOM      5  C   UNL     1      17.555  16.883   9.912  1.00  0.00     0.065 A 
ATOM      6  C   UNL     1      18.944  16.927   9.693  1.00  0.00     0.016 A 
ATOM      7  C   UNL     1      19.802  17.327  10.724  1.00  0.00     0.001 A 
ATOM      8  C   UNL     1      19.284  17.681  11.972  1.00  0.00     0.004 A 
ATOM      9  C   UNL     1      17.905  17.639  12.198  1.00  0.00     0.048 A 
ATOM     10  C   UNL     1      17.037  17.241  11.174  1.00  0.00     0.138 A 
ATOM     11  O   UNL     1      15.728  17.204  11.399  1.00  0.00    -0.456 OA
ENDROOT
BRANCH   1  12
ATOM     12  C   UNL     1      13.386  16.842  10.866  1.00  0.00     0.017 A 
ATOM     13  C   UNL     1      10.673  16.932  11.639  1.00  0.00     0.000 A 
ATOM     14  C   UNL     1      11.147  15.864  10.878  1.00  0.00     0.001 A 
ATOM     15  C   UNL     1      11.542  17.955  12.017  1.00  0.00     0.001 A 
ATOM     16  C   UNL     1      12.490  15.814  10.492  1.00  0.00     0.012 A 
ATOM     17  C   UNL     1      12.885  17.913  11.636  1.00  0.00     0.012 A 
ENDBRANCH   1  12
TORSDOF 1
ENDMDL
MODEL 4
REMARK VINA RESULT:    -5.830      2.885      4.612
REMARK INTER + INTRA:          -6.405
REMARK INTER:                  -6.164
REMARK INTRA:                  -0.241
REMARK UNBOUND:                -0.234
REMARK SMILES O=c1cc(-c2ccccc2)oc2ccccc12
REMARK SMILES IDX 4 1 3 2 2 3 1 4 17 5 16 6 15 7 14 8 13 9 12 10 11 11 5 12
REMARK SMILES IDX 8 13 7 14 9 15 6 16 10 17
REMARK H PARENT
REMARK Flexibility Score: inf
ROOT
ATOM      1  C   UNL     1      15.672  16.650   9.819  1.00  0.00     0.138 A 
ATOM      2  C   UNL     1      14.997  17.054   8.647  1.00  0.00     0.100 A 
ATOM      3  C   UNL     1      13.601  17.064   8.628  1.00  0.00     0.193 A 
ATOM      4  O   UNL     1      12.996  17.426   7.582  1.00  0.00    -0.289 OA
ATOM      5  C   UNL     1      12.890  16.674   9.772  1.00  0.00     0.065 A 
ATOM      6  C   UNL     1      11.484  16.662   9.819  1.00  0.00     0.016 A 
ATOM      7  C   UNL     1      10.826  16.262  10.987  1.00  0.00     0.001 A 
ATOM      8  C   UNL     1      11.561  15.875  12.110  1.00  0.00     0.004 A 
ATOM      9  C   UNL     1      12.958  15.884  12.073  1.00  0.00     0.048 A 
ATOM     10  C   UNL     1      13.627  16.282  10.910  1.00  0.00     0.138 A 
ATOM     11  O   UNL     1      14.956  16.287  10.884  1.00  0.00    -0.456 OA
ENDROOT
BRANCH   1  12
ATOM     12  C   UNL     1      17.164  16.611   9.925  1.00  0.00     0.017 A 
ATOM     13  C   UNL     1      19.972  16.586  10.209  1.00  0.00     0.000 A 
ATOM     14  C   UNL     1      19.375  15.954   9.119  1.00  0.00     0.001 A 
ATOM     15  C   UNL     1      19.179  17.230  11.158  1.00  0.00     0.001 A 
ATOM     16  C   UNL     1      17.984  15.962   8.973  1.00  0.00     0.012 A 
ATOM     17  C   UNL     1      17.789  17.244  11.020  1.00  0.00     0.012 A 
ENDBRANCH   1  12
TORSDOF 1
ENDMDL
MODEL 5
REMARK VINA RESULT:    -5.752      1.639      2.234
REMARK INTER + INTRA:          -6.322
REMARK INTER:                  -6.093
REMARK INTRA:                  -0.229
REMARK UNBOUND:                -0.234
REMARK SMILES O=c1cc(-c2ccccc2)oc2ccccc12
REMARK SMILES IDX 4 1 3 2 2 3 1 4 17 5 16 6 15 7 14 8 13 9 12 10 11 11 5 12
REMARK SMILES IDX 8 13 7 14 9 15 6 16 10 17
REMARK H PARENT
REMARK Flexibility Score: inf
ROOT
ATOM      1  C   UNL     1      15.236  16.000  13.201  1.00  0.00     0.138 A 
ATOM      2  C   UNL     1      15.919  16.658  12.156  1.00  0.00     0.100 A 
ATOM      3  C   UNL     1      15.229  16.999  10.991  1.00  0.00     0.193 A 
ATOM      4  O   UNL     1      15.838  17.587  10.057  1.00  0.00    -0.289 OA
ATOM      5  C   UNL     1      13.867  16.683  10.876  1.00  0.00     0.065 A 
ATOM      6  C   UNL     1      13.114  17.000   9.731  1.00  0.00     0.016 A 
ATOM      7  C   UNL     1      11.758  16.661   9.669  1.00  0.00     0.001 A 
ATOM      8  C   UNL     1      11.147  16.009  10.744  1.00  0.00     0.004 A 
ATOM      9  C   UNL     1      11.888  15.692  11.886  1.00  0.00     0.048 A 
ATOM     10  C   UNL     1      13.245  16.026  11.959  1.00  0.00     0.138 A 
ATOM     11  O   UNL     1      13.941  15.720  13.049  1.00  0.00    -0.456 OA
ENDROOT
BRANCH   1  12
ATOM     12  C   UNL     1      15.898  15.600  14.481  1.00  0.00     0.017 A 
ATOM     13  C   UNL     1      17.202  14.781  16.846  1.00  0.00     0.000 A 
ATOM     14  C   UNL     1      16.242  15.790  16.892  1.00  0.00     0.001 A 
ATOM     15  C   UNL     1      17.518  14.177  15.629  1.00  0.00     0.001 A 
ATOM     16  C   UNL     1      15.593  16.201  15.724  1.00  0.00     0.012 A 
ATOM     17  C   UNL     1      16.873  14.581  14.457  1.00  0.00     0.012 A 
ENDBRANCH   1  12
TORSDOF 1
ENDMDL
MODEL 6
REMARK VINA RESULT:    -5.639      2.400      5.570
REMARK INTER + INTRA:          -6.203
REMARK INTER:                  -5.971
REMARK INTRA:                  -0.232
REMARK UNBOUND:                -0.234
REMARK SMILES O=c1cc(-c2ccccc2)oc2ccccc12
REMARK SMILES IDX 4 1 3 2 2 3 1 4 17 5 16 6 15 7 14 8 13 9 12 10 11 11 5 12
REMARK SMILES IDX 8 13 7 14 9 15 6 16 10 17
REMARK H PARENT
REMARK Flexibility Score: inf
ROOT
ATOM      1  C   UNL     1      14.830  16.763  10.524  1.00  0.00     0.138 A 
ATOM      2  C   UNL     1      14.796  17.297  11.831  1.00  0.00     0.100 A 
ATOM      3  C   UNL     1      15.992  17.644  12.462  1.00  0.00     0.193 A 
ATOM      4  O   UNL     1      15.963  18.122  13.629  1.00  0.00    -0.289 OA
ATOM      5  C   UNL     1      17.208  17.457  11.790  1.00  0.00     0.065 A 
ATOM      6  C   UNL     1      18.447  17.786  12.370  1.00  0.00     0.016 A 
ATOM      7  C   UNL     1      19.632  17.578  11.654  1.00  0.00     0.001 A 
ATOM      8  C   UNL     1      19.589  17.044  10.364  1.00  0.00     0.004 A 
ATOM      9  C   UNL     1      18.362  16.715   9.780  1.00  0.00     0.048 A 
ATOM     10  C   UNL     1      17.171  16.919  10.486  1.00  0.00     0.138 A 
ATOM     11  O   UNL     1      16.010  16.603   9.924  1.00  0.00    -0.456 OA
ENDROOT
BRANCH   1  12
ATOM     12  C   UNL     1      13.597  16.366   9.776  1.00  0.00     0.017 A 
ATOM     13  C   UNL     1      11.293  15.684   8.296  1.00  0.00     0.000 A 
ATOM     14  C   UNL     1      11.587  15.009   9.480  1.00  0.00     0.001 A 
ATOM     15  C   UNL     1      12.139  16.697   7.845  1.00  0.00     0.001 A 
ATOM     16  C   UNL     1      12.727  15.342  10.217  1.00  0.00     0.012 A 
ATOM     17  C   UNL     1      13.280  17.036   8.576  1.00  0.00     0.012 A 
ENDBRANCH   1  12
TORSDOF 1
ENDMDL
MODEL 7
REMARK VINA RESULT:    -5.634      1.344      2.457
REMARK INTER + INTRA:          -6.197
REMARK INTER:                  -5.946
REMARK INTRA:                  -0.252
REMARK UNBOUND:                -0.234
REMARK SMILES O=c1cc(-c2ccccc2)oc2ccccc12
REMARK SMILES IDX 4 1 3 2 2 3 1 4 17 5 16 6 15 7 14 8 13 9 12 10 11 11 5 12
REMARK SMILES IDX 8 13 7 14 9 15 6 16 10 17
REMARK H PARENT
REMARK Flexibility Score: inf
ROOT
ATOM      1  C   UNL     1      15.793  16.187  13.054  1.00  0.00     0.138 A 
ATOM      2  C   UNL     1      14.480  16.592  12.730  1.00  0.00     0.100 A 
ATOM      3  C   UNL     1      14.188  16.997  11.426  1.00  0.00     0.193 A 
ATOM      4  O   UNL     1      13.015  17.358  11.136  1.00  0.00    -0.289 OA
ATOM      5  C   UNL     1      15.202  16.995  10.458  1.00  0.00     0.065 A 
ATOM      6  C   UNL     1      14.973  17.390   9.127  1.00  0.00     0.016 A 
ATOM      7  C   UNL     1      16.022  17.370   8.201  1.00  0.00     0.001 A 
ATOM      8  C   UNL     1      17.297  16.957   8.593  1.00  0.00     0.004 A 
ATOM      9  C   UNL     1      17.533  16.562   9.913  1.00  0.00     0.048 A 
ATOM     10  C   UNL     1      16.492  16.578  10.848  1.00  0.00     0.138 A 
ATOM     11  O   UNL     1      16.726  16.201  12.100  1.00  0.00    -0.456 OA
ENDROOT
BRANCH   1  12
ATOM     12  C   UNL     1      16.191  15.738  14.424  1.00  0.00     0.017 A 
ATOM     13  C   UNL     1      17.004  14.827  16.969  1.00  0.00     0.000 A 
ATOM     14  C   UNL     1      16.072  15.858  16.861  1.00  0.00     0.001 A 
ATOM     15  C   UNL     1      17.534  14.246  15.817  1.00  0.00     0.001 A 
ATOM     16  C   UNL     1      15.666  16.314  15.603  1.00  0.00     0.012 A 
ATOM     17  C   UNL     1      17.133  14.696  14.556  1.00  0.00     0.012 A 
ENDBRANCH   1  12
TORSDOF 1
ENDMDL
MODEL 8
REMARK VINA RESULT:    -5.537      5.021      9.272
REMARK INTER + INTRA:          -6.095
REMARK INTER:                  -5.836
REMARK INTRA:                  -0.258
REMARK UNBOUND:                -0.234
REMARK SMILES O=c1cc(-c2ccccc2)oc2ccccc12
REMARK SMILES IDX 4 1 3 2 2 3 1 4 17 5 16 6 15 7 14 8 13 9 12 10 11 11 5 12
REMARK SMILES IDX 8 13 7 14 9 15 6 16 10 17
REMARK H PARENT
REMARK Flexibility Score: inf
ROOT
ATOM      1  C   UNL     1      17.686  13.506  17.604  1.00  0.00     0.138 A 
ATOM      2  C   UNL     1      17.969  13.886  18.933  1.00  0.00     0.100 A 
ATOM      3  C   UNL     1      18.576  12.971  19.795  1.00  0.00     0.193 A 
ATOM      4  O   UNL     1      18.830  13.310  20.983  1.00  0.00    -0.289 OA
ATOM      5  C   UNL     1      18.894  11.687  19.328  1.00  0.00     0.065 A 
ATOM      6  C   UNL     1      19.506  10.719  20.145  1.00  0.00     0.016 A 
ATOM      7  C   UNL     1      19.801   9.453  19.628  1.00  0.00     0.001 A 
ATOM      8  C   UNL     1      19.492   9.147  18.300  1.00  0.00     0.004 A 
ATOM      9  C   UNL     1      18.884  10.103  17.481  1.00  0.00     0.048 A 
ATOM     10  C   UNL     1      18.585  11.373  17.988  1.00  0.00     0.138 A 
ATOM     11  O   UNL     1      18.007  12.275  17.203  1.00  0.00    -0.456 OA
ENDROOT
BRANCH   1  12
ATOM     12  C   UNL     1      17.040  14.425  16.615  1.00  0.00     0.017 A 
ATOM     13  C   UNL     1      15.861  16.106  14.679  1.00  0.00     0.000 A 
ATOM     14  C   UNL     1      15.617  16.324  16.034  1.00  0.00     0.001 A 
ATOM     15  C   UNL     1      16.688  15.055  14.282  1.00  0.00     0.001 A 
ATOM     16  C   UNL     1      16.198  15.494  16.998  1.00  0.00     0.012 A 
ATOM     17  C   UNL     1      17.273  14.222  15.239  1.00  0.00     0.012 A 
ENDBRANCH   1  12
TORSDOF 1
ENDMDL
MODEL 9
REMARK VINA RESULT:    -5.409      2.488      3.930
REMARK INTER + INTRA:          -5.959
REMARK INTER:                  -5.739
REMARK INTRA:                  -0.221
REMARK UNBOUND:                -0.234
REMARK SMILES O=c1cc(-c2ccccc2)oc2ccccc12
REMARK SMILES IDX 4 1 3 2 2 3 1 4 17 5 16 6 15 7 14 8 13 9 12 10 11 11 5 12
REMARK SMILES IDX 8 13 7 14 9 15 6 16 10 17
REMARK H PARENT
REMARK Flexibility Score: inf
ROOT
ATOM      1  C   UNL     1      15.899  16.350  10.895  1.00  0.00     0.138 A 
ATOM      2  C   UNL     1      14.962  15.927  11.863  1.00  0.00     0.100 A 
ATOM      3  C   UNL     1      13.607  15.876  11.531  1.00  0.00     0.193 A 
ATOM      4  O   UNL     1      12.769  15.497  12.394  1.00  0.00    -0.289 OA
ATOM      5  C   UNL     1      13.196  16.245  10.242  1.00  0.00     0.065 A 
ATOM      6  C   UNL     1      11.847  16.215   9.843  1.00  0.00     0.016 A 
ATOM      7  C   UNL     1      11.493  16.595   8.544  1.00  0.00     0.001 A 
ATOM      8  C   UNL     1      12.475  17.004   7.639  1.00  0.00     0.004 A 
ATOM      9  C   UNL     1      13.818  17.035   8.026  1.00  0.00     0.048 A 
ATOM     10  C   UNL     1      14.184  16.657   9.323  1.00  0.00     0.138 A 
ATOM     11  O   UNL     1      15.463  16.691   9.682  1.00  0.00    -0.456 OA
ENDROOT
BRANCH   1  12
ATOM     12  C   UNL     1      17.367  16.433  11.167  1.00  0.00     0.017 A 
ATOM     13  C   UNL     1      20.125  16.680  11.715  1.00  0.00     0.000 A 
ATOM     14  C   UNL     1      19.624  15.497  11.173  1.00  0.00     0.001 A 
ATOM     15  C   UNL     1      19.261  17.741  11.985  1.00  0.00     0.001 A 
ATOM     16  C   UNL     1      18.259  15.368  10.900  1.00  0.00     0.012 A 
ATOM     17  C   UNL     1      17.896  17.621  11.715  1.00  0.00     0.012 A 
ENDBRANCH   1  12
TORSDOF 1
ENDMDL
