MODEL 1
REMARK VINA RESULT:    -5.248      0.000      0.000
REMARK INTER + INTRA:          -6.069
REMARK INTER:                  -6.169
REMARK INTRA:                   0.100
REMARK UNBOUND:                 0.100
REMARK SMILES O=c1c(O)c(-c2ccc(O)cc2)oc2cc(O)cc(O)c12
REMARK SMILES IDX 5 1 3 2 2 3 1 4 21 5 19 6 18 7 16 8 15 9 14 10 13 11 6 12
REMARK SMILES IDX 7 13 8 14 9 15 12 16 11 17 10 18 4 20 20 22 17 24
REMARK H PARENT 10 19 4 21 20 23 17 25
REMARK Flexibility Score: inf
ROOT
ATOM      1  C   UNL     1      -1.623  -1.158  -9.473  1.00  0.00     0.180 A 
ATOM      2  C   UNL     1      -1.655  -2.539  -9.733  1.00  0.00     0.208 A 
ATOM      3  C   UNL     1      -0.447  -3.249  -9.800  1.00  0.00     0.238 A 
ATOM      4  O   UNL     1      -0.487  -4.496  -9.958  1.00  0.00    -0.285 OA
ATOM      5  C   UNL     1       0.784  -2.561  -9.663  1.00  0.00     0.111 A 
ATOM      6  C   UNL     1       2.071  -3.171  -9.758  1.00  0.00     0.134 A 
ATOM      7  C   UNL     1       3.218  -2.409  -9.500  1.00  0.00     0.093 A 
ATOM      8  C   UNL     1       3.129  -1.048  -9.213  1.00  0.00     0.123 A 
ATOM      9  C   UNL     1       1.879  -0.429  -9.171  1.00  0.00     0.094 A 
ATOM     10  C   UNL     1       0.715  -1.170  -9.387  1.00  0.00     0.146 A 
ATOM     11  O   UNL     1      -0.454  -0.546  -9.316  1.00  0.00    -0.452 OA
ENDROOT
BRANCH   1  12
ATOM     12  C   UNL     1      -2.856  -0.344  -9.373  1.00  0.00     0.021 A 
ATOM     13  C   UNL     1      -2.887   0.936  -9.950  1.00  0.00     0.016 A 
ATOM     14  C   UNL     1      -4.033   1.731  -9.847  1.00  0.00     0.047 A 
ATOM     15  C   UNL     1      -5.155   1.261  -9.154  1.00  0.00     0.115 A 
ATOM     16  C   UNL     1      -3.980  -0.801  -8.661  1.00  0.00     0.016 A 
ATOM     17  C   UNL     1      -5.124  -0.003  -8.560  1.00  0.00     0.047 A 
BRANCH  15  18
ATOM     18  O   UNL     1      -6.303   2.044  -9.047  1.00  0.00    -0.508 OA
ATOM     19  H   UNL     1      -6.414   2.722  -8.302  1.00  0.00     0.293 HD
ENDBRANCH  15  18
ENDBRANCH   1  12
BRANCH   2  20
ATOM     20  O   UNL     1      -2.877  -3.186  -9.942  1.00  0.00    -0.502 OA
ATOM     21  H   UNL     1      -2.944  -4.185 -10.096  1.00  0.00     0.293 HD
ENDBRANCH   2  20
BRANCH   6  22
ATOM     22  O   UNL     1       2.281  -4.504 -10.125  1.00  0.00    -0.507 OA
ATOM     23  H   UNL     1       2.677  -5.212  -9.526  1.00  0.00     0.293 HD
ENDBRANCH   6  22
BRANCH   8  24
ATOM     24  O   UNL     1       4.292  -0.318  -8.977  1.00  0.00    -0.508 OA
ATOM     25  H   UNL     1       4.338   0.678  -9.158  1.00  0.00     0.293 HD
ENDBRANCH   8  24
TORSDOF 5
ENDMDL
MODEL 2
REMARK VINA RESULT:    -3.673      2.409      7.752
REMARK INTER + INTRA:          -4.217
REMARK INTER:                  -4.649
REMARK INTRA:                   0.432
REMARK UNBOUND:                 0.100
REMARK SMILES O=c1c(O)c(-c2ccc(O)cc2)oc2cc(O)cc(O)c12
REMARK SMILES IDX 5 1 3 2 2 3 1 4 21 5 19 6 18 7 16 8 15 9 14 10 13 11 6 12
REMARK SMILES IDX 7 13 8 14 9 15 12 16 11 17 10 18 4 20 20 22 17 24
REMARK H PARENT 10 19 4 21 20 23 17 25
REMARK Flexibility Score: inf
ROOT
ATOM      1  C   UNL     1       2.413  -3.522  -9.766  1.00  0.00     0.180 A 
ATOM      2  C   UNL     1       2.990  -2.241  -9.734  1.00  0.00     0.208 A 
ATOM      3  C   UNL     1       2.152  -1.116  -9.702  1.00  0.00     0.238 A 
ATOM      4  O   UNL     1       2.675   0.024  -9.598  1.00  0.00    -0.285 OA
ATOM      5  C   UNL     1       0.747  -1.281  -9.761  1.00  0.00     0.111 A 
ATOM      6  C   UNL     1      -0.198  -0.210  -9.780  1.00  0.00     0.134 A 
ATOM      7  C   UNL     1      -1.568  -0.497  -9.731  1.00  0.00     0.093 A 
ATOM      8  C   UNL     1      -2.030  -1.813  -9.728  1.00  0.00     0.123 A 
ATOM      9  C   UNL     1      -1.117  -2.867  -9.764  1.00  0.00     0.094 A 
ATOM     10  C   UNL     1       0.257  -2.614  -9.775  1.00  0.00     0.146 A 
ATOM     11  O   UNL     1       1.090  -3.647  -9.787  1.00  0.00    -0.452 OA
ENDROOT
BRANCH   1  12
ATOM     12  C   UNL     1       3.231  -4.756  -9.786  1.00  0.00     0.021 A 
ATOM     13  C   UNL     1       2.650  -5.975  -9.401  1.00  0.00     0.016 A 
ATOM     14  C   UNL     1       3.410  -7.149  -9.390  1.00  0.00     0.047 A 
ATOM     15  C   UNL     1       4.763  -7.114  -9.748  1.00  0.00     0.115 A 
ATOM     16  C   UNL     1       4.596  -4.725 -10.125  1.00  0.00     0.016 A 
ATOM     17  C   UNL     1       5.353  -5.901 -10.112  1.00  0.00     0.047 A 
BRANCH  15  18
ATOM     18  O   UNL     1       5.530  -8.278  -9.742  1.00  0.00    -0.508 OA
ATOM     19  H   UNL     1       6.343  -8.379 -10.338  1.00  0.00     0.293 HD
ENDBRANCH  15  18
ENDBRANCH   1  12
BRANCH   2  20
ATOM     20  O   UNL     1       4.380  -2.096  -9.754  1.00  0.00    -0.502 OA
ATOM     21  H   UNL     1       4.841  -1.332 -10.234  1.00  0.00     0.293 HD
ENDBRANCH   2  20
BRANCH   6  22
ATOM     22  O   UNL     1       0.151   1.140  -9.872  1.00  0.00    -0.507 OA
ATOM     23  H   UNL     1      -0.149   1.859  -9.232  1.00  0.00     0.293 HD
ENDBRANCH   6  22
BRANCH   8  24
ATOM     24  O   UNL     1      -3.400  -2.060  -9.696  1.00  0.00    -0.508 OA
ATOM     25  H   UNL     1      -3.876  -2.295  -8.833  1.00  0.00     0.293 HD
ENDBRANCH   8  24
TORSDOF 5
ENDMDL
MODEL 3
REMARK VINA RESULT:    -3.467      1.803      7.144
REMARK INTER + INTRA:          -3.975
REMARK INTER:                  -4.397
REMARK INTRA:                   0.422
REMARK UNBOUND:                 0.100
REMARK SMILES O=c1c(O)c(-c2ccc(O)cc2)oc2cc(O)cc(O)c12
REMARK SMILES IDX 5 1 3 2 2 3 1 4 21 5 19 6 18 7 16 8 15 9 14 10 13 11 6 12
REMARK SMILES IDX 7 13 8 14 9 15 12 16 11 17 10 18 4 20 20 22 17 24
REMARK H PARENT 10 19 4 21 20 23 17 25
REMARK Flexibility Score: inf
ROOT
ATOM      1  C   UNL     1       0.841  -1.786  -9.758  1.00  0.00     0.180 A 
ATOM      2  C   UNL     1       1.208  -0.435  -9.891  1.00  0.00     0.208 A 
ATOM      3  C   UNL     1       0.214   0.552  -9.807  1.00  0.00     0.238 A 
ATOM      4  O   UNL     1       0.559   1.761  -9.852  1.00  0.00    -0.285 OA
ATOM      5  C   UNL     1      -1.142   0.176  -9.648  1.00  0.00     0.111 A 
ATOM      6  C   UNL     1      -2.238   1.090  -9.595  1.00  0.00     0.134 A 
ATOM      7  C   UNL     1      -3.527   0.610  -9.328  1.00  0.00     0.093 A 
ATOM      8  C   UNL     1      -3.769  -0.755  -9.175  1.00  0.00     0.123 A 
ATOM      9  C   UNL     1      -2.714  -1.662  -9.278  1.00  0.00     0.094 A 
ATOM     10  C   UNL     1      -1.412  -1.210  -9.507  1.00  0.00     0.146 A 
ATOM     11  O   UNL     1      -0.435  -2.106  -9.576  1.00  0.00    -0.452 OA
ENDROOT
BRANCH   1  12
ATOM     12  C   UNL     1       1.834  -2.882  -9.821  1.00  0.00     0.021 A 
ATOM     13  C   UNL     1       1.391  -4.207  -9.973  1.00  0.00     0.016 A 
ATOM     14  C   UNL     1       2.310  -5.260 -10.011  1.00  0.00     0.047 A 
ATOM     15  C   UNL     1       3.680  -5.004  -9.882  1.00  0.00     0.115 A 
ATOM     16  C   UNL     1       3.211  -2.635  -9.671  1.00  0.00     0.016 A 
ATOM     17  C   UNL     1       4.126  -3.691  -9.709  1.00  0.00     0.047 A 
BRANCH  15  18
ATOM     18  O   UNL     1       4.605  -6.046  -9.920  1.00  0.00    -0.508 OA
ATOM     19  H   UNL     1       4.384  -6.934 -10.354  1.00  0.00     0.293 HD
ENDBRANCH  15  18
ENDBRANCH   1  12
BRANCH   2  20
ATOM     20  O   UNL     1       2.542  -0.089 -10.125  1.00  0.00    -0.502 OA
ATOM     21  H   UNL     1       3.113  -0.560 -10.815  1.00  0.00     0.293 HD
ENDBRANCH   2  20
BRANCH   6  22
ATOM     22  O   UNL     1      -2.123   2.465  -9.822  1.00  0.00    -0.507 OA
ATOM     23  H   UNL     1      -1.437   2.896 -10.422  1.00  0.00     0.293 HD
ENDBRANCH   6  22
BRANCH   8  24
ATOM     24  O   UNL     1      -5.066  -1.198  -8.926  1.00  0.00    -0.508 OA
ATOM     25  H   UNL     1      -5.838  -0.947  -9.533  1.00  0.00     0.293 HD
ENDBRANCH   8  24
TORSDOF 5
ENDMDL
MODEL 4
REMARK VINA RESULT:    -2.629     11.113     11.777
REMARK INTER + INTRA:          -2.990
REMARK INTER:                  -2.794
REMARK INTRA:                  -0.196
REMARK UNBOUND:                 0.100
REMARK SMILES O=c1c(O)c(-c2ccc(O)cc2)oc2cc(O)cc(O)c12
REMARK SMILES IDX 5 1 3 2 2 3 1 4 21 5 19 6 18 7 16 8 15 9 14 10 13 11 6 12
REMARK SMILES IDX 7 13 8 14 9 15 12 16 11 17 10 18 4 20 20 22 17 24
REMARK H PARENT 10 19 4 21 20 23 17 25
REMARK Flexibility Score: inf
ROOT
ATOM      1  C   UNL     1       0.306   3.193   1.108  1.00  0.00     0.180 A 
ATOM      2  C   UNL     1      -0.243   2.519   2.212  1.00  0.00     0.208 A 
ATOM      3  C   UNL     1      -0.292   1.117   2.201  1.00  0.00     0.238 A 
ATOM      4  O   UNL     1      -0.716   0.519   3.223  1.00  0.00    -0.285 OA
ATOM      5  C   UNL     1       0.157   0.405   1.061  1.00  0.00     0.111 A 
ATOM      6  C   UNL     1       0.114  -1.015   0.921  1.00  0.00     0.134 A 
ATOM      7  C   UNL     1       0.684  -1.616  -0.209  1.00  0.00     0.093 A 
ATOM      8  C   UNL     1       1.239  -0.846  -1.231  1.00  0.00     0.123 A 
ATOM      9  C   UNL     1       1.238   0.545  -1.129  1.00  0.00     0.094 A 
ATOM     10  C   UNL     1       0.710   1.172   0.002  1.00  0.00     0.146 A 
ATOM     11  O   UNL     1       0.750   2.497   0.067  1.00  0.00    -0.452 OA
ENDROOT
BRANCH   1  12
ATOM     12  C   UNL     1       0.405   4.669   1.054  1.00  0.00     0.021 A 
ATOM     13  C   UNL     1      -0.758   5.432   0.860  1.00  0.00     0.016 A 
ATOM     14  C   UNL     1      -0.685   6.827   0.782  1.00  0.00     0.047 A 
ATOM     15  C   UNL     1       0.553   7.473   0.881  1.00  0.00     0.115 A 
ATOM     16  C   UNL     1       1.647   5.325   1.131  1.00  0.00     0.016 A 
ATOM     17  C   UNL     1       1.717   6.719   1.052  1.00  0.00     0.047 A 
BRANCH  15  18
ATOM     18  O   UNL     1       0.637   8.862   0.805  1.00  0.00    -0.508 OA
ATOM     19  H   UNL     1       1.174   9.397   1.478  1.00  0.00     0.293 HD
ENDBRANCH  15  18
ENDBRANCH   1  12
BRANCH   2  20
ATOM     20  O   UNL     1      -0.752   3.243   3.295  1.00  0.00    -0.502 OA
ATOM     21  H   UNL     1      -0.614   4.241   3.395  1.00  0.00     0.293 HD
ENDBRANCH   2  20
BRANCH   6  22
ATOM     22  O   UNL     1      -0.495  -1.875   1.840  1.00  0.00    -0.507 OA
ATOM     23  H   UNL     1      -0.030  -2.308   2.622  1.00  0.00     0.293 HD
ENDBRANCH   6  22
BRANCH   8  24
ATOM     24  O   UNL     1       1.783  -1.477  -2.348  1.00  0.00    -0.508 OA
ATOM     25  H   UNL     1       2.686  -1.209  -2.720  1.00  0.00     0.293 HD
ENDBRANCH   8  24
TORSDOF 5
ENDMDL
MODEL 5
REMARK VINA RESULT:    -2.396     11.729     13.772
REMARK INTER + INTRA:          -2.716
REMARK INTER:                  -2.564
REMARK INTRA:                  -0.152
REMARK UNBOUND:                 0.100
REMARK SMILES O=c1c(O)c(-c2ccc(O)cc2)oc2cc(O)cc(O)c12
REMARK SMILES IDX 5 1 3 2 2 3 1 4 21 5 19 6 18 7 16 8 15 9 14 10 13 11 6 12
REMARK SMILES IDX 7 13 8 14 9 15 12 16 11 17 10 18 4 20 20 22 17 24
REMARK H PARENT 10 19 4 21 20 23 17 25
REMARK Flexibility Score: inf
ROOT
ATOM      1  C   UNL     1      -0.202   4.860   0.944  1.00  0.00     0.180 A 
ATOM      2  C   UNL     1       0.866   5.760   1.100  1.00  0.00     0.208 A 
ATOM      3  C   UNL     1       0.640   7.129   0.890  1.00  0.00     0.238 A 
ATOM      4  O   UNL     1       1.581   7.936   1.104  1.00  0.00    -0.285 OA
ATOM      5  C   UNL     1      -0.636   7.577   0.470  1.00  0.00     0.111 A 
ATOM      6  C   UNL     1      -0.967   8.936   0.183  1.00  0.00     0.134 A 
ATOM      7  C   UNL     1      -2.292   9.275  -0.121  1.00  0.00     0.093 A 
ATOM      8  C   UNL     1      -3.283   8.298  -0.213  1.00  0.00     0.123 A 
ATOM      9  C   UNL     1      -2.959   6.960   0.012  1.00  0.00     0.094 A 
ATOM     10  C   UNL     1      -1.655   6.595   0.355  1.00  0.00     0.146 A 
ATOM     11  O   UNL     1      -1.396   5.313   0.581  1.00  0.00    -0.452 OA
ENDROOT
BRANCH   1  12
ATOM     12  C   UNL     1      -0.044   3.404   1.162  1.00  0.00     0.021 A 
ATOM     13  C   UNL     1       0.733   2.651   0.267  1.00  0.00     0.016 A 
ATOM     14  C   UNL     1       0.877   1.271   0.441  1.00  0.00     0.047 A 
ATOM     15  C   UNL     1       0.231   0.625   1.502  1.00  0.00     0.115 A 
ATOM     16  C   UNL     1      -0.707   2.744   2.214  1.00  0.00     0.016 A 
ATOM     17  C   UNL     1      -0.562   1.364   2.384  1.00  0.00     0.047 A 
BRANCH  15  18
ATOM     18  O   UNL     1       0.367  -0.750   1.685  1.00  0.00    -0.508 OA
ATOM     19  H   UNL     1      -0.152  -1.413   1.123  1.00  0.00     0.293 HD
ENDBRANCH  15  18
ENDBRANCH   1  12
BRANCH   2  20
ATOM     20  O   UNL     1       2.138   5.290   1.440  1.00  0.00    -0.502 OA
ATOM     21  H   UNL     1       2.375   4.992   2.379  1.00  0.00     0.293 HD
ENDBRANCH   2  20
BRANCH   6  22
ATOM     22  O   UNL     1      -0.038   9.980   0.159  1.00  0.00    -0.507 OA
ATOM     23  H   UNL     1      -0.269  10.960   0.209  1.00  0.00     0.293 HD
ENDBRANCH   6  22
BRANCH   8  24
ATOM     24  O   UNL     1      -4.586   8.671  -0.534  1.00  0.00    -0.508 OA
ATOM     25  H   UNL     1      -4.971   9.561  -0.240  1.00  0.00     0.293 HD
ENDBRANCH   8  24
TORSDOF 5
ENDMDL
MODEL 6
REMARK VINA RESULT:    -2.337     11.749     13.819
REMARK INTER + INTRA:          -2.647
REMARK INTER:                  -2.502
REMARK INTRA:                  -0.145
REMARK UNBOUND:                 0.100
REMARK SMILES O=c1c(O)c(-c2ccc(O)cc2)oc2cc(O)cc(O)c12
REMARK SMILES IDX 5 1 3 2 2 3 1 4 21 5 19 6 18 7 16 8 15 9 14 10 13 11 6 12
REMARK SMILES IDX 7 13 8 14 9 15 12 16 11 17 10 18 4 20 20 22 17 24
REMARK H PARENT 10 19 4 21 20 23 17 25
REMARK Flexibility Score: inf
ROOT
ATOM      1  C   UNL     1      -0.238   4.853   0.928  1.00  0.00     0.180 A 
ATOM      2  C   UNL     1       0.830   5.749   1.108  1.00  0.00     0.208 A 
ATOM      3  C   UNL     1       0.607   7.122   0.920  1.00  0.00     0.238 A 
ATOM      4  O   UNL     1       1.547   7.924   1.156  1.00  0.00    -0.285 OA
ATOM      5  C   UNL     1      -0.666   7.579   0.498  1.00  0.00     0.111 A 
ATOM      6  C   UNL     1      -0.993   8.943   0.234  1.00  0.00     0.134 A 
ATOM      7  C   UNL     1      -2.315   9.289  -0.075  1.00  0.00     0.093 A 
ATOM      8  C   UNL     1      -3.306   8.315  -0.191  1.00  0.00     0.123 A 
ATOM      9  C   UNL     1      -2.986   6.973   0.012  1.00  0.00     0.094 A 
ATOM     10  C   UNL     1      -1.685   6.600   0.359  1.00  0.00     0.146 A 
ATOM     11  O   UNL     1      -1.429   5.314   0.565  1.00  0.00    -0.452 OA
ENDROOT
BRANCH   1  12
ATOM     12  C   UNL     1      -0.084   3.393   1.122  1.00  0.00     0.021 A 
ATOM     13  C   UNL     1      -0.728   2.769   2.202  1.00  0.00     0.016 A 
ATOM     14  C   UNL     1      -0.578   1.395   2.418  1.00  0.00     0.047 A 
ATOM     15  C   UNL     1       0.232   0.633   1.566  1.00  0.00     0.115 A 
ATOM     16  C   UNL     1       0.744   2.625   0.283  1.00  0.00     0.016 A 
ATOM     17  C   UNL     1       0.892   1.252   0.502  1.00  0.00     0.047 A 
BRANCH  15  18
ATOM     18  O   UNL     1       0.388  -0.736   1.771  1.00  0.00    -0.508 OA
ATOM     19  H   UNL     1       0.878  -1.098   2.580  1.00  0.00     0.293 HD
ENDBRANCH  15  18
ENDBRANCH   1  12
BRANCH   2  20
ATOM     20  O   UNL     1       2.099   5.272   1.449  1.00  0.00    -0.502 OA
ATOM     21  H   UNL     1       2.818   5.869   1.841  1.00  0.00     0.293 HD
ENDBRANCH   2  20
BRANCH   6  22
ATOM     22  O   UNL     1      -0.063   9.986   0.234  1.00  0.00    -0.507 OA
ATOM     23  H   UNL     1       0.040  10.669  -0.501  1.00  0.00     0.293 HD
ENDBRANCH   6  22
BRANCH   8  24
ATOM     24  O   UNL     1      -4.607   8.695  -0.516  1.00  0.00    -0.508 OA
ATOM     25  H   UNL     1      -4.856   9.667  -0.655  1.00  0.00     0.293 HD
ENDBRANCH   8  24
TORSDOF 5
ENDMDL
