MODEL 1
REMARK VINA RESULT:    -4.208      0.000      0.000
REMARK INTER + INTRA:          -9.279
REMARK INTER:                  -7.898
REMARK INTRA:                  -1.381
REMARK UNBOUND:                -1.381
REMARK SMILES O=C([O-])CCCCCCCCCCCCCCC(=O)[O-]
REMARK SMILES IDX 10 1 9 2 8 3 7 4 6 5 5 6 4 7 2 8 1 9 3 10 11 11 12 12 13 13
REMARK SMILES IDX 14 14 15 15 16 16 17 17 18 18 19 19 20 20
REMARK H PARENT
REMARK Flexibility Score: inf
ROOT
ATOM      1  C   UNL     1     -10.701  -7.071   0.138  1.00  0.00     0.000 C 
ENDROOT
BRANCH   1   2
ATOM      2  C   UNL     1     -10.741  -5.719   0.866  1.00  0.00     0.000 C 
BRANCH   2   3
ATOM      3  C   UNL     1      -9.805  -5.673   2.083  1.00  0.00     0.000 C 
BRANCH   3   4
ATOM      4  C   UNL     1      -9.241  -4.267   2.345  1.00  0.00     0.000 C 
BRANCH   4   5
ATOM      5  C   UNL     1      -7.718  -4.310   2.513  1.00  0.00     0.000 C 
BRANCH   5   6
ATOM      6  C   UNL     1      -7.104  -5.448   1.684  1.00  0.00     0.006 C 
BRANCH   6   7
ATOM      7  C   UNL     1      -5.602  -5.246   1.441  1.00  0.00     0.053 C 
BRANCH   7   8
ATOM      8  C   UNL     1      -5.327  -4.700   0.074  1.00  0.00     0.041 C 
ATOM      9  O   UNL     1      -5.095  -3.473  -0.084  1.00  0.00    -0.550 OA
ATOM     10  O   UNL     1      -5.294  -5.553  -1.022  1.00  0.00    -0.550 OA
ENDBRANCH   7   8
ENDBRANCH   6   7
ENDBRANCH   5   6
ENDBRANCH   4   5
ENDBRANCH   3   4
ENDBRANCH   2   3
ENDBRANCH   1   2
BRANCH   1  11
ATOM     11  C   UNL     1      -9.733  -8.039   0.831  1.00  0.00     0.000 C 
BRANCH  11  12
ATOM     12  C   UNL     1      -8.896  -8.813  -0.199  1.00  0.00     0.000 C 
BRANCH  12  13
ATOM     13  C   UNL     1      -7.500  -8.206  -0.404  1.00  0.00     0.000 C 
BRANCH  13  14
ATOM     14  C   UNL     1      -6.393  -9.024   0.277  1.00  0.00     0.000 C 
BRANCH  14  15
ATOM     15  C   UNL     1      -6.545 -10.518  -0.033  1.00  0.00     0.000 C 
BRANCH  15  16
ATOM     16  C   UNL     1      -5.232 -11.272   0.225  1.00  0.00     0.006 C 
BRANCH  16  17
ATOM     17  C   UNL     1      -5.220 -12.659  -0.428  1.00  0.00     0.053 C 
BRANCH  17  18
ATOM     18  C   UNL     1      -5.771 -13.709   0.488  1.00  0.00     0.041 C 
ATOM     19  O   UNL     1      -6.704 -14.462   0.100  1.00  0.00    -0.550 OA
ATOM     20  O   UNL     1      -5.233 -13.877   1.757  1.00  0.00    -0.550 OA
ENDBRANCH  17  18
ENDBRANCH  16  17
ENDBRANCH  15  16
ENDBRANCH  14  15
ENDBRANCH  13  14
ENDBRANCH  12  13
ENDBRANCH  11  12
ENDBRANCH   1  11
TORSDOF 15
ENDMDL
MODEL 2
REMARK VINA RESULT:    -4.148      2.462      3.710
REMARK INTER + INTRA:          -9.166
REMARK INTER:                  -7.629
REMARK INTRA:                  -1.537
REMARK UNBOUND:                -1.381
REMARK SMILES O=C([O-])CCCCCCCCCCCCCCC(=O)[O-]
REMARK SMILES IDX 10 1 9 2 8 3 7 4 6 5 5 6 4 7 2 8 1 9 3 10 11 11 12 12 13 13
REMARK SMILES IDX 14 14 15 15 16 16 17 17 18 18 19 19 20 20
REMARK H PARENT
REMARK Flexibility Score: inf
ROOT
ATOM      1  C   UNL     1      -7.931  -8.030  -0.266  1.00  0.00     0.000 C 
ENDROOT
BRANCH   1   2
ATOM      2  C   UNL     1      -6.522  -7.442  -0.094  1.00  0.00     0.000 C 
BRANCH   2   3
ATOM      3  C   UNL     1      -6.459  -6.363   0.997  1.00  0.00     0.000 C 
BRANCH   3   4
ATOM      4  C   UNL     1      -7.703  -6.359   1.899  1.00  0.00     0.000 C 
BRANCH   4   5
ATOM      5  C   UNL     1      -8.244  -4.936   2.082  1.00  0.00     0.000 C 
BRANCH   5   6
ATOM      6  C   UNL     1      -9.764  -4.948   2.305  1.00  0.00     0.006 C 
BRANCH   6   7
ATOM      7  C   UNL     1     -10.414  -6.244   1.802  1.00  0.00     0.053 C 
BRANCH   7   8
ATOM      8  C   UNL     1     -11.062  -6.060   0.465  1.00  0.00     0.041 C 
ATOM      9  O   UNL     1     -11.304  -4.903   0.032  1.00  0.00    -0.550 OA
ATOM     10  O   UNL     1     -11.368  -7.165  -0.318  1.00  0.00    -0.550 OA
ENDBRANCH   7   8
ENDBRANCH   6   7
ENDBRANCH   5   6
ENDBRANCH   4   5
ENDBRANCH   3   4
ENDBRANCH   2   3
ENDBRANCH   1   2
BRANCH   1  11
ATOM     11  C   UNL     1      -7.959  -9.513   0.127  1.00  0.00     0.000 C 
BRANCH  11  12
ATOM     12  C   UNL     1      -6.648 -10.211  -0.266  1.00  0.00     0.000 C 
BRANCH  12  13
ATOM     13  C   UNL     1      -5.922 -10.829   0.939  1.00  0.00     0.000 C 
BRANCH  13  14
ATOM     14  C   UNL     1      -6.652 -10.573   2.265  1.00  0.00     0.000 C 
BRANCH  14  15
ATOM     15  C   UNL     1      -7.093 -11.891   2.912  1.00  0.00     0.000 C 
BRANCH  15  16
ATOM     16  C   UNL     1      -6.127 -13.030   2.557  1.00  0.00     0.006 C 
BRANCH  16  17
ATOM     17  C   UNL     1      -6.840 -14.383   2.441  1.00  0.00     0.053 C 
BRANCH  17  18
ATOM     18  C   UNL     1      -6.732 -14.951   1.059  1.00  0.00     0.041 C 
ATOM     19  O   UNL     1      -6.512 -14.193   0.077  1.00  0.00    -0.550 OA
ATOM     20  O   UNL     1      -6.841 -16.322   0.859  1.00  0.00    -0.550 OA
ENDBRANCH  17  18
ENDBRANCH  16  17
ENDBRANCH  15  16
ENDBRANCH  14  15
ENDBRANCH  13  14
ENDBRANCH  12  13
ENDBRANCH  11  12
ENDBRANCH   1  11
TORSDOF 15
ENDMDL
MODEL 3
REMARK VINA RESULT:    -4.064      3.631     10.165
REMARK INTER + INTRA:          -9.008
REMARK INTER:                  -8.359
REMARK INTRA:                  -0.650
REMARK UNBOUND:                -1.381
REMARK SMILES O=C([O-])CCCCCCCCCCCCCCC(=O)[O-]
REMARK SMILES IDX 10 1 9 2 8 3 7 4 6 5 5 6 4 7 2 8 1 9 3 10 11 11 12 12 13 13
REMARK SMILES IDX 14 14 15 15 16 16 17 17 18 18 19 19 20 20
REMARK H PARENT
REMARK Flexibility Score: inf
ROOT
ATOM      1  C   UNL     1      -6.011 -13.140   0.123  1.00  0.00     0.000 C 
ENDROOT
BRANCH   1   2
ATOM      2  C   UNL     1      -6.392 -13.236   1.608  1.00  0.00     0.000 C 
BRANCH   2   3
ATOM      3  C   UNL     1      -6.767 -14.664   2.033  1.00  0.00     0.000 C 
BRANCH   3   4
ATOM      4  C   UNL     1      -6.958 -15.607   0.835  1.00  0.00     0.000 C 
BRANCH   4   5
ATOM      5  C   UNL     1      -5.936 -16.750   0.869  1.00  0.00     0.000 C 
BRANCH   5   6
ATOM      6  C   UNL     1      -6.619 -18.107   0.645  1.00  0.00     0.006 C 
BRANCH   6   7
ATOM      7  C   UNL     1      -5.715 -19.095  -0.105  1.00  0.00     0.053 C 
BRANCH   7   8
ATOM      8  C   UNL     1      -6.499 -19.982  -1.022  1.00  0.00     0.041 C 
ATOM      9  O   UNL     1      -7.684 -20.298  -0.738  1.00  0.00    -0.550 OA
ATOM     10  O   UNL     1      -5.932 -20.432  -2.208  1.00  0.00    -0.550 OA
ENDBRANCH   7   8
ENDBRANCH   6   7
ENDBRANCH   5   6
ENDBRANCH   4   5
ENDBRANCH   3   4
ENDBRANCH   2   3
ENDBRANCH   1   2
BRANCH   1  11
ATOM     11  C   UNL     1      -5.213 -11.860  -0.157  1.00  0.00     0.000 C 
BRANCH  11  12
ATOM     12  C   UNL     1      -5.842 -10.652   0.554  1.00  0.00     0.000 C 
BRANCH  12  13
ATOM     13  C   UNL     1      -6.430  -9.627  -0.428  1.00  0.00     0.000 C 
BRANCH  13  14
ATOM     14  C   UNL     1      -7.951  -9.471  -0.280  1.00  0.00     0.000 C 
BRANCH  14  15
ATOM     15  C   UNL     1      -8.321  -8.034   0.109  1.00  0.00     0.000 C 
BRANCH  15  16
ATOM     16  C   UNL     1      -9.821  -7.913   0.413  1.00  0.00     0.006 C 
BRANCH  16  17
ATOM     17  C   UNL     1     -10.301  -6.457   0.401  1.00  0.00     0.053 C 
BRANCH  17  18
ATOM     18  C   UNL     1     -10.163  -5.816   1.748  1.00  0.00     0.041 C 
ATOM     19  O   UNL     1     -10.059  -6.529   2.782  1.00  0.00    -0.550 OA
ATOM     20  O   UNL     1     -10.116  -4.432   1.859  1.00  0.00    -0.550 OA
ENDBRANCH  17  18
ENDBRANCH  16  17
ENDBRANCH  15  16
ENDBRANCH  14  15
ENDBRANCH  13  14
ENDBRANCH  12  13
ENDBRANCH  11  12
ENDBRANCH   1  11
TORSDOF 15
ENDMDL
MODEL 4
REMARK VINA RESULT:    -4.050      2.413      7.743
REMARK INTER + INTRA:          -8.983
REMARK INTER:                  -7.494
REMARK INTRA:                  -1.489
REMARK UNBOUND:                -1.381
REMARK SMILES O=C([O-])CCCCCCCCCCCCCCC(=O)[O-]
REMARK SMILES IDX 10 1 9 2 8 3 7 4 6 5 5 6 4 7 2 8 1 9 3 10 11 11 12 12 13 13
REMARK SMILES IDX 14 14 15 15 16 16 17 17 18 18 19 19 20 20
REMARK H PARENT
REMARK Flexibility Score: inf
ROOT
ATOM      1  C   UNL     1      -7.359  -9.031   0.224  1.00  0.00     0.000 C 
ENDROOT
BRANCH   1   2
ATOM      2  C   UNL     1      -6.687 -10.160  -0.572  1.00  0.00     0.000 C 
BRANCH   2   3
ATOM      3  C   UNL     1      -5.718 -10.992   0.282  1.00  0.00     0.000 C 
BRANCH   3   4
ATOM      4  C   UNL     1      -5.934 -10.790   1.790  1.00  0.00     0.000 C 
BRANCH   4   5
ATOM      5  C   UNL     1      -6.844 -11.882   2.364  1.00  0.00     0.000 C 
BRANCH   5   6
ATOM      6  C   UNL     1      -6.067 -13.189   2.581  1.00  0.00     0.006 C 
BRANCH   6   7
ATOM      7  C   UNL     1      -6.951 -14.429   2.390  1.00  0.00     0.053 C 
BRANCH   7   8
ATOM      8  C   UNL     1      -6.729 -15.071   1.055  1.00  0.00     0.041 C 
ATOM      9  O   UNL     1      -6.380 -14.374   0.067  1.00  0.00    -0.550 OA
ATOM     10  O   UNL     1      -6.876 -16.445   0.911  1.00  0.00    -0.550 OA
ENDBRANCH   7   8
ENDBRANCH   6   7
ENDBRANCH   5   6
ENDBRANCH   4   5
ENDBRANCH   3   4
ENDBRANCH   2   3
ENDBRANCH   1   2
BRANCH   1  11
ATOM     11  C   UNL     1      -6.962  -7.657  -0.330  1.00  0.00     0.000 C 
BRANCH  11  12
ATOM     12  C   UNL     1      -6.499  -6.722   0.798  1.00  0.00     0.000 C 
BRANCH  12  13
ATOM     13  C   UNL     1      -6.832  -7.268   2.194  1.00  0.00     0.000 C 
BRANCH  13  14
ATOM     14  C   UNL     1      -7.877  -6.415   2.930  1.00  0.00     0.000 C 
BRANCH  14  15
ATOM     15  C   UNL     1      -8.283  -5.198   2.089  1.00  0.00     0.000 C 
BRANCH  15  16
ATOM     16  C   UNL     1      -9.784  -4.906   2.233  1.00  0.00     0.006 C 
BRANCH  16  17
ATOM     17  C   UNL     1     -10.643  -6.157   2.013  1.00  0.00     0.053 C 
BRANCH  17  18
ATOM     18  C   UNL     1     -10.897  -6.408   0.558  1.00  0.00     0.041 C 
ATOM     19  O   UNL     1     -10.478  -7.463   0.014  1.00  0.00    -0.550 OA
ATOM     20  O   UNL     1     -11.626  -5.490  -0.189  1.00  0.00    -0.550 OA
ENDBRANCH  17  18
ENDBRANCH  16  17
ENDBRANCH  15  16
ENDBRANCH  14  15
ENDBRANCH  13  14
ENDBRANCH  12  13
ENDBRANCH  11  12
ENDBRANCH   1  11
TORSDOF 15
ENDMDL
MODEL 5
REMARK VINA RESULT:    -4.040      3.539      5.833
REMARK INTER + INTRA:          -8.964
REMARK INTER:                  -8.263
REMARK INTRA:                  -0.701
REMARK UNBOUND:                -1.381
REMARK SMILES O=C([O-])CCCCCCCCCCCCCCC(=O)[O-]
REMARK SMILES IDX 10 1 9 2 8 3 7 4 6 5 5 6 4 7 2 8 1 9 3 10 11 11 12 12 13 13
REMARK SMILES IDX 14 14 15 15 16 16 17 17 18 18 19 19 20 20
REMARK H PARENT
REMARK Flexibility Score: inf
ROOT
ATOM      1  C   UNL     1      -6.502 -11.421   0.551  1.00  0.00     0.000 C 
ENDROOT
BRANCH   1   2
ATOM      2  C   UNL     1      -6.773 -10.187  -0.323  1.00  0.00     0.000 C 
BRANCH   2   3
ATOM      3  C   UNL     1      -6.383  -8.873   0.371  1.00  0.00     0.000 C 
BRANCH   3   4
ATOM      4  C   UNL     1      -7.072  -7.648  -0.250  1.00  0.00     0.000 C 
BRANCH   4   5
ATOM      5  C   UNL     1      -7.562  -6.684   0.838  1.00  0.00     0.000 C 
BRANCH   5   6
ATOM      6  C   UNL     1      -8.936  -7.113   1.376  1.00  0.00     0.006 C 
BRANCH   6   7
ATOM      7  C   UNL     1      -9.939  -5.952   1.398  1.00  0.00     0.053 C 
BRANCH   7   8
ATOM      8  C   UNL     1     -10.950  -6.069   0.299  1.00  0.00     0.041 C 
ATOM      9  O   UNL     1     -11.239  -7.197  -0.179  1.00  0.00    -0.550 OA
ATOM     10  O   UNL     1     -11.598  -4.935  -0.174  1.00  0.00    -0.550 OA
ENDBRANCH   7   8
ENDBRANCH   6   7
ENDBRANCH   5   6
ENDBRANCH   4   5
ENDBRANCH   3   4
ENDBRANCH   2   3
ENDBRANCH   1   2
BRANCH   1  11
ATOM     11  C   UNL     1      -5.261 -12.178   0.063  1.00  0.00     0.000 C 
BRANCH  11  12
ATOM     12  C   UNL     1      -5.287 -13.640   0.533  1.00  0.00     0.000 C 
BRANCH  12  13
ATOM     13  C   UNL     1      -6.610 -14.347   0.197  1.00  0.00     0.000 C 
BRANCH  13  14
ATOM     14  C   UNL     1      -6.768 -15.687   0.931  1.00  0.00     0.000 C 
BRANCH  14  15
ATOM     15  C   UNL     1      -5.410 -16.373   1.120  1.00  0.00     0.000 C 
BRANCH  15  16
ATOM     16  C   UNL     1      -5.417 -17.785   0.516  1.00  0.00     0.006 C 
BRANCH  16  17
ATOM     17  C   UNL     1      -6.777 -18.478   0.675  1.00  0.00     0.053 C 
BRANCH  17  18
ATOM     18  C   UNL     1      -6.884 -19.695  -0.193  1.00  0.00     0.041 C 
ATOM     19  O   UNL     1      -6.258 -19.753  -1.284  1.00  0.00    -0.550 OA
ATOM     20  O   UNL     1      -7.651 -20.777   0.220  1.00  0.00    -0.550 OA
ENDBRANCH  17  18
ENDBRANCH  16  17
ENDBRANCH  15  16
ENDBRANCH  14  15
ENDBRANCH  13  14
ENDBRANCH  12  13
ENDBRANCH  11  12
ENDBRANCH   1  11
TORSDOF 15
ENDMDL
MODEL 6
REMARK VINA RESULT:    -3.964      1.924      8.347
REMARK INTER + INTRA:          -8.820
REMARK INTER:                  -7.676
REMARK INTRA:                  -1.144
REMARK UNBOUND:                -1.381
REMARK SMILES O=C([O-])CCCCCCCCCCCCCCC(=O)[O-]
REMARK SMILES IDX 10 1 9 2 8 3 7 4 6 5 5 6 4 7 2 8 1 9 3 10 11 11 12 12 13 13
REMARK SMILES IDX 14 14 15 15 16 16 17 17 18 18 19 19 20 20
REMARK H PARENT
REMARK Flexibility Score: inf
ROOT
ATOM      1  C   UNL     1      -7.177  -9.689   0.527  1.00  0.00     0.000 C 
ENDROOT
BRANCH   1   2
ATOM      2  C   UNL     1      -6.450 -10.524  -0.538  1.00  0.00     0.000 C 
BRANCH   2   3
ATOM      3  C   UNL     1      -5.626 -11.671   0.067  1.00  0.00     0.000 C 
BRANCH   3   4
ATOM      4  C   UNL     1      -6.235 -12.215   1.369  1.00  0.00     0.000 C 
BRANCH   4   5
ATOM      5  C   UNL     1      -5.892 -13.698   1.556  1.00  0.00     0.000 C 
BRANCH   5   6
ATOM      6  C   UNL     1      -6.430 -14.539   0.389  1.00  0.00     0.006 C 
BRANCH   6   7
ATOM      7  C   UNL     1      -7.133 -15.817   0.869  1.00  0.00     0.053 C 
BRANCH   7   8
ATOM      8  C   UNL     1      -6.154 -16.900   1.201  1.00  0.00     0.041 C 
ATOM      9  O   UNL     1      -6.132 -17.402   2.355  1.00  0.00    -0.550 OA
ATOM     10  O   UNL     1      -5.289 -17.379   0.225  1.00  0.00    -0.550 OA
ENDBRANCH   7   8
ENDBRANCH   6   7
ENDBRANCH   5   6
ENDBRANCH   4   5
ENDBRANCH   3   4
ENDBRANCH   2   3
ENDBRANCH   1   2
BRANCH   1  11
ATOM     11  C   UNL     1      -7.923  -8.512  -0.113  1.00  0.00     0.000 C 
BRANCH  11  12
ATOM     12  C   UNL     1      -9.444  -8.695   0.006  1.00  0.00     0.000 C 
BRANCH  12  13
ATOM     13  C   UNL     1     -10.192  -7.362   0.156  1.00  0.00     0.000 C 
BRANCH  13  14
ATOM     14  C   UNL     1     -10.258  -6.881   1.613  1.00  0.00     0.000 C 
BRANCH  14  15
ATOM     15  C   UNL     1     -10.084  -5.360   1.698  1.00  0.00     0.000 C 
BRANCH  15  16
ATOM     16  C   UNL     1      -9.008  -4.986   2.729  1.00  0.00     0.006 C 
BRANCH  16  17
ATOM     17  C   UNL     1      -7.995  -6.116   2.947  1.00  0.00     0.053 C 
BRANCH  17  18
ATOM     18  C   UNL     1      -6.715  -5.864   2.211  1.00  0.00     0.041 C 
ATOM     19  O   UNL     1      -5.821  -6.751   2.172  1.00  0.00    -0.550 OA
ATOM     20  O   UNL     1      -6.524  -4.664   1.539  1.00  0.00    -0.550 OA
ENDBRANCH  17  18
ENDBRANCH  16  17
ENDBRANCH  15  16
ENDBRANCH  14  15
ENDBRANCH  13  14
ENDBRANCH  12  13
ENDBRANCH  11  12
ENDBRANCH   1  11
TORSDOF 15
ENDMDL
MODEL 7
REMARK VINA RESULT:    -3.947      1.091      1.942
REMARK INTER + INTRA:          -8.788
REMARK INTER:                  -7.662
REMARK INTRA:                  -1.127
REMARK UNBOUND:                -1.381
REMARK SMILES O=C([O-])CCCCCCCCCCCCCCC(=O)[O-]
REMARK SMILES IDX 10 1 9 2 8 3 7 4 6 5 5 6 4 7 2 8 1 9 3 10 11 11 12 12 13 13
REMARK SMILES IDX 14 14 15 15 16 16 17 17 18 18 19 19 20 20
REMARK H PARENT
REMARK Flexibility Score: inf
ROOT
ATOM      1  C   UNL     1      -9.426  -7.989   0.794  1.00  0.00     0.000 C 
ENDROOT
BRANCH   1   2
ATOM      2  C   UNL     1     -10.576  -7.214   0.133  1.00  0.00     0.000 C 
BRANCH   2   3
ATOM      3  C   UNL     1     -10.723  -5.787   0.681  1.00  0.00     0.000 C 
BRANCH   3   4
ATOM      4  C   UNL     1     -10.283  -5.668   2.149  1.00  0.00     0.000 C 
BRANCH   4   5
ATOM      5  C   UNL     1      -9.130  -4.669   2.297  1.00  0.00     0.000 C 
BRANCH   5   6
ATOM      6  C   UNL     1      -7.832  -5.381   2.708  1.00  0.00     0.006 C 
BRANCH   6   7
ATOM      7  C   UNL     1      -6.799  -5.408   1.574  1.00  0.00     0.053 C 
BRANCH   7   8
ATOM      8  C   UNL     1      -5.913  -4.201   1.600  1.00  0.00     0.041 C 
ATOM      9  O   UNL     1      -5.522  -3.725   2.698  1.00  0.00    -0.550 OA
ATOM     10  O   UNL     1      -5.490  -3.622   0.410  1.00  0.00    -0.550 OA
ENDBRANCH   7   8
ENDBRANCH   6   7
ENDBRANCH   5   6
ENDBRANCH   4   5
ENDBRANCH   3   4
ENDBRANCH   2   3
ENDBRANCH   1   2
BRANCH   1  11
ATOM     11  C   UNL     1      -8.735  -8.914  -0.215  1.00  0.00     0.000 C 
BRANCH  11  12
ATOM     12  C   UNL     1      -7.223  -8.646  -0.262  1.00  0.00     0.000 C 
BRANCH  12  13
ATOM     13  C   UNL     1      -6.417  -9.648   0.578  1.00  0.00     0.000 C 
BRANCH  13  14
ATOM     14  C   UNL     1      -6.499 -11.081   0.030  1.00  0.00     0.000 C 
BRANCH  14  15
ATOM     15  C   UNL     1      -5.102 -11.634  -0.272  1.00  0.00     0.000 C 
BRANCH  15  16
ATOM     16  C   UNL     1      -5.097 -13.170  -0.237  1.00  0.00     0.006 C 
BRANCH  16  17
ATOM     17  C   UNL     1      -5.877 -13.725   0.960  1.00  0.00     0.053 C 
BRANCH  17  18
ATOM     18  C   UNL     1      -6.037 -15.213   0.877  1.00  0.00     0.041 C 
ATOM     19  O   UNL     1      -5.024 -15.961   0.891  1.00  0.00    -0.550 OA
ATOM     20  O   UNL     1      -7.307 -15.774   0.817  1.00  0.00    -0.550 OA
ENDBRANCH  17  18
ENDBRANCH  16  17
ENDBRANCH  15  16
ENDBRANCH  14  15
ENDBRANCH  13  14
ENDBRANCH  12  13
ENDBRANCH  11  12
ENDBRANCH   1  11
TORSDOF 15
ENDMDL
MODEL 8
REMARK VINA RESULT:    -3.855      2.560      3.854
REMARK INTER + INTRA:          -8.616
REMARK INTER:                  -7.208
REMARK INTRA:                  -1.408
REMARK UNBOUND:                -1.381
REMARK SMILES O=C([O-])CCCCCCCCCCCCCCC(=O)[O-]
REMARK SMILES IDX 10 1 9 2 8 3 7 4 6 5 5 6 4 7 2 8 1 9 3 10 11 11 12 12 13 13
REMARK SMILES IDX 14 14 15 15 16 16 17 17 18 18 19 19 20 20
REMARK H PARENT
REMARK Flexibility Score: inf
ROOT
ATOM      1  C   UNL     1      -7.658  -8.037  -0.298  1.00  0.00     0.000 C 
ENDROOT
BRANCH   1   2
ATOM      2  C   UNL     1      -6.631  -7.109   0.369  1.00  0.00     0.000 C 
BRANCH   2   3
ATOM      3  C   UNL     1      -6.312  -7.519   1.815  1.00  0.00     0.000 C 
BRANCH   3   4
ATOM      4  C   UNL     1      -7.219  -6.823   2.842  1.00  0.00     0.000 C 
BRANCH   4   5
ATOM      5  C   UNL     1      -7.696  -5.463   2.319  1.00  0.00     0.000 C 
BRANCH   5   6
ATOM      6  C   UNL     1      -9.155  -5.199   2.722  1.00  0.00     0.006 C 
BRANCH   6   7
ATOM      7  C   UNL     1     -10.082  -5.083   1.504  1.00  0.00     0.053 C 
BRANCH   7   8
ATOM      8  C   UNL     1     -10.680  -6.404   1.131  1.00  0.00     0.041 C 
ATOM      9  O   UNL     1     -11.446  -6.494   0.136  1.00  0.00    -0.550 OA
ATOM     10  O   UNL     1     -10.364  -7.542   1.862  1.00  0.00    -0.550 OA
ENDBRANCH   7   8
ENDBRANCH   6   7
ENDBRANCH   5   6
ENDBRANCH   4   5
ENDBRANCH   3   4
ENDBRANCH   2   3
ENDBRANCH   1   2
BRANCH   1  11
ATOM     11  C   UNL     1      -7.589  -9.449   0.295  1.00  0.00     0.000 C 
BRANCH  11  12
ATOM     12  C   UNL     1      -6.761 -10.383  -0.602  1.00  0.00     0.000 C 
BRANCH  12  13
ATOM     13  C   UNL     1      -5.718 -11.190   0.186  1.00  0.00     0.000 C 
BRANCH  13  14
ATOM     14  C   UNL     1      -6.230 -11.635   1.564  1.00  0.00     0.000 C 
BRANCH  14  15
ATOM     15  C   UNL     1      -5.960 -13.126   1.795  1.00  0.00     0.000 C 
BRANCH  15  16
ATOM     16  C   UNL     1      -6.219 -13.937   0.516  1.00  0.00     0.006 C 
BRANCH  16  17
ATOM     17  C   UNL     1      -6.960 -15.250   0.801  1.00  0.00     0.053 C 
BRANCH  17  18
ATOM     18  C   UNL     1      -6.015 -16.408   0.910  1.00  0.00     0.041 C 
ATOM     19  O   UNL     1      -4.880 -16.353   0.368  1.00  0.00    -0.550 OA
ATOM     20  O   UNL     1      -6.377 -17.534   1.639  1.00  0.00    -0.550 OA
ENDBRANCH  17  18
ENDBRANCH  16  17
ENDBRANCH  15  16
ENDBRANCH  14  15
ENDBRANCH  13  14
ENDBRANCH  12  13
ENDBRANCH  11  12
ENDBRANCH   1  11
TORSDOF 15
ENDMDL
MODEL 9
REMARK VINA RESULT:    -3.585     19.107     21.140
REMARK INTER + INTRA:          -8.110
REMARK INTER:                  -5.829
REMARK INTRA:                  -2.281
REMARK UNBOUND:                -1.381
REMARK SMILES O=C([O-])CCCCCCCCCCCCCCC(=O)[O-]
REMARK SMILES IDX 10 1 9 2 8 3 7 4 6 5 5 6 4 7 2 8 1 9 3 10 11 11 12 12 13 13
REMARK SMILES IDX 14 14 15 15 16 16 17 17 18 18 19 19 20 20
REMARK H PARENT
REMARK Flexibility Score: inf
ROOT
ATOM      1  C   UNL     1     -22.742  -3.827 -17.089  1.00  0.00     0.000 C 
ENDROOT
BRANCH   1   2
ATOM      2  C   UNL     1     -22.885  -5.284 -16.622  1.00  0.00     0.000 C 
BRANCH   2   3
ATOM      3  C   UNL     1     -23.710  -5.415 -15.333  1.00  0.00     0.000 C 
BRANCH   3   4
ATOM      4  C   UNL     1     -24.321  -4.079 -14.882  1.00  0.00     0.000 C 
BRANCH   4   5
ATOM      5  C   UNL     1     -24.150  -3.881 -13.370  1.00  0.00     0.000 C 
BRANCH   5   6
ATOM      6  C   UNL     1     -23.405  -2.573 -13.067  1.00  0.00     0.006 C 
BRANCH   6   7
ATOM      7  C   UNL     1     -22.222  -2.786 -12.112  1.00  0.00     0.053 C 
BRANCH   7   8
ATOM      8  C   UNL     1     -21.305  -1.602 -12.088  1.00  0.00     0.041 C 
ATOM      9  O   UNL     1     -21.182  -0.875 -13.108  1.00  0.00    -0.550 OA
ATOM     10  O   UNL     1     -20.612  -1.282 -10.927  1.00  0.00    -0.550 OA
ENDBRANCH   7   8
ENDBRANCH   6   7
ENDBRANCH   5   6
ENDBRANCH   4   5
ENDBRANCH   3   4
ENDBRANCH   2   3
ENDBRANCH   1   2
BRANCH   1  11
ATOM     11  C   UNL     1     -21.278  -3.374 -17.034  1.00  0.00     0.000 C 
BRANCH  11  12
ATOM     12  C   UNL     1     -20.832  -3.127 -15.585  1.00  0.00     0.000 C 
BRANCH  12  13
ATOM     13  C   UNL     1     -19.443  -3.710 -15.285  1.00  0.00     0.000 C 
BRANCH  13  14
ATOM     14  C   UNL     1     -19.509  -5.139 -14.725  1.00  0.00     0.000 C 
BRANCH  14  15
ATOM     15  C   UNL     1     -19.908  -5.131 -13.244  1.00  0.00     0.000 C 
BRANCH  15  16
ATOM     16  C   UNL     1     -21.098  -6.068 -12.989  1.00  0.00     0.006 C 
BRANCH  16  17
ATOM     17  C   UNL     1     -20.651  -7.464 -12.539  1.00  0.00     0.053 C 
BRANCH  17  18
ATOM     18  C   UNL     1     -20.593  -8.425 -13.687  1.00  0.00     0.041 C 
ATOM     19  O   UNL     1     -19.863  -9.450 -13.620  1.00  0.00    -0.550 OA
ATOM     20  O   UNL     1     -21.369  -8.206 -14.818  1.00  0.00    -0.550 OA
ENDBRANCH  17  18
ENDBRANCH  16  17
ENDBRANCH  15  16
ENDBRANCH  14  15
ENDBRANCH  13  14
ENDBRANCH  12  13
ENDBRANCH  11  12
ENDBRANCH   1  11
TORSDOF 15
ENDMDL
