MODEL 1
REMARK VINA RESULT:    -4.941      0.000      0.000
REMARK INTER + INTRA:          -5.594
REMARK INTER:                  -5.374
REMARK INTRA:                  -0.220
REMARK UNBOUND:                -0.220
REMARK SMILES O=C([O-])c1ccccc1O
REMARK SMILES IDX 4 1 9 2 5 3 8 4 6 5 7 6 2 7 1 8 3 9 10 10
REMARK H PARENT 10 11
REMARK Flexibility Score: inf
ROOT
ATOM      1  C   UNL     1     -48.653  26.030 -16.352  1.00  0.00     0.039 A 
ATOM      2  C   UNL     1     -47.948  25.185 -17.244  1.00  0.00     0.124 A 
ATOM      3  C   UNL     1     -48.335  27.402 -16.323  1.00  0.00     0.014 A 
ATOM      4  C   UNL     1     -46.955  25.721 -18.077  1.00  0.00     0.047 A 
ATOM      5  C   UNL     1     -47.344  27.922 -17.158  1.00  0.00     0.001 A 
ATOM      6  C   UNL     1     -46.655  27.083 -18.034  1.00  0.00     0.004 A 
ENDROOT
BRANCH   1   7
ATOM      7  C   UNL     1     -49.712  25.511 -15.450  1.00  0.00     0.075 C 
ATOM      8  O   UNL     1     -49.703  24.315 -15.057  1.00  0.00    -0.545 OA
ATOM      9  O   UNL     1     -50.738  26.346 -15.022  1.00  0.00    -0.545 OA
ENDBRANCH   1   7
BRANCH   2  10
ATOM     10  O   UNL     1     -48.230  23.821 -17.306  1.00  0.00    -0.507 OA
ATOM     11  H   UNL     1     -49.172  23.465 -17.193  1.00  0.00     0.293 HD
ENDBRANCH   2  10
TORSDOF 2
ENDMDL
MODEL 2
REMARK VINA RESULT:    -4.750      1.972      3.702
REMARK INTER + INTRA:          -5.387
REMARK INTER:                  -5.182
REMARK INTRA:                  -0.205
REMARK UNBOUND:                -0.220
REMARK SMILES O=C([O-])c1ccccc1O
REMARK SMILES IDX 4 1 9 2 5 3 8 4 6 5 7 6 2 7 1 8 3 9 10 10
REMARK H PARENT 10 11
REMARK Flexibility Score: inf
ROOT
ATOM      1  C   UNL     1     -46.977  26.312 -17.240  1.00  0.00     0.039 A 
ATOM      2  C   UNL     1     -47.966  25.323 -17.016  1.00  0.00     0.124 A 
ATOM      3  C   UNL     1     -46.968  27.459 -16.423  1.00  0.00     0.014 A 
ATOM      4  C   UNL     1     -48.911  25.498 -15.994  1.00  0.00     0.047 A 
ATOM      5  C   UNL     1     -47.915  27.620 -15.409  1.00  0.00     0.001 A 
ATOM      6  C   UNL     1     -48.885  26.641 -15.195  1.00  0.00     0.004 A 
ENDROOT
BRANCH   1   7
ATOM      7  C   UNL     1     -45.955  26.174 -18.309  1.00  0.00     0.075 C 
ATOM      8  O   UNL     1     -45.374  27.184 -18.786  1.00  0.00    -0.545 OA
ATOM      9  O   UNL     1     -45.622  24.917 -18.802  1.00  0.00    -0.545 OA
ENDBRANCH   1   7
BRANCH   2  10
ATOM     10  O   UNL     1     -48.013  24.171 -17.801  1.00  0.00    -0.507 OA
ATOM     11  H   UNL     1     -48.717  23.456 -17.657  1.00  0.00     0.293 HD
ENDBRANCH   2  10
TORSDOF 2
ENDMDL
MODEL 3
REMARK VINA RESULT:    -4.742      1.948      2.566
REMARK INTER + INTRA:          -5.377
REMARK INTER:                  -5.127
REMARK INTRA:                  -0.251
REMARK UNBOUND:                -0.220
REMARK SMILES O=C([O-])c1ccccc1O
REMARK SMILES IDX 4 1 9 2 5 3 8 4 6 5 7 6 2 7 1 8 3 9 10 10
REMARK H PARENT 10 11
REMARK Flexibility Score: inf
ROOT
ATOM      1  C   UNL     1     -46.594  26.700 -17.321  1.00  0.00     0.039 A 
ATOM      2  C   UNL     1     -46.430  25.530 -18.102  1.00  0.00     0.124 A 
ATOM      3  C   UNL     1     -45.612  27.708 -17.394  1.00  0.00     0.014 A 
ATOM      4  C   UNL     1     -45.304  25.393 -18.928  1.00  0.00     0.047 A 
ATOM      5  C   UNL     1     -44.497  27.558 -18.221  1.00  0.00     0.001 A 
ATOM      6  C   UNL     1     -44.343  26.402 -18.987  1.00  0.00     0.004 A 
ENDROOT
BRANCH   1   7
ATOM      7  C   UNL     1     -47.766  26.893 -16.430  1.00  0.00     0.075 C 
ATOM      8  O   UNL     1     -48.938  26.702 -16.849  1.00  0.00    -0.545 OA
ATOM      9  O   UNL     1     -47.586  27.291 -15.111  1.00  0.00    -0.545 OA
ENDBRANCH   1   7
BRANCH   2  10
ATOM     10  O   UNL     1     -47.376  24.507 -18.061  1.00  0.00    -0.507 OA
ATOM     11  H   UNL     1     -47.257  23.694 -17.466  1.00  0.00     0.293 HD
ENDBRANCH   2  10
TORSDOF 2
ENDMDL
MODEL 4
REMARK VINA RESULT:    -4.723      2.042      3.989
REMARK INTER + INTRA:          -5.357
REMARK INTER:                  -5.111
REMARK INTRA:                  -0.246
REMARK UNBOUND:                -0.220
REMARK SMILES O=C([O-])c1ccccc1O
REMARK SMILES IDX 4 1 9 2 5 3 8 4 6 5 7 6 2 7 1 8 3 9 10 10
REMARK H PARENT 10 11
REMARK Flexibility Score: inf
ROOT
ATOM      1  C   UNL     1     -49.793  25.662 -15.438  1.00  0.00     0.039 A 
ATOM      2  C   UNL     1     -49.669  24.252 -15.488  1.00  0.00     0.124 A 
ATOM      3  C   UNL     1     -51.016  26.221 -15.017  1.00  0.00     0.014 A 
ATOM      4  C   UNL     1     -50.753  23.441 -15.120  1.00  0.00     0.047 A 
ATOM      5  C   UNL     1     -52.087  25.401 -14.654  1.00  0.00     0.001 A 
ATOM      6  C   UNL     1     -51.956  24.013 -14.705  1.00  0.00     0.004 A 
ENDROOT
BRANCH   1   7
ATOM      7  C   UNL     1     -48.676  26.564 -15.817  1.00  0.00     0.075 C 
ATOM      8  O   UNL     1     -48.253  27.444 -15.022  1.00  0.00    -0.545 OA
ATOM      9  O   UNL     1     -48.075  26.448 -17.066  1.00  0.00    -0.545 OA
ENDBRANCH   1   7
BRANCH   2  10
ATOM     10  O   UNL     1     -48.477  23.655 -15.899  1.00  0.00    -0.507 OA
ATOM     11  H   UNL     1     -48.449  22.703 -16.244  1.00  0.00     0.293 HD
ENDBRANCH   2  10
TORSDOF 2
ENDMDL
MODEL 5
REMARK VINA RESULT:    -4.606     13.784     14.948
REMARK INTER + INTRA:          -5.230
REMARK INTER:                  -5.034
REMARK INTRA:                  -0.196
REMARK UNBOUND:                -0.220
REMARK SMILES O=C([O-])c1ccccc1O
REMARK SMILES IDX 4 1 9 2 5 3 8 4 6 5 7 6 2 7 1 8 3 9 10 10
REMARK H PARENT 10 11
REMARK Flexibility Score: inf
ROOT
ATOM      1  C   UNL     1     -46.690  11.094 -14.924  1.00  0.00     0.039 A 
ATOM      2  C   UNL     1     -46.214  12.428 -14.902  1.00  0.00     0.124 A 
ATOM      3  C   UNL     1     -47.083  10.534 -16.156  1.00  0.00     0.014 A 
ATOM      4  C   UNL     1     -46.138  13.163 -16.094  1.00  0.00     0.047 A 
ATOM      5  C   UNL     1     -47.002  11.278 -17.335  1.00  0.00     0.001 A 
ATOM      6  C   UNL     1     -46.530  12.591 -17.305  1.00  0.00     0.004 A 
ENDROOT
BRANCH   1   7
ATOM      7  C   UNL     1     -46.790  10.274 -13.690  1.00  0.00     0.075 C 
ATOM      8  O   UNL     1     -47.639  10.541 -12.799  1.00  0.00    -0.545 OA
ATOM      9  O   UNL     1     -45.940   9.191 -13.498  1.00  0.00    -0.545 OA
ENDBRANCH   1   7
BRANCH   2  10
ATOM     10  O   UNL     1     -45.816  13.023 -13.705  1.00  0.00    -0.507 OA
ATOM     11  H   UNL     1     -45.124  13.764 -13.683  1.00  0.00     0.293 HD
ENDBRANCH   2  10
TORSDOF 2
ENDMDL
MODEL 6
REMARK VINA RESULT:    -4.534      2.243      3.204
REMARK INTER + INTRA:          -5.151
REMARK INTER:                  -4.900
REMARK INTRA:                  -0.251
REMARK UNBOUND:                -0.220
REMARK SMILES O=C([O-])c1ccccc1O
REMARK SMILES IDX 4 1 9 2 5 3 8 4 6 5 7 6 2 7 1 8 3 9 10 10
REMARK H PARENT 10 11
REMARK Flexibility Score: inf
ROOT
ATOM      1  C   UNL     1     -50.859  24.698 -15.042  1.00  0.00     0.039 A 
ATOM      2  C   UNL     1     -49.582  24.806 -15.644  1.00  0.00     0.124 A 
ATOM      3  C   UNL     1     -51.633  25.864 -14.879  1.00  0.00     0.014 A 
ATOM      4  C   UNL     1     -49.112  26.059 -16.066  1.00  0.00     0.047 A 
ATOM      5  C   UNL     1     -51.152  27.104 -15.303  1.00  0.00     0.001 A 
ATOM      6  C   UNL     1     -49.893  27.202 -15.896  1.00  0.00     0.004 A 
ENDROOT
BRANCH   1   7
ATOM      7  C   UNL     1     -51.402  23.396 -14.579  1.00  0.00     0.075 C 
ATOM      8  O   UNL     1     -51.391  22.384 -15.328  1.00  0.00    -0.545 OA
ATOM      9  O   UNL     1     -51.935  23.274 -13.300  1.00  0.00    -0.545 OA
ENDBRANCH   1   7
BRANCH   2  10
ATOM     10  O   UNL     1     -48.781  23.679 -15.826  1.00  0.00    -0.507 OA
ATOM     11  H   UNL     1     -48.845  23.109 -16.661  1.00  0.00     0.293 HD
ENDBRANCH   2  10
TORSDOF 2
ENDMDL
MODEL 7
REMARK VINA RESULT:    -4.460      3.272      4.616
REMARK INTER + INTRA:          -5.071
REMARK INTER:                  -4.825
REMARK INTRA:                  -0.246
REMARK UNBOUND:                -0.220
REMARK SMILES O=C([O-])c1ccccc1O
REMARK SMILES IDX 4 1 9 2 5 3 8 4 6 5 7 6 2 7 1 8 3 9 10 10
REMARK H PARENT 10 11
REMARK Flexibility Score: inf
ROOT
ATOM      1  C   UNL     1     -45.228  26.836 -17.369  1.00  0.00     0.039 A 
ATOM      2  C   UNL     1     -44.497  27.885 -17.979  1.00  0.00     0.124 A 
ATOM      3  C   UNL     1     -45.284  26.777 -15.963  1.00  0.00     0.014 A 
ATOM      4  C   UNL     1     -43.848  28.840 -17.182  1.00  0.00     0.047 A 
ATOM      5  C   UNL     1     -44.633  27.734 -15.182  1.00  0.00     0.001 A 
ATOM      6  C   UNL     1     -43.915  28.765 -15.791  1.00  0.00     0.004 A 
ENDROOT
BRANCH   1   7
ATOM      7  C   UNL     1     -45.933  25.801 -18.168  1.00  0.00     0.075 C 
ATOM      8  O   UNL     1     -47.163  25.584 -18.008  1.00  0.00    -0.545 OA
ATOM      9  O   UNL     1     -45.239  25.051 -19.111  1.00  0.00    -0.545 OA
ENDBRANCH   1   7
BRANCH   2  10
ATOM     10  O   UNL     1     -44.414  27.983 -19.368  1.00  0.00    -0.507 OA
ATOM     11  H   UNL     1     -43.810  28.660 -19.819  1.00  0.00     0.293 HD
ENDBRANCH   2  10
TORSDOF 2
ENDMDL
MODEL 8
REMARK VINA RESULT:    -4.417      3.145      4.417
REMARK INTER + INTRA:          -5.025
REMARK INTER:                  -4.775
REMARK INTRA:                  -0.250
REMARK UNBOUND:                -0.220
REMARK SMILES O=C([O-])c1ccccc1O
REMARK SMILES IDX 4 1 9 2 5 3 8 4 6 5 7 6 2 7 1 8 3 9 10 10
REMARK H PARENT 10 11
REMARK Flexibility Score: inf
ROOT
ATOM      1  C   UNL     1     -45.167  26.790 -17.481  1.00  0.00     0.039 A 
ATOM      2  C   UNL     1     -45.359  26.944 -16.086  1.00  0.00     0.124 A 
ATOM      3  C   UNL     1     -44.316  27.690 -18.152  1.00  0.00     0.014 A 
ATOM      4  C   UNL     1     -44.705  27.978 -15.400  1.00  0.00     0.047 A 
ATOM      5  C   UNL     1     -43.671  28.715 -17.456  1.00  0.00     0.001 A 
ATOM      6  C   UNL     1     -43.865  28.859 -16.083  1.00  0.00     0.004 A 
ENDROOT
BRANCH   1   7
ATOM      7  C   UNL     1     -45.837  25.712 -18.253  1.00  0.00     0.075 C 
ATOM      8  O   UNL     1     -47.060  25.460 -18.090  1.00  0.00    -0.545 OA
ATOM      9  O   UNL     1     -45.117  24.959 -19.174  1.00  0.00    -0.545 OA
ENDBRANCH   1   7
BRANCH   2  10
ATOM     10  O   UNL     1     -46.193  26.077 -15.381  1.00  0.00    -0.507 OA
ATOM     11  H   UNL     1     -46.880  25.498 -15.852  1.00  0.00     0.293 HD
ENDBRANCH   2  10
TORSDOF 2
ENDMDL
MODEL 9
REMARK VINA RESULT:    -4.401      2.816      3.539
REMARK INTER + INTRA:          -5.007
REMARK INTER:                  -4.777
REMARK INTRA:                  -0.229
REMARK UNBOUND:                -0.220
REMARK SMILES O=C([O-])c1ccccc1O
REMARK SMILES IDX 4 1 9 2 5 3 8 4 6 5 7 6 2 7 1 8 3 9 10 10
REMARK H PARENT 10 11
REMARK Flexibility Score: inf
ROOT
ATOM      1  C   UNL     1     -45.437  27.201 -17.275  1.00  0.00     0.039 A 
ATOM      2  C   UNL     1     -45.458  26.144 -18.217  1.00  0.00     0.124 A 
ATOM      3  C   UNL     1     -44.459  28.207 -17.406  1.00  0.00     0.014 A 
ATOM      4  C   UNL     1     -44.516  26.115 -19.256  1.00  0.00     0.047 A 
ATOM      5  C   UNL     1     -43.527  28.165 -18.445  1.00  0.00     0.001 A 
ATOM      6  C   UNL     1     -43.555  27.121 -19.369  1.00  0.00     0.004 A 
ENDROOT
BRANCH   1   7
ATOM      7  C   UNL     1     -46.412  27.278 -16.157  1.00  0.00     0.075 C 
ATOM      8  O   UNL     1     -46.882  26.234 -15.633  1.00  0.00    -0.545 OA
ATOM      9  O   UNL     1     -46.823  28.513 -15.669  1.00  0.00    -0.545 OA
ENDBRANCH   1   7
BRANCH   2  10
ATOM     10  O   UNL     1     -46.407  25.127 -18.126  1.00  0.00    -0.507 OA
ATOM     11  H   UNL     1     -46.604  24.658 -17.249  1.00  0.00     0.293 HD
ENDBRANCH   2  10
TORSDOF 2
ENDMDL
