MODEL 1
REMARK VINA RESULT:    -3.095      0.000      0.000
REMARK INTER + INTRA:          -4.087
REMARK INTER:                  -3.818
REMARK INTRA:                  -0.269
REMARK UNBOUND:                -0.269
REMARK SMILES C=CC[C@@H](C)C(=O)CC
REMARK SMILES IDX 4 1 5 2 6 3 7 4 8 5 9 6 3 7 2 8 1 9
REMARK H PARENT
REMARK Flexibility Score: inf
ROOT
ATOM      1  C   UNL     1     177.155 180.083 236.772  1.00  0.00     0.057 C 
ATOM      2  C   UNL     1     175.875 180.754 237.292  1.00  0.00     0.016 C 
ENDROOT
BRANCH   1   3
ATOM      3  C   UNL     1     178.388 180.830 237.240  1.00  0.00     0.135 C 
ATOM      4  O   UNL     1     178.354 182.047 237.361  1.00  0.00    -0.299 OA
BRANCH   3   5
ATOM      5  C   UNL     1     179.664 180.098 237.560  1.00  0.00     0.072 C 
ATOM      6  C   UNL     1     180.636 181.008 238.304  1.00  0.00     0.012 C 
ENDBRANCH   3   5
ENDBRANCH   1   3
BRANCH   1   7
ATOM      7  C   UNL     1     177.222 178.584 237.130  1.00  0.00     0.038 C 
BRANCH   7   8
ATOM      8  C   UNL     1     177.511 177.695 235.946  1.00  0.00    -0.034 C 
ATOM      9  C   UNL     1     177.263 178.085 234.692  1.00  0.00     0.004 C 
ENDBRANCH   7   8
ENDBRANCH   1   7
TORSDOF 4
ENDMDL
MODEL 2
REMARK VINA RESULT:    -3.074     15.387     16.261
REMARK INTER + INTRA:          -4.061
REMARK INTER:                  -3.638
REMARK INTRA:                  -0.423
REMARK UNBOUND:                -0.269
REMARK SMILES C=CC[C@@H](C)C(=O)CC
REMARK SMILES IDX 4 1 5 2 6 3 7 4 8 5 9 6 3 7 2 8 1 9
REMARK H PARENT
REMARK Flexibility Score: inf
ROOT
ATOM      1  C   UNL     1     187.069 181.432 223.783  1.00  0.00     0.057 C 
ATOM      2  C   UNL     1     186.561 180.132 223.143  1.00  0.00     0.016 C 
ENDROOT
BRANCH   1   3
ATOM      3  C   UNL     1     188.584 181.455 223.834  1.00  0.00     0.135 C 
ATOM      4  O   UNL     1     189.233 181.060 222.875  1.00  0.00    -0.299 OA
BRANCH   3   5
ATOM      5  C   UNL     1     189.311 181.958 225.053  1.00  0.00     0.072 C 
ATOM      6  C   UNL     1     188.785 181.279 226.314  1.00  0.00     0.012 C 
ENDBRANCH   3   5
ENDBRANCH   1   3
BRANCH   1   7
ATOM      7  C   UNL     1     186.499 182.690 223.093  1.00  0.00     0.038 C 
BRANCH   7   8
ATOM      8  C   UNL     1     185.497 183.437 223.940  1.00  0.00    -0.034 C 
ATOM      9  C   UNL     1     185.252 183.098 225.208  1.00  0.00     0.004 C 
ENDBRANCH   7   8
ENDBRANCH   1   7
TORSDOF 4
ENDMDL
MODEL 3
REMARK VINA RESULT:    -3.072      1.612      2.740
REMARK INTER + INTRA:          -4.059
REMARK INTER:                  -3.598
REMARK INTRA:                  -0.460
REMARK UNBOUND:                -0.269
REMARK SMILES C=CC[C@@H](C)C(=O)CC
REMARK SMILES IDX 4 1 5 2 6 3 7 4 8 5 9 6 3 7 2 8 1 9
REMARK H PARENT
REMARK Flexibility Score: inf
ROOT
ATOM      1  C   UNL     1     178.045 178.150 236.086  1.00  0.00     0.057 C 
ATOM      2  C   UNL     1     177.508 178.346 234.661  1.00  0.00     0.016 C 
ENDROOT
BRANCH   1   3
ATOM      3  C   UNL     1     179.395 178.819 236.254  1.00  0.00     0.135 C 
ATOM      4  O   UNL     1     180.114 178.995 235.280  1.00  0.00    -0.299 OA
BRANCH   3   5
ATOM      5  C   UNL     1     179.873 179.273 237.607  1.00  0.00     0.072 C 
ATOM      6  C   UNL     1     179.948 180.796 237.670  1.00  0.00     0.012 C 
ENDBRANCH   3   5
ENDBRANCH   1   3
BRANCH   1   7
ATOM      7  C   UNL     1     177.039 178.609 237.163  1.00  0.00     0.038 C 
BRANCH   7   8
ATOM      8  C   UNL     1     176.144 179.735 236.708  1.00  0.00    -0.034 C 
ATOM      9  C   UNL     1     176.158 180.932 237.301  1.00  0.00     0.004 C 
ENDBRANCH   7   8
ENDBRANCH   1   7
TORSDOF 4
ENDMDL
MODEL 4
REMARK VINA RESULT:    -3.027     17.885     18.637
REMARK INTER + INTRA:          -4.004
REMARK INTER:                  -3.604
REMARK INTRA:                  -0.400
REMARK UNBOUND:                -0.269
REMARK SMILES C=CC[C@@H](C)C(=O)CC
REMARK SMILES IDX 4 1 5 2 6 3 7 4 8 5 9 6 3 7 2 8 1 9
REMARK H PARENT
REMARK Flexibility Score: inf
ROOT
ATOM      1  C   UNL     1     185.659 191.404 223.827  1.00  0.00     0.057 C 
ATOM      2  C   UNL     1     186.115 192.751 223.249  1.00  0.00     0.016 C 
ENDROOT
BRANCH   1   3
ATOM      3  C   UNL     1     184.146 191.297 223.827  1.00  0.00     0.135 C 
ATOM      4  O   UNL     1     183.505 191.721 222.875  1.00  0.00    -0.299 OA
BRANCH   3   5
ATOM      5  C   UNL     1     183.412 190.676 224.985  1.00  0.00     0.072 C 
ATOM      6  C   UNL     1     183.626 191.489 226.258  1.00  0.00     0.012 C 
ENDBRANCH   3   5
ENDBRANCH   1   3
BRANCH   1   7
ATOM      7  C   UNL     1     186.318 190.204 223.115  1.00  0.00     0.038 C 
BRANCH   7   8
ATOM      8  C   UNL     1     187.076 189.293 224.049  1.00  0.00    -0.034 C 
ATOM      9  C   UNL     1     187.522 189.712 225.237  1.00  0.00     0.004 C 
ENDBRANCH   7   8
ENDBRANCH   1   7
TORSDOF 4
ENDMDL
MODEL 5
REMARK VINA RESULT:    -3.004     17.833     18.655
REMARK INTER + INTRA:          -3.975
REMARK INTER:                  -3.485
REMARK INTRA:                  -0.490
REMARK UNBOUND:                -0.269
REMARK SMILES C=CC[C@@H](C)C(=O)CC
REMARK SMILES IDX 4 1 5 2 6 3 7 4 8 5 9 6 3 7 2 8 1 9
REMARK H PARENT
REMARK Flexibility Score: inf
ROOT
ATOM      1  C   UNL     1     186.386 189.906 223.122  1.00  0.00     0.057 C 
ATOM      2  C   UNL     1     185.512 188.659 222.928  1.00  0.00     0.016 C 
ENDROOT
BRANCH   1   3
ATOM      3  C   UNL     1     185.537 191.162 223.168  1.00  0.00     0.135 C 
ATOM      4  O   UNL     1     186.073 192.256 223.275  1.00  0.00    -0.299 OA
BRANCH   3   5
ATOM      5  C   UNL     1     184.036 191.087 223.085  1.00  0.00     0.072 C 
ATOM      6  C   UNL     1     183.410 191.255 224.466  1.00  0.00     0.012 C 
ENDBRANCH   3   5
ENDBRANCH   1   3
BRANCH   1   7
ATOM      7  C   UNL     1     187.309 189.793 224.353  1.00  0.00     0.038 C 
BRANCH   7   8
ATOM      8  C   UNL     1     186.560 189.660 225.657  1.00  0.00    -0.034 C 
ATOM      9  C   UNL     1     186.698 190.548 226.645  1.00  0.00     0.004 C 
ENDBRANCH   7   8
ENDBRANCH   1   7
TORSDOF 4
ENDMDL
MODEL 6
REMARK VINA RESULT:    -2.988      1.252      2.153
REMARK INTER + INTRA:          -3.956
REMARK INTER:                  -3.592
REMARK INTRA:                  -0.363
REMARK UNBOUND:                -0.269
REMARK SMILES C=CC[C@@H](C)C(=O)CC
REMARK SMILES IDX 4 1 5 2 6 3 7 4 8 5 9 6 3 7 2 8 1 9
REMARK H PARENT
REMARK Flexibility Score: inf
ROOT
ATOM      1  C   UNL     1     178.160 181.474 236.636  1.00  0.00     0.057 C 
ATOM      2  C   UNL     1     178.039 182.383 235.405  1.00  0.00     0.016 C 
ENDROOT
BRANCH   1   3
ATOM      3  C   UNL     1     179.104 182.072 237.662  1.00  0.00     0.135 C 
ATOM      4  O   UNL     1     178.867 183.172 238.139  1.00  0.00    -0.299 OA
BRANCH   3   5
ATOM      5  C   UNL     1     180.337 181.331 238.105  1.00  0.00     0.072 C 
ATOM      6  C   UNL     1     180.291 179.879 237.642  1.00  0.00     0.012 C 
ENDBRANCH   3   5
ENDBRANCH   1   3
BRANCH   1   7
ATOM      7  C   UNL     1     176.788 181.129 237.252  1.00  0.00     0.038 C 
BRANCH   7   8
ATOM      8  C   UNL     1     176.288 179.756 236.876  1.00  0.00    -0.034 C 
ATOM      9  C   UNL     1     177.018 178.657 237.084  1.00  0.00     0.004 C 
ENDBRANCH   7   8
ENDBRANCH   1   7
TORSDOF 4
ENDMDL
MODEL 7
REMARK VINA RESULT:    -2.964     17.829     18.318
REMARK INTER + INTRA:          -3.926
REMARK INTER:                  -3.648
REMARK INTRA:                  -0.277
REMARK UNBOUND:                -0.269
REMARK SMILES C=CC[C@@H](C)C(=O)CC
REMARK SMILES IDX 4 1 5 2 6 3 7 4 8 5 9 6 3 7 2 8 1 9
REMARK H PARENT
REMARK Flexibility Score: inf
ROOT
ATOM      1  C   UNL     1     183.910 191.407 223.825  1.00  0.00     0.057 C 
ATOM      2  C   UNL     1     183.789 190.910 225.273  1.00  0.00     0.016 C 
ENDROOT
BRANCH   1   3
ATOM      3  C   UNL     1     185.340 191.299 223.332  1.00  0.00     0.135 C 
ATOM      4  O   UNL     1     186.051 192.295 223.302  1.00  0.00    -0.299 OA
BRANCH   3   5
ATOM      5  C   UNL     1     185.906 189.982 222.875  1.00  0.00     0.072 C 
ATOM      6  C   UNL     1     186.978 189.489 223.843  1.00  0.00     0.012 C 
ENDBRANCH   3   5
ENDBRANCH   1   3
BRANCH   1   7
ATOM      7  C   UNL     1     182.921 190.699 222.875  1.00  0.00     0.038 C 
BRANCH   7   8
ATOM      8  C   UNL     1     181.921 189.824 223.591  1.00  0.00    -0.034 C 
ATOM      9  C   UNL     1     180.625 189.826 223.270  1.00  0.00     0.004 C 
ENDBRANCH   7   8
ENDBRANCH   1   7
TORSDOF 4
ENDMDL
