MODEL 1
REMARK VINA RESULT:    -3.095      0.000      0.000
REMARK INTER + INTRA:          -3.948
REMARK INTER:                  -3.728
REMARK INTRA:                  -0.219
REMARK UNBOUND:                -0.219
REMARK SMILES OCC(O)CO
REMARK SMILES IDX 3 1 5 2 6 3 2 5 1 6 4 8
REMARK H PARENT 6 4 1 7 4 9
REMARK Flexibility Score: inf
ROOT
ATOM      1  C   UNL     1      24.737  -6.009  16.459  1.00  0.00     0.165 C 
ENDROOT
BRANCH   1   2
ATOM      2  C   UNL     1      24.602  -7.049  15.332  1.00  0.00     0.190 C 
BRANCH   2   3
ATOM      3  O   UNL     1      25.781  -7.109  14.576  1.00  0.00    -0.394 OA
ATOM      4  H   UNL     1      26.356  -6.361  14.886  1.00  0.00     0.210 HD
ENDBRANCH   2   3
ENDBRANCH   1   2
BRANCH   1   5
ATOM      5  C   UNL     1      25.425  -6.601  17.701  1.00  0.00     0.190 C 
BRANCH   5   6
ATOM      6  O   UNL     1      25.826  -7.924  17.468  1.00  0.00    -0.394 OA
ATOM      7  H   UNL     1      26.236  -7.942  16.566  1.00  0.00     0.210 HD
ENDBRANCH   5   6
ENDBRANCH   1   5
BRANCH   1   8
ATOM      8  O   UNL     1      25.439  -4.878  16.006  1.00  0.00    -0.388 OA
ATOM      9  H   UNL     1      25.030  -4.595  15.146  1.00  0.00     0.211 HD
ENDBRANCH   1   8
TORSDOF 5
ENDMDL
MODEL 2
REMARK VINA RESULT:    -3.023      0.674      2.694
REMARK INTER + INTRA:          -3.861
REMARK INTER:                  -3.656
REMARK INTRA:                  -0.205
REMARK UNBOUND:                -0.219
REMARK SMILES OCC(O)CO
REMARK SMILES IDX 3 1 5 2 6 3 2 5 1 6 4 8
REMARK H PARENT 6 4 1 7 4 9
REMARK Flexibility Score: inf
ROOT
ATOM      1  C   UNL     1      24.682  -7.147  16.642  1.00  0.00     0.165 C 
ENDROOT
BRANCH   1   2
ATOM      2  C   UNL     1      25.360  -5.850  17.122  1.00  0.00     0.190 C 
BRANCH   2   3
ATOM      3  O   UNL     1      25.450  -4.926  16.071  1.00  0.00    -0.394 OA
ATOM      4  H   UNL     1      24.523  -4.630  15.873  1.00  0.00     0.210 HD
ENDBRANCH   2   3
ENDBRANCH   1   2
BRANCH   1   5
ATOM      5  C   UNL     1      24.546  -7.185  15.111  1.00  0.00     0.190 C 
BRANCH   5   6
ATOM      6  O   UNL     1      25.807  -7.193  14.496  1.00  0.00    -0.394 OA
ATOM      7  H   UNL     1      25.668  -7.512  13.567  1.00  0.00     0.210 HD
ENDBRANCH   5   6
ENDBRANCH   1   5
BRANCH   1   8
ATOM      8  O   UNL     1      25.392  -8.272  17.097  1.00  0.00    -0.388 OA
ATOM      9  H   UNL     1      26.298  -8.239  16.692  1.00  0.00     0.211 HD
ENDBRANCH   1   8
TORSDOF 5
ENDMDL
MODEL 3
REMARK VINA RESULT:    -3.018      6.548      7.361
REMARK INTER + INTRA:          -3.855
REMARK INTER:                  -3.661
REMARK INTRA:                  -0.195
REMARK UNBOUND:                -0.219
REMARK SMILES OCC(O)CO
REMARK SMILES IDX 3 1 5 2 6 3 2 5 1 6 4 8
REMARK H PARENT 6 4 1 7 4 9
REMARK Flexibility Score: inf
ROOT
ATOM      1  C   UNL     1      26.167 -13.067  14.841  1.00  0.00     0.165 C 
ENDROOT
BRANCH   1   2
ATOM      2  C   UNL     1      25.880 -14.477  15.390  1.00  0.00     0.190 C 
BRANCH   2   3
ATOM      3  O   UNL     1      27.075 -15.196  15.542  1.00  0.00    -0.394 OA
ATOM      4  H   UNL     1      27.810 -14.528  15.542  1.00  0.00     0.210 HD
ENDBRANCH   2   3
ENDBRANCH   1   2
BRANCH   1   5
ATOM      5  C   UNL     1      27.013 -12.236  15.819  1.00  0.00     0.190 C 
BRANCH   5   6
ATOM      6  O   UNL     1      28.299 -12.779  15.954  1.00  0.00    -0.394 OA
ATOM      7  H   UNL     1      28.413 -13.429  15.214  1.00  0.00     0.210 HD
ENDBRANCH   5   6
ENDBRANCH   1   5
BRANCH   1   8
ATOM      8  O   UNL     1      26.803 -13.144  13.590  1.00  0.00    -0.388 OA
ATOM      9  H   UNL     1      26.732 -12.251  13.161  1.00  0.00     0.211 HD
ENDBRANCH   1   8
TORSDOF 5
ENDMDL
MODEL 4
REMARK VINA RESULT:    -2.950      1.182      2.206
REMARK INTER + INTRA:          -3.773
REMARK INTER:                  -3.550
REMARK INTRA:                  -0.224
REMARK UNBOUND:                -0.219
REMARK SMILES OCC(O)CO
REMARK SMILES IDX 3 1 5 2 6 3 2 5 1 6 4 8
REMARK H PARENT 6 4 1 7 4 9
REMARK Flexibility Score: inf
ROOT
ATOM      1  C   UNL     1      24.605  -5.949  16.367  1.00  0.00     0.165 C 
ENDROOT
BRANCH   1   2
ATOM      2  C   UNL     1      24.569  -7.261  17.172  1.00  0.00     0.190 C 
BRANCH   2   3
ATOM      3  O   UNL     1      25.859  -7.610  17.598  1.00  0.00    -0.394 OA
ATOM      4  H   UNL     1      26.466  -6.888  17.287  1.00  0.00     0.210 HD
ENDBRANCH   2   3
ENDBRANCH   1   2
BRANCH   1   5
ATOM      5  C   UNL     1      25.046  -4.759  17.236  1.00  0.00     0.190 C 
BRANCH   5   6
ATOM      6  O   UNL     1      26.441  -4.728  17.372  1.00  0.00    -0.394 OA
ATOM      7  H   UNL     1      26.688  -5.500  17.945  1.00  0.00     0.210 HD
ENDBRANCH   5   6
ENDBRANCH   1   5
BRANCH   1   8
ATOM      8  O   UNL     1      25.451  -6.077  15.251  1.00  0.00    -0.388 OA
ATOM      9  H   UNL     1      25.174  -5.395  14.584  1.00  0.00     0.211 HD
ENDBRANCH   1   8
TORSDOF 5
ENDMDL
MODEL 5
REMARK VINA RESULT:    -2.893     12.672     13.579
REMARK INTER + INTRA:          -3.705
REMARK INTER:                  -3.702
REMARK INTRA:                  -0.003
REMARK UNBOUND:                -0.219
REMARK SMILES OCC(O)CO
REMARK SMILES IDX 3 1 5 2 6 3 2 5 1 6 4 8
REMARK H PARENT 6 4 1 7 4 9
REMARK Flexibility Score: inf
ROOT
ATOM      1  C   UNL     1      27.956   1.430   5.717  1.00  0.00     0.165 C 
ENDROOT
BRANCH   1   2
ATOM      2  C   UNL     1      27.786   0.180   6.600  1.00  0.00     0.190 C 
BRANCH   2   3
ATOM      3  O   UNL     1      28.667   0.228   7.691  1.00  0.00    -0.394 OA
ATOM      4  H   UNL     1      28.737  -0.699   8.040  1.00  0.00     0.210 HD
ENDBRANCH   2   3
ENDBRANCH   1   2
BRANCH   1   5
ATOM      5  C   UNL     1      26.600   2.047   5.336  1.00  0.00     0.190 C 
BRANCH   5   6
ATOM      6  O   UNL     1      26.632   2.559   4.031  1.00  0.00    -0.394 OA
ATOM      7  H   UNL     1      27.137   3.412   4.073  1.00  0.00     0.210 HD
ENDBRANCH   5   6
ENDBRANCH   1   5
BRANCH   1   8
ATOM      8  O   UNL     1      28.762   2.384   6.361  1.00  0.00    -0.388 OA
ATOM      9  H   UNL     1      29.274   2.868   5.660  1.00  0.00     0.211 HD
ENDBRANCH   1   8
TORSDOF 5
ENDMDL
MODEL 6
REMARK VINA RESULT:    -2.839      1.667      2.844
REMARK INTER + INTRA:          -3.639
REMARK INTER:                  -3.421
REMARK INTRA:                  -0.218
REMARK UNBOUND:                -0.219
REMARK SMILES OCC(O)CO
REMARK SMILES IDX 3 1 5 2 6 3 2 5 1 6 4 8
REMARK H PARENT 6 4 1 7 4 9
REMARK Flexibility Score: inf
ROOT
ATOM      1  C   UNL     1      25.295  -5.107  17.706  1.00  0.00     0.165 C 
ENDROOT
BRANCH   1   2
ATOM      2  C   UNL     1      24.243  -3.994  17.549  1.00  0.00     0.190 C 
BRANCH   2   3
ATOM      3  O   UNL     1      24.419  -3.321  16.331  1.00  0.00    -0.394 OA
ATOM      4  H   UNL     1      25.147  -2.661  16.475  1.00  0.00     0.210 HD
ENDBRANCH   2   3
ENDBRANCH   1   2
BRANCH   1   5
ATOM      5  C   UNL     1      24.989  -6.311  16.799  1.00  0.00     0.190 C 
BRANCH   5   6
ATOM      6  O   UNL     1      25.380  -6.054  15.477  1.00  0.00    -0.394 OA
ATOM      7  H   UNL     1      25.142  -5.109  15.289  1.00  0.00     0.210 HD
ENDBRANCH   5   6
ENDBRANCH   1   5
BRANCH   1   8
ATOM      8  O   UNL     1      26.583  -4.611  17.440  1.00  0.00    -0.388 OA
ATOM      9  H   UNL     1      26.549  -3.622  17.533  1.00  0.00     0.211 HD
ENDBRANCH   1   8
TORSDOF 5
ENDMDL
MODEL 7
REMARK VINA RESULT:    -2.820      1.405      2.989
REMARK INTER + INTRA:          -3.616
REMARK INTER:                  -3.613
REMARK INTRA:                  -0.003
REMARK UNBOUND:                -0.219
REMARK SMILES OCC(O)CO
REMARK SMILES IDX 3 1 5 2 6 3 2 5 1 6 4 8
REMARK H PARENT 6 4 1 7 4 9
REMARK Flexibility Score: inf
ROOT
ATOM      1  C   UNL     1      24.965  -5.337  16.899  1.00  0.00     0.165 C 
ENDROOT
BRANCH   1   2
ATOM      2  C   UNL     1      25.581  -6.248  17.976  1.00  0.00     0.190 C 
BRANCH   2   3
ATOM      3  O   UNL     1      25.760  -7.546  17.476  1.00  0.00    -0.394 OA
ATOM      4  H   UNL     1      24.996  -7.724  16.868  1.00  0.00     0.210 HD
ENDBRANCH   2   3
ENDBRANCH   1   2
BRANCH   1   5
ATOM      5  C   UNL     1      25.207  -3.849  17.205  1.00  0.00     0.190 C 
BRANCH   5   6
ATOM      6  O   UNL     1      24.420  -3.033  16.380  1.00  0.00    -0.394 OA
ATOM      7  H   UNL     1      24.512  -2.108  16.724  1.00  0.00     0.210 HD
ENDBRANCH   5   6
ENDBRANCH   1   5
BRANCH   1   8
ATOM      8  O   UNL     1      25.471  -5.662  15.629  1.00  0.00    -0.388 OA
ATOM      9  H   UNL     1      26.326  -5.169  15.511  1.00  0.00     0.211 HD
ENDBRANCH   1   8
TORSDOF 5
ENDMDL
MODEL 8
REMARK VINA RESULT:    -2.813      1.496      2.806
REMARK INTER + INTRA:          -3.608
REMARK INTER:                  -3.389
REMARK INTRA:                  -0.219
REMARK UNBOUND:                -0.219
REMARK SMILES OCC(O)CO
REMARK SMILES IDX 3 1 5 2 6 3 2 5 1 6 4 8
REMARK H PARENT 6 4 1 7 4 9
REMARK Flexibility Score: inf
ROOT
ATOM      1  C   UNL     1      25.017  -6.633  16.665  1.00  0.00     0.165 C 
ENDROOT
BRANCH   1   2
ATOM      2  C   UNL     1      25.749  -5.965  17.842  1.00  0.00     0.190 C 
BRANCH   2   3
ATOM      3  O   UNL     1      26.436  -4.822  17.407  1.00  0.00    -0.394 OA
ATOM      4  H   UNL     1      25.884  -4.415  16.689  1.00  0.00     0.210 HD
ENDBRANCH   2   3
ENDBRANCH   1   2
BRANCH   1   5
ATOM      5  C   UNL     1      23.578  -6.108  16.516  1.00  0.00     0.190 C 
BRANCH   5   6
ATOM      6  O   UNL     1      23.552  -4.706  16.547  1.00  0.00    -0.394 OA
ATOM      7  H   UNL     1      22.688  -4.447  16.960  1.00  0.00     0.210 HD
ENDBRANCH   5   6
ENDBRANCH   1   5
BRANCH   1   8
ATOM      8  O   UNL     1      25.730  -6.445  15.468  1.00  0.00    -0.388 OA
ATOM      9  H   UNL     1      25.955  -7.343  15.108  1.00  0.00     0.211 HD
ENDBRANCH   1   8
TORSDOF 5
ENDMDL
MODEL 9
REMARK VINA RESULT:    -2.699      1.598      2.214
REMARK INTER + INTRA:          -3.470
REMARK INTER:                  -3.254
REMARK INTRA:                  -0.217
REMARK UNBOUND:                -0.219
REMARK SMILES OCC(O)CO
REMARK SMILES IDX 3 1 5 2 6 3 2 5 1 6 4 8
REMARK H PARENT 6 4 1 7 4 9
REMARK Flexibility Score: inf
ROOT
ATOM      1  C   UNL     1      25.086  -5.299  16.910  1.00  0.00     0.165 C 
ENDROOT
BRANCH   1   2
ATOM      2  C   UNL     1      23.557  -5.207  17.071  1.00  0.00     0.190 C 
BRANCH   2   3
ATOM      3  O   UNL     1      23.106  -6.150  18.006  1.00  0.00    -0.394 OA
ATOM      4  H   UNL     1      22.255  -6.518  17.650  1.00  0.00     0.210 HD
ENDBRANCH   2   3
ENDBRANCH   1   2
BRANCH   1   5
ATOM      5  C   UNL     1      25.711  -6.252  17.942  1.00  0.00     0.190 C 
BRANCH   5   6
ATOM      6  O   UNL     1      25.727  -7.570  17.461  1.00  0.00    -0.394 OA
ATOM      7  H   UNL     1      26.294  -7.568  16.647  1.00  0.00     0.210 HD
ENDBRANCH   5   6
ENDBRANCH   1   5
BRANCH   1   8
ATOM      8  O   UNL     1      25.421  -5.703  15.606  1.00  0.00    -0.388 OA
ATOM      9  H   UNL     1      26.381  -5.960  15.609  1.00  0.00     0.211 HD
ENDBRANCH   1   8
TORSDOF 5
ENDMDL
