MODEL 1
REMARK VINA RESULT:    -5.122      0.000      0.000
REMARK INTER + INTRA:          -5.272
REMARK INTER:                  -5.272
REMARK INTRA:                   0.000
REMARK UNBOUND:                 0.000
REMARK SMILES Oc1ccc2[nH]ccc2c1
REMARK SMILES IDX 3 1 4 2 5 3 9 4 8 5 7 6 6 7 10 8 2 9 1 11
REMARK H PARENT 6 10 1 12
REMARK Flexibility Score: inf
ROOT
ATOM      1  C   UNL     1     134.696 143.376 139.976  1.00  0.00     0.048 A 
ATOM      2  C   UNL     1     134.340 142.761 138.761  1.00  0.00     0.030 A 
ATOM      3  C   UNL     1     135.262 141.895 138.175  1.00  0.00     0.046 A 
ATOM      4  C   UNL     1     136.478 141.642 138.751  1.00  0.00     0.003 A 
ATOM      5  C   UNL     1     137.145 140.756 137.933  1.00  0.00     0.028 A 
ATOM      6  C   UNL     1     136.274 140.512 136.875  1.00  0.00     0.083 A 
ATOM      7  N   UNL     1     135.125 141.210 137.028  1.00  0.00    -0.361 N 
ATOM      8  C   UNL     1     136.861 142.234 139.952  1.00  0.00     0.056 A 
ATOM      9  C   UNL     1     135.952 143.116 140.572  1.00  0.00     0.116 A 
ATOM     10  H   UNL     1     134.303 141.214 136.384  1.00  0.00     0.166 HD
ENDROOT
BRANCH   9  11
ATOM     11  O   UNL     1     136.280 143.738 141.775  1.00  0.00    -0.508 OA
ATOM     12  H   UNL     1     137.012 144.436 141.826  1.00  0.00     0.293 HD
ENDBRANCH   9  11
TORSDOF 1
ENDMDL
MODEL 2
REMARK VINA RESULT:    -5.096      9.139     10.372
REMARK INTER + INTRA:          -5.244
REMARK INTER:                  -5.244
REMARK INTRA:                   0.000
REMARK UNBOUND:                 0.000
REMARK SMILES Oc1ccc2[nH]ccc2c1
REMARK SMILES IDX 3 1 4 2 5 3 9 4 8 5 7 6 6 7 10 8 2 9 1 11
REMARK H PARENT 6 10 1 12
REMARK Flexibility Score: inf
ROOT
ATOM      1  C   UNL     1     140.176 131.501 140.196  1.00  0.00     0.048 A 
ATOM      2  C   UNL     1     140.647 132.128 139.027  1.00  0.00     0.030 A 
ATOM      3  C   UNL     1     139.758 132.931 138.315  1.00  0.00     0.046 A 
ATOM      4  C   UNL     1     138.464 133.112 138.727  1.00  0.00     0.003 A 
ATOM      5  C   UNL     1     137.856 133.948 137.817  1.00  0.00     0.028 A 
ATOM      6  C   UNL     1     138.840 134.238 136.875  1.00  0.00     0.083 A 
ATOM      7  N   UNL     1     140.000 133.613 137.185  1.00  0.00    -0.361 N 
ATOM      8  C   UNL     1     137.966 132.506 139.878  1.00  0.00     0.056 A 
ATOM      9  C   UNL     1     138.840 131.687 140.623  1.00  0.00     0.116 A 
ATOM     10  H   UNL     1     140.896 133.656 136.651  1.00  0.00     0.166 HD
ENDROOT
BRANCH   9  11
ATOM     11  O   UNL     1     138.399 131.055 141.783  1.00  0.00    -0.508 OA
ATOM     12  H   UNL     1     138.970 131.026 142.619  1.00  0.00     0.293 HD
ENDBRANCH   9  11
TORSDOF 1
ENDMDL
MODEL 3
REMARK VINA RESULT:    -4.824     10.636     10.801
REMARK INTER + INTRA:          -4.965
REMARK INTER:                  -4.965
REMARK INTRA:                   0.000
REMARK UNBOUND:                 0.000
REMARK SMILES Oc1ccc2[nH]ccc2c1
REMARK SMILES IDX 3 1 4 2 5 3 9 4 8 5 7 6 6 7 10 8 2 9 1 11
REMARK H PARENT 6 10 1 12
REMARK Flexibility Score: inf
ROOT
ATOM      1  C   UNL     1     131.420 133.455 144.972  1.00  0.00     0.048 A 
ATOM      2  C   UNL     1     132.214 134.250 144.124  1.00  0.00     0.030 A 
ATOM      3  C   UNL     1     131.843 134.344 142.784  1.00  0.00     0.046 A 
ATOM      4  C   UNL     1     130.745 133.689 142.294  1.00  0.00     0.003 A 
ATOM      5  C   UNL     1     130.655 133.985 140.951  1.00  0.00     0.028 A 
ATOM      6  C   UNL     1     131.733 134.826 140.691  1.00  0.00     0.083 A 
ATOM      7  N   UNL     1     132.456 135.042 141.814  1.00  0.00    -0.361 N 
ATOM      8  C   UNL     1     129.938 132.895 143.105  1.00  0.00     0.056 A 
ATOM      9  C   UNL     1     130.285 132.778 144.467  1.00  0.00     0.116 A 
ATOM     10  H   UNL     1     133.313 135.631 141.904  1.00  0.00     0.166 HD
ENDROOT
BRANCH   9  11
ATOM     11  O   UNL     1     129.516 131.997 145.327  1.00  0.00    -0.508 OA
ATOM     12  H   UNL     1     129.512 130.986 145.262  1.00  0.00     0.293 HD
ENDBRANCH   9  11
TORSDOF 1
ENDMDL
MODEL 4
REMARK VINA RESULT:    -4.821      8.302      9.139
REMARK INTER + INTRA:          -4.962
REMARK INTER:                  -4.962
REMARK INTRA:                   0.000
REMARK UNBOUND:                 0.000
REMARK SMILES Oc1ccc2[nH]ccc2c1
REMARK SMILES IDX 3 1 4 2 5 3 9 4 8 5 7 6 6 7 10 8 2 9 1 11
REMARK H PARENT 6 10 1 12
REMARK Flexibility Score: inf
ROOT
ATOM      1  C   UNL     1     143.512 141.490 145.019  1.00  0.00     0.048 A 
ATOM      2  C   UNL     1     142.733 140.683 144.169  1.00  0.00     0.030 A 
ATOM      3  C   UNL     1     143.103 140.605 142.827  1.00  0.00     0.046 A 
ATOM      4  C   UNL     1     144.186 141.286 142.339  1.00  0.00     0.003 A 
ATOM      5  C   UNL     1     144.280 141.001 140.994  1.00  0.00     0.028 A 
ATOM      6  C   UNL     1     143.220 140.138 140.731  1.00  0.00     0.083 A 
ATOM      7  N   UNL     1     142.504 139.900 141.855  1.00  0.00    -0.361 N 
ATOM      8  C   UNL     1     144.977 142.093 143.153  1.00  0.00     0.056 A 
ATOM      9  C   UNL     1     144.631 142.194 144.517  1.00  0.00     0.116 A 
ATOM     10  H   UNL     1     141.660 139.292 141.942  1.00  0.00     0.166 HD
ENDROOT
BRANCH   9  11
ATOM     11  O   UNL     1     145.384 142.987 145.380  1.00  0.00    -0.508 OA
ATOM     12  H   UNL     1     145.182 143.971 145.506  1.00  0.00     0.293 HD
ENDBRANCH   9  11
TORSDOF 1
ENDMDL
MODEL 5
REMARK VINA RESULT:    -4.788      9.714     10.552
REMARK INTER + INTRA:          -4.928
REMARK INTER:                  -4.928
REMARK INTRA:                   0.000
REMARK UNBOUND:                 0.000
REMARK SMILES Oc1ccc2[nH]ccc2c1
REMARK SMILES IDX 3 1 4 2 5 3 9 4 8 5 7 6 6 7 10 8 2 9 1 11
REMARK H PARENT 6 10 1 12
REMARK Flexibility Score: inf
ROOT
ATOM      1  C   UNL     1     137.614 132.557 140.664  1.00  0.00     0.048 A 
ATOM      2  C   UNL     1     137.623 133.026 139.336  1.00  0.00     0.030 A 
ATOM      3  C   UNL     1     138.701 132.667 138.527  1.00  0.00     0.046 A 
ATOM      4  C   UNL     1     139.723 131.887 138.995  1.00  0.00     0.003 A 
ATOM      5  C   UNL     1     140.619 131.718 137.962  1.00  0.00     0.028 A 
ATOM      6  C   UNL     1     140.077 132.425 136.892  1.00  0.00     0.083 A 
ATOM      7  N   UNL     1     138.905 133.004 137.244  1.00  0.00    -0.361 N 
ATOM      8  C   UNL     1     139.744 131.406 140.303  1.00  0.00     0.056 A 
ATOM      9  C   UNL     1     138.669 131.750 141.149  1.00  0.00     0.116 A 
ATOM     10  H   UNL     1     138.289 133.590 136.638  1.00  0.00     0.166 HD
ENDROOT
BRANCH   9  11
ATOM     11  O   UNL     1     138.636 131.300 142.467  1.00  0.00    -0.508 OA
ATOM     12  H   UNL     1     139.483 131.196 143.011  1.00  0.00     0.293 HD
ENDBRANCH   9  11
TORSDOF 1
ENDMDL
MODEL 6
REMARK VINA RESULT:    -4.766      1.148      2.193
REMARK INTER + INTRA:          -4.905
REMARK INTER:                  -4.905
REMARK INTRA:                   0.000
REMARK UNBOUND:                 0.000
REMARK SMILES Oc1ccc2[nH]ccc2c1
REMARK SMILES IDX 3 1 4 2 5 3 9 4 8 5 7 6 6 7 10 8 2 9 1 11
REMARK H PARENT 6 10 1 12
REMARK Flexibility Score: inf
ROOT
ATOM      1  C   UNL     1     137.159 142.205 140.718  1.00  0.00     0.048 A 
ATOM      2  C   UNL     1     137.118 141.665 139.419  1.00  0.00     0.030 A 
ATOM      3  C   UNL     1     136.098 142.090 138.569  1.00  0.00     0.046 A 
ATOM      4  C   UNL     1     135.159 143.002 138.972  1.00  0.00     0.003 A 
ATOM      5  C   UNL     1     134.303 143.207 137.913  1.00  0.00     0.028 A 
ATOM      6  C   UNL     1     134.780 142.385 136.895  1.00  0.00     0.083 A 
ATOM      7  N   UNL     1     135.877 141.704 137.303  1.00  0.00    -0.361 N 
ATOM      8  C   UNL     1     135.172 143.556 140.250  1.00  0.00     0.056 A 
ATOM      9  C   UNL     1     136.190 143.148 141.136  1.00  0.00     0.116 A 
ATOM     10  H   UNL     1     136.434 141.021 136.743  1.00  0.00     0.166 HD
ENDROOT
BRANCH   9  11
ATOM     11  O   UNL     1     136.254 143.667 142.427  1.00  0.00    -0.508 OA
ATOM     12  H   UNL     1     136.513 143.089 143.217  1.00  0.00     0.293 HD
ENDBRANCH   9  11
TORSDOF 1
ENDMDL
MODEL 7
REMARK VINA RESULT:    -4.686      9.843     10.871
REMARK INTER + INTRA:          -4.823
REMARK INTER:                  -4.823
REMARK INTRA:                   0.000
REMARK UNBOUND:                 0.000
REMARK SMILES Oc1ccc2[nH]ccc2c1
REMARK SMILES IDX 3 1 4 2 5 3 9 4 8 5 7 6 6 7 10 8 2 9 1 11
REMARK H PARENT 6 10 1 12
REMARK Flexibility Score: inf
ROOT
ATOM      1  C   UNL     1     140.676 132.475 138.746  1.00  0.00     0.048 A 
ATOM      2  C   UNL     1     140.357 131.711 139.884  1.00  0.00     0.030 A 
ATOM      3  C   UNL     1     139.030 131.705 140.313  1.00  0.00     0.046 A 
ATOM      4  C   UNL     1     138.060 132.416 139.659  1.00  0.00     0.003 A 
ATOM      5  C   UNL     1     136.873 132.202 140.326  1.00  0.00     0.028 A 
ATOM      6  C   UNL     1     137.196 131.349 141.378  1.00  0.00     0.083 A 
ATOM      7  N   UNL     1     138.516 131.049 141.365  1.00  0.00    -0.361 N 
ATOM      8  C   UNL     1     138.342 133.181 138.530  1.00  0.00     0.056 A 
ATOM      9  C   UNL     1     139.674 133.210 138.069  1.00  0.00     0.116 A 
ATOM     10  H   UNL     1     139.025 130.434 142.038  1.00  0.00     0.166 HD
ENDROOT
BRANCH   9  11
ATOM     11  O   UNL     1     140.017 133.958 136.945  1.00  0.00    -0.508 OA
ATOM     12  H   UNL     1     139.898 133.591 136.009  1.00  0.00     0.293 HD
ENDBRANCH   9  11
TORSDOF 1
ENDMDL
MODEL 8
REMARK VINA RESULT:    -4.678      2.594      3.569
REMARK INTER + INTRA:          -4.814
REMARK INTER:                  -4.814
REMARK INTRA:                   0.000
REMARK UNBOUND:                 0.000
REMARK SMILES Oc1ccc2[nH]ccc2c1
REMARK SMILES IDX 3 1 4 2 5 3 9 4 8 5 7 6 6 7 10 8 2 9 1 11
REMARK H PARENT 6 10 1 12
REMARK Flexibility Score: inf
ROOT
ATOM      1  C   UNL     1     134.219 142.703 138.700  1.00  0.00     0.048 A 
ATOM      2  C   UNL     1     134.508 143.372 139.904  1.00  0.00     0.030 A 
ATOM      3  C   UNL     1     135.784 143.218 140.443  1.00  0.00     0.046 A 
ATOM      4  C   UNL     1     136.735 142.445 139.832  1.00  0.00     0.003 A 
ATOM      5  C   UNL     1     137.872 142.501 140.609  1.00  0.00     0.028 A 
ATOM      6  C   UNL     1     137.541 143.328 141.679  1.00  0.00     0.083 A 
ATOM      7  N   UNL     1     136.264 143.763 141.573  1.00  0.00    -0.361 N 
ATOM      8  C   UNL     1     136.482 141.771 138.640  1.00  0.00     0.056 A 
ATOM      9  C   UNL     1     135.200 141.904 138.067  1.00  0.00     0.116 A 
ATOM     10  H   UNL     1     135.759 144.392 142.236  1.00  0.00     0.166 HD
ENDROOT
BRANCH   9  11
ATOM     11  O   UNL     1     134.888 141.253 136.875  1.00  0.00    -0.508 OA
ATOM     12  H   UNL     1     135.064 140.263 136.753  1.00  0.00     0.293 HD
ENDBRANCH   9  11
TORSDOF 1
ENDMDL
MODEL 9
REMARK VINA RESULT:    -4.602      2.568      3.784
REMARK INTER + INTRA:          -4.737
REMARK INTER:                  -4.737
REMARK INTRA:                   0.000
REMARK UNBOUND:                 0.000
REMARK SMILES Oc1ccc2[nH]ccc2c1
REMARK SMILES IDX 3 1 4 2 5 3 9 4 8 5 7 6 6 7 10 8 2 9 1 11
REMARK H PARENT 6 10 1 12
REMARK Flexibility Score: inf
ROOT
ATOM      1  C   UNL     1     135.763 143.025 137.664  1.00  0.00     0.048 A 
ATOM      2  C   UNL     1     137.000 142.891 138.323  1.00  0.00     0.030 A 
ATOM      3  C   UNL     1     137.015 143.023 139.711  1.00  0.00     0.046 A 
ATOM      4  C   UNL     1     135.873 143.276 140.422  1.00  0.00     0.003 A 
ATOM      5  C   UNL     1     136.224 143.349 141.752  1.00  0.00     0.028 A 
ATOM      6  C   UNL     1     137.598 143.131 141.778  1.00  0.00     0.083 A 
ATOM      7  N   UNL     1     138.077 142.933 140.528  1.00  0.00    -0.361 N 
ATOM      8  C   UNL     1     134.634 143.414 139.801  1.00  0.00     0.056 A 
ATOM      9  C   UNL     1     134.582 143.286 138.397  1.00  0.00     0.116 A 
ATOM     10  H   UNL     1     139.068 142.748 140.258  1.00  0.00     0.166 HD
ENDROOT
BRANCH   9  11
ATOM     11  O   UNL     1     133.371 143.414 137.720  1.00  0.00    -0.508 OA
ATOM     12  H   UNL     1     132.827 144.267 137.768  1.00  0.00     0.293 HD
ENDBRANCH   9  11
TORSDOF 1
ENDMDL
