MODEL 1
REMARK VINA RESULT:    -6.718      0.000      0.000
REMARK INTER + INTRA:         -13.393
REMARK INTER:                 -11.626
REMARK INTRA:                  -1.767
REMARK UNBOUND:                -1.767
REMARK SMILES OC[C@@H]1O[C@H](O[C@H]2[C@H](O)[C@@H](O)[C@@H](O[C@@H]3[C@H](O)[C@@H](O)[C@H](O)O[C@H]3CO)O[C@@H]2CO)[C@H](O)[C@@H](O)[C@H]1O
REMARK SMILES IDX 7 1 26 2 25 3 12 4 10 5 8 6 6 7 5 8 3 9 33 10 4 11 31 12
REMARK SMILES IDX 29 13 2 14 1 15 34 17 32 19 30 21 27 23 28 24 9 26 11 28
REMARK SMILES IDX 13 30 14 31 22 32 15 33 21 34 17 35 19 36 23 37 24 38 16 40
REMARK SMILES IDX 18 42 20 44
REMARK H PARENT 1 16 34 18 32 20 30 22 28 25 9 27 11 29 24 39 16 41 18 43
REMARK H PARENT 20 45
REMARK Flexibility Score: inf
ROOT
ATOM      1  C   UNL     1     -10.563   2.887 -41.576  1.00  0.00     0.184 C 
ATOM      2  C   UNL     1     -10.583   4.335 -42.202  1.00  0.00     0.178 C 
ATOM      3  O   UNL     1     -11.645   5.170 -41.770  1.00  0.00    -0.341 OA
ATOM      4  C   UNL     1     -12.877   4.478 -41.691  1.00  0.00     0.282 C 
ATOM      5  C   UNL     1     -12.812   3.565 -40.468  1.00  0.00     0.202 C 
ATOM      6  C   UNL     1     -11.820   2.411 -40.752  1.00  0.00     0.180 C 
ENDROOT
BRANCH   1   7
ATOM      7  O   UNL     1      -9.338   2.568 -40.925  1.00  0.00    -0.341 OA
BRANCH   7   8
ATOM      8  C   UNL     1      -9.274   1.269 -40.338  1.00  0.00     0.282 C 
ATOM      9  C   UNL     1      -9.356  -1.015 -40.800  1.00  0.00     0.178 C 
ATOM     10  C   UNL     1      -7.920  -1.289 -40.309  1.00  0.00     0.177 C 
ATOM     11  O   UNL     1      -9.410   0.287 -41.357  1.00  0.00    -0.341 OA
ATOM     12  C   UNL     1      -7.561  -0.282 -39.208  1.00  0.00     0.179 C 
ATOM     13  C   UNL     1      -7.872   1.157 -39.666  1.00  0.00     0.202 C 
BRANCH   9  14
ATOM     14  C   UNL     1      -9.795  -2.016 -41.871  1.00  0.00     0.191 C 
BRANCH  14  15
ATOM     15  O   UNL     1      -8.691  -2.424 -42.638  1.00  0.00    -0.394 OA
ATOM     16  H   UNL     1      -8.014  -1.700 -42.571  1.00  0.00     0.210 HD
ENDBRANCH  14  15
ENDBRANCH   9  14
BRANCH  10  17
ATOM     17  O   UNL     1      -7.812  -2.603 -39.808  1.00  0.00    -0.387 OA
ATOM     18  H   UNL     1      -8.156  -2.597 -38.874  1.00  0.00     0.211 HD
ENDBRANCH  10  17
BRANCH  12  19
ATOM     19  O   UNL     1      -8.279  -0.558 -38.030  1.00  0.00    -0.387 OA
ATOM     20  H   UNL     1      -9.085   0.032 -38.057  1.00  0.00     0.211 HD
ENDBRANCH  12  19
BRANCH  13  21
ATOM     21  O   UNL     1      -6.875   1.580 -40.580  1.00  0.00    -0.385 OA
ATOM     22  H   UNL     1      -6.257   0.810 -40.724  1.00  0.00     0.211 HD
ENDBRANCH  13  21
ENDBRANCH   7   8
ENDBRANCH   1   7
BRANCH   2  23
ATOM     23  C   UNL     1     -10.519   4.338 -43.746  1.00  0.00     0.191 C 
BRANCH  23  24
ATOM     24  O   UNL     1      -9.194   4.136 -44.171  1.00  0.00    -0.394 OA
ATOM     25  H   UNL     1      -9.222   3.545 -44.970  1.00  0.00     0.210 HD
ENDBRANCH  23  24
ENDBRANCH   2  23
BRANCH   6  26
ATOM     26  O   UNL     1     -12.433   1.338 -41.437  1.00  0.00    -0.387 OA
ATOM     27  H   UNL     1     -12.182   1.377 -42.402  1.00  0.00     0.211 HD
ENDBRANCH   6  26
BRANCH   5  28
ATOM     28  O   UNL     1     -12.365   4.305 -39.363  1.00  0.00    -0.385 OA
ATOM     29  H   UNL     1     -11.389   4.127 -39.283  1.00  0.00     0.211 HD
ENDBRANCH   5  28
BRANCH   4  30
ATOM     30  O   UNL     1     -13.912   5.435 -41.518  1.00  0.00    -0.341 OA
BRANCH  30  31
ATOM     31  C   UNL     1     -15.045   5.164 -42.335  1.00  0.00     0.184 C 
ATOM     32  C   UNL     1     -16.252   5.989 -41.825  1.00  0.00     0.178 C 
ATOM     33  C   UNL     1     -14.748   5.551 -43.801  1.00  0.00     0.180 C 
ATOM     34  O   UNL     1     -17.393   5.783 -42.646  1.00  0.00    -0.342 OA
ATOM     35  C   UNL     1     -16.023   5.482 -44.644  1.00  0.00     0.201 C 
ATOM     36  C   UNL     1     -17.176   6.258 -43.961  1.00  0.00     0.279 C 
BRANCH  32  37
ATOM     37  C   UNL     1     -16.620   5.613 -40.381  1.00  0.00     0.191 C 
BRANCH  37  38
ATOM     38  O   UNL     1     -16.167   4.325 -40.054  1.00  0.00    -0.394 OA
ATOM     39  H   UNL     1     -16.899   3.690 -40.258  1.00  0.00     0.210 HD
ENDBRANCH  37  38
ENDBRANCH  32  37
BRANCH  33  40
ATOM     40  O   UNL     1     -14.226   6.860 -43.855  1.00  0.00    -0.387 OA
ATOM     41  H   UNL     1     -14.980   7.474 -43.634  1.00  0.00     0.211 HD
ENDBRANCH  33  40
BRANCH  35  42
ATOM     42  O   UNL     1     -16.404   4.140 -44.821  1.00  0.00    -0.385 OA
ATOM     43  H   UNL     1     -16.777   3.825 -43.958  1.00  0.00     0.211 HD
ENDBRANCH  35  42
BRANCH  36  44
ATOM     44  O   UNL     1     -16.947   7.647 -43.961  1.00  0.00    -0.366 OA
ATOM     45  H   UNL     1     -15.971   7.771 -43.833  1.00  0.00     0.213 HD
ENDBRANCH  36  44
ENDBRANCH  30  31
ENDBRANCH   4  30
TORSDOF 18
ENDMDL
MODEL 2
REMARK VINA RESULT:    -6.651      1.485      1.827
REMARK INTER + INTRA:         -13.278
REMARK INTER:                 -11.263
REMARK INTRA:                  -2.016
REMARK UNBOUND:                -1.767
REMARK SMILES OC[C@@H]1O[C@H](O[C@H]2[C@H](O)[C@@H](O)[C@@H](O[C@@H]3[C@H](O)[C@@H](O)[C@H](O)O[C@H]3CO)O[C@@H]2CO)[C@H](O)[C@@H](O)[C@H]1O
REMARK SMILES IDX 7 1 26 2 25 3 12 4 10 5 8 6 6 7 5 8 3 9 33 10 4 11 31 12
REMARK SMILES IDX 29 13 2 14 1 15 34 17 32 19 30 21 27 23 28 24 9 26 11 28
REMARK SMILES IDX 13 30 14 31 22 32 15 33 21 34 17 35 19 36 23 37 24 38 16 40
REMARK SMILES IDX 18 42 20 44
REMARK H PARENT 1 16 34 18 32 20 30 22 28 25 9 27 11 29 24 39 16 41 18 43
REMARK H PARENT 20 45
REMARK Flexibility Score: inf
ROOT
ATOM      1  C   UNL     1     -10.299   3.481 -41.236  1.00  0.00     0.184 C 
ATOM      2  C   UNL     1     -10.417   4.813 -40.398  1.00  0.00     0.178 C 
ATOM      3  O   UNL     1     -11.736   5.302 -40.217  1.00  0.00    -0.341 OA
ATOM      4  C   UNL     1     -12.515   5.203 -41.395  1.00  0.00     0.282 C 
ATOM      5  C   UNL     1     -12.860   3.728 -41.593  1.00  0.00     0.202 C 
ATOM      6  C   UNL     1     -11.578   2.960 -41.996  1.00  0.00     0.180 C 
ENDROOT
BRANCH   1   7
ATOM      7  O   UNL     1      -9.616   2.438 -40.549  1.00  0.00    -0.341 OA
BRANCH   7   8
ATOM      8  C   UNL     1     -10.180   1.135 -40.693  1.00  0.00     0.282 C 
ATOM      9  C   UNL     1      -9.714  -1.061 -41.324  1.00  0.00     0.178 C 
ATOM     10  C   UNL     1     -10.011  -1.652 -39.930  1.00  0.00     0.177 C 
ATOM     11  O   UNL     1      -9.180   0.242 -41.166  1.00  0.00    -0.341 OA
ATOM     12  C   UNL     1     -11.063  -0.785 -39.227  1.00  0.00     0.179 C 
ATOM     13  C   UNL     1     -10.660   0.704 -39.274  1.00  0.00     0.202 C 
BRANCH   9  14
ATOM     14  C   UNL     1      -8.703  -1.906 -42.100  1.00  0.00     0.191 C 
BRANCH  14  15
ATOM     15  O   UNL     1      -9.331  -3.039 -42.645  1.00  0.00    -0.394 OA
ATOM     16  H   UNL     1     -10.302  -2.943 -42.461  1.00  0.00     0.210 HD
ENDBRANCH  14  15
ENDBRANCH   9  14
BRANCH  10  17
ATOM     17  O   UNL     1     -10.483  -2.976 -40.046  1.00  0.00    -0.387 OA
ATOM     18  H   UNL     1     -10.223  -3.309 -40.947  1.00  0.00     0.211 HD
ENDBRANCH  10  17
BRANCH  12  19
ATOM     19  O   UNL     1     -12.322  -0.943 -39.832  1.00  0.00    -0.387 OA
ATOM     20  H   UNL     1     -12.531  -1.919 -39.778  1.00  0.00     0.211 HD
ENDBRANCH  12  19
BRANCH  13  21
ATOM     21  O   UNL     1      -9.627   0.937 -38.334  1.00  0.00    -0.385 OA
ATOM     22  H   UNL     1      -9.311   1.875 -38.466  1.00  0.00     0.211 HD
ENDBRANCH  13  21
ENDBRANCH   7   8
ENDBRANCH   1   7
BRANCH   2  23
ATOM     23  C   UNL     1      -9.511   5.950 -40.921  1.00  0.00     0.191 C 
BRANCH  23  24
ATOM     24  O   UNL     1      -9.060   5.646 -42.217  1.00  0.00    -0.394 OA
ATOM     25  H   UNL     1      -8.304   5.004 -42.129  1.00  0.00     0.210 HD
ENDBRANCH  23  24
ENDBRANCH   2  23
BRANCH   6  26
ATOM     26  O   UNL     1     -11.336   3.021 -43.387  1.00  0.00    -0.387 OA
ATOM     27  H   UNL     1     -10.395   3.314 -43.545  1.00  0.00     0.211 HD
ENDBRANCH   6  26
BRANCH   5  28
ATOM     28  O   UNL     1     -13.358   3.206 -40.389  1.00  0.00    -0.385 OA
ATOM     29  H   UNL     1     -14.341   3.362 -40.402  1.00  0.00     0.211 HD
ENDBRANCH   5  28
BRANCH   4  30
ATOM     30  O   UNL     1     -13.707   5.950 -41.201  1.00  0.00    -0.341 OA
BRANCH  30  31
ATOM     31  C   UNL     1     -14.710   5.629 -42.158  1.00  0.00     0.184 C 
ATOM     32  C   UNL     1     -16.083   6.126 -41.644  1.00  0.00     0.178 C 
ATOM     33  C   UNL     1     -14.396   6.311 -43.509  1.00  0.00     0.180 C 
ATOM     34  O   UNL     1     -17.107   5.867 -42.595  1.00  0.00    -0.342 OA
ATOM     35  C   UNL     1     -15.575   6.165 -44.472  1.00  0.00     0.201 C 
ATOM     36  C   UNL     1     -16.898   6.594 -43.790  1.00  0.00     0.279 C 
BRANCH  32  37
ATOM     37  C   UNL     1     -16.468   5.446 -40.320  1.00  0.00     0.191 C 
BRANCH  37  38
ATOM     38  O   UNL     1     -16.017   4.118 -40.275  1.00  0.00    -0.394 OA
ATOM     39  H   UNL     1     -15.069   4.115 -40.561  1.00  0.00     0.210 HD
ENDBRANCH  37  38
ENDBRANCH  32  37
BRANCH  33  40
ATOM     40  O   UNL     1     -14.131   7.681 -43.303  1.00  0.00    -0.387 OA
ATOM     41  H   UNL     1     -13.439   7.939 -43.973  1.00  0.00     0.211 HD
ENDBRANCH  33  40
BRANCH  35  42
ATOM     42  O   UNL     1     -15.681   4.828 -44.895  1.00  0.00    -0.385 OA
ATOM     43  H   UNL     1     -15.287   4.262 -44.181  1.00  0.00     0.211 HD
ENDBRANCH  35  42
BRANCH  36  44
ATOM     44  O   UNL     1     -16.939   7.980 -43.548  1.00  0.00    -0.366 OA
ATOM     45  H   UNL     1     -16.487   8.127 -42.677  1.00  0.00     0.213 HD
ENDBRANCH  36  44
ENDBRANCH  30  31
ENDBRANCH   4  30
TORSDOF 18
ENDMDL
MODEL 3
REMARK VINA RESULT:    -6.568      1.900      3.184
REMARK INTER + INTRA:         -13.135
REMARK INTER:                 -10.896
REMARK INTRA:                  -2.239
REMARK UNBOUND:                -1.767
REMARK SMILES OC[C@@H]1O[C@H](O[C@H]2[C@H](O)[C@@H](O)[C@@H](O[C@@H]3[C@H](O)[C@@H](O)[C@H](O)O[C@H]3CO)O[C@@H]2CO)[C@H](O)[C@@H](O)[C@H]1O
REMARK SMILES IDX 7 1 26 2 25 3 12 4 10 5 8 6 6 7 5 8 3 9 33 10 4 11 31 12
REMARK SMILES IDX 29 13 2 14 1 15 34 17 32 19 30 21 27 23 28 24 9 26 11 28
REMARK SMILES IDX 13 30 14 31 22 32 15 33 21 34 17 35 19 36 23 37 24 38 16 40
REMARK SMILES IDX 18 42 20 44
REMARK H PARENT 1 16 34 18 32 20 30 22 28 25 9 27 11 29 24 39 16 41 18 43
REMARK H PARENT 20 45
REMARK Flexibility Score: inf
ROOT
ATOM      1  C   UNL     1      -9.367   4.072 -41.124  1.00  0.00     0.184 C 
ATOM      2  C   UNL     1     -10.466   4.907 -40.361  1.00  0.00     0.178 C 
ATOM      3  O   UNL     1     -11.640   5.192 -41.105  1.00  0.00    -0.341 OA
ATOM      4  C   UNL     1     -11.355   5.559 -42.442  1.00  0.00     0.282 C 
ATOM      5  C   UNL     1     -10.933   4.293 -43.185  1.00  0.00     0.202 C 
ATOM      6  C   UNL     1      -9.540   3.850 -42.676  1.00  0.00     0.180 C 
ENDROOT
BRANCH   1   7
ATOM      7  O   UNL     1      -8.990   2.879 -40.447  1.00  0.00    -0.341 OA
BRANCH   7   8
ATOM      8  C   UNL     1      -9.651   1.691 -40.879  1.00  0.00     0.282 C 
ATOM      9  C   UNL     1      -9.338  -0.566 -41.378  1.00  0.00     0.178 C 
ATOM     10  C   UNL     1     -10.281  -1.067 -40.264  1.00  0.00     0.177 C 
ATOM     11  O   UNL     1      -8.709   0.628 -40.944  1.00  0.00    -0.341 OA
ATOM     12  C   UNL     1     -11.370  -0.015 -40.012  1.00  0.00     0.179 C 
ATOM     13  C   UNL     1     -10.742   1.379 -39.810  1.00  0.00     0.202 C 
BRANCH   9  14
ATOM     14  C   UNL     1      -8.252  -1.590 -41.711  1.00  0.00     0.191 C 
BRANCH  14  15
ATOM     15  O   UNL     1      -8.708  -2.479 -42.699  1.00  0.00    -0.394 OA
ATOM     16  H   UNL     1      -9.546  -2.093 -43.066  1.00  0.00     0.210 HD
ENDBRANCH  14  15
ENDBRANCH   9  14
BRANCH  10  17
ATOM     17  O   UNL     1     -10.875  -2.291 -40.634  1.00  0.00    -0.387 OA
ATOM     18  H   UNL     1     -11.114  -2.773 -39.796  1.00  0.00     0.211 HD
ENDBRANCH  10  17
BRANCH  12  19
ATOM     19  O   UNL     1     -12.271   0.034 -41.090  1.00  0.00    -0.387 OA
ATOM     20  H   UNL     1     -13.076   0.518 -40.752  1.00  0.00     0.211 HD
ENDBRANCH  12  19
BRANCH  13  21
ATOM     21  O   UNL     1     -10.169   1.450 -38.516  1.00  0.00    -0.385 OA
ATOM     22  H   UNL     1      -9.190   1.286 -38.615  1.00  0.00     0.211 HD
ENDBRANCH  13  21
ENDBRANCH   7   8
ENDBRANCH   1   7
BRANCH   2  23
ATOM     23  C   UNL     1      -9.922   6.211 -39.735  1.00  0.00     0.191 C 
BRANCH  23  24
ATOM     24  O   UNL     1     -10.865   6.742 -38.838  1.00  0.00    -0.394 OA
ATOM     25  H   UNL     1     -11.174   7.612 -39.207  1.00  0.00     0.210 HD
ENDBRANCH  23  24
ENDBRANCH   2  23
BRANCH   6  26
ATOM     26  O   UNL     1      -8.490   4.515 -43.349  1.00  0.00    -0.387 OA
ATOM     27  H   UNL     1      -8.768   5.452 -43.549  1.00  0.00     0.211 HD
ENDBRANCH   6  26
BRANCH   5  28
ATOM     28  O   UNL     1     -11.867   3.277 -42.933  1.00  0.00    -0.385 OA
ATOM     29  H   UNL     1     -12.659   3.477 -43.500  1.00  0.00     0.211 HD
ENDBRANCH   5  28
BRANCH   4  30
ATOM     30  O   UNL     1     -12.543   6.078 -43.021  1.00  0.00    -0.341 OA
BRANCH  30  31
ATOM     31  C   UNL     1     -13.606   6.182 -42.081  1.00  0.00     0.184 C 
ATOM     32  C   UNL     1     -14.246   7.588 -42.186  1.00  0.00     0.178 C 
ATOM     33  C   UNL     1     -14.681   5.111 -42.371  1.00  0.00     0.180 C 
ATOM     34  O   UNL     1     -15.345   7.716 -41.294  1.00  0.00    -0.342 OA
ATOM     35  C   UNL     1     -15.928   5.355 -41.519  1.00  0.00     0.201 C 
ATOM     36  C   UNL     1     -16.392   6.828 -41.636  1.00  0.00     0.279 C 
BRANCH  32  37
ATOM     37  C   UNL     1     -13.229   8.695 -41.863  1.00  0.00     0.191 C 
BRANCH  37  38
ATOM     38  O   UNL     1     -12.409   8.338 -40.781  1.00  0.00    -0.394 OA
ATOM     39  H   UNL     1     -12.854   8.649 -39.953  1.00  0.00     0.210 HD
ENDBRANCH  37  38
ENDBRANCH  32  37
BRANCH  33  40
ATOM     40  O   UNL     1     -15.036   5.148 -43.735  1.00  0.00    -0.387 OA
ATOM     41  H   UNL     1     -15.317   6.085 -43.930  1.00  0.00     0.211 HD
ENDBRANCH  33  40
BRANCH  35  42
ATOM     42  O   UNL     1     -15.649   5.059 -40.173  1.00  0.00    -0.385 OA
ATOM     43  H   UNL     1     -16.103   4.202 -39.962  1.00  0.00     0.211 HD
ENDBRANCH  35  42
BRANCH  36  44
ATOM     44  O   UNL     1     -16.899   7.120 -42.916  1.00  0.00    -0.366 OA
ATOM     45  H   UNL     1     -16.141   7.482 -43.442  1.00  0.00     0.213 HD
ENDBRANCH  36  44
ENDBRANCH  30  31
ENDBRANCH   4  30
TORSDOF 18
ENDMDL
MODEL 4
REMARK VINA RESULT:    -6.489      2.196      9.053
REMARK INTER + INTRA:         -12.997
REMARK INTER:                 -11.327
REMARK INTRA:                  -1.670
REMARK UNBOUND:                -1.767
REMARK SMILES OC[C@@H]1O[C@H](O[C@H]2[C@H](O)[C@@H](O)[C@@H](O[C@@H]3[C@H](O)[C@@H](O)[C@H](O)O[C@H]3CO)O[C@@H]2CO)[C@H](O)[C@@H](O)[C@H]1O
REMARK SMILES IDX 7 1 26 2 25 3 12 4 10 5 8 6 6 7 5 8 3 9 33 10 4 11 31 12
REMARK SMILES IDX 29 13 2 14 1 15 34 17 32 19 30 21 27 23 28 24 9 26 11 28
REMARK SMILES IDX 13 30 14 31 22 32 15 33 21 34 17 35 19 36 23 37 24 38 16 40
REMARK SMILES IDX 18 42 20 44
REMARK H PARENT 1 16 34 18 32 20 30 22 28 25 9 27 11 29 24 39 16 41 18 43
REMARK H PARENT 20 45
REMARK Flexibility Score: inf
ROOT
ATOM      1  C   UNL     1     -12.837   5.536 -40.816  1.00  0.00     0.184 C 
ATOM      2  C   UNL     1     -11.355   5.637 -40.285  1.00  0.00     0.178 C 
ATOM      3  O   UNL     1     -10.564   4.473 -40.464  1.00  0.00    -0.341 OA
ATOM      4  C   UNL     1     -11.278   3.286 -40.177  1.00  0.00     0.282 C 
ATOM      5  C   UNL     1     -12.261   3.054 -41.324  1.00  0.00     0.202 C 
ATOM      6  C   UNL     1     -13.380   4.121 -41.252  1.00  0.00     0.180 C 
ENDROOT
BRANCH   1   7
ATOM      7  O   UNL     1     -13.175   6.556 -41.750  1.00  0.00    -0.341 OA
BRANCH   7   8
ATOM      8  C   UNL     1     -14.553   6.624 -42.113  1.00  0.00     0.282 C 
ATOM      9  C   UNL     1     -16.729   6.377 -41.310  1.00  0.00     0.178 C 
ATOM     10  C   UNL     1     -17.121   7.846 -41.572  1.00  0.00     0.177 C 
ATOM     11  O   UNL     1     -15.352   6.322 -40.977  1.00  0.00    -0.341 OA
ATOM     12  C   UNL     1     -16.317   8.379 -42.765  1.00  0.00     0.179 C 
ATOM     13  C   UNL     1     -14.813   8.088 -42.580  1.00  0.00     0.202 C 
BRANCH   9  14
ATOM     14  C   UNL     1     -17.529   5.768 -40.158  1.00  0.00     0.191 C 
BRANCH  14  15
ATOM     15  O   UNL     1     -18.114   6.782 -39.382  1.00  0.00    -0.394 OA
ATOM     16  H   UNL     1     -18.644   6.330 -38.673  1.00  0.00     0.210 HD
ENDBRANCH  14  15
ENDBRANCH   9  14
BRANCH  10  17
ATOM     17  O   UNL     1     -18.501   7.948 -41.842  1.00  0.00    -0.387 OA
ATOM     18  H   UNL     1     -18.856   7.023 -41.938  1.00  0.00     0.211 HD
ENDBRANCH  10  17
BRANCH  12  19
ATOM     19  O   UNL     1     -16.759   7.792 -43.963  1.00  0.00    -0.387 OA
ATOM     20  H   UNL     1     -17.627   8.236 -44.182  1.00  0.00     0.211 HD
ENDBRANCH  12  19
BRANCH  13  21
ATOM     21  O   UNL     1     -14.277   8.991 -41.629  1.00  0.00    -0.385 OA
ATOM     22  H   UNL     1     -14.747   9.863 -41.749  1.00  0.00     0.211 HD
ENDBRANCH  13  21
ENDBRANCH   7   8
ENDBRANCH   1   7
BRANCH   2  23
ATOM     23  C   UNL     1     -11.259   6.105 -38.815  1.00  0.00     0.191 C 
BRANCH  23  24
ATOM     24  O   UNL     1     -11.389   7.503 -38.748  1.00  0.00    -0.394 OA
ATOM     25  H   UNL     1     -10.783   7.827 -38.029  1.00  0.00     0.210 HD
ENDBRANCH  23  24
ENDBRANCH   2  23
BRANCH   6  26
ATOM     26  O   UNL     1     -14.420   3.744 -40.373  1.00  0.00    -0.387 OA
ATOM     27  H   UNL     1     -14.682   4.530 -39.816  1.00  0.00     0.211 HD
ENDBRANCH   6  26
BRANCH   5  28
ATOM     28  O   UNL     1     -11.581   3.173 -42.545  1.00  0.00    -0.385 OA
ATOM     29  H   UNL     1     -12.276   3.325 -43.240  1.00  0.00     0.211 HD
ENDBRANCH   5  28
BRANCH   4  30
ATOM     30  O   UNL     1     -10.349   2.213 -40.121  1.00  0.00    -0.341 OA
BRANCH  30  31
ATOM     31  C   UNL     1     -10.614   1.321 -39.044  1.00  0.00     0.184 C 
ATOM     32  C   UNL     1     -10.432  -0.137 -39.532  1.00  0.00     0.178 C 
ATOM     33  C   UNL     1      -9.639   1.592 -37.876  1.00  0.00     0.180 C 
ATOM     34  O   UNL     1     -10.640  -1.059 -38.471  1.00  0.00    -0.342 OA
ATOM     35  C   UNL     1      -9.758   0.500 -36.812  1.00  0.00     0.201 C 
ATOM     36  C   UNL     1      -9.667  -0.906 -37.455  1.00  0.00     0.279 C 
BRANCH  32  37
ATOM     37  C   UNL     1     -11.410  -0.477 -40.668  1.00  0.00     0.191 C 
BRANCH  37  38
ATOM     38  O   UNL     1     -10.979   0.058 -41.892  1.00  0.00    -0.394 OA
ATOM     39  H   UNL     1     -10.728   1.003 -41.734  1.00  0.00     0.210 HD
ENDBRANCH  37  38
ENDBRANCH  32  37
BRANCH  33  40
ATOM     40  O   UNL     1      -8.314   1.629 -38.358  1.00  0.00    -0.387 OA
ATOM     41  H   UNL     1      -8.018   2.580 -38.298  1.00  0.00     0.211 HD
ENDBRANCH  33  40
BRANCH  35  42
ATOM     42  O   UNL     1     -10.985   0.626 -36.136  1.00  0.00    -0.385 OA
ATOM     43  H   UNL     1     -11.487   1.361 -36.575  1.00  0.00     0.211 HD
ENDBRANCH  35  42
BRANCH  36  44
ATOM     44  O   UNL     1      -8.378  -1.175 -37.951  1.00  0.00    -0.366 OA
ATOM     45  H   UNL     1      -8.188  -2.124 -37.737  1.00  0.00     0.213 HD
ENDBRANCH  36  44
ENDBRANCH  30  31
ENDBRANCH   4  30
TORSDOF 18
ENDMDL
MODEL 5
REMARK VINA RESULT:    -6.464      1.205      1.295
REMARK INTER + INTRA:         -12.955
REMARK INTER:                 -11.447
REMARK INTRA:                  -1.508
REMARK UNBOUND:                -1.767
REMARK SMILES OC[C@@H]1O[C@H](O[C@H]2[C@H](O)[C@@H](O)[C@@H](O[C@@H]3[C@H](O)[C@@H](O)[C@H](O)O[C@H]3CO)O[C@@H]2CO)[C@H](O)[C@@H](O)[C@H]1O
REMARK SMILES IDX 7 1 26 2 25 3 12 4 10 5 8 6 6 7 5 8 3 9 33 10 4 11 31 12
REMARK SMILES IDX 29 13 2 14 1 15 34 17 32 19 30 21 27 23 28 24 9 26 11 28
REMARK SMILES IDX 13 30 14 31 22 32 15 33 21 34 17 35 19 36 23 37 24 38 16 40
REMARK SMILES IDX 18 42 20 44
REMARK H PARENT 1 16 34 18 32 20 30 22 28 25 9 27 11 29 24 39 16 41 18 43
REMARK H PARENT 20 45
REMARK Flexibility Score: inf
ROOT
ATOM      1  C   UNL     1     -10.731   3.272 -41.564  1.00  0.00     0.184 C 
ATOM      2  C   UNL     1     -11.054   4.687 -42.183  1.00  0.00     0.178 C 
ATOM      3  O   UNL     1     -12.107   5.399 -41.556  1.00  0.00    -0.341 OA
ATOM      4  C   UNL     1     -13.204   4.566 -41.231  1.00  0.00     0.282 C 
ATOM      5  C   UNL     1     -12.789   3.706 -40.039  1.00  0.00     0.202 C 
ATOM      6  C   UNL     1     -11.735   2.673 -40.506  1.00  0.00     0.180 C 
ENDROOT
BRANCH   1   7
ATOM      7  O   UNL     1      -9.373   3.123 -41.166  1.00  0.00    -0.341 OA
BRANCH   7   8
ATOM      8  C   UNL     1      -9.036   1.862 -40.590  1.00  0.00     0.282 C 
ATOM      9  C   UNL     1      -9.117  -0.445 -40.921  1.00  0.00     0.178 C 
ATOM     10  C   UNL     1      -7.584  -0.620 -40.924  1.00  0.00     0.177 C 
ATOM     11  O   UNL     1      -9.435   0.822 -41.472  1.00  0.00    -0.341 OA
ATOM     12  C   UNL     1      -6.950   0.461 -40.038  1.00  0.00     0.179 C 
ATOM     13  C   UNL     1      -7.487   1.857 -40.417  1.00  0.00     0.202 C 
BRANCH   9  14
ATOM     14  C   UNL     1      -9.817  -1.521 -41.751  1.00  0.00     0.191 C 
BRANCH  14  15
ATOM     15  O   UNL     1      -8.887  -2.194 -42.561  1.00  0.00    -0.394 OA
ATOM     16  H   UNL     1      -9.035  -1.876 -43.491  1.00  0.00     0.210 HD
ENDBRANCH  14  15
ENDBRANCH   9  14
BRANCH  10  17
ATOM     17  O   UNL     1      -7.233  -1.898 -40.443  1.00  0.00    -0.387 OA
ATOM     18  H   UNL     1      -8.050  -2.303 -40.045  1.00  0.00     0.211 HD
ENDBRANCH  10  17
BRANCH  12  19
ATOM     19  O   UNL     1      -7.222   0.213 -38.681  1.00  0.00    -0.387 OA
ATOM     20  H   UNL     1      -8.072  -0.312 -38.664  1.00  0.00     0.211 HD
ENDBRANCH  12  19
BRANCH  13  21
ATOM     21  O   UNL     1      -6.875   2.280 -41.623  1.00  0.00    -0.385 OA
ATOM     22  H   UNL     1      -7.551   2.812 -42.128  1.00  0.00     0.211 HD
ENDBRANCH  13  21
ENDBRANCH   7   8
ENDBRANCH   1   7
BRANCH   2  23
ATOM     23  C   UNL     1     -11.292   4.650 -43.710  1.00  0.00     0.191 C 
BRANCH  23  24
ATOM     24  O   UNL     1     -11.434   3.319 -44.141  1.00  0.00    -0.394 OA
ATOM     25  H   UNL     1     -12.407   3.134 -44.229  1.00  0.00     0.210 HD
ENDBRANCH  23  24
ENDBRANCH   2  23
BRANCH   6  26
ATOM     26  O   UNL     1     -12.330   1.513 -41.050  1.00  0.00    -0.387 OA
ATOM     27  H   UNL     1     -13.214   1.360 -40.612  1.00  0.00     0.211 HD
ENDBRANCH   6  26
BRANCH   5  28
ATOM     28  O   UNL     1     -12.230   4.529 -39.049  1.00  0.00    -0.385 OA
ATOM     29  H   UNL     1     -12.809   4.432 -38.245  1.00  0.00     0.211 HD
ENDBRANCH   5  28
BRANCH   4  30
ATOM     30  O   UNL     1     -14.297   5.396 -40.863  1.00  0.00    -0.341 OA
BRANCH  30  31
ATOM     31  C   UNL     1     -15.335   5.390 -41.836  1.00  0.00     0.184 C 
ATOM     32  C   UNL     1     -16.692   5.140 -41.133  1.00  0.00     0.178 C 
ATOM     33  C   UNL     1     -15.385   6.749 -42.570  1.00  0.00     0.180 C 
ATOM     34  O   UNL     1     -17.763   5.175 -42.066  1.00  0.00    -0.342 OA
ATOM     35  C   UNL     1     -16.632   6.839 -43.450  1.00  0.00     0.201 C 
ATOM     36  C   UNL     1     -17.900   6.458 -42.647  1.00  0.00     0.279 C 
BRANCH  32  37
ATOM     37  C   UNL     1     -16.714   3.779 -40.421  1.00  0.00     0.191 C 
BRANCH  37  38
ATOM     38  O   UNL     1     -18.001   3.219 -40.425  1.00  0.00    -0.394 OA
ATOM     39  H   UNL     1     -18.332   3.236 -41.358  1.00  0.00     0.210 HD
ENDBRANCH  37  38
ENDBRANCH  32  37
BRANCH  33  40
ATOM     40  O   UNL     1     -15.403   7.800 -41.630  1.00  0.00    -0.387 OA
ATOM     41  H   UNL     1     -15.042   8.604 -42.098  1.00  0.00     0.211 HD
ENDBRANCH  33  40
BRANCH  35  42
ATOM     42  O   UNL     1     -16.501   5.974 -44.552  1.00  0.00    -0.385 OA
ATOM     43  H   UNL     1     -15.634   5.501 -44.451  1.00  0.00     0.211 HD
ENDBRANCH  35  42
BRANCH  36  44
ATOM     44  O   UNL     1     -18.211   7.420 -41.668  1.00  0.00    -0.366 OA
ATOM     45  H   UNL     1     -18.493   8.236 -42.156  1.00  0.00     0.213 HD
ENDBRANCH  36  44
ENDBRANCH  30  31
ENDBRANCH   4  30
TORSDOF 18
ENDMDL
MODEL 6
REMARK VINA RESULT:    -6.390      1.953      8.342
REMARK INTER + INTRA:         -12.826
REMARK INTER:                 -10.613
REMARK INTRA:                  -2.213
REMARK UNBOUND:                -1.767
REMARK SMILES OC[C@@H]1O[C@H](O[C@H]2[C@H](O)[C@@H](O)[C@@H](O[C@@H]3[C@H](O)[C@@H](O)[C@H](O)O[C@H]3CO)O[C@@H]2CO)[C@H](O)[C@@H](O)[C@H]1O
REMARK SMILES IDX 7 1 26 2 25 3 12 4 10 5 8 6 6 7 5 8 3 9 33 10 4 11 31 12
REMARK SMILES IDX 29 13 2 14 1 15 34 17 32 19 30 21 27 23 28 24 9 26 11 28
REMARK SMILES IDX 13 30 14 31 22 32 15 33 21 34 17 35 19 36 23 37 24 38 16 40
REMARK SMILES IDX 18 42 20 44
REMARK H PARENT 1 16 34 18 32 20 30 22 28 25 9 27 11 29 24 39 16 41 18 43
REMARK H PARENT 20 45
REMARK Flexibility Score: inf
ROOT
ATOM      1  C   UNL     1     -12.021   6.669 -41.688  1.00  0.00     0.184 C 
ATOM      2  C   UNL     1     -11.286   5.469 -42.401  1.00  0.00     0.178 C 
ATOM      3  O   UNL     1     -10.845   4.430 -41.542  1.00  0.00    -0.341 OA
ATOM      4  C   UNL     1     -10.272   4.925 -40.346  1.00  0.00     0.282 C 
ATOM      5  C   UNL     1     -11.413   5.450 -39.476  1.00  0.00     0.202 C 
ATOM      6  C   UNL     1     -11.979   6.742 -40.114  1.00  0.00     0.180 C 
ENDROOT
BRANCH   1   7
ATOM      7  O   UNL     1     -13.321   6.926 -42.207  1.00  0.00    -0.341 OA
BRANCH   7   8
ATOM      8  C   UNL     1     -14.404   6.405 -41.438  1.00  0.00     0.282 C 
ATOM      9  C   UNL     1     -16.581   6.829 -40.718  1.00  0.00     0.178 C 
ATOM     10  C   UNL     1     -17.187   5.609 -41.441  1.00  0.00     0.177 C 
ATOM     11  O   UNL     1     -15.491   7.320 -41.480  1.00  0.00    -0.341 OA
ATOM     12  C   UNL     1     -16.130   4.500 -41.533  1.00  0.00     0.179 C 
ATOM     13  C   UNL     1     -14.809   5.055 -42.105  1.00  0.00     0.202 C 
BRANCH   9  14
ATOM     14  C   UNL     1     -17.599   7.959 -40.551  1.00  0.00     0.191 C 
BRANCH  14  15
ATOM     15  O   UNL     1     -18.096   7.976 -39.236  1.00  0.00    -0.394 OA
ATOM     16  H   UNL     1     -18.458   8.887 -39.080  1.00  0.00     0.210 HD
ENDBRANCH  14  15
ENDBRANCH   9  14
BRANCH  10  17
ATOM     17  O   UNL     1     -18.317   5.134 -40.744  1.00  0.00    -0.387 OA
ATOM     18  H   UNL     1     -18.141   4.185 -40.499  1.00  0.00     0.211 HD
ENDBRANCH  10  17
BRANCH  12  19
ATOM     19  O   UNL     1     -15.887   3.939 -40.267  1.00  0.00    -0.387 OA
ATOM     20  H   UNL     1     -16.684   3.372 -40.062  1.00  0.00     0.211 HD
ENDBRANCH  12  19
BRANCH  13  21
ATOM     21  O   UNL     1     -14.948   5.242 -43.502  1.00  0.00    -0.385 OA
ATOM     22  H   UNL     1     -14.982   4.336 -43.921  1.00  0.00     0.211 HD
ENDBRANCH  13  21
ENDBRANCH   7   8
ENDBRANCH   1   7
BRANCH   2  23
ATOM     23  C   UNL     1     -10.121   5.915 -43.313  1.00  0.00     0.191 C 
BRANCH  23  24
ATOM     24  O   UNL     1      -9.652   4.822 -44.061  1.00  0.00    -0.394 OA
ATOM     25  H   UNL     1      -9.243   5.182 -44.894  1.00  0.00     0.210 HD
ENDBRANCH  23  24
ENDBRANCH   2  23
BRANCH   6  26
ATOM     26  O   UNL     1     -11.248   7.889 -39.732  1.00  0.00    -0.387 OA
ATOM     27  H   UNL     1     -11.478   8.128 -38.790  1.00  0.00     0.211 HD
ENDBRANCH   6  26
BRANCH   5  28
ATOM     28  O   UNL     1     -12.425   4.481 -39.407  1.00  0.00    -0.385 OA
ATOM     29  H   UNL     1     -12.259   3.849 -40.158  1.00  0.00     0.211 HD
ENDBRANCH   5  28
BRANCH   4  30
ATOM     30  O   UNL     1      -9.626   3.847 -39.685  1.00  0.00    -0.341 OA
BRANCH  30  31
ATOM     31  C   UNL     1      -9.664   2.643 -40.444  1.00  0.00     0.184 C 
ATOM     32  C   UNL     1      -8.246   2.022 -40.485  1.00  0.00     0.178 C 
ATOM     33  C   UNL     1     -10.642   1.637 -39.798  1.00  0.00     0.180 C 
ATOM     34  O   UNL     1      -8.251   0.790 -41.195  1.00  0.00    -0.342 OA
ATOM     35  C   UNL     1     -10.521   0.265 -40.465  1.00  0.00     0.201 C 
ATOM     36  C   UNL     1      -9.040  -0.182 -40.536  1.00  0.00     0.279 C 
BRANCH  32  37
ATOM     37  C   UNL     1      -7.237   2.965 -41.159  1.00  0.00     0.191 C 
BRANCH  37  38
ATOM     38  O   UNL     1      -7.810   3.632 -42.253  1.00  0.00    -0.394 OA
ATOM     39  H   UNL     1      -7.077   4.071 -42.753  1.00  0.00     0.210 HD
ENDBRANCH  37  38
ENDBRANCH  32  37
BRANCH  33  40
ATOM     40  O   UNL     1     -10.359   1.510 -38.422  1.00  0.00    -0.387 OA
ATOM     41  H   UNL     1      -9.465   1.929 -38.277  1.00  0.00     0.211 HD
ENDBRANCH  33  40
BRANCH  35  42
ATOM     42  O   UNL     1     -11.055   0.320 -41.765  1.00  0.00    -0.385 OA
ATOM     43  H   UNL     1     -11.427  -0.577 -41.967  1.00  0.00     0.211 HD
ENDBRANCH  35  42
BRANCH  36  44
ATOM     44  O   UNL     1      -8.517  -0.473 -39.262  1.00  0.00    -0.366 OA
ATOM     45  H   UNL     1      -9.042  -1.237 -38.911  1.00  0.00     0.213 HD
ENDBRANCH  36  44
ENDBRANCH  30  31
ENDBRANCH   4  30
TORSDOF 18
ENDMDL
MODEL 7
REMARK VINA RESULT:    -6.376      1.951      2.880
REMARK INTER + INTRA:         -12.802
REMARK INTER:                 -10.416
REMARK INTRA:                  -2.387
REMARK UNBOUND:                -1.767
REMARK SMILES OC[C@@H]1O[C@H](O[C@H]2[C@H](O)[C@@H](O)[C@@H](O[C@@H]3[C@H](O)[C@@H](O)[C@H](O)O[C@H]3CO)O[C@@H]2CO)[C@H](O)[C@@H](O)[C@H]1O
REMARK SMILES IDX 7 1 26 2 25 3 12 4 10 5 8 6 6 7 5 8 3 9 33 10 4 11 31 12
REMARK SMILES IDX 29 13 2 14 1 15 34 17 32 19 30 21 27 23 28 24 9 26 11 28
REMARK SMILES IDX 13 30 14 31 22 32 15 33 21 34 17 35 19 36 23 37 24 38 16 40
REMARK SMILES IDX 18 42 20 44
REMARK H PARENT 1 16 34 18 32 20 30 22 28 25 9 27 11 29 24 39 16 41 18 43
REMARK H PARENT 20 45
REMARK Flexibility Score: inf
ROOT
ATOM      1  C   UNL     1     -11.014   4.655 -41.205  1.00  0.00     0.184 C 
ATOM      2  C   UNL     1     -11.128   5.265 -42.655  1.00  0.00     0.178 C 
ATOM      3  O   UNL     1     -12.029   6.353 -42.788  1.00  0.00    -0.341 OA
ATOM      4  C   UNL     1     -13.232   6.148 -42.072  1.00  0.00     0.282 C 
ATOM      5  C   UNL     1     -12.915   6.314 -40.587  1.00  0.00     0.202 C 
ATOM      6  C   UNL     1     -12.059   5.113 -40.117  1.00  0.00     0.180 C 
ENDROOT
BRANCH   1   7
ATOM      7  O   UNL     1      -9.683   4.636 -40.702  1.00  0.00    -0.341 OA
BRANCH   7   8
ATOM      8  C   UNL     1      -9.228   3.374 -40.215  1.00  0.00     0.282 C 
ATOM      9  C   UNL     1      -9.687   1.088 -40.186  1.00  0.00     0.178 C 
ATOM     10  C   UNL     1      -8.384   0.694 -40.912  1.00  0.00     0.177 C 
ATOM     11  O   UNL     1     -10.112   2.354 -40.660  1.00  0.00    -0.341 OA
ATOM     12  C   UNL     1      -7.292   1.720 -40.583  1.00  0.00     0.179 C 
ATOM     13  C   UNL     1      -7.807   3.155 -40.818  1.00  0.00     0.202 C 
BRANCH   9  14
ATOM     14  C   UNL     1     -10.808   0.078 -40.435  1.00  0.00     0.191 C 
BRANCH  14  15
ATOM     15  O   UNL     1     -11.658   0.536 -41.457  1.00  0.00    -0.394 OA
ATOM     16  H   UNL     1     -12.588   0.404 -41.135  1.00  0.00     0.210 HD
ENDBRANCH  14  15
ENDBRANCH   9  14
BRANCH  10  17
ATOM     17  O   UNL     1      -7.966  -0.592 -40.513  1.00  0.00    -0.387 OA
ATOM     18  H   UNL     1      -8.441  -1.253 -41.087  1.00  0.00     0.211 HD
ENDBRANCH  10  17
BRANCH  12  19
ATOM     19  O   UNL     1      -6.875   1.591 -39.246  1.00  0.00    -0.387 OA
ATOM     20  H   UNL     1      -7.239   0.715 -38.930  1.00  0.00     0.211 HD
ENDBRANCH  12  19
BRANCH  13  21
ATOM     21  O   UNL     1      -7.838   3.418 -42.209  1.00  0.00    -0.385 OA
ATOM     22  H   UNL     1      -6.948   3.162 -42.580  1.00  0.00     0.211 HD
ENDBRANCH  13  21
ENDBRANCH   7   8
ENDBRANCH   1   7
BRANCH   2  23
ATOM     23  C   UNL     1     -11.428   4.210 -43.743  1.00  0.00     0.191 C 
BRANCH  23  24
ATOM     24  O   UNL     1     -11.246   2.917 -43.221  1.00  0.00    -0.394 OA
ATOM     25  H   UNL     1     -10.783   2.376 -43.915  1.00  0.00     0.210 HD
ENDBRANCH  23  24
ENDBRANCH   2  23
BRANCH   6  26
ATOM     26  O   UNL     1     -12.853   4.002 -39.754  1.00  0.00    -0.387 OA
ATOM     27  H   UNL     1     -13.814   4.218 -39.915  1.00  0.00     0.211 HD
ENDBRANCH   6  26
BRANCH   5  28
ATOM     28  O   UNL     1     -12.194   7.503 -40.400  1.00  0.00    -0.385 OA
ATOM     29  H   UNL     1     -11.677   7.388 -39.557  1.00  0.00     0.211 HD
ENDBRANCH   5  28
BRANCH   4  30
ATOM     30  O   UNL     1     -14.163   7.142 -42.475  1.00  0.00    -0.341 OA
BRANCH  30  31
ATOM     31  C   UNL     1     -15.308   7.187 -41.633  1.00  0.00     0.184 C 
ATOM     32  C   UNL     1     -16.137   8.452 -41.966  1.00  0.00     0.178 C 
ATOM     33  C   UNL     1     -16.183   5.933 -41.857  1.00  0.00     0.180 C 
ATOM     34  O   UNL     1     -17.318   8.509 -41.178  1.00  0.00    -0.342 OA
ATOM     35  C   UNL     1     -17.524   6.076 -41.134  1.00  0.00     0.201 C 
ATOM     36  C   UNL     1     -18.188   7.433 -41.474  1.00  0.00     0.279 C 
BRANCH  32  37
ATOM     37  C   UNL     1     -15.328   9.736 -41.719  1.00  0.00     0.191 C 
BRANCH  37  38
ATOM     38  O   UNL     1     -14.120   9.462 -41.061  1.00  0.00    -0.394 OA
ATOM     39  H   UNL     1     -13.406   9.428 -41.747  1.00  0.00     0.210 HD
ENDBRANCH  37  38
ENDBRANCH  32  37
BRANCH  33  40
ATOM     40  O   UNL     1     -16.417   5.752 -43.235  1.00  0.00    -0.387 OA
ATOM     41  H   UNL     1     -16.735   4.813 -43.348  1.00  0.00     0.211 HD
ENDBRANCH  33  40
BRANCH  35  42
ATOM     42  O   UNL     1     -17.326   5.988 -39.744  1.00  0.00    -0.385 OA
ATOM     43  H   UNL     1     -16.365   5.793 -39.596  1.00  0.00     0.211 HD
ENDBRANCH  35  42
BRANCH  36  44
ATOM     44  O   UNL     1     -18.616   7.488 -42.813  1.00  0.00    -0.366 OA
ATOM     45  H   UNL     1     -19.468   6.982 -42.857  1.00  0.00     0.213 HD
ENDBRANCH  36  44
ENDBRANCH  30  31
ENDBRANCH   4  30
TORSDOF 18
ENDMDL
MODEL 8
REMARK VINA RESULT:    -6.218      1.521      8.338
REMARK INTER + INTRA:         -12.528
REMARK INTER:                 -10.224
REMARK INTRA:                  -2.304
REMARK UNBOUND:                -1.767
REMARK SMILES OC[C@@H]1O[C@H](O[C@H]2[C@H](O)[C@@H](O)[C@@H](O[C@@H]3[C@H](O)[C@@H](O)[C@H](O)O[C@H]3CO)O[C@@H]2CO)[C@H](O)[C@@H](O)[C@H]1O
REMARK SMILES IDX 7 1 26 2 25 3 12 4 10 5 8 6 6 7 5 8 3 9 33 10 4 11 31 12
REMARK SMILES IDX 29 13 2 14 1 15 34 17 32 19 30 21 27 23 28 24 9 26 11 28
REMARK SMILES IDX 13 30 14 31 22 32 15 33 21 34 17 35 19 36 23 37 24 38 16 40
REMARK SMILES IDX 18 42 20 44
REMARK H PARENT 1 16 34 18 32 20 30 22 28 25 9 27 11 29 24 39 16 41 18 43
REMARK H PARENT 20 45
REMARK Flexibility Score: inf
ROOT
ATOM      1  C   UNL     1     -10.814   5.129 -41.305  1.00  0.00     0.184 C 
ATOM      2  C   UNL     1     -10.561   4.299 -42.623  1.00  0.00     0.178 C 
ATOM      3  O   UNL     1     -10.827   2.909 -42.527  1.00  0.00    -0.341 OA
ATOM      4  C   UNL     1     -10.365   2.354 -41.310  1.00  0.00     0.282 C 
ATOM      5  C   UNL     1     -11.306   2.829 -40.203  1.00  0.00     0.202 C 
ATOM      6  C   UNL     1     -11.082   4.341 -39.966  1.00  0.00     0.180 C 
ENDROOT
BRANCH   1   7
ATOM      7  O   UNL     1     -11.716   6.215 -41.484  1.00  0.00    -0.341 OA
BRANCH   7   8
ATOM      8  C   UNL     1     -12.970   5.881 -42.078  1.00  0.00     0.282 C 
ATOM      9  C   UNL     1     -15.135   5.144 -41.623  1.00  0.00     0.178 C 
ATOM     10  C   UNL     1     -15.812   6.425 -42.154  1.00  0.00     0.177 C 
ATOM     11  O   UNL     1     -13.880   5.487 -41.060  1.00  0.00    -0.341 OA
ATOM     12  C   UNL     1     -14.942   7.036 -43.260  1.00  0.00     0.179 C 
ATOM     13  C   UNL     1     -13.480   7.172 -42.787  1.00  0.00     0.202 C 
BRANCH   9  14
ATOM     14  C   UNL     1     -15.975   4.457 -40.545  1.00  0.00     0.191 C 
BRANCH  14  15
ATOM     15  O   UNL     1     -16.666   5.414 -39.783  1.00  0.00    -0.394 OA
ATOM     16  H   UNL     1     -17.040   6.074 -40.423  1.00  0.00     0.210 HD
ENDBRANCH  14  15
ENDBRANCH   9  14
BRANCH  10  17
ATOM     17  O   UNL     1     -17.094   6.131 -42.662  1.00  0.00    -0.387 OA
ATOM     18  H   UNL     1     -17.656   6.944 -42.546  1.00  0.00     0.211 HD
ENDBRANCH  10  17
BRANCH  12  19
ATOM     19  O   UNL     1     -14.981   6.241 -44.419  1.00  0.00    -0.387 OA
ATOM     20  H   UNL     1     -14.046   5.918 -44.561  1.00  0.00     0.211 HD
ENDBRANCH  12  19
BRANCH  13  21
ATOM     21  O   UNL     1     -13.378   8.271 -41.898  1.00  0.00    -0.385 OA
ATOM     22  H   UNL     1     -13.581   9.096 -42.421  1.00  0.00     0.211 HD
ENDBRANCH  13  21
ENDBRANCH   7   8
ENDBRANCH   1   7
BRANCH   2  23
ATOM     23  C   UNL     1      -9.154   4.516 -43.224  1.00  0.00     0.191 C 
BRANCH  23  24
ATOM     24  O   UNL     1      -9.169   4.216 -44.598  1.00  0.00    -0.394 OA
ATOM     25  H   UNL     1      -8.741   4.976 -45.075  1.00  0.00     0.210 HD
ENDBRANCH  23  24
ENDBRANCH   2  23
BRANCH   6  26
ATOM     26  O   UNL     1     -10.016   4.589 -39.072  1.00  0.00    -0.387 OA
ATOM     27  H   UNL     1     -10.028   5.550 -38.803  1.00  0.00     0.211 HD
ENDBRANCH   6  26
BRANCH   5  28
ATOM     28  O   UNL     1     -12.633   2.609 -40.602  1.00  0.00    -0.385 OA
ATOM     29  H   UNL     1     -12.695   1.649 -40.855  1.00  0.00     0.211 HD
ENDBRANCH   5  28
BRANCH   4  30
ATOM     30  O   UNL     1     -10.428   0.939 -41.416  1.00  0.00    -0.341 OA
BRANCH  30  31
ATOM     31  C   UNL     1      -9.967   0.285 -40.239  1.00  0.00     0.184 C 
ATOM     32  C   UNL     1     -10.725  -1.054 -40.069  1.00  0.00     0.178 C 
ATOM     33  C   UNL     1      -8.452   0.003 -40.345  1.00  0.00     0.180 C 
ATOM     34  O   UNL     1     -10.259  -1.762 -38.929  1.00  0.00    -0.342 OA
ATOM     35  C   UNL     1      -7.991  -0.898 -39.198  1.00  0.00     0.201 C 
ATOM     36  C   UNL     1      -8.904  -2.143 -39.076  1.00  0.00     0.279 C 
BRANCH  32  37
ATOM     37  C   UNL     1     -12.238  -0.830 -39.915  1.00  0.00     0.191 C 
BRANCH  37  38
ATOM     38  O   UNL     1     -12.796  -0.278 -41.078  1.00  0.00    -0.394 OA
ATOM     39  H   UNL     1     -13.614  -0.793 -41.292  1.00  0.00     0.210 HD
ENDBRANCH  37  38
ENDBRANCH  32  37
BRANCH  33  40
ATOM     40  O   UNL     1      -8.168  -0.629 -41.573  1.00  0.00    -0.387 OA
ATOM     41  H   UNL     1      -8.901  -1.287 -41.729  1.00  0.00     0.211 HD
ENDBRANCH  33  40
BRANCH  35  42
ATOM     42  O   UNL     1      -8.018  -0.179 -37.989  1.00  0.00    -0.385 OA
ATOM     43  H   UNL     1      -7.791   0.763 -38.202  1.00  0.00     0.211 HD
ENDBRANCH  35  42
BRANCH  36  44
ATOM     44  O   UNL     1      -8.745  -3.020 -40.165  1.00  0.00    -0.366 OA
ATOM     45  H   UNL     1      -8.435  -3.883 -39.788  1.00  0.00     0.213 HD
ENDBRANCH  36  44
ENDBRANCH  30  31
ENDBRANCH   4  30
TORSDOF 18
ENDMDL
MODEL 9
REMARK VINA RESULT:    -6.205      1.972      3.575
REMARK INTER + INTRA:         -12.506
REMARK INTER:                 -10.717
REMARK INTRA:                  -1.789
REMARK UNBOUND:                -1.767
REMARK SMILES OC[C@@H]1O[C@H](O[C@H]2[C@H](O)[C@@H](O)[C@@H](O[C@@H]3[C@H](O)[C@@H](O)[C@H](O)O[C@H]3CO)O[C@@H]2CO)[C@H](O)[C@@H](O)[C@H]1O
REMARK SMILES IDX 7 1 26 2 25 3 12 4 10 5 8 6 6 7 5 8 3 9 33 10 4 11 31 12
REMARK SMILES IDX 29 13 2 14 1 15 34 17 32 19 30 21 27 23 28 24 9 26 11 28
REMARK SMILES IDX 13 30 14 31 22 32 15 33 21 34 17 35 19 36 23 37 24 38 16 40
REMARK SMILES IDX 18 42 20 44
REMARK H PARENT 1 16 34 18 32 20 30 22 28 25 9 27 11 29 24 39 16 41 18 43
REMARK H PARENT 20 45
REMARK Flexibility Score: inf
ROOT
ATOM      1  C   UNL     1     -10.692   2.672 -40.688  1.00  0.00     0.184 C 
ATOM      2  C   UNL     1     -11.826   3.610 -40.119  1.00  0.00     0.178 C 
ATOM      3  O   UNL     1     -12.308   4.596 -41.017  1.00  0.00    -0.341 OA
ATOM      4  C   UNL     1     -11.268   5.208 -41.756  1.00  0.00     0.282 C 
ATOM      5  C   UNL     1     -10.784   4.194 -42.792  1.00  0.00     0.202 C 
ATOM      6  C   UNL     1     -10.028   3.055 -42.067  1.00  0.00     0.180 C 
ENDROOT
BRANCH   1   7
ATOM      7  O   UNL     1     -11.008   1.287 -40.606  1.00  0.00    -0.341 OA
BRANCH   7   8
ATOM      8  C   UNL     1      -9.889   0.404 -40.545  1.00  0.00     0.282 C 
ATOM      9  C   UNL     1      -8.397  -0.651 -39.097  1.00  0.00     0.178 C 
ATOM     10  C   UNL     1      -8.843  -2.077 -39.481  1.00  0.00     0.177 C 
ATOM     11  O   UNL     1      -9.512   0.220 -39.187  1.00  0.00    -0.341 OA
ATOM     12  C   UNL     1      -9.335  -2.078 -40.935  1.00  0.00     0.179 C 
ATOM     13  C   UNL     1     -10.361  -0.948 -41.162  1.00  0.00     0.202 C 
BRANCH   9  14
ATOM     14  C   UNL     1      -7.851  -0.588 -37.669  1.00  0.00     0.191 C 
BRANCH  14  15
ATOM     15  O   UNL     1      -8.482  -1.550 -36.863  1.00  0.00    -0.394 OA
ATOM     16  H   UNL     1      -8.653  -2.340 -37.441  1.00  0.00     0.210 HD
ENDBRANCH  14  15
ENDBRANCH   9  14
BRANCH  10  17
ATOM     17  O   UNL     1      -7.773  -2.984 -39.338  1.00  0.00    -0.387 OA
ATOM     18  H   UNL     1      -7.574  -3.356 -40.239  1.00  0.00     0.211 HD
ENDBRANCH  10  17
BRANCH  12  19
ATOM     19  O   UNL     1      -8.258  -1.911 -41.823  1.00  0.00    -0.387 OA
ATOM     20  H   UNL     1      -8.183  -2.771 -42.327  1.00  0.00     0.211 HD
ENDBRANCH  12  19
BRANCH  13  21
ATOM     21  O   UNL     1     -11.601  -1.322 -40.588  1.00  0.00    -0.385 OA
ATOM     22  H   UNL     1     -11.433  -1.531 -39.627  1.00  0.00     0.211 HD
ENDBRANCH  13  21
ENDBRANCH   7   8
ENDBRANCH   1   7
BRANCH   2  23
ATOM     23  C   UNL     1     -11.455   4.274 -38.773  1.00  0.00     0.191 C 
BRANCH  23  24
ATOM     24  O   UNL     1     -12.327   5.345 -38.511  1.00  0.00    -0.394 OA
ATOM     25  H   UNL     1     -12.083   6.089 -39.124  1.00  0.00     0.210 HD
ENDBRANCH  23  24
ENDBRANCH   2  23
BRANCH   6  26
ATOM     26  O   UNL     1      -8.670   3.374 -41.843  1.00  0.00    -0.387 OA
ATOM     27  H   UNL     1      -8.287   2.737 -41.177  1.00  0.00     0.211 HD
ENDBRANCH   6  26
BRANCH   5  28
ATOM     28  O   UNL     1     -11.892   3.663 -43.469  1.00  0.00    -0.385 OA
ATOM     29  H   UNL     1     -12.332   4.427 -43.930  1.00  0.00     0.211 HD
ENDBRANCH   5  28
BRANCH   4  30
ATOM     30  O   UNL     1     -11.804   6.345 -42.417  1.00  0.00    -0.341 OA
BRANCH  30  31
ATOM     31  C   UNL     1     -13.049   6.757 -41.865  1.00  0.00     0.184 C 
ATOM     32  C   UNL     1     -13.064   8.300 -41.732  1.00  0.00     0.178 C 
ATOM     33  C   UNL     1     -14.211   6.315 -42.783  1.00  0.00     0.180 C 
ATOM     34  O   UNL     1     -14.312   8.756 -41.229  1.00  0.00    -0.342 OA
ATOM     35  C   UNL     1     -15.528   6.944 -42.326  1.00  0.00     0.201 C 
ATOM     36  C   UNL     1     -15.366   8.472 -42.129  1.00  0.00     0.279 C 
BRANCH  32  37
ATOM     37  C   UNL     1     -11.953   8.795 -40.793  1.00  0.00     0.191 C 
BRANCH  37  38
ATOM     38  O   UNL     1     -11.797   7.942 -39.689  1.00  0.00    -0.394 OA
ATOM     39  H   UNL     1     -11.205   7.199 -39.966  1.00  0.00     0.210 HD
ENDBRANCH  37  38
ENDBRANCH  32  37
BRANCH  33  40
ATOM     40  O   UNL     1     -13.946   6.705 -44.112  1.00  0.00    -0.387 OA
ATOM     41  H   UNL     1     -13.991   7.701 -44.128  1.00  0.00     0.211 HD
ENDBRANCH  33  40
BRANCH  35  42
ATOM     42  O   UNL     1     -15.940   6.359 -41.115  1.00  0.00    -0.385 OA
ATOM     43  H   UNL     1     -16.742   5.809 -41.314  1.00  0.00     0.211 HD
ENDBRANCH  35  42
BRANCH  36  44
ATOM     44  O   UNL     1     -15.176   9.143 -43.352  1.00  0.00    -0.366 OA
ATOM     45  H   UNL     1     -16.076   9.426 -43.659  1.00  0.00     0.213 HD
ENDBRANCH  36  44
ENDBRANCH  30  31
ENDBRANCH   4  30
TORSDOF 18
ENDMDL
