MODEL 1
REMARK VINA RESULT:    -4.361      0.000      0.000
REMARK INTER + INTRA:          -8.782
REMARK INTER:                  -8.186
REMARK INTRA:                  -0.596
REMARK UNBOUND:                -0.596
REMARK SMILES O=C([O-])CCCCCCCCCCCCCCC(=O)[O-]
REMARK SMILES IDX 10 1 9 2 8 3 7 4 6 5 5 6 4 7 2 8 1 9 3 10 11 11 12 12 13 13
REMARK SMILES IDX 14 14 15 15 16 16 17 17 18 18 19 19 20 20
REMARK H PARENT
REMARK Flexibility Score: inf
ROOT
ATOM      1  C   UNL     1      -4.807  35.243  21.833  1.00  0.00     0.000 C 
ENDROOT
BRANCH   1   2
ATOM      2  C   UNL     1      -5.055  34.756  23.271  1.00  0.00     0.000 C 
BRANCH   2   3
ATOM      3  C   UNL     1      -6.125  35.581  24.005  1.00  0.00     0.000 C 
BRANCH   3   4
ATOM      4  C   UNL     1      -5.630  36.149  25.349  1.00  0.00     0.000 C 
BRANCH   4   5
ATOM      5  C   UNL     1      -4.933  37.519  25.263  1.00  0.00     0.000 C 
BRANCH   5   6
ATOM      6  C   UNL     1      -4.627  37.948  23.818  1.00  0.00     0.006 C 
BRANCH   6   7
ATOM      7  C   UNL     1      -5.161  39.352  23.505  1.00  0.00     0.053 C 
BRANCH   7   8
ATOM      8  C   UNL     1      -5.495  39.505  22.053  1.00  0.00     0.041 C 
ATOM      9  O   UNL     1      -5.226  38.582  21.239  1.00  0.00    -0.550 OA
ATOM     10  O   UNL     1      -6.071  40.682  21.593  1.00  0.00    -0.550 OA
ENDBRANCH   7   8
ENDBRANCH   6   7
ENDBRANCH   5   6
ENDBRANCH   4   5
ENDBRANCH   3   4
ENDBRANCH   2   3
ENDBRANCH   1   2
BRANCH   1  11
ATOM     11  C   UNL     1      -6.078  35.509  21.001  1.00  0.00     0.000 C 
BRANCH  11  12
ATOM     12  C   UNL     1      -5.960  35.182  19.498  1.00  0.00     0.000 C 
BRANCH  12  13
ATOM     13  C   UNL     1      -4.542  35.310  18.916  1.00  0.00     0.000 C 
BRANCH  13  14
ATOM     14  C   UNL     1      -4.069  36.768  18.812  1.00  0.00     0.000 C 
BRANCH  14  15
ATOM     15  C   UNL     1      -2.538  36.850  18.801  1.00  0.00     0.000 C 
BRANCH  15  16
ATOM     16  C   UNL     1      -2.034  37.568  17.540  1.00  0.00     0.006 C 
BRANCH  16  17
ATOM     17  C   UNL     1      -3.047  37.500  16.390  1.00  0.00     0.053 C 
BRANCH  17  18
ATOM     18  C   UNL     1      -2.675  36.455  15.383  1.00  0.00     0.041 C 
ATOM     19  O   UNL     1      -1.701  35.686  15.597  1.00  0.00    -0.550 OA
ATOM     20  O   UNL     1      -3.425  36.310  14.223  1.00  0.00    -0.550 OA
ENDBRANCH  17  18
ENDBRANCH  16  17
ENDBRANCH  15  16
ENDBRANCH  14  15
ENDBRANCH  13  14
ENDBRANCH  12  13
ENDBRANCH  11  12
ENDBRANCH   1  11
TORSDOF 15
ENDMDL
MODEL 2
REMARK VINA RESULT:    -4.157      0.697      6.319
REMARK INTER + INTRA:          -8.398
REMARK INTER:                  -7.475
REMARK INTRA:                  -0.923
REMARK UNBOUND:                -0.596
REMARK SMILES O=C([O-])CCCCCCCCCCCCCCC(=O)[O-]
REMARK SMILES IDX 10 1 9 2 8 3 7 4 6 5 5 6 4 7 2 8 1 9 3 10 11 11 12 12 13 13
REMARK SMILES IDX 14 14 15 15 16 16 17 17 18 18 19 19 20 20
REMARK H PARENT
REMARK Flexibility Score: inf
ROOT
ATOM      1  C   UNL     1      -4.823  35.441  22.069  1.00  0.00     0.000 C 
ENDROOT
BRANCH   1   2
ATOM      2  C   UNL     1      -5.689  35.521  20.800  1.00  0.00     0.000 C 
BRANCH   2   3
ATOM      3  C   UNL     1      -4.859  35.484  19.506  1.00  0.00     0.000 C 
BRANCH   3   4
ATOM      4  C   UNL     1      -4.166  36.824  19.197  1.00  0.00     0.000 C 
BRANCH   4   5
ATOM      5  C   UNL     1      -2.640  36.835  19.400  1.00  0.00     0.000 C 
BRANCH   5   6
ATOM      6  C   UNL     1      -1.866  37.209  18.124  1.00  0.00     0.006 C 
BRANCH   6   7
ATOM      7  C   UNL     1      -2.801  37.600  16.972  1.00  0.00     0.053 C 
BRANCH   7   8
ATOM      8  C   UNL     1      -2.679  36.655  15.817  1.00  0.00     0.041 C 
ATOM      9  O   UNL     1      -1.599  36.043  15.608  1.00  0.00    -0.550 OA
ATOM     10  O   UNL     1      -3.749  36.478  14.948  1.00  0.00    -0.550 OA
ENDBRANCH   7   8
ENDBRANCH   6   7
ENDBRANCH   5   6
ENDBRANCH   4   5
ENDBRANCH   3   4
ENDBRANCH   2   3
ENDBRANCH   1   2
BRANCH   1  11
ATOM     11  C   UNL     1      -5.306  34.433  23.132  1.00  0.00     0.000 C 
BRANCH  11  12
ATOM     12  C   UNL     1      -6.121  35.041  24.292  1.00  0.00     0.000 C 
BRANCH  12  13
ATOM     13  C   UNL     1      -6.098  36.578  24.364  1.00  0.00     0.000 C 
BRANCH  13  14
ATOM     14  C   UNL     1      -5.087  37.112  25.390  1.00  0.00     0.000 C 
BRANCH  14  15
ATOM     15  C   UNL     1      -4.255  38.254  24.798  1.00  0.00     0.000 C 
BRANCH  15  16
ATOM     16  C   UNL     1      -5.082  39.076  23.797  1.00  0.00     0.006 C 
BRANCH  16  17
ATOM     17  C   UNL     1      -4.619  38.864  22.350  1.00  0.00     0.053 C 
BRANCH  17  18
ATOM     18  C   UNL     1      -5.570  39.476  21.368  1.00  0.00     0.041 C 
ATOM     19  O   UNL     1      -5.894  38.850  20.324  1.00  0.00    -0.550 OA
ATOM     20  O   UNL     1      -6.125  40.724  21.622  1.00  0.00    -0.550 OA
ENDBRANCH  17  18
ENDBRANCH  16  17
ENDBRANCH  15  16
ENDBRANCH  14  15
ENDBRANCH  13  14
ENDBRANCH  12  13
ENDBRANCH  11  12
ENDBRANCH   1  11
TORSDOF 15
ENDMDL
MODEL 3
REMARK VINA RESULT:    -4.104      1.792      2.294
REMARK INTER + INTRA:          -8.299
REMARK INTER:                  -6.809
REMARK INTRA:                  -1.491
REMARK UNBOUND:                -0.596
REMARK SMILES O=C([O-])CCCCCCCCCCCCCCC(=O)[O-]
REMARK SMILES IDX 10 1 9 2 8 3 7 4 6 5 5 6 4 7 2 8 1 9 3 10 11 11 12 12 13 13
REMARK SMILES IDX 14 14 15 15 16 16 17 17 18 18 19 19 20 20
REMARK H PARENT
REMARK Flexibility Score: inf
ROOT
ATOM      1  C   UNL     1      -4.447  35.281  22.450  1.00  0.00     0.000 C 
ENDROOT
BRANCH   1   2
ATOM      2  C   UNL     1      -5.844  35.101  23.069  1.00  0.00     0.000 C 
BRANCH   2   3
ATOM      3  C   UNL     1      -6.125  36.094  24.209  1.00  0.00     0.000 C 
BRANCH   3   4
ATOM      4  C   UNL     1      -4.857  36.484  24.992  1.00  0.00     0.000 C 
BRANCH   4   5
ATOM      5  C   UNL     1      -4.607  37.998  25.119  1.00  0.00     0.000 C 
BRANCH   5   6
ATOM      6  C   UNL     1      -5.335  38.821  24.043  1.00  0.00     0.006 C 
BRANCH   6   7
ATOM      7  C   UNL     1      -4.547  38.882  22.728  1.00  0.00     0.053 C 
BRANCH   7   8
ATOM      8  C   UNL     1      -5.406  39.342  21.591  1.00  0.00     0.041 C 
ATOM      9  O   UNL     1      -5.943  40.481  21.620  1.00  0.00    -0.550 OA
ATOM     10  O   UNL     1      -5.642  38.497  20.513  1.00  0.00    -0.550 OA
ENDBRANCH   7   8
ENDBRANCH   6   7
ENDBRANCH   5   6
ENDBRANCH   4   5
ENDBRANCH   3   4
ENDBRANCH   2   3
ENDBRANCH   1   2
BRANCH   1  11
ATOM     11  C   UNL     1      -4.409  35.305  20.908  1.00  0.00     0.000 C 
BRANCH  11  12
ATOM     12  C   UNL     1      -5.785  35.402  20.218  1.00  0.00     0.000 C 
BRANCH  12  13
ATOM     13  C   UNL     1      -5.747  35.334  18.682  1.00  0.00     0.000 C 
BRANCH  13  14
ATOM     14  C   UNL     1      -4.637  34.412  18.153  1.00  0.00     0.000 C 
BRANCH  14  15
ATOM     15  C   UNL     1      -3.895  35.063  16.981  1.00  0.00     0.000 C 
BRANCH  15  16
ATOM     16  C   UNL     1      -3.690  36.566  17.225  1.00  0.00     0.006 C 
BRANCH  16  17
ATOM     17  C   UNL     1      -2.206  36.956  17.229  1.00  0.00     0.053 C 
BRANCH  17  18
ATOM     18  C   UNL     1      -1.785  37.524  18.549  1.00  0.00     0.041 C 
ATOM     19  O   UNL     1      -2.650  37.851  19.404  1.00  0.00    -0.550 OA
ATOM     20  O   UNL     1      -0.435  37.662  18.848  1.00  0.00    -0.550 OA
ENDBRANCH  17  18
ENDBRANCH  16  17
ENDBRANCH  15  16
ENDBRANCH  14  15
ENDBRANCH  13  14
ENDBRANCH  12  13
ENDBRANCH  11  12
ENDBRANCH   1  11
TORSDOF 15
ENDMDL
MODEL 4
REMARK VINA RESULT:    -4.073      1.779      6.327
REMARK INTER + INTRA:          -8.240
REMARK INTER:                  -6.816
REMARK INTRA:                  -1.424
REMARK UNBOUND:                -0.596
REMARK SMILES O=C([O-])CCCCCCCCCCCCCCC(=O)[O-]
REMARK SMILES IDX 10 1 9 2 8 3 7 4 6 5 5 6 4 7 2 8 1 9 3 10 11 11 12 12 13 13
REMARK SMILES IDX 14 14 15 15 16 16 17 17 18 18 19 19 20 20
REMARK H PARENT
REMARK Flexibility Score: inf
ROOT
ATOM      1  C   UNL     1      -4.207  35.417  20.855  1.00  0.00     0.000 C 
ENDROOT
BRANCH   1   2
ATOM      2  C   UNL     1      -5.172  35.332  19.659  1.00  0.00     0.000 C 
BRANCH   2   3
ATOM      3  C   UNL     1      -4.525  34.708  18.412  1.00  0.00     0.000 C 
BRANCH   3   4
ATOM      4  C   UNL     1      -4.308  35.724  17.275  1.00  0.00     0.000 C 
BRANCH   4   5
ATOM      5  C   UNL     1      -3.168  35.380  16.299  1.00  0.00     0.000 C 
BRANCH   5   6
ATOM      6  C   UNL     1      -1.958  36.321  16.431  1.00  0.00     0.006 C 
BRANCH   6   7
ATOM      7  C   UNL     1      -2.312  37.619  17.168  1.00  0.00     0.053 C 
BRANCH   7   8
ATOM      8  C   UNL     1      -1.721  37.651  18.545  1.00  0.00     0.041 C 
ATOM      9  O   UNL     1      -2.422  38.007  19.528  1.00  0.00    -0.550 OA
ATOM     10  O   UNL     1      -0.385  37.321  18.735  1.00  0.00    -0.550 OA
ENDBRANCH   7   8
ENDBRANCH   6   7
ENDBRANCH   5   6
ENDBRANCH   4   5
ENDBRANCH   3   4
ENDBRANCH   2   3
ENDBRANCH   1   2
BRANCH   1  11
ATOM     11  C   UNL     1      -4.642  34.630  22.108  1.00  0.00     0.000 C 
BRANCH  11  12
ATOM     12  C   UNL     1      -5.935  35.131  22.782  1.00  0.00     0.000 C 
BRANCH  12  13
ATOM     13  C   UNL     1      -5.909  35.126  24.321  1.00  0.00     0.000 C 
BRANCH  13  14
ATOM     14  C   UNL     1      -5.507  36.485  24.915  1.00  0.00     0.000 C 
BRANCH  14  15
ATOM     15  C   UNL     1      -5.856  37.628  23.956  1.00  0.00     0.000 C 
BRANCH  15  16
ATOM     16  C   UNL     1      -4.673  38.596  23.799  1.00  0.00     0.006 C 
BRANCH  16  17
ATOM     17  C   UNL     1      -4.240  38.749  22.335  1.00  0.00     0.053 C 
BRANCH  17  18
ATOM     18  C   UNL     1      -5.384  39.153  21.456  1.00  0.00     0.041 C 
ATOM     19  O   UNL     1      -5.726  38.426  20.486  1.00  0.00    -0.550 OA
ATOM     20  O   UNL     1      -6.093  40.316  21.730  1.00  0.00    -0.550 OA
ENDBRANCH  17  18
ENDBRANCH  16  17
ENDBRANCH  15  16
ENDBRANCH  14  15
ENDBRANCH  13  14
ENDBRANCH  12  13
ENDBRANCH  11  12
ENDBRANCH   1  11
TORSDOF 15
ENDMDL
MODEL 5
REMARK VINA RESULT:    -3.938      1.734      2.548
REMARK INTER + INTRA:          -7.988
REMARK INTER:                  -6.676
REMARK INTRA:                  -1.312
REMARK UNBOUND:                -0.596
REMARK SMILES O=C([O-])CCCCCCCCCCCCCCC(=O)[O-]
REMARK SMILES IDX 10 1 9 2 8 3 7 4 6 5 5 6 4 7 2 8 1 9 3 10 11 11 12 12 13 13
REMARK SMILES IDX 14 14 15 15 16 16 17 17 18 18 19 19 20 20
REMARK H PARENT
REMARK Flexibility Score: inf
ROOT
ATOM      1  C   UNL     1      -5.592  35.834  20.653  1.00  0.00     0.000 C 
ENDROOT
BRANCH   1   2
ATOM      2  C   UNL     1      -4.255  35.388  21.271  1.00  0.00     0.000 C 
BRANCH   2   3
ATOM      3  C   UNL     1      -4.435  34.582  22.568  1.00  0.00     0.000 C 
BRANCH   3   4
ATOM      4  C   UNL     1      -5.795  34.831  23.247  1.00  0.00     0.000 C 
BRANCH   4   5
ATOM      5  C   UNL     1      -5.765  35.814  24.431  1.00  0.00     0.000 C 
BRANCH   5   6
ATOM      6  C   UNL     1      -6.076  37.263  24.018  1.00  0.00     0.006 C 
BRANCH   6   7
ATOM      7  C   UNL     1      -4.808  38.119  23.904  1.00  0.00     0.053 C 
BRANCH   7   8
ATOM      8  C   UNL     1      -4.785  38.906  22.630  1.00  0.00     0.041 C 
ATOM      9  O   UNL     1      -3.886  38.701  21.773  1.00  0.00    -0.550 OA
ATOM     10  O   UNL     1      -5.739  39.891  22.405  1.00  0.00    -0.550 OA
ENDBRANCH   7   8
ENDBRANCH   6   7
ENDBRANCH   5   6
ENDBRANCH   4   5
ENDBRANCH   3   4
ENDBRANCH   2   3
ENDBRANCH   1   2
BRANCH   1  11
ATOM     11  C   UNL     1      -6.125  34.932  19.520  1.00  0.00     0.000 C 
BRANCH  11  12
ATOM     12  C   UNL     1      -5.071  34.479  18.490  1.00  0.00     0.000 C 
BRANCH  12  13
ATOM     13  C   UNL     1      -4.491  35.605  17.617  1.00  0.00     0.000 C 
BRANCH  13  14
ATOM     14  C   UNL     1      -3.536  35.086  16.531  1.00  0.00     0.000 C 
BRANCH  14  15
ATOM     15  C   UNL     1      -3.234  36.178  15.498  1.00  0.00     0.000 C 
BRANCH  15  16
ATOM     16  C   UNL     1      -2.326  37.264  16.094  1.00  0.00     0.006 C 
BRANCH  16  17
ATOM     17  C   UNL     1      -1.285  36.684  17.061  1.00  0.00     0.053 C 
BRANCH  17  18
ATOM     18  C   UNL     1      -1.299  37.391  18.381  1.00  0.00     0.041 C 
ATOM     19  O   UNL     1      -2.381  37.829  18.855  1.00  0.00    -0.550 OA
ATOM     20  O   UNL     1      -0.122  37.537  19.103  1.00  0.00    -0.550 OA
ENDBRANCH  17  18
ENDBRANCH  16  17
ENDBRANCH  15  16
ENDBRANCH  14  15
ENDBRANCH  13  14
ENDBRANCH  12  13
ENDBRANCH  11  12
ENDBRANCH   1  11
TORSDOF 15
ENDMDL
MODEL 6
REMARK VINA RESULT:    -3.849      2.210      7.249
REMARK INTER + INTRA:          -7.820
REMARK INTER:                  -6.589
REMARK INTRA:                  -1.231
REMARK UNBOUND:                -0.596
REMARK SMILES O=C([O-])CCCCCCCCCCCCCCC(=O)[O-]
REMARK SMILES IDX 10 1 9 2 8 3 7 4 6 5 5 6 4 7 2 8 1 9 3 10 11 11 12 12 13 13
REMARK SMILES IDX 14 14 15 15 16 16 17 17 18 18 19 19 20 20
REMARK H PARENT
REMARK Flexibility Score: inf
ROOT
ATOM      1  C   UNL     1      -3.838  35.092  20.044  1.00  0.00     0.000 C 
ENDROOT
BRANCH   1   2
ATOM      2  C   UNL     1      -4.890  34.552  19.059  1.00  0.00     0.000 C 
BRANCH   2   3
ATOM      3  C   UNL     1      -4.660  35.031  17.617  1.00  0.00     0.000 C 
BRANCH   3   4
ATOM      4  C   UNL     1      -3.590  36.135  17.512  1.00  0.00     0.000 C 
BRANCH   4   5
ATOM      5  C   UNL     1      -2.337  35.758  16.702  1.00  0.00     0.000 C 
BRANCH   5   6
ATOM      6  C   UNL     1      -2.267  36.466  15.338  1.00  0.00     0.006 C 
BRANCH   6   7
ATOM      7  C   UNL     1      -2.993  37.817  15.349  1.00  0.00     0.053 C 
BRANCH   7   8
ATOM      8  C   UNL     1      -4.119  37.847  14.361  1.00  0.00     0.041 C 
ATOM      9  O   UNL     1      -4.569  36.776  13.878  1.00  0.00    -0.550 OA
ATOM     10  O   UNL     1      -4.648  39.064  13.948  1.00  0.00    -0.550 OA
ENDBRANCH   7   8
ENDBRANCH   6   7
ENDBRANCH   5   6
ENDBRANCH   4   5
ENDBRANCH   3   4
ENDBRANCH   2   3
ENDBRANCH   1   2
BRANCH   1  11
ATOM     11  C   UNL     1      -4.407  35.788  21.298  1.00  0.00     0.000 C 
BRANCH  11  12
ATOM     12  C   UNL     1      -5.683  36.621  21.064  1.00  0.00     0.000 C 
BRANCH  12  13
ATOM     13  C   UNL     1      -5.444  38.018  20.464  1.00  0.00     0.000 C 
BRANCH  13  14
ATOM     14  C   UNL     1      -5.595  39.145  21.498  1.00  0.00     0.000 C 
BRANCH  14  15
ATOM     15  C   UNL     1      -4.339  39.262  22.370  1.00  0.00     0.000 C 
BRANCH  15  16
ATOM     16  C   UNL     1      -4.677  39.045  23.853  1.00  0.00     0.006 C 
BRANCH  16  17
ATOM     17  C   UNL     1      -5.710  37.929  24.056  1.00  0.00     0.053 C 
BRANCH  17  18
ATOM     18  C   UNL     1      -5.184  36.840  24.940  1.00  0.00     0.041 C 
ATOM     19  O   UNL     1      -4.380  37.111  25.870  1.00  0.00    -0.550 OA
ATOM     20  O   UNL     1      -5.609  35.530  24.757  1.00  0.00    -0.550 OA
ENDBRANCH  17  18
ENDBRANCH  16  17
ENDBRANCH  15  16
ENDBRANCH  14  15
ENDBRANCH  13  14
ENDBRANCH  12  13
ENDBRANCH  11  12
ENDBRANCH   1  11
TORSDOF 15
ENDMDL
MODEL 7
REMARK VINA RESULT:    -3.610      1.707      2.795
REMARK INTER + INTRA:          -7.372
REMARK INTER:                  -6.534
REMARK INTRA:                  -0.838
REMARK UNBOUND:                -0.596
REMARK SMILES O=C([O-])CCCCCCCCCCCCCCC(=O)[O-]
REMARK SMILES IDX 10 1 9 2 8 3 7 4 6 5 5 6 4 7 2 8 1 9 3 10 11 11 12 12 13 13
REMARK SMILES IDX 14 14 15 15 16 16 17 17 18 18 19 19 20 20
REMARK H PARENT
REMARK Flexibility Score: inf
ROOT
ATOM      1  C   UNL     1      -4.994  37.123  21.111  1.00  0.00     0.000 C 
ENDROOT
BRANCH   1   2
ATOM      2  C   UNL     1      -5.739  35.776  21.104  1.00  0.00     0.000 C 
BRANCH   2   3
ATOM      3  C   UNL     1      -4.838  34.593  21.492  1.00  0.00     0.000 C 
BRANCH   3   4
ATOM      4  C   UNL     1      -4.801  34.336  23.010  1.00  0.00     0.000 C 
BRANCH   4   5
ATOM      5  C   UNL     1      -6.125  34.600  23.751  1.00  0.00     0.000 C 
BRANCH   5   6
ATOM      6  C   UNL     1      -5.997  35.669  24.849  1.00  0.00     0.006 C 
BRANCH   6   7
ATOM      7  C   UNL     1      -6.017  37.093  24.278  1.00  0.00     0.053 C 
BRANCH   7   8
ATOM      8  C   UNL     1      -4.868  37.909  24.786  1.00  0.00     0.041 C 
ATOM      9  O   UNL     1      -4.258  37.565  25.832  1.00  0.00    -0.550 OA
ATOM     10  O   UNL     1      -4.493  39.070  24.121  1.00  0.00    -0.550 OA
ENDBRANCH   7   8
ENDBRANCH   6   7
ENDBRANCH   5   6
ENDBRANCH   4   5
ENDBRANCH   3   4
ENDBRANCH   2   3
ENDBRANCH   1   2
BRANCH   1  11
ATOM     11  C   UNL     1      -5.161  37.972  19.834  1.00  0.00     0.000 C 
BRANCH  11  12
ATOM     12  C   UNL     1      -4.333  37.506  18.620  1.00  0.00     0.000 C 
BRANCH  12  13
ATOM     13  C   UNL     1      -3.049  36.733  18.970  1.00  0.00     0.000 C 
BRANCH  13  14
ATOM     14  C   UNL     1      -1.772  37.541  18.694  1.00  0.00     0.000 C 
BRANCH  14  15
ATOM     15  C   UNL     1      -1.299  37.343  17.249  1.00  0.00     0.000 C 
BRANCH  15  16
ATOM     16  C   UNL     1      -2.164  36.302  16.524  1.00  0.00     0.006 C 
BRANCH  16  17
ATOM     17  C   UNL     1      -2.253  36.570  15.016  1.00  0.00     0.053 C 
BRANCH  17  18
ATOM     18  C   UNL     1      -3.548  37.224  14.643  1.00  0.00     0.041 C 
ATOM     19  O   UNL     1      -4.445  36.565  14.054  1.00  0.00    -0.550 OA
ATOM     20  O   UNL     1      -3.776  38.553  14.975  1.00  0.00    -0.550 OA
ENDBRANCH  17  18
ENDBRANCH  16  17
ENDBRANCH  15  16
ENDBRANCH  14  15
ENDBRANCH  13  14
ENDBRANCH  12  13
ENDBRANCH  11  12
ENDBRANCH   1  11
TORSDOF 15
ENDMDL
MODEL 8
REMARK VINA RESULT:    -3.589      2.097      3.271
REMARK INTER + INTRA:          -7.333
REMARK INTER:                  -6.072
REMARK INTRA:                  -1.261
REMARK UNBOUND:                -0.596
REMARK SMILES O=C([O-])CCCCCCCCCCCCCCC(=O)[O-]
REMARK SMILES IDX 10 1 9 2 8 3 7 4 6 5 5 6 4 7 2 8 1 9 3 10 11 11 12 12 13 13
REMARK SMILES IDX 14 14 15 15 16 16 17 17 18 18 19 19 20 20
REMARK H PARENT
REMARK Flexibility Score: inf
ROOT
ATOM      1  C   UNL     1      -3.983  37.563  20.436  1.00  0.00     0.000 C 
ENDROOT
BRANCH   1   2
ATOM      2  C   UNL     1      -5.365  38.159  20.117  1.00  0.00     0.000 C 
BRANCH   2   3
ATOM      3  C   UNL     1      -5.672  39.427  20.930  1.00  0.00     0.000 C 
BRANCH   3   4
ATOM      4  C   UNL     1      -6.002  39.131  22.405  1.00  0.00     0.000 C 
BRANCH   4   5
ATOM      5  C   UNL     1      -4.784  39.022  23.340  1.00  0.00     0.000 C 
BRANCH   5   6
ATOM      6  C   UNL     1      -4.857  37.810  24.284  1.00  0.00     0.006 C 
BRANCH   6   7
ATOM      7  C   UNL     1      -6.125  36.976  24.061  1.00  0.00     0.053 C 
BRANCH   7   8
ATOM      8  C   UNL     1      -5.826  35.509  24.048  1.00  0.00     0.041 C 
ATOM      9  O   UNL     1      -5.335  34.969  23.022  1.00  0.00    -0.550 OA
ATOM     10  O   UNL     1      -6.123  34.730  25.160  1.00  0.00    -0.550 OA
ENDBRANCH   7   8
ENDBRANCH   6   7
ENDBRANCH   5   6
ENDBRANCH   4   5
ENDBRANCH   3   4
ENDBRANCH   2   3
ENDBRANCH   1   2
BRANCH   1  11
ATOM     11  C   UNL     1      -3.906  36.023  20.398  1.00  0.00     0.000 C 
BRANCH  11  12
ATOM     12  C   UNL     1      -5.153  35.317  19.829  1.00  0.00     0.000 C 
BRANCH  12  13
ATOM     13  C   UNL     1      -4.922  34.554  18.513  1.00  0.00     0.000 C 
BRANCH  13  14
ATOM     14  C   UNL     1      -4.520  35.476  17.352  1.00  0.00     0.000 C 
BRANCH  14  15
ATOM     15  C   UNL     1      -3.166  35.062  16.765  1.00  0.00     0.000 C 
BRANCH  15  16
ATOM     16  C   UNL     1      -2.452  36.263  16.127  1.00  0.00     0.006 C 
BRANCH  16  17
ATOM     17  C   UNL     1      -3.327  37.524  16.123  1.00  0.00     0.053 C 
BRANCH  17  18
ATOM     18  C   UNL     1      -3.821  37.851  14.747  1.00  0.00     0.041 C 
ATOM     19  O   UNL     1      -3.916  36.947  13.875  1.00  0.00    -0.550 OA
ATOM     20  O   UNL     1      -4.208  39.149  14.439  1.00  0.00    -0.550 OA
ENDBRANCH  17  18
ENDBRANCH  16  17
ENDBRANCH  15  16
ENDBRANCH  14  15
ENDBRANCH  13  14
ENDBRANCH  12  13
ENDBRANCH  11  12
ENDBRANCH   1  11
TORSDOF 15
ENDMDL
MODEL 9
REMARK VINA RESULT:    -3.459      2.343      3.425
REMARK INTER + INTRA:          -7.089
REMARK INTER:                  -6.128
REMARK INTRA:                  -0.960
REMARK UNBOUND:                -0.596
REMARK SMILES O=C([O-])CCCCCCCCCCCCCCC(=O)[O-]
REMARK SMILES IDX 10 1 9 2 8 3 7 4 6 5 5 6 4 7 2 8 1 9 3 10 11 11 12 12 13 13
REMARK SMILES IDX 14 14 15 15 16 16 17 17 18 18 19 19 20 20
REMARK H PARENT
REMARK Flexibility Score: inf
ROOT
ATOM      1  C   UNL     1      -4.485  35.814  21.291  1.00  0.00     0.000 C 
ENDROOT
BRANCH   1   2
ATOM      2  C   UNL     1      -5.741  36.663  21.022  1.00  0.00     0.000 C 
BRANCH   2   3
ATOM      3  C   UNL     1      -5.417  38.022  20.380  1.00  0.00     0.000 C 
BRANCH   3   4
ATOM      4  C   UNL     1      -5.460  39.188  21.386  1.00  0.00     0.000 C 
BRANCH   4   5
ATOM      5  C   UNL     1      -4.352  39.171  22.455  1.00  0.00     0.000 C 
BRANCH   5   6
ATOM      6  C   UNL     1      -4.896  39.005  23.884  1.00  0.00     0.006 C 
BRANCH   6   7
ATOM      7  C   UNL     1      -5.794  37.768  24.022  1.00  0.00     0.053 C 
BRANCH   7   8
ATOM      8  C   UNL     1      -5.256  36.805  25.035  1.00  0.00     0.041 C 
ATOM      9  O   UNL     1      -5.759  35.657  25.150  1.00  0.00    -0.550 OA
ATOM     10  O   UNL     1      -4.219  37.189  25.876  1.00  0.00    -0.550 OA
ENDBRANCH   7   8
ENDBRANCH   6   7
ENDBRANCH   5   6
ENDBRANCH   4   5
ENDBRANCH   3   4
ENDBRANCH   2   3
ENDBRANCH   1   2
BRANCH   1  11
ATOM     11  C   UNL     1      -4.072  34.870  20.143  1.00  0.00     0.000 C 
BRANCH  11  12
ATOM     12  C   UNL     1      -5.161  34.609  19.083  1.00  0.00     0.000 C 
BRANCH  12  13
ATOM     13  C   UNL     1      -4.646  34.505  17.637  1.00  0.00     0.000 C 
BRANCH  13  14
ATOM     14  C   UNL     1      -3.985  35.802  17.144  1.00  0.00     0.000 C 
BRANCH  14  15
ATOM     15  C   UNL     1      -2.825  35.499  16.189  1.00  0.00     0.000 C 
BRANCH  15  16
ATOM     16  C   UNL     1      -1.716  36.554  16.318  1.00  0.00     0.006 C 
BRANCH  16  17
ATOM     17  C   UNL     1      -2.147  37.746  17.182  1.00  0.00     0.053 C 
BRANCH  17  18
ATOM     18  C   UNL     1      -1.574  37.666  18.564  1.00  0.00     0.041 C 
ATOM     19  O   UNL     1      -2.315  37.833  19.568  1.00  0.00    -0.550 OA
ATOM     20  O   UNL     1      -0.228  37.374  18.742  1.00  0.00    -0.550 OA
ENDBRANCH  17  18
ENDBRANCH  16  17
ENDBRANCH  15  16
ENDBRANCH  14  15
ENDBRANCH  13  14
ENDBRANCH  12  13
ENDBRANCH  11  12
ENDBRANCH   1  11
TORSDOF 15
ENDMDL
