MODEL 1
REMARK VINA RESULT:    -4.479      0.000      0.000
REMARK INTER + INTRA:         -11.155
REMARK INTER:                  -8.406
REMARK INTRA:                  -2.749
REMARK UNBOUND:                -2.749
REMARK SMILES CCCCCCCCC=CCCCCCCCC(=O)[O-]
REMARK SMILES IDX 10 1 9 2 11 3 12 4 13 5 14 6 15 7 16 8 17 9 18 10 19 11
REMARK SMILES IDX 20 12 8 13 7 14 6 15 5 16 4 17 3 18 2 19 1 20
REMARK H PARENT
REMARK Flexibility Score: inf
ROOT
ATOM      1  C   UNL     1      15.967  14.535  30.470  1.00  0.00    -0.031 C 
ATOM      2  C   UNL     1      15.284  14.814  29.343  1.00  0.00    -0.031 C 
ENDROOT
BRANCH   1   3
ATOM      3  C   UNL     1      17.460  14.339  30.558  1.00  0.00     0.027 C 
BRANCH   3   4
ATOM      4  C   UNL     1      17.815  13.065  31.334  1.00  0.00     0.004 C 
BRANCH   4   5
ATOM      5  C   UNL     1      16.588  12.511  32.070  1.00  0.00     0.000 C 
BRANCH   5   6
ATOM      6  C   UNL     1      16.803  12.399  33.591  1.00  0.00     0.000 C 
BRANCH   6   7
ATOM      7  C   UNL     1      17.585  13.566  34.227  1.00  0.00     0.000 C 
BRANCH   7   8
ATOM      8  C   UNL     1      18.380  13.206  35.498  1.00  0.00     0.006 C 
BRANCH   8   9
ATOM      9  C   UNL     1      19.365  12.039  35.321  1.00  0.00     0.053 C 
BRANCH   9  10
ATOM     10  C   UNL     1      20.377  12.319  34.252  1.00  0.00     0.041 C 
ATOM     11  O   UNL     1      20.422  11.601  33.219  1.00  0.00    -0.550 OA
ATOM     12  O   UNL     1      21.292  13.351  34.413  1.00  0.00    -0.550 OA
ENDBRANCH   9  10
ENDBRANCH   8   9
ENDBRANCH   7   8
ENDBRANCH   6   7
ENDBRANCH   5   6
ENDBRANCH   4   5
ENDBRANCH   3   4
ENDBRANCH   1   3
BRANCH   2  13
ATOM     13  C   UNL     1      15.895  15.003  27.973  1.00  0.00     0.027 C 
BRANCH  13  14
ATOM     14  C   UNL     1      15.800  13.724  27.126  1.00  0.00     0.004 C 
BRANCH  14  15
ATOM     15  C   UNL     1      17.147  13.020  26.874  1.00  0.00     0.000 C 
BRANCH  15  16
ATOM     16  C   UNL     1      17.414  11.837  27.830  1.00  0.00     0.000 C 
BRANCH  16  17
ATOM     17  C   UNL     1      16.110  11.236  28.385  1.00  0.00    -0.000 C 
BRANCH  17  18
ATOM     18  C   UNL     1      16.361  10.112  29.402  1.00  0.00    -0.000 C 
BRANCH  18  19
ATOM     19  C   UNL     1      17.849   9.763  29.546  1.00  0.00    -0.003 C 
ATOM     20  C   UNL     1      18.177   9.332  30.972  1.00  0.00     0.004 C 
ENDBRANCH  18  19
ENDBRANCH  17  18
ENDBRANCH  16  17
ENDBRANCH  15  16
ENDBRANCH  14  15
ENDBRANCH  13  14
ENDBRANCH   2  13
TORSDOF 15
ENDMDL
MODEL 2
REMARK VINA RESULT:    -4.477     10.944     12.789
REMARK INTER + INTRA:         -11.152
REMARK INTER:                  -8.470
REMARK INTRA:                  -2.682
REMARK UNBOUND:                -2.749
REMARK SMILES CCCCCCCCC=CCCCCCCCC(=O)[O-]
REMARK SMILES IDX 10 1 9 2 11 3 12 4 13 5 14 6 15 7 16 8 17 9 18 10 19 11
REMARK SMILES IDX 20 12 8 13 7 14 6 15 5 16 4 17 3 18 2 19 1 20
REMARK H PARENT
REMARK Flexibility Score: inf
ROOT
ATOM      1  C   UNL     1      13.762  25.333  36.307  1.00  0.00    -0.031 C 
ATOM      2  C   UNL     1      12.982  25.851  35.340  1.00  0.00    -0.031 C 
ENDROOT
BRANCH   1   3
ATOM      3  C   UNL     1      13.559  23.993  36.968  1.00  0.00     0.027 C 
BRANCH   3   4
ATOM      4  C   UNL     1      14.844  23.157  36.953  1.00  0.00     0.004 C 
BRANCH   4   5
ATOM      5  C   UNL     1      14.821  22.136  35.807  1.00  0.00     0.000 C 
BRANCH   5   6
ATOM      6  C   UNL     1      16.043  22.254  34.878  1.00  0.00     0.000 C 
BRANCH   6   7
ATOM      7  C   UNL     1      16.193  23.613  34.165  1.00  0.00     0.000 C 
BRANCH   7   8
ATOM      8  C   UNL     1      17.330  24.509  34.695  1.00  0.00     0.006 C 
BRANCH   8   9
ATOM      9  C   UNL     1      18.304  23.800  35.649  1.00  0.00     0.053 C 
BRANCH   9  10
ATOM     10  C   UNL     1      19.655  23.610  35.030  1.00  0.00     0.041 C 
ATOM     11  O   UNL     1      20.141  24.500  34.285  1.00  0.00    -0.550 OA
ATOM     12  O   UNL     1      20.361  22.434  35.249  1.00  0.00    -0.550 OA
ENDBRANCH   9  10
ENDBRANCH   8   9
ENDBRANCH   7   8
ENDBRANCH   6   7
ENDBRANCH   5   6
ENDBRANCH   4   5
ENDBRANCH   3   4
ENDBRANCH   1   3
BRANCH   2  13
ATOM     13  C   UNL     1      11.778  25.171  34.728  1.00  0.00     0.027 C 
BRANCH  13  14
ATOM     14  C   UNL     1      12.185  23.992  33.830  1.00  0.00     0.004 C 
BRANCH  14  15
ATOM     15  C   UNL     1      11.110  22.897  33.684  1.00  0.00     0.000 C 
BRANCH  15  16
ATOM     16  C   UNL     1      11.589  21.498  34.129  1.00  0.00     0.000 C 
BRANCH  16  17
ATOM     17  C   UNL     1      11.353  21.256  35.630  1.00  0.00    -0.000 C 
BRANCH  17  18
ATOM     18  C   UNL     1      10.062  21.913  36.142  1.00  0.00    -0.000 C 
BRANCH  18  19
ATOM     19  C   UNL     1      10.302  22.834  37.346  1.00  0.00    -0.003 C 
ATOM     20  C   UNL     1       9.302  23.986  37.364  1.00  0.00     0.004 C 
ENDBRANCH  18  19
ENDBRANCH  17  18
ENDBRANCH  16  17
ENDBRANCH  15  16
ENDBRANCH  14  15
ENDBRANCH  13  14
ENDBRANCH   2  13
TORSDOF 15
ENDMDL
MODEL 3
REMARK VINA RESULT:    -4.459      3.188      6.567
REMARK INTER + INTRA:         -11.118
REMARK INTER:                  -8.372
REMARK INTRA:                  -2.746
REMARK UNBOUND:                -2.749
REMARK SMILES CCCCCCCCC=CCCCCCCCC(=O)[O-]
REMARK SMILES IDX 10 1 9 2 11 3 12 4 13 5 14 6 15 7 16 8 17 9 18 10 19 11
REMARK SMILES IDX 20 12 8 13 7 14 6 15 5 16 4 17 3 18 2 19 1 20
REMARK H PARENT
REMARK Flexibility Score: inf
ROOT
ATOM      1  C   UNL     1      16.817  12.618  32.796  1.00  0.00    -0.031 C 
ATOM      2  C   UNL     1      17.265  13.411  33.788  1.00  0.00    -0.031 C 
ENDROOT
BRANCH   1   3
ATOM      3  C   UNL     1      17.682  11.947  31.758  1.00  0.00     0.027 C 
BRANCH   3   4
ATOM      4  C   UNL     1      16.954  10.770  31.095  1.00  0.00     0.004 C 
BRANCH   4   5
ATOM      5  C   UNL     1      16.565  11.110  29.651  1.00  0.00     0.000 C 
BRANCH   5   6
ATOM      6  C   UNL     1      17.452  12.207  29.034  1.00  0.00     0.000 C 
BRANCH   6   7
ATOM      7  C   UNL     1      16.689  13.414  28.454  1.00  0.00     0.000 C 
BRANCH   7   8
ATOM      8  C   UNL     1      16.461  14.580  29.437  1.00  0.00     0.006 C 
BRANCH   8   9
ATOM      9  C   UNL     1      15.078  14.583  30.106  1.00  0.00     0.053 C 
BRANCH   9  10
ATOM     10  C   UNL     1      13.971  14.454  29.104  1.00  0.00     0.041 C 
ATOM     11  O   UNL     1      13.207  13.454  29.129  1.00  0.00    -0.550 OA
ATOM     12  O   UNL     1      13.806  15.423  28.122  1.00  0.00    -0.550 OA
ENDBRANCH   9  10
ENDBRANCH   8   9
ENDBRANCH   7   8
ENDBRANCH   6   7
ENDBRANCH   5   6
ENDBRANCH   4   5
ENDBRANCH   3   4
ENDBRANCH   1   3
BRANCH   2  13
ATOM     13  C   UNL     1      18.715  13.750  34.051  1.00  0.00     0.027 C 
BRANCH  13  14
ATOM     14  C   UNL     1      19.135  13.384  35.483  1.00  0.00     0.004 C 
BRANCH  14  15
ATOM     15  C   UNL     1      18.156  12.449  36.219  1.00  0.00     0.000 C 
BRANCH  15  16
ATOM     16  C   UNL     1      18.629  10.981  36.278  1.00  0.00     0.000 C 
BRANCH  16  17
ATOM     17  C   UNL     1      17.830  10.076  35.323  1.00  0.00    -0.000 C 
BRANCH  17  18
ATOM     18  C   UNL     1      18.722   9.368  34.291  1.00  0.00    -0.000 C 
BRANCH  18  19
ATOM     19  C   UNL     1      20.179   9.849  34.337  1.00  0.00    -0.003 C 
ATOM     20  C   UNL     1      20.588  10.485  33.012  1.00  0.00     0.004 C 
ENDBRANCH  18  19
ENDBRANCH  17  18
ENDBRANCH  16  17
ENDBRANCH  15  16
ENDBRANCH  14  15
ENDBRANCH  13  14
ENDBRANCH   2  13
TORSDOF 15
ENDMDL
MODEL 4
REMARK VINA RESULT:    -4.446      1.373      2.325
REMARK INTER + INTRA:         -11.092
REMARK INTER:                  -8.494
REMARK INTRA:                  -2.598
REMARK UNBOUND:                -2.749
REMARK SMILES CCCCCCCCC=CCCCCCCCC(=O)[O-]
REMARK SMILES IDX 10 1 9 2 11 3 12 4 13 5 14 6 15 7 16 8 17 9 18 10 19 11
REMARK SMILES IDX 20 12 8 13 7 14 6 15 5 16 4 17 3 18 2 19 1 20
REMARK H PARENT
REMARK Flexibility Score: inf
ROOT
ATOM      1  C   UNL     1      17.445  14.217  31.518  1.00  0.00    -0.031 C 
ATOM      2  C   UNL     1      16.776  14.552  30.399  1.00  0.00    -0.031 C 
ENDROOT
BRANCH   1   3
ATOM      3  C   UNL     1      16.811  13.834  32.832  1.00  0.00     0.027 C 
BRANCH   3   4
ATOM      4  C   UNL     1      16.611  12.318  32.940  1.00  0.00     0.004 C 
BRANCH   4   5
ATOM      5  C   UNL     1      17.853  11.564  32.446  1.00  0.00     0.000 C 
BRANCH   5   6
ATOM      6  C   UNL     1      18.055  10.213  33.157  1.00  0.00     0.000 C 
BRANCH   6   7
ATOM      7  C   UNL     1      17.609  10.180  34.633  1.00  0.00     0.000 C 
BRANCH   7   8
ATOM      8  C   UNL     1      18.671  10.644  35.649  1.00  0.00     0.006 C 
BRANCH   8   9
ATOM      9  C   UNL     1      18.464  12.074  36.174  1.00  0.00     0.053 C 
BRANCH   9  10
ATOM     10  C   UNL     1      19.518  13.013  35.673  1.00  0.00     0.041 C 
ATOM     11  O   UNL     1      20.235  12.693  34.688  1.00  0.00    -0.550 OA
ATOM     12  O   UNL     1      19.732  14.226  36.314  1.00  0.00    -0.550 OA
ENDBRANCH   9  10
ENDBRANCH   8   9
ENDBRANCH   7   8
ENDBRANCH   6   7
ENDBRANCH   5   6
ENDBRANCH   4   5
ENDBRANCH   3   4
ENDBRANCH   1   3
BRANCH   2  13
ATOM     13  C   UNL     1      15.271  14.582  30.254  1.00  0.00     0.027 C 
BRANCH  13  14
ATOM     14  C   UNL     1      14.843  14.789  28.792  1.00  0.00     0.004 C 
BRANCH  14  15
ATOM     15  C   UNL     1      16.010  14.886  27.790  1.00  0.00     0.000 C 
BRANCH  15  16
ATOM     16  C   UNL     1      16.034  13.739  26.757  1.00  0.00     0.000 C 
BRANCH  16  17
ATOM     17  C   UNL     1      17.123  12.698  27.074  1.00  0.00    -0.000 C 
BRANCH  17  18
ATOM     18  C   UNL     1      16.542  11.356  27.548  1.00  0.00    -0.000 C 
BRANCH  18  19
ATOM     19  C   UNL     1      16.681  11.152  29.063  1.00  0.00    -0.003 C 
ATOM     20  C   UNL     1      15.326  10.880  29.708  1.00  0.00     0.004 C 
ENDBRANCH  18  19
ENDBRANCH  17  18
ENDBRANCH  16  17
ENDBRANCH  15  16
ENDBRANCH  14  15
ENDBRANCH  13  14
ENDBRANCH   2  13
TORSDOF 15
ENDMDL
MODEL 5
REMARK VINA RESULT:    -4.442      3.448      6.535
REMARK INTER + INTRA:         -11.086
REMARK INTER:                  -8.166
REMARK INTRA:                  -2.920
REMARK UNBOUND:                -2.749
REMARK SMILES CCCCCCCCC=CCCCCCCCC(=O)[O-]
REMARK SMILES IDX 10 1 9 2 11 3 12 4 13 5 14 6 15 7 16 8 17 9 18 10 19 11
REMARK SMILES IDX 20 12 8 13 7 14 6 15 5 16 4 17 3 18 2 19 1 20
REMARK H PARENT
REMARK Flexibility Score: inf
ROOT
ATOM      1  C   UNL     1      17.599  13.401  34.900  1.00  0.00    -0.031 C 
ATOM      2  C   UNL     1      18.832  13.444  35.437  1.00  0.00    -0.031 C 
ENDROOT
BRANCH   1   3
ATOM      3  C   UNL     1      17.282  13.532  33.431  1.00  0.00     0.027 C 
BRANCH   3   4
ATOM      4  C   UNL     1      16.524  12.307  32.907  1.00  0.00     0.004 C 
BRANCH   4   5
ATOM      5  C   UNL     1      17.065  11.871  31.539  1.00  0.00     0.000 C 
BRANCH   5   6
ATOM      6  C   UNL     1      17.739  13.021  30.768  1.00  0.00     0.000 C 
BRANCH   6   7
ATOM      7  C   UNL     1      17.175  13.281  29.357  1.00  0.00     0.000 C 
BRANCH   7   8
ATOM      8  C   UNL     1      15.644  13.149  29.229  1.00  0.00     0.006 C 
BRANCH   8   9
ATOM      9  C   UNL     1      14.855  14.324  29.828  1.00  0.00     0.053 C 
BRANCH   9  10
ATOM     10  C   UNL     1      13.884  14.904  28.846  1.00  0.00     0.041 C 
ATOM     11  O   UNL     1      14.198  15.916  28.165  1.00  0.00    -0.550 OA
ATOM     12  O   UNL     1      12.618  14.349  28.707  1.00  0.00    -0.550 OA
ENDBRANCH   9  10
ENDBRANCH   8   9
ENDBRANCH   7   8
ENDBRANCH   6   7
ENDBRANCH   5   6
ENDBRANCH   4   5
ENDBRANCH   3   4
ENDBRANCH   1   3
BRANCH   2  13
ATOM     13  C   UNL     1      20.120  13.609  34.662  1.00  0.00     0.027 C 
BRANCH  13  14
ATOM     14  C   UNL     1      20.731  12.252  34.278  1.00  0.00     0.004 C 
BRANCH  14  15
ATOM     15  C   UNL     1      20.513  11.844  32.808  1.00  0.00     0.000 C 
BRANCH  15  16
ATOM     16  C   UNL     1      20.217  10.339  32.622  1.00  0.00     0.000 C 
BRANCH  16  17
ATOM     17  C   UNL     1      19.796   9.665  33.941  1.00  0.00    -0.000 C 
BRANCH  17  18
ATOM     18  C   UNL     1      18.308   9.283  33.962  1.00  0.00    -0.000 C 
BRANCH  18  19
ATOM     19  C   UNL     1      17.659   9.504  35.335  1.00  0.00    -0.003 C 
ATOM     20  C   UNL     1      18.702   9.881  36.382  1.00  0.00     0.004 C 
ENDBRANCH  18  19
ENDBRANCH  17  18
ENDBRANCH  16  17
ENDBRANCH  15  16
ENDBRANCH  14  15
ENDBRANCH  13  14
ENDBRANCH   2  13
TORSDOF 15
ENDMDL
MODEL 6
REMARK VINA RESULT:    -4.434     11.099     13.223
REMARK INTER + INTRA:         -11.071
REMARK INTER:                  -8.469
REMARK INTRA:                  -2.602
REMARK UNBOUND:                -2.749
REMARK SMILES CCCCCCCCC=CCCCCCCCC(=O)[O-]
REMARK SMILES IDX 10 1 9 2 11 3 12 4 13 5 14 6 15 7 16 8 17 9 18 10 19 11
REMARK SMILES IDX 20 12 8 13 7 14 6 15 5 16 4 17 3 18 2 19 1 20
REMARK H PARENT
REMARK Flexibility Score: inf
ROOT
ATOM      1  C   UNL     1      12.282  21.236  35.666  1.00  0.00    -0.031 C 
ATOM      2  C   UNL     1      11.321  21.693  34.842  1.00  0.00    -0.031 C 
ENDROOT
BRANCH   1   3
ATOM      3  C   UNL     1      13.759  21.503  35.516  1.00  0.00     0.027 C 
BRANCH   3   4
ATOM      4  C   UNL     1      14.252  22.532  36.540  1.00  0.00     0.004 C 
BRANCH   4   5
ATOM      5  C   UNL     1      15.175  23.565  35.879  1.00  0.00     0.000 C 
BRANCH   5   6
ATOM      6  C   UNL     1      15.455  23.254  34.398  1.00  0.00     0.000 C 
BRANCH   6   7
ATOM      7  C   UNL     1      16.755  22.468  34.130  1.00  0.00     0.000 C 
BRANCH   7   8
ATOM      8  C   UNL     1      17.769  22.463  35.292  1.00  0.00     0.006 C 
BRANCH   8   9
ATOM      9  C   UNL     1      19.181  22.925  34.902  1.00  0.00     0.053 C 
BRANCH   9  10
ATOM     10  C   UNL     1      19.272  24.416  34.791  1.00  0.00     0.041 C 
ATOM     11  O   UNL     1      20.109  24.945  34.013  1.00  0.00    -0.550 OA
ATOM     12  O   UNL     1      18.454  25.223  35.572  1.00  0.00    -0.550 OA
ENDBRANCH   9  10
ENDBRANCH   8   9
ENDBRANCH   7   8
ENDBRANCH   6   7
ENDBRANCH   5   6
ENDBRANCH   4   5
ENDBRANCH   3   4
ENDBRANCH   1   3
BRANCH   2  13
ATOM     13  C   UNL     1      11.549  22.573  33.633  1.00  0.00     0.027 C 
BRANCH  13  14
ATOM     14  C   UNL     1      11.026  24.000  33.861  1.00  0.00     0.004 C 
BRANCH  14  15
ATOM     15  C   UNL     1      11.874  24.847  34.830  1.00  0.00     0.000 C 
BRANCH  15  16
ATOM     16  C   UNL     1      11.057  25.471  35.982  1.00  0.00     0.000 C 
BRANCH  16  17
ATOM     17  C   UNL     1      11.596  25.058  37.364  1.00  0.00    -0.000 C 
BRANCH  17  18
ATOM     18  C   UNL     1      10.944  23.771  37.894  1.00  0.00    -0.000 C 
BRANCH  18  19
ATOM     19  C   UNL     1       9.495  23.601  37.418  1.00  0.00    -0.003 C 
ATOM     20  C   UNL     1       8.512  24.170  38.436  1.00  0.00     0.004 C 
ENDBRANCH  18  19
ENDBRANCH  17  18
ENDBRANCH  16  17
ENDBRANCH  15  16
ENDBRANCH  14  15
ENDBRANCH  13  14
ENDBRANCH   2  13
TORSDOF 15
ENDMDL
MODEL 7
REMARK VINA RESULT:    -4.395      2.884      6.429
REMARK INTER + INTRA:         -10.998
REMARK INTER:                  -8.388
REMARK INTRA:                  -2.610
REMARK UNBOUND:                -2.749
REMARK SMILES CCCCCCCCC=CCCCCCCCC(=O)[O-]
REMARK SMILES IDX 10 1 9 2 11 3 12 4 13 5 14 6 15 7 16 8 17 9 18 10 19 11
REMARK SMILES IDX 20 12 8 13 7 14 6 15 5 16 4 17 3 18 2 19 1 20
REMARK H PARENT
REMARK Flexibility Score: inf
ROOT
ATOM      1  C   UNL     1      17.964  12.269  29.804  1.00  0.00    -0.031 C 
ATOM      2  C   UNL     1      17.724  12.906  30.966  1.00  0.00    -0.031 C 
ENDROOT
BRANCH   1   3
ATOM      3  C   UNL     1      17.266  11.016  29.337  1.00  0.00     0.027 C 
BRANCH   3   4
ATOM      4  C   UNL     1      16.791  11.145  27.885  1.00  0.00     0.004 C 
BRANCH   4   5
ATOM      5  C   UNL     1      17.172  12.512  27.302  1.00  0.00     0.000 C 
BRANCH   5   6
ATOM      6  C   UNL     1      16.036  13.151  26.482  1.00  0.00     0.000 C 
BRANCH   6   7
ATOM      7  C   UNL     1      15.540  14.513  27.005  1.00  0.00     0.000 C 
BRANCH   7   8
ATOM      8  C   UNL     1      15.870  14.808  28.482  1.00  0.00     0.006 C 
BRANCH   8   9
ATOM      9  C   UNL     1      14.639  14.944  29.392  1.00  0.00     0.053 C 
BRANCH   9  10
ATOM     10  C   UNL     1      13.688  13.799  29.222  1.00  0.00     0.041 C 
ATOM     11  O   UNL     1      12.527  14.000  28.778  1.00  0.00    -0.550 OA
ATOM     12  O   UNL     1      14.073  12.515  29.587  1.00  0.00    -0.550 OA
ENDBRANCH   9  10
ENDBRANCH   8   9
ENDBRANCH   7   8
ENDBRANCH   6   7
ENDBRANCH   5   6
ENDBRANCH   4   5
ENDBRANCH   3   4
ENDBRANCH   1   3
BRANCH   2  13
ATOM     13  C   UNL     1      16.699  12.492  31.997  1.00  0.00     0.027 C 
BRANCH  13  14
ATOM     14  C   UNL     1      16.692  13.440  33.207  1.00  0.00     0.004 C 
BRANCH  14  15
ATOM     15  C   UNL     1      17.561  12.974  34.391  1.00  0.00     0.000 C 
BRANCH  15  16
ATOM     16  C   UNL     1      18.835  13.822  34.594  1.00  0.00     0.000 C 
BRANCH  16  17
ATOM     17  C   UNL     1      20.117  12.977  34.489  1.00  0.00    -0.000 C 
BRANCH  17  18
ATOM     18  C   UNL     1      19.837  11.524  34.074  1.00  0.00    -0.000 C 
BRANCH  18  19
ATOM     19  C   UNL     1      20.300  11.216  32.643  1.00  0.00    -0.003 C 
ATOM     20  C   UNL     1      19.723   9.893  32.152  1.00  0.00     0.004 C 
ENDBRANCH  18  19
ENDBRANCH  17  18
ENDBRANCH  16  17
ENDBRANCH  15  16
ENDBRANCH  14  15
ENDBRANCH  13  14
ENDBRANCH   2  13
TORSDOF 15
ENDMDL
MODEL 8
REMARK VINA RESULT:    -4.382      1.753      3.047
REMARK INTER + INTRA:         -10.974
REMARK INTER:                  -8.234
REMARK INTRA:                  -2.740
REMARK UNBOUND:                -2.749
REMARK SMILES CCCCCCCCC=CCCCCCCCC(=O)[O-]
REMARK SMILES IDX 10 1 9 2 11 3 12 4 13 5 14 6 15 7 16 8 17 9 18 10 19 11
REMARK SMILES IDX 20 12 8 13 7 14 6 15 5 16 4 17 3 18 2 19 1 20
REMARK H PARENT
REMARK Flexibility Score: inf
ROOT
ATOM      1  C   UNL     1      14.522  13.844  29.122  1.00  0.00    -0.031 C 
ATOM      2  C   UNL     1      14.309  12.515  29.085  1.00  0.00    -0.031 C 
ENDROOT
BRANCH   1   3
ATOM      3  C   UNL     1      15.242  14.582  30.222  1.00  0.00     0.027 C 
BRANCH   3   4
ATOM      4  C   UNL     1      16.744  14.695  29.935  1.00  0.00     0.004 C 
BRANCH   4   5
ATOM      5  C   UNL     1      17.570  14.193  31.127  1.00  0.00     0.000 C 
BRANCH   5   6
ATOM      6  C   UNL     1      16.767  14.165  32.441  1.00  0.00     0.000 C 
BRANCH   6   7
ATOM      7  C   UNL     1      16.576  12.765  33.059  1.00  0.00     0.000 C 
BRANCH   7   8
ATOM      8  C   UNL     1      17.547  12.416  34.204  1.00  0.00     0.006 C 
BRANCH   8   9
ATOM      9  C   UNL     1      18.416  13.592  34.678  1.00  0.00     0.053 C 
BRANCH   9  10
ATOM     10  C   UNL     1      19.024  13.332  36.023  1.00  0.00     0.041 C 
ATOM     11  O   UNL     1      19.680  14.234  36.607  1.00  0.00    -0.550 OA
ATOM     12  O   UNL     1      18.896  12.082  36.615  1.00  0.00    -0.550 OA
ENDBRANCH   9  10
ENDBRANCH   8   9
ENDBRANCH   7   8
ENDBRANCH   6   7
ENDBRANCH   5   6
ENDBRANCH   4   5
ENDBRANCH   3   4
ENDBRANCH   1   3
BRANCH   2  13
ATOM     13  C   UNL     1      14.775  11.524  30.129  1.00  0.00     0.027 C 
BRANCH  13  14
ATOM     14  C   UNL     1      15.725  10.473  29.533  1.00  0.00     0.004 C 
BRANCH  14  15
ATOM     15  C   UNL     1      17.133  10.999  29.194  1.00  0.00     0.000 C 
BRANCH  15  16
ATOM     16  C   UNL     1      18.164  10.776  30.322  1.00  0.00     0.000 C 
BRANCH  16  17
ATOM     17  C   UNL     1      17.850   9.518  31.152  1.00  0.00    -0.000 C 
BRANCH  17  18
ATOM     18  C   UNL     1      18.645   9.462  32.466  1.00  0.00    -0.000 C 
BRANCH  18  19
ATOM     19  C   UNL     1      19.945  10.275  32.408  1.00  0.00    -0.003 C 
ATOM     20  C   UNL     1      20.609  10.349  33.779  1.00  0.00     0.004 C 
ENDBRANCH  18  19
ENDBRANCH  17  18
ENDBRANCH  16  17
ENDBRANCH  15  16
ENDBRANCH  14  15
ENDBRANCH  13  14
ENDBRANCH   2  13
TORSDOF 15
ENDMDL
MODEL 9
REMARK VINA RESULT:    -4.357     10.842     12.933
REMARK INTER + INTRA:         -10.926
REMARK INTER:                  -8.467
REMARK INTRA:                  -2.459
REMARK UNBOUND:                -2.749
REMARK SMILES CCCCCCCCC=CCCCCCCCC(=O)[O-]
REMARK SMILES IDX 10 1 9 2 11 3 12 4 13 5 14 6 15 7 16 8 17 9 18 10 19 11
REMARK SMILES IDX 20 12 8 13 7 14 6 15 5 16 4 17 3 18 2 19 1 20
REMARK H PARENT
REMARK Flexibility Score: inf
ROOT
ATOM      1  C   UNL     1      14.121  23.682  36.949  1.00  0.00    -0.031 C 
ATOM      2  C   UNL     1      14.360  22.540  36.276  1.00  0.00    -0.031 C 
ENDROOT
BRANCH   1   3
ATOM      3  C   UNL     1      13.606  24.962  36.339  1.00  0.00     0.027 C 
BRANCH   3   4
ATOM      4  C   UNL     1      14.738  25.781  35.710  1.00  0.00     0.004 C 
BRANCH   4   5
ATOM      5  C   UNL     1      16.022  25.674  36.544  1.00  0.00     0.000 C 
BRANCH   5   6
ATOM      6  C   UNL     1      17.272  25.407  35.685  1.00  0.00     0.000 C 
BRANCH   6   7
ATOM      7  C   UNL     1      17.044  24.488  34.468  1.00  0.00     0.000 C 
BRANCH   7   8
ATOM      8  C   UNL     1      17.892  23.200  34.451  1.00  0.00     0.006 C 
BRANCH   8   9
ATOM      9  C   UNL     1      18.134  22.583  35.838  1.00  0.00     0.053 C 
BRANCH   9  10
ATOM     10  C   UNL     1      19.591  22.547  36.188  1.00  0.00     0.041 C 
ATOM     11  O   UNL     1      19.955  22.605  37.391  1.00  0.00    -0.550 OA
ATOM     12  O   UNL     1      20.547  22.485  35.182  1.00  0.00    -0.550 OA
ENDBRANCH   9  10
ENDBRANCH   8   9
ENDBRANCH   7   8
ENDBRANCH   6   7
ENDBRANCH   5   6
ENDBRANCH   4   5
ENDBRANCH   3   4
ENDBRANCH   1   3
BRANCH   2  13
ATOM     13  C   UNL     1      14.133  22.332  34.796  1.00  0.00     0.027 C 
BRANCH  13  14
ATOM     14  C   UNL     1      12.963  21.371  34.529  1.00  0.00     0.004 C 
BRANCH  14  15
ATOM     15  C   UNL     1      11.649  22.061  34.115  1.00  0.00     0.000 C 
BRANCH  15  16
ATOM     16  C   UNL     1      10.395  21.446  34.774  1.00  0.00     0.000 C 
BRANCH  16  17
ATOM     17  C   UNL     1      10.325  21.748  36.281  1.00  0.00    -0.000 C 
BRANCH  17  18
ATOM     18  C   UNL     1      10.342  23.255  36.585  1.00  0.00    -0.000 C 
BRANCH  18  19
ATOM     19  C   UNL     1      10.554  23.557  38.075  1.00  0.00    -0.003 C 
ATOM     20  C   UNL     1       9.347  24.276  38.667  1.00  0.00     0.004 C 
ENDBRANCH  18  19
ENDBRANCH  17  18
ENDBRANCH  16  17
ENDBRANCH  15  16
ENDBRANCH  14  15
ENDBRANCH  13  14
ENDBRANCH   2  13
TORSDOF 15
ENDMDL
