MODEL 1
REMARK VINA RESULT:    -4.340      0.000      0.000
REMARK INTER + INTRA:          -6.373
REMARK INTER:                  -5.608
REMARK INTRA:                  -0.764
REMARK UNBOUND:                -0.764
REMARK SMILES CCO[C@@H]1O[C@H](CO)[C@H](O)[C@H](O)[C@H]1O
REMARK SMILES IDX 4 1 13 2 11 3 9 4 6 5 5 6 3 7 2 8 1 9 14 10 12 12 7 14 8 15
REMARK SMILES IDX 10 17
REMARK H PARENT 14 11 12 13 8 16 10 18
REMARK Flexibility Score: inf
ROOT
ATOM      1  C   UNL     1      -4.615  -0.653  -6.362  1.00  0.00     0.281 C 
ATOM      2  C   UNL     1      -4.988  -1.708  -7.429  1.00  0.00     0.202 C 
ATOM      3  C   UNL     1      -4.495  -1.298  -8.826  1.00  0.00     0.179 C 
ATOM      4  C   UNL     1      -3.015  -0.871  -8.781  1.00  0.00     0.177 C 
ATOM      5  C   UNL     1      -2.674   0.048  -7.575  1.00  0.00     0.178 C 
ATOM      6  O   UNL     1      -3.220  -0.389  -6.335  1.00  0.00    -0.341 OA
ENDROOT
BRANCH   1   7
ATOM      7  O   UNL     1      -5.340   0.553  -6.558  1.00  0.00    -0.350 OA
BRANCH   7   8
ATOM      8  C   UNL     1      -6.608   0.520  -5.930  1.00  0.00     0.160 C 
ATOM      9  C   UNL     1      -7.715   0.708  -6.961  1.00  0.00     0.035 C 
ENDBRANCH   7   8
ENDBRANCH   1   7
BRANCH   2  10
ATOM     10  O   UNL     1      -4.498  -2.981  -7.076  1.00  0.00    -0.385 OA
ATOM     11  H   UNL     1      -3.597  -2.868  -6.677  1.00  0.00     0.211 HD
ENDBRANCH   2  10
BRANCH   3  12
ATOM     12  O   UNL     1      -5.291  -0.262  -9.340  1.00  0.00    -0.387 OA
ATOM     13  H   UNL     1      -6.150  -0.282  -8.844  1.00  0.00     0.211 HD
ENDBRANCH   3  12
BRANCH   5  14
ATOM     14  C   UNL     1      -2.828   1.575  -7.793  1.00  0.00     0.191 C 
BRANCH  14  15
ATOM     15  O   UNL     1      -3.765   1.890  -8.787  1.00  0.00    -0.394 OA
ATOM     16  H   UNL     1      -4.178   1.037  -9.084  1.00  0.00     0.210 HD
ENDBRANCH  14  15
ENDBRANCH   5  14
BRANCH   4  17
ATOM     17  O   UNL     1      -2.639  -0.255  -9.987  1.00  0.00    -0.387 OA
ATOM     18  H   UNL     1      -1.804  -0.699 -10.290  1.00  0.00     0.211 HD
ENDBRANCH   4  17
TORSDOF 7
ENDMDL
MODEL 2
REMARK VINA RESULT:    -4.319      1.780      3.414
REMARK INTER + INTRA:          -6.346
REMARK INTER:                  -5.595
REMARK INTRA:                  -0.751
REMARK UNBOUND:                -0.764
REMARK SMILES CCO[C@@H]1O[C@H](CO)[C@H](O)[C@H](O)[C@H]1O
REMARK SMILES IDX 4 1 13 2 11 3 9 4 6 5 5 6 3 7 2 8 1 9 14 10 12 12 7 14 8 15
REMARK SMILES IDX 10 17
REMARK H PARENT 14 11 12 13 8 16 10 18
REMARK Flexibility Score: inf
ROOT
ATOM      1  C   UNL     1      -2.412  -0.997  -6.816  1.00  0.00     0.281 C 
ATOM      2  C   UNL     1      -1.372  -0.669  -7.912  1.00  0.00     0.202 C 
ATOM      3  C   UNL     1      -2.050  -0.287  -9.238  1.00  0.00     0.179 C 
ATOM      4  C   UNL     1      -3.149   0.768  -9.007  1.00  0.00     0.177 C 
ATOM      5  C   UNL     1      -4.047   0.464  -7.775  1.00  0.00     0.178 C 
ATOM      6  O   UNL     1      -3.328   0.068  -6.612  1.00  0.00    -0.341 OA
ENDROOT
BRANCH   1   7
ATOM      7  O   UNL     1      -3.111  -2.196  -7.115  1.00  0.00    -0.350 OA
BRANCH   7   8
ATOM      8  C   UNL     1      -3.034  -3.135  -6.058  1.00  0.00     0.160 C 
ATOM      9  C   UNL     1      -4.432  -3.501  -5.572  1.00  0.00     0.035 C 
ENDBRANCH   7   8
ENDBRANCH   1   7
BRANCH   2  10
ATOM     10  O   UNL     1      -0.490   0.344  -7.488  1.00  0.00    -0.385 OA
ATOM     11  H   UNL     1       0.404  -0.061  -7.344  1.00  0.00     0.211 HD
ENDBRANCH   2  10
BRANCH   3  12
ATOM     12  O   UNL     1      -2.584  -1.426  -9.860  1.00  0.00    -0.387 OA
ATOM     13  H   UNL     1      -2.184  -2.216  -9.412  1.00  0.00     0.211 HD
ENDBRANCH   3  12
BRANCH   5  14
ATOM     14  C   UNL     1      -5.308  -0.401  -8.025  1.00  0.00     0.191 C 
BRANCH  14  15
ATOM     15  O   UNL     1      -5.126  -1.344  -9.047  1.00  0.00    -0.394 OA
ATOM     16  H   UNL     1      -4.813  -0.851  -9.851  1.00  0.00     0.210 HD
ENDBRANCH  14  15
ENDBRANCH   5  14
BRANCH   4  17
ATOM     17  O   UNL     1      -3.937   0.926 -10.160  1.00  0.00    -0.387 OA
ATOM     18  H   UNL     1      -4.800   1.320  -9.868  1.00  0.00     0.211 HD
ENDBRANCH   4  17
TORSDOF 7
ENDMDL
MODEL 3
REMARK VINA RESULT:    -4.274      1.570      2.797
REMARK INTER + INTRA:          -6.287
REMARK INTER:                  -5.551
REMARK INTRA:                  -0.736
REMARK UNBOUND:                -0.764
REMARK SMILES CCO[C@@H]1O[C@H](CO)[C@H](O)[C@H](O)[C@H]1O
REMARK SMILES IDX 4 1 13 2 11 3 9 4 6 5 5 6 3 7 2 8 1 9 14 10 12 12 7 14 8 15
REMARK SMILES IDX 10 17
REMARK H PARENT 14 11 12 13 8 16 10 18
REMARK Flexibility Score: inf
ROOT
ATOM      1  C   UNL     1      -5.846   0.892  -6.481  1.00  0.00     0.281 C 
ATOM      2  C   UNL     1      -6.734   0.132  -7.493  1.00  0.00     0.202 C 
ATOM      3  C   UNL     1      -5.929  -0.921  -8.272  1.00  0.00     0.179 C 
ATOM      4  C   UNL     1      -5.094  -1.791  -7.314  1.00  0.00     0.177 C 
ATOM      5  C   UNL     1      -4.370  -0.972  -6.208  1.00  0.00     0.178 C 
ATOM      6  O   UNL     1      -5.185   0.013  -5.583  1.00  0.00    -0.341 OA
ENDROOT
BRANCH   1   7
ATOM      7  O   UNL     1      -4.901   1.717  -7.147  1.00  0.00    -0.350 OA
BRANCH   7   8
ATOM      8  C   UNL     1      -4.898   3.039  -6.641  1.00  0.00     0.160 C 
ATOM      9  C   UNL     1      -3.530   3.680  -6.843  1.00  0.00     0.035 C 
ENDBRANCH   7   8
ENDBRANCH   1   7
BRANCH   2  10
ATOM     10  O   UNL     1      -7.843  -0.455  -6.854  1.00  0.00    -0.385 OA
ATOM     11  H   UNL     1      -8.394  -0.911  -7.541  1.00  0.00     0.211 HD
ENDBRANCH   2  10
BRANCH   3  12
ATOM     12  O   UNL     1      -5.101  -0.300  -9.221  1.00  0.00    -0.387 OA
ATOM     13  H   UNL     1      -4.843  -0.995  -9.881  1.00  0.00     0.211 HD
ENDBRANCH   3  12
BRANCH   5  14
ATOM     14  C   UNL     1      -2.948  -0.452  -6.541  1.00  0.00     0.191 C 
BRANCH  14  15
ATOM     15  O   UNL     1      -2.774  -0.184  -7.906  1.00  0.00    -0.394 OA
ATOM     16  H   UNL     1      -3.672   0.006  -8.287  1.00  0.00     0.210 HD
ENDBRANCH  14  15
ENDBRANCH   5  14
BRANCH   4  17
ATOM     17  O   UNL     1      -4.169  -2.572  -8.029  1.00  0.00    -0.387 OA
ATOM     18  H   UNL     1      -3.518  -1.945  -8.439  1.00  0.00     0.211 HD
ENDBRANCH   4  17
TORSDOF 7
ENDMDL
MODEL 4
REMARK VINA RESULT:    -4.242      1.637      3.149
REMARK INTER + INTRA:          -6.246
REMARK INTER:                  -5.828
REMARK INTRA:                  -0.418
REMARK UNBOUND:                -0.764
REMARK SMILES CCO[C@@H]1O[C@H](CO)[C@H](O)[C@H](O)[C@H]1O
REMARK SMILES IDX 4 1 13 2 11 3 9 4 6 5 5 6 3 7 2 8 1 9 14 10 12 12 7 14 8 15
REMARK SMILES IDX 10 17
REMARK H PARENT 14 11 12 13 8 16 10 18
REMARK Flexibility Score: inf
ROOT
ATOM      1  C   UNL     1      -3.001  -1.813  -6.757  1.00  0.00     0.281 C 
ATOM      2  C   UNL     1      -4.423  -2.297  -6.390  1.00  0.00     0.202 C 
ATOM      3  C   UNL     1      -5.503  -1.482  -7.120  1.00  0.00     0.179 C 
ATOM      4  C   UNL     1      -5.188  -1.380  -8.625  1.00  0.00     0.177 C 
ATOM      5  C   UNL     1      -3.695  -1.068  -8.923  1.00  0.00     0.178 C 
ATOM      6  O   UNL     1      -2.773  -1.837  -8.158  1.00  0.00    -0.341 OA
ENDROOT
BRANCH   1   7
ATOM      7  O   UNL     1      -2.751  -0.514  -6.241  1.00  0.00    -0.350 OA
BRANCH   7   8
ATOM      8  C   UNL     1      -1.927  -0.548  -5.090  1.00  0.00     0.160 C 
ATOM      9  C   UNL     1      -0.703  -1.422  -5.341  1.00  0.00     0.035 C 
ENDBRANCH   7   8
ENDBRANCH   1   7
BRANCH   2  10
ATOM     10  O   UNL     1      -4.572  -3.674  -6.646  1.00  0.00    -0.385 OA
ATOM     11  H   UNL     1      -3.675  -4.057  -6.825  1.00  0.00     0.211 HD
ENDBRANCH   2  10
BRANCH   3  12
ATOM     12  O   UNL     1      -5.617  -0.203  -6.553  1.00  0.00    -0.387 OA
ATOM     13  H   UNL     1      -6.456  -0.194  -6.023  1.00  0.00     0.211 HD
ENDBRANCH   3  12
BRANCH   5  14
ATOM     14  C   UNL     1      -3.298   0.428  -9.015  1.00  0.00     0.191 C 
BRANCH  14  15
ATOM     15  O   UNL     1      -3.769   1.044 -10.182  1.00  0.00    -0.394 OA
ATOM     16  H   UNL     1      -3.012   1.078 -10.824  1.00  0.00     0.210 HD
ENDBRANCH  14  15
ENDBRANCH   5  14
BRANCH   4  17
ATOM     17  O   UNL     1      -6.020  -0.431  -9.243  1.00  0.00    -0.387 OA
ATOM     18  H   UNL     1      -5.552  -0.130 -10.066  1.00  0.00     0.211 HD
ENDBRANCH   4  17
TORSDOF 7
ENDMDL
MODEL 5
REMARK VINA RESULT:    -4.227      1.708      4.244
REMARK INTER + INTRA:          -6.227
REMARK INTER:                  -5.492
REMARK INTRA:                  -0.735
REMARK UNBOUND:                -0.764
REMARK SMILES CCO[C@@H]1O[C@H](CO)[C@H](O)[C@H](O)[C@H]1O
REMARK SMILES IDX 4 1 13 2 11 3 9 4 6 5 5 6 3 7 2 8 1 9 14 10 12 12 7 14 8 15
REMARK SMILES IDX 10 17
REMARK H PARENT 14 11 12 13 8 16 10 18
REMARK Flexibility Score: inf
ROOT
ATOM      1  C   UNL     1      -2.072  -1.160  -8.038  1.00  0.00     0.281 C 
ATOM      2  C   UNL     1      -1.859   0.338  -8.359  1.00  0.00     0.202 C 
ATOM      3  C   UNL     1      -3.197   1.074  -8.531  1.00  0.00     0.179 C 
ATOM      4  C   UNL     1      -4.151   0.759  -7.362  1.00  0.00     0.177 C 
ATOM      5  C   UNL     1      -4.177  -0.746  -6.975  1.00  0.00     0.178 C 
ATOM      6  O   UNL     1      -2.891  -1.351  -6.893  1.00  0.00    -0.341 OA
ENDROOT
BRANCH   1   7
ATOM      7  O   UNL     1      -2.617  -1.851  -9.152  1.00  0.00    -0.350 OA
BRANCH   7   8
ATOM      8  C   UNL     1      -1.629  -2.568  -9.869  1.00  0.00     0.160 C 
ATOM      9  C   UNL     1      -1.419  -1.948 -11.245  1.00  0.00     0.035 C 
ENDBRANCH   7   8
ENDBRANCH   1   7
BRANCH   2  10
ATOM     10  O   UNL     1      -1.066   0.959  -7.375  1.00  0.00    -0.385 OA
ATOM     11  H   UNL     1      -1.642   1.166  -6.595  1.00  0.00     0.211 HD
ENDBRANCH   2  10
BRANCH   3  12
ATOM     12  O   UNL     1      -3.791   0.731  -9.756  1.00  0.00    -0.387 OA
ATOM     13  H   UNL     1      -4.025   1.579 -10.214  1.00  0.00     0.211 HD
ENDBRANCH   3  12
BRANCH   5  14
ATOM     14  C   UNL     1      -5.214  -1.637  -7.705  1.00  0.00     0.191 C 
BRANCH  14  15
ATOM     15  O   UNL     1      -5.411  -1.259  -9.041  1.00  0.00    -0.394 OA
ATOM     16  H   UNL     1      -5.401  -0.267  -9.071  1.00  0.00     0.210 HD
ENDBRANCH  14  15
ENDBRANCH   5  14
BRANCH   4  17
ATOM     17  O   UNL     1      -5.450   1.215  -7.643  1.00  0.00    -0.387 OA
ATOM     18  H   UNL     1      -5.761   1.712  -6.842  1.00  0.00     0.211 HD
ENDBRANCH   4  17
TORSDOF 7
ENDMDL
MODEL 6
REMARK VINA RESULT:    -4.132      2.162      4.676
REMARK INTER + INTRA:          -6.105
REMARK INTER:                  -5.348
REMARK INTRA:                  -0.757
REMARK UNBOUND:                -0.764
REMARK SMILES CCO[C@@H]1O[C@H](CO)[C@H](O)[C@H](O)[C@H]1O
REMARK SMILES IDX 4 1 13 2 11 3 9 4 6 5 5 6 3 7 2 8 1 9 14 10 12 12 7 14 8 15
REMARK SMILES IDX 10 17
REMARK H PARENT 14 11 12 13 8 16 10 18
REMARK Flexibility Score: inf
ROOT
ATOM      1  C   UNL     1      -2.425  -1.259  -9.017  1.00  0.00     0.281 C 
ATOM      2  C   UNL     1      -3.902  -0.995  -8.644  1.00  0.00     0.202 C 
ATOM      3  C   UNL     1      -4.269  -1.640  -7.298  1.00  0.00     0.179 C 
ATOM      4  C   UNL     1      -3.225  -1.291  -6.221  1.00  0.00     0.177 C 
ATOM      5  C   UNL     1      -1.758  -1.406  -6.723  1.00  0.00     0.178 C 
ATOM      6  O   UNL     1      -1.532  -0.824  -8.002  1.00  0.00    -0.341 OA
ENDROOT
BRANCH   1   7
ATOM      7  O   UNL     1      -2.207  -2.631  -9.309  1.00  0.00    -0.350 OA
BRANCH   7   8
ATOM      8  C   UNL     1      -1.184  -2.815 -10.270  1.00  0.00     0.160 C 
ATOM      9  C   UNL     1      -1.423  -1.915 -11.477  1.00  0.00     0.035 C 
ENDBRANCH   7   8
ENDBRANCH   1   7
BRANCH   2  10
ATOM     10  O   UNL     1      -4.184   0.385  -8.635  1.00  0.00    -0.385 OA
ATOM     11  H   UNL     1      -4.112   0.711  -7.701  1.00  0.00     0.211 HD
ENDBRANCH   2  10
BRANCH   3  12
ATOM     12  O   UNL     1      -4.386  -3.032  -7.438  1.00  0.00    -0.387 OA
ATOM     13  H   UNL     1      -4.900  -3.198  -8.271  1.00  0.00     0.211 HD
ENDBRANCH   3  12
BRANCH   5  14
ATOM     14  C   UNL     1      -1.069  -2.784  -6.559  1.00  0.00     0.191 C 
BRANCH  14  15
ATOM     15  O   UNL     1      -1.947  -3.858  -6.762  1.00  0.00    -0.394 OA
ATOM     16  H   UNL     1      -2.870  -3.512  -6.637  1.00  0.00     0.210 HD
ENDBRANCH  14  15
ENDBRANCH   5  14
BRANCH   4  17
ATOM     17  O   UNL     1      -3.412  -2.079  -5.072  1.00  0.00    -0.387 OA
ATOM     18  H   UNL     1      -3.895  -2.898  -5.360  1.00  0.00     0.211 HD
ENDBRANCH   4  17
TORSDOF 7
ENDMDL
MODEL 7
REMARK VINA RESULT:    -4.080      1.404      4.076
REMARK INTER + INTRA:          -6.036
REMARK INTER:                  -5.239
REMARK INTRA:                  -0.798
REMARK UNBOUND:                -0.764
REMARK SMILES CCO[C@@H]1O[C@H](CO)[C@H](O)[C@H](O)[C@H]1O
REMARK SMILES IDX 4 1 13 2 11 3 9 4 6 5 5 6 3 7 2 8 1 9 14 10 12 12 7 14 8 15
REMARK SMILES IDX 10 17
REMARK H PARENT 14 11 12 13 8 16 10 18
REMARK Flexibility Score: inf
ROOT
ATOM      1  C   UNL     1      -3.005   0.250  -6.723  1.00  0.00     0.281 C 
ATOM      2  C   UNL     1      -3.088   0.822  -8.157  1.00  0.00     0.202 C 
ATOM      3  C   UNL     1      -3.956  -0.061  -9.069  1.00  0.00     0.179 C 
ATOM      4  C   UNL     1      -5.299  -0.394  -8.391  1.00  0.00     0.177 C 
ATOM      5  C   UNL     1      -5.154  -0.789  -6.894  1.00  0.00     0.178 C 
ATOM      6  O   UNL     1      -4.288   0.059  -6.148  1.00  0.00    -0.341 OA
ENDROOT
BRANCH   1   7
ATOM      7  O   UNL     1      -2.270  -0.965  -6.698  1.00  0.00    -0.350 OA
BRANCH   7   8
ATOM      8  C   UNL     1      -0.874  -0.745  -6.792  1.00  0.00     0.160 C 
ATOM      9  C   UNL     1      -0.231  -1.801  -7.684  1.00  0.00     0.035 C 
ENDBRANCH   7   8
ENDBRANCH   1   7
BRANCH   2  10
ATOM     10  O   UNL     1      -3.559   2.150  -8.147  1.00  0.00    -0.385 OA
ATOM     11  H   UNL     1      -3.119   2.642  -8.887  1.00  0.00     0.211 HD
ENDBRANCH   2  10
BRANCH   3  12
ATOM     12  O   UNL     1      -3.270  -1.238  -9.406  1.00  0.00    -0.387 OA
ATOM     13  H   UNL     1      -3.904  -1.808  -9.914  1.00  0.00     0.211 HD
ENDBRANCH   3  12
BRANCH   5  14
ATOM     14  C   UNL     1      -4.936  -2.292  -6.586  1.00  0.00     0.191 C 
BRANCH  14  15
ATOM     15  O   UNL     1      -4.214  -2.953  -7.590  1.00  0.00    -0.394 OA
ATOM     16  H   UNL     1      -4.250  -3.925  -7.387  1.00  0.00     0.210 HD
ENDBRANCH  14  15
ENDBRANCH   5  14
BRANCH   4  17
ATOM     17  O   UNL     1      -5.978  -1.400  -9.099  1.00  0.00    -0.387 OA
ATOM     18  H   UNL     1      -6.016  -2.195  -8.506  1.00  0.00     0.211 HD
ENDBRANCH   4  17
TORSDOF 7
ENDMDL
MODEL 8
REMARK VINA RESULT:    -4.008      1.612      3.357
REMARK INTER + INTRA:          -5.944
REMARK INTER:                  -5.515
REMARK INTRA:                  -0.430
REMARK UNBOUND:                -0.764
REMARK SMILES CCO[C@@H]1O[C@H](CO)[C@H](O)[C@H](O)[C@H]1O
REMARK SMILES IDX 4 1 13 2 11 3 9 4 6 5 5 6 3 7 2 8 1 9 14 10 12 12 7 14 8 15
REMARK SMILES IDX 10 17
REMARK H PARENT 14 11 12 13 8 16 10 18
REMARK Flexibility Score: inf
ROOT
ATOM      1  C   UNL     1      -4.566   0.626  -7.872  1.00  0.00     0.281 C 
ATOM      2  C   UNL     1      -3.331   0.795  -8.788  1.00  0.00     0.202 C 
ATOM      3  C   UNL     1      -2.410  -0.434  -8.727  1.00  0.00     0.179 C 
ATOM      4  C   UNL     1      -3.218  -1.733  -8.910  1.00  0.00     0.177 C 
ATOM      5  C   UNL     1      -4.541  -1.757  -8.095  1.00  0.00     0.178 C 
ATOM      6  O   UNL     1      -5.297  -0.553  -8.173  1.00  0.00    -0.341 OA
ENDROOT
BRANCH   1   7
ATOM      7  O   UNL     1      -4.194   0.638  -6.502  1.00  0.00    -0.350 OA
BRANCH   7   8
ATOM      8  C   UNL     1      -4.436   1.894  -5.895  1.00  0.00     0.160 C 
ATOM      9  C   UNL     1      -5.747   2.483  -6.403  1.00  0.00     0.035 C 
ENDBRANCH   7   8
ENDBRANCH   1   7
BRANCH   2  10
ATOM     10  O   UNL     1      -3.717   1.070 -10.114  1.00  0.00    -0.385 OA
ATOM     11  H   UNL     1      -4.502   0.504 -10.334  1.00  0.00     0.211 HD
ENDBRANCH   2  10
BRANCH   3  12
ATOM     12  O   UNL     1      -1.706  -0.458  -7.512  1.00  0.00    -0.387 OA
ATOM     13  H   UNL     1      -1.623   0.482  -7.206  1.00  0.00     0.211 HD
ENDBRANCH   3  12
BRANCH   5  14
ATOM     14  C   UNL     1      -4.466  -2.326  -6.655  1.00  0.00     0.191 C 
BRANCH  14  15
ATOM     15  O   UNL     1      -4.462  -3.728  -6.624  1.00  0.00    -0.394 OA
ATOM     16  H   UNL     1      -3.547  -4.014  -6.365  1.00  0.00     0.210 HD
ENDBRANCH  14  15
ENDBRANCH   5  14
BRANCH   4  17
ATOM     17  O   UNL     1      -2.431  -2.855  -8.598  1.00  0.00    -0.387 OA
ATOM     18  H   UNL     1      -1.507  -2.526  -8.442  1.00  0.00     0.211 HD
ENDBRANCH   4  17
TORSDOF 7
ENDMDL
MODEL 9
REMARK VINA RESULT:    -3.946      1.479      3.913
REMARK INTER + INTRA:          -5.864
REMARK INTER:                  -5.101
REMARK INTRA:                  -0.763
REMARK UNBOUND:                -0.764
REMARK SMILES CCO[C@@H]1O[C@H](CO)[C@H](O)[C@H](O)[C@H]1O
REMARK SMILES IDX 4 1 13 2 11 3 9 4 6 5 5 6 3 7 2 8 1 9 14 10 12 12 7 14 8 15
REMARK SMILES IDX 10 17
REMARK H PARENT 14 11 12 13 8 16 10 18
REMARK Flexibility Score: inf
ROOT
ATOM      1  C   UNL     1      -3.851  -0.463  -8.663  1.00  0.00     0.281 C 
ATOM      2  C   UNL     1      -5.281  -1.051  -8.628  1.00  0.00     0.202 C 
ATOM      3  C   UNL     1      -5.907  -0.929  -7.229  1.00  0.00     0.179 C 
ATOM      4  C   UNL     1      -5.748   0.501  -6.680  1.00  0.00     0.177 C 
ATOM      5  C   UNL     1      -4.331   1.097  -6.913  1.00  0.00     0.178 C 
ATOM      6  O   UNL     1      -3.817   0.886  -8.224  1.00  0.00    -0.341 OA
ENDROOT
BRANCH   1   7
ATOM      7  O   UNL     1      -2.953  -1.253  -7.899  1.00  0.00    -0.350 OA
BRANCH   7   8
ATOM      8  C   UNL     1      -2.326  -2.253  -8.679  1.00  0.00     0.160 C 
ATOM      9  C   UNL     1      -1.837  -1.667  -9.999  1.00  0.00     0.035 C 
ENDBRANCH   7   8
ENDBRANCH   1   7
BRANCH   2  10
ATOM     10  O   UNL     1      -6.102  -0.448  -9.601  1.00  0.00    -0.385 OA
ATOM     11  H   UNL     1      -7.011  -0.837  -9.526  1.00  0.00     0.211 HD
ENDBRANCH   2  10
BRANCH   3  12
ATOM     12  O   UNL     1      -5.329  -1.861  -6.352  1.00  0.00    -0.387 OA
ATOM     13  H   UNL     1      -4.580  -2.293  -6.840  1.00  0.00     0.211 HD
ENDBRANCH   3  12
BRANCH   5  14
ATOM     14  C   UNL     1      -3.276   0.845  -5.806  1.00  0.00     0.191 C 
BRANCH  14  15
ATOM     15  O   UNL     1      -3.488  -0.357  -5.117  1.00  0.00    -0.394 OA
ATOM     16  H   UNL     1      -2.761  -0.980  -5.380  1.00  0.00     0.210 HD
ENDBRANCH  14  15
ENDBRANCH   5  14
BRANCH   4  17
ATOM     17  O   UNL     1      -6.081   0.550  -5.315  1.00  0.00    -0.387 OA
ATOM     18  H   UNL     1      -6.269  -0.382  -5.031  1.00  0.00     0.211 HD
ENDBRANCH   4  17
TORSDOF 7
ENDMDL
