MODEL 1
REMARK VINA RESULT:    -4.399      0.000      0.000
REMARK INTER + INTRA:          -5.764
REMARK INTER:                  -5.299
REMARK INTRA:                  -0.465
REMARK UNBOUND:                -0.465
REMARK SMILES CCCCc1oc(O)c2ccccc12
REMARK SMILES IDX 4 1 5 2 7 3 6 4 9 5 14 6 10 7 13 8 11 9 12 10 8 11 3 13 2 14
REMARK SMILES IDX 1 15
REMARK H PARENT 8 12
REMARK Flexibility Score: inf
ROOT
ATOM      1  C   UNL     1      17.773  80.382  25.602  1.00  0.00     0.076 C 
ENDROOT
BRANCH   1   2
ATOM      2  C   UNL     1      17.266  78.974  25.583  1.00  0.00     0.116 A 
ATOM      3  C   UNL     1      17.218  76.849  25.859  1.00  0.00     0.290 A 
ATOM      4  O   UNL     1      17.937  77.938  26.056  1.00  0.00    -0.430 OA
ATOM      5  C   UNL     1      16.038  77.175  25.232  1.00  0.00     0.066 A 
ATOM      6  C   UNL     1      16.066  78.532  25.052  1.00  0.00     0.027 A 
ATOM      7  C   UNL     1      14.965  76.395  24.808  1.00  0.00     0.016 A 
ATOM      8  C   UNL     1      15.019  79.210  24.428  1.00  0.00     0.012 A 
ATOM      9  C   UNL     1      13.891  77.051  24.177  1.00  0.00     0.001 A 
ATOM     10  C   UNL     1      13.918  78.451  23.988  1.00  0.00     0.001 A 
BRANCH   3  11
ATOM     11  O   UNL     1      17.613  75.569  26.233  1.00  0.00    -0.480 OA
ATOM     12  H   UNL     1      16.968  74.954  26.713  1.00  0.00     0.297 HD
ENDBRANCH   3  11
ENDBRANCH   1   2
BRANCH   1  13
ATOM     13  C   UNL     1      18.243  80.763  27.013  1.00  0.00     0.008 C 
BRANCH  13  14
ATOM     14  C   UNL     1      17.096  80.762  28.035  1.00  0.00    -0.003 C 
ATOM     15  C   UNL     1      15.973  81.729  27.662  1.00  0.00     0.004 C 
ENDBRANCH  13  14
ENDBRANCH   1  13
TORSDOF 4
ENDMDL
MODEL 2
REMARK VINA RESULT:    -4.267      2.194      3.265
REMARK INTER + INTRA:          -5.605
REMARK INTER:                  -5.159
REMARK INTRA:                  -0.447
REMARK UNBOUND:                -0.465
REMARK SMILES CCCCc1oc(O)c2ccccc12
REMARK SMILES IDX 4 1 5 2 7 3 6 4 9 5 14 6 10 7 13 8 11 9 12 10 8 11 3 13 2 14
REMARK SMILES IDX 1 15
REMARK H PARENT 8 12
REMARK Flexibility Score: inf
ROOT
ATOM      1  C   UNL     1      16.517  80.402  27.307  1.00  0.00     0.076 C 
ENDROOT
BRANCH   1   2
ATOM      2  C   UNL     1      15.806  80.114  26.022  1.00  0.00     0.116 A 
ATOM      3  C   UNL     1      14.883  80.445  24.115  1.00  0.00     0.290 A 
ATOM      4  O   UNL     1      15.537  81.026  25.103  1.00  0.00    -0.430 OA
ATOM      5  C   UNL     1      14.711  79.109  24.391  1.00  0.00     0.066 A 
ATOM      6  C   UNL     1      15.297  78.894  25.610  1.00  0.00     0.027 A 
ATOM      7  C   UNL     1      14.088  78.086  23.680  1.00  0.00     0.016 A 
ATOM      8  C   UNL     1      15.300  77.635  26.210  1.00  0.00     0.012 A 
ATOM      9  C   UNL     1      14.077  76.803  24.258  1.00  0.00     0.001 A 
ATOM     10  C   UNL     1      14.679  76.579  25.517  1.00  0.00     0.001 A 
BRANCH   3  11
ATOM     11  O   UNL     1      14.439  81.103  22.974  1.00  0.00    -0.480 OA
ATOM     12  H   UNL     1      14.709  80.774  22.055  1.00  0.00     0.297 HD
ENDBRANCH   3  11
ENDBRANCH   1   2
BRANCH   1  13
ATOM     13  C   UNL     1      17.943  80.896  27.031  1.00  0.00     0.008 C 
BRANCH  13  14
ATOM     14  C   UNL     1      18.656  80.065  25.954  1.00  0.00    -0.003 C 
ATOM     15  C   UNL     1      19.085  78.688  26.461  1.00  0.00     0.004 C 
ENDBRANCH  13  14
ENDBRANCH   1  13
TORSDOF 4
ENDMDL
MODEL 3
REMARK VINA RESULT:    -4.117      1.195      1.683
REMARK INTER + INTRA:          -5.424
REMARK INTER:                  -4.894
REMARK INTRA:                  -0.531
REMARK UNBOUND:                -0.465
REMARK SMILES CCCCc1oc(O)c2ccccc12
REMARK SMILES IDX 4 1 5 2 7 3 6 4 9 5 14 6 10 7 13 8 11 9 12 10 8 11 3 13 2 14
REMARK SMILES IDX 1 15
REMARK H PARENT 8 12
REMARK Flexibility Score: inf
ROOT
ATOM      1  C   UNL     1      16.430  81.610  26.018  1.00  0.00     0.076 C 
ENDROOT
BRANCH   1   2
ATOM      2  C   UNL     1      16.675  80.145  25.833  1.00  0.00     0.116 A 
ATOM      3  C   UNL     1      17.648  78.238  25.943  1.00  0.00     0.290 A 
ATOM      4  O   UNL     1      17.730  79.504  26.305  1.00  0.00    -0.430 OA
ATOM      5  C   UNL     1      16.505  78.037  25.204  1.00  0.00     0.066 A 
ATOM      6  C   UNL     1      15.882  79.254  25.129  1.00  0.00     0.027 A 
ATOM      7  C   UNL     1      15.980  76.899  24.596  1.00  0.00     0.016 A 
ATOM      8  C   UNL     1      14.684  79.423  24.435  1.00  0.00     0.012 A 
ATOM      9  C   UNL     1      14.770  77.037  23.890  1.00  0.00     0.001 A 
ATOM     10  C   UNL     1      14.126  78.293  23.810  1.00  0.00     0.001 A 
BRANCH   3  11
ATOM     11  O   UNL     1      18.588  77.266  26.265  1.00  0.00    -0.480 OA
ATOM     12  H   UNL     1      19.575  77.442  26.126  1.00  0.00     0.297 HD
ENDBRANCH   3  11
ENDBRANCH   1   2
BRANCH   1  13
ATOM     13  C   UNL     1      15.895  81.889  27.429  1.00  0.00     0.008 C 
BRANCH  13  14
ATOM     14  C   UNL     1      14.363  81.805  27.505  1.00  0.00    -0.003 C 
ATOM     15  C   UNL     1      13.875  80.495  28.123  1.00  0.00     0.004 C 
ENDBRANCH  13  14
ENDBRANCH   1  13
TORSDOF 4
ENDMDL
MODEL 4
REMARK VINA RESULT:    -4.115      1.535      2.116
REMARK INTER + INTRA:          -5.422
REMARK INTER:                  -4.945
REMARK INTRA:                  -0.477
REMARK UNBOUND:                -0.465
REMARK SMILES CCCCc1oc(O)c2ccccc12
REMARK SMILES IDX 4 1 5 2 7 3 6 4 9 5 14 6 10 7 13 8 11 9 12 10 8 11 3 13 2 14
REMARK SMILES IDX 1 15
REMARK H PARENT 8 12
REMARK Flexibility Score: inf
ROOT
ATOM      1  C   UNL     1      15.455  80.865  24.738  1.00  0.00     0.076 C 
ENDROOT
BRANCH   1   2
ATOM      2  C   UNL     1      16.099  79.575  25.139  1.00  0.00     0.116 A 
ATOM      3  C   UNL     1      17.584  78.204  25.855  1.00  0.00     0.290 A 
ATOM      4  O   UNL     1      17.321  79.479  25.635  1.00  0.00    -0.430 OA
ATOM      5  C   UNL     1      16.505  77.434  25.489  1.00  0.00     0.066 A 
ATOM      6  C   UNL     1      15.555  78.306  25.028  1.00  0.00     0.027 A 
ATOM      7  C   UNL     1      16.293  76.058  25.518  1.00  0.00     0.016 A 
ATOM      8  C   UNL     1      14.319  77.862  24.558  1.00  0.00     0.012 A 
ATOM      9  C   UNL     1      15.055  75.579  25.052  1.00  0.00     0.001 A 
ATOM     10  C   UNL     1      14.073  76.477  24.574  1.00  0.00     0.001 A 
BRANCH   3  11
ATOM     11  O   UNL     1      18.782  77.729  26.377  1.00  0.00    -0.480 OA
ATOM     12  H   UNL     1      19.134  76.820  26.104  1.00  0.00     0.297 HD
ENDBRANCH   3  11
ENDBRANCH   1   2
BRANCH   1  13
ATOM     13  C   UNL     1      14.324  81.224  25.711  1.00  0.00     0.008 C 
BRANCH  13  14
ATOM     14  C   UNL     1      14.795  81.262  27.173  1.00  0.00    -0.003 C 
ATOM     15  C   UNL     1      14.065  80.248  28.054  1.00  0.00     0.004 C 
ENDBRANCH  13  14
ENDBRANCH   1  13
TORSDOF 4
ENDMDL
MODEL 5
REMARK VINA RESULT:    -4.040      1.570      4.435
REMARK INTER + INTRA:          -5.332
REMARK INTER:                  -4.815
REMARK INTRA:                  -0.516
REMARK UNBOUND:                -0.465
REMARK SMILES CCCCc1oc(O)c2ccccc12
REMARK SMILES IDX 4 1 5 2 7 3 6 4 9 5 14 6 10 7 13 8 11 9 12 10 8 11 3 13 2 14
REMARK SMILES IDX 1 15
REMARK H PARENT 8 12
REMARK Flexibility Score: inf
ROOT
ATOM      1  C   UNL     1      16.500  76.998  25.373  1.00  0.00     0.076 C 
ENDROOT
BRANCH   1   2
ATOM      2  C   UNL     1      16.848  78.342  25.933  1.00  0.00     0.116 A 
ATOM      3  C   UNL     1      18.020  80.054  26.473  1.00  0.00     0.290 A 
ATOM      4  O   UNL     1      18.051  78.885  25.862  1.00  0.00    -0.430 OA
ATOM      5  C   UNL     1      16.758  80.288  26.968  1.00  0.00     0.066 A 
ATOM      6  C   UNL     1      16.007  79.195  26.627  1.00  0.00     0.027 A 
ATOM      7  C   UNL     1      16.224  81.356  27.685  1.00  0.00     0.016 A 
ATOM      8  C   UNL     1      14.663  79.089  26.983  1.00  0.00     0.012 A 
ATOM      9  C   UNL     1      14.870  81.280  28.057  1.00  0.00     0.001 A 
ATOM     10  C   UNL     1      14.093  80.152  27.709  1.00  0.00     0.001 A 
BRANCH   3  11
ATOM     11  O   UNL     1      19.111  80.908  26.594  1.00  0.00    -0.480 OA
ATOM     12  H   UNL     1      19.119  81.799  26.114  1.00  0.00     0.297 HD
ENDBRANCH   3  11
ENDBRANCH   1   2
BRANCH   1  13
ATOM     13  C   UNL     1      15.869  77.145  23.982  1.00  0.00     0.008 C 
BRANCH  13  14
ATOM     14  C   UNL     1      14.357  76.872  23.989  1.00  0.00    -0.003 C 
ATOM     15  C   UNL     1      13.925  75.981  25.153  1.00  0.00     0.004 C 
ENDBRANCH  13  14
ENDBRANCH   1  13
TORSDOF 4
ENDMDL
MODEL 6
REMARK VINA RESULT:    -3.942      1.288      4.229
REMARK INTER + INTRA:          -5.214
REMARK INTER:                  -4.863
REMARK INTRA:                  -0.350
REMARK UNBOUND:                -0.465
REMARK SMILES CCCCc1oc(O)c2ccccc12
REMARK SMILES IDX 4 1 5 2 7 3 6 4 9 5 14 6 10 7 13 8 11 9 12 10 8 11 3 13 2 14
REMARK SMILES IDX 1 15
REMARK H PARENT 8 12
REMARK Flexibility Score: inf
ROOT
ATOM      1  C   UNL     1      15.278  77.446  23.780  1.00  0.00     0.076 C 
ENDROOT
BRANCH   1   2
ATOM      2  C   UNL     1      16.154  78.160  24.761  1.00  0.00     0.116 A 
ATOM      3  C   UNL     1      17.717  78.497  26.189  1.00  0.00     0.290 A 
ATOM      4  O   UNL     1      17.181  77.603  25.380  1.00  0.00    -0.430 OA
ATOM      5  C   UNL     1      17.021  79.680  26.106  1.00  0.00     0.066 A 
ATOM      6  C   UNL     1      16.020  79.468  25.196  1.00  0.00     0.027 A 
ATOM      7  C   UNL     1      17.183  80.901  26.755  1.00  0.00     0.016 A 
ATOM      8  C   UNL     1      15.102  80.466  24.870  1.00  0.00     0.012 A 
ATOM      9  C   UNL     1      16.274  81.930  26.445  1.00  0.00     0.001 A 
ATOM     10  C   UNL     1      15.238  81.713  25.507  1.00  0.00     0.001 A 
BRANCH   3  11
ATOM     11  O   UNL     1      18.820  78.259  27.001  1.00  0.00    -0.480 OA
ATOM     12  H   UNL     1      18.737  77.666  27.818  1.00  0.00     0.297 HD
ENDBRANCH   3  11
ENDBRANCH   1   2
BRANCH   1  13
ATOM     13  C   UNL     1      13.875  77.240  24.367  1.00  0.00     0.008 C 
BRANCH  13  14
ATOM     14  C   UNL     1      13.901  76.470  25.696  1.00  0.00    -0.003 C 
ATOM     15  C   UNL     1      13.975  74.956  25.498  1.00  0.00     0.004 C 
ENDBRANCH  13  14
ENDBRANCH   1  13
TORSDOF 4
ENDMDL
MODEL 7
REMARK VINA RESULT:    -3.883      1.622      3.487
REMARK INTER + INTRA:          -5.142
REMARK INTER:                  -4.617
REMARK INTRA:                  -0.526
REMARK UNBOUND:                -0.465
REMARK SMILES CCCCc1oc(O)c2ccccc12
REMARK SMILES IDX 4 1 5 2 7 3 6 4 9 5 14 6 10 7 13 8 11 9 12 10 8 11 3 13 2 14
REMARK SMILES IDX 1 15
REMARK H PARENT 8 12
REMARK Flexibility Score: inf
ROOT
ATOM      1  C   UNL     1      14.678  80.161  24.236  1.00  0.00     0.076 C 
ENDROOT
BRANCH   1   2
ATOM      2  C   UNL     1      15.632  79.171  24.830  1.00  0.00     0.116 A 
ATOM      3  C   UNL     1      16.391  77.319  25.597  1.00  0.00     0.290 A 
ATOM      4  O   UNL     1      15.344  77.898  25.041  1.00  0.00    -0.430 OA
ATOM      5  C   UNL     1      17.401  78.238  25.762  1.00  0.00     0.066 A 
ATOM      6  C   UNL     1      16.919  79.424  25.276  1.00  0.00     0.027 A 
ATOM      7  C   UNL     1      18.680  78.126  26.301  1.00  0.00     0.016 A 
ATOM      8  C   UNL     1      17.684  80.590  25.296  1.00  0.00     0.012 A 
ATOM      9  C   UNL     1      19.478  79.285  26.333  1.00  0.00     0.001 A 
ATOM     10  C   UNL     1      18.982  80.511  25.834  1.00  0.00     0.001 A 
BRANCH   3  11
ATOM     11  O   UNL     1      16.447  75.977  25.958  1.00  0.00    -0.480 OA
ATOM     12  H   UNL     1      16.424  75.708  26.934  1.00  0.00     0.297 HD
ENDBRANCH   3  11
ENDBRANCH   1   2
BRANCH   1  13
ATOM     13  C   UNL     1      13.875  80.859  25.342  1.00  0.00     0.008 C 
BRANCH  13  14
ATOM     14  C   UNL     1      14.497  82.199  25.764  1.00  0.00    -0.003 C 
ATOM     15  C   UNL     1      14.904  82.221  27.238  1.00  0.00     0.004 C 
ENDBRANCH  13  14
ENDBRANCH   1  13
TORSDOF 4
ENDMDL
MODEL 8
REMARK VINA RESULT:    -3.823      2.244      5.106
REMARK INTER + INTRA:          -5.070
REMARK INTER:                  -4.591
REMARK INTRA:                  -0.478
REMARK UNBOUND:                -0.465
REMARK SMILES CCCCc1oc(O)c2ccccc12
REMARK SMILES IDX 4 1 5 2 7 3 6 4 9 5 14 6 10 7 13 8 11 9 12 10 8 11 3 13 2 14
REMARK SMILES IDX 1 15
REMARK H PARENT 8 12
REMARK Flexibility Score: inf
ROOT
ATOM      1  C   UNL     1      15.059  77.453  23.743  1.00  0.00     0.076 C 
ENDROOT
BRANCH   1   2
ATOM      2  C   UNL     1      15.203  78.809  24.362  1.00  0.00     0.116 A 
ATOM      3  C   UNL     1      14.817  80.871  24.801  1.00  0.00     0.290 A 
ATOM      4  O   UNL     1      14.393  79.825  24.118  1.00  0.00    -0.430 OA
ATOM      5  C   UNL     1      15.944  80.537  25.515  1.00  0.00     0.066 A 
ATOM      6  C   UNL     1      16.196  79.221  25.235  1.00  0.00     0.027 A 
ATOM      7  C   UNL     1      16.758  81.279  26.368  1.00  0.00     0.016 A 
ATOM      8  C   UNL     1      17.286  78.549  25.788  1.00  0.00     0.012 A 
ATOM      9  C   UNL     1      17.864  80.628  26.944  1.00  0.00     0.001 A 
ATOM     10  C   UNL     1      18.128  79.270  26.654  1.00  0.00     0.001 A 
BRANCH   3  11
ATOM     11  O   UNL     1      14.205  82.119  24.787  1.00  0.00    -0.480 OA
ATOM     12  H   UNL     1      13.694  82.430  23.970  1.00  0.00     0.297 HD
ENDBRANCH   3  11
ENDBRANCH   1   2
BRANCH   1  13
ATOM     13  C   UNL     1      14.001  76.633  24.493  1.00  0.00     0.008 C 
BRANCH  13  14
ATOM     14  C   UNL     1      14.623  75.606  25.452  1.00  0.00    -0.003 C 
ATOM     15  C   UNL     1      16.055  75.234  25.068  1.00  0.00     0.004 C 
ENDBRANCH  13  14
ENDBRANCH   1  13
TORSDOF 4
ENDMDL
MODEL 9
REMARK VINA RESULT:    -3.556      2.076      2.851
REMARK INTER + INTRA:          -4.748
REMARK INTER:                  -4.350
REMARK INTRA:                  -0.398
REMARK UNBOUND:                -0.465
REMARK SMILES CCCCc1oc(O)c2ccccc12
REMARK SMILES IDX 4 1 5 2 7 3 6 4 9 5 14 6 10 7 13 8 11 9 12 10 8 11 3 13 2 14
REMARK SMILES IDX 1 15
REMARK H PARENT 8 12
REMARK Flexibility Score: inf
ROOT
ATOM      1  C   UNL     1      15.448  80.448  27.972  1.00  0.00     0.076 C 
ENDROOT
BRANCH   1   2
ATOM      2  C   UNL     1      15.806  79.845  26.650  1.00  0.00     0.116 A 
ATOM      3  C   UNL     1      16.757  79.593  24.745  1.00  0.00     0.290 A 
ATOM      4  O   UNL     1      16.707  80.351  25.825  1.00  0.00    -0.430 OA
ATOM      5  C   UNL     1      15.858  78.559  24.858  1.00  0.00     0.066 A 
ATOM      6  C   UNL     1      15.246  78.718  26.072  1.00  0.00     0.027 A 
ATOM      7  C   UNL     1      15.532  77.513  23.998  1.00  0.00     0.016 A 
ATOM      8  C   UNL     1      14.257  77.840  26.516  1.00  0.00     0.012 A 
ATOM      9  C   UNL     1      14.538  76.610  24.417  1.00  0.00     0.001 A 
ATOM     10  C   UNL     1      13.903  76.773  25.670  1.00  0.00     0.001 A 
BRANCH   3  11
ATOM     11  O   UNL     1      17.598  79.825  23.662  1.00  0.00    -0.480 OA
ATOM     12  H   UNL     1      18.286  79.134  23.391  1.00  0.00     0.297 HD
ENDBRANCH   3  11
ENDBRANCH   1   2
BRANCH   1  13
ATOM     13  C   UNL     1      14.146  81.253  27.859  1.00  0.00     0.008 C 
BRANCH  13  14
ATOM     14  C   UNL     1      14.349  82.602  27.153  1.00  0.00    -0.003 C 
ATOM     15  C   UNL     1      13.875  82.583  25.699  1.00  0.00     0.004 C 
ENDBRANCH  13  14
ENDBRANCH   1  13
TORSDOF 4
ENDMDL
