MODEL 1
REMARK VINA RESULT:    -5.014      0.000      0.000
REMARK INTER + INTRA:          -6.674
REMARK INTER:                  -7.066
REMARK INTRA:                   0.392
REMARK UNBOUND:                 0.392
REMARK SMILES CC1=CCC(=C(C)C)C(=O)CC(C)=CCC1
REMARK SMILES IDX 12 1 14 2 13 3 15 4 16 5 2 6 1 7 3 8 11 10 9 11 10 12 5 13
REMARK SMILES IDX 6 14 7 15 8 16 4 17
REMARK H PARENT
REMARK Flexibility Score: 60.00
ROOT
ATOM      1  C   UNL     1     -32.834  15.212   3.033  1.00  0.00    -0.070 C 
ATOM      2  C   UNL     1     -31.579  15.651   3.268  1.00  0.00    -0.027 C 
ATOM      3  C   UNL     1     -33.978  16.143   3.349  1.00  0.00     0.039 C 
ENDROOT
BRANCH   2   4
ATOM      4  C   UNL     1     -30.305  14.908   2.928  1.00  0.00     0.032 C 
BRANCH   4   5
ATOM      5  C   UNL     1     -29.847  15.046   1.461  1.00  0.00     0.034 C 
BRANCH   5   6
ATOM      6  C   UNL     1     -29.294  13.756   0.883  1.00  0.00    -0.077 C 
ATOM      7  C   UNL     1     -27.996  13.235   1.446  1.00  0.00     0.039 C 
ATOM      8  C   UNL     1     -29.924  13.007  -0.055  1.00  0.00    -0.023 CG0
ATOM      9  G   UNL     1     -31.218  13.339  -0.772  1.00  0.00     0.000 G0
ENDBRANCH   5   6
ENDBRANCH   4   5
ENDBRANCH   2   4
BRANCH   1  10
ATOM     10  C   UNL     1     -33.142  13.877   2.386  1.00  0.00     0.111 C 
BRANCH  10  11
ATOM     11  C   UNL     1     -33.092  13.964   0.883  1.00  0.00     0.163 C 
ATOM     12  O   UNL     1     -33.581  14.986   0.331  1.00  0.00    -0.294 OA
BRANCH  11  13
ATOM     13  C   UNL     1     -32.435  12.921   0.042  1.00  0.00    -0.002 C 
ATOM     14  C   UNL     1     -32.970  11.667  -0.064  1.00  0.00    -0.069 C 
ATOM     15  C   UNL     1     -34.150  11.245   0.784  1.00  0.00     0.039 C 
ATOM     16  C   UNL     1     -32.420  10.640  -1.028  1.00  0.00     0.039 C 
BRANCH  13  17
ATOM     17  C   UNL     1     -31.211  13.341  -0.758  1.00  0.00     0.066 CG0
ATOM     18  G   UNL     1     -29.915  13.005  -0.047  1.00  0.00     0.000 G0
ENDBRANCH  13  17
ENDBRANCH  11  13
ENDBRANCH  10  11
ENDBRANCH   1  10
TORSDOF 0
ENDMDL
MODEL 2
REMARK VINA RESULT:    -4.969      2.094      3.750
REMARK INTER + INTRA:          -6.611
REMARK INTER:                  -7.245
REMARK INTRA:                   0.634
REMARK UNBOUND:                 0.392
REMARK SMILES CC1=CCC(=C(C)C)C(=O)CC(C)=CCC1
REMARK SMILES IDX 12 1 14 2 13 3 15 4 16 5 2 6 1 7 3 8 11 10 9 11 10 12 5 13
REMARK SMILES IDX 6 14 7 15 8 16 4 17
REMARK H PARENT
REMARK Flexibility Score: 60.00
ROOT
ATOM      1  C   UNL     1     -28.834  14.531   2.168  1.00  0.00    -0.070 C 
ATOM      2  C   UNL     1     -30.031  15.098   2.436  1.00  0.00    -0.027 C 
ATOM      3  C   UNL     1     -27.592  15.339   2.450  1.00  0.00     0.039 C 
ENDROOT
BRANCH   2   4
ATOM      4  C   UNL     1     -31.377  14.416   2.314  1.00  0.00     0.032 C 
BRANCH   4   5
ATOM      5  C   UNL     1     -32.417  15.186   1.473  1.00  0.00     0.034 C 
BRANCH   5   6
ATOM      6  C   UNL     1     -32.145  15.122  -0.019  1.00  0.00    -0.077 C 
ATOM      7  C   UNL     1     -32.276  16.399  -0.810  1.00  0.00     0.039 C 
ATOM      8  C   UNL     1     -31.726  14.011  -0.673  1.00  0.00    -0.023 CG0
ATOM      9  G   UNL     1     -31.543  12.623  -0.092  1.00  0.00     0.000 G0
ENDBRANCH   5   6
ENDBRANCH   4   5
ENDBRANCH   2   4
BRANCH   1  10
ATOM     10  C   UNL     1     -28.678  13.102   1.689  1.00  0.00     0.111 C 
BRANCH  10  11
ATOM     11  C   UNL     1     -29.011  12.966   0.226  1.00  0.00     0.163 C 
ATOM     12  O   UNL     1     -28.289  13.577  -0.606  1.00  0.00    -0.294 OA
BRANCH  11  13
ATOM     13  C   UNL     1     -30.117  12.092  -0.265  1.00  0.00    -0.002 C 
ATOM     14  C   UNL     1     -29.854  10.847  -0.766  1.00  0.00    -0.069 C 
ATOM     15  C   UNL     1     -28.434  10.375  -0.986  1.00  0.00     0.039 C 
ATOM     16  C   UNL     1     -30.958   9.879  -1.124  1.00  0.00     0.039 C 
BRANCH  13  17
ATOM     17  C   UNL     1     -31.538  12.606  -0.096  1.00  0.00     0.066 CG0
ATOM     18  G   UNL     1     -31.715  14.005  -0.654  1.00  0.00     0.000 G0
ENDBRANCH  13  17
ENDBRANCH  11  13
ENDBRANCH  10  11
ENDBRANCH   1  10
TORSDOF 0
ENDMDL
MODEL 3
REMARK VINA RESULT:    -4.828      1.599      2.012
REMARK INTER + INTRA:          -6.412
REMARK INTER:                  -6.639
REMARK INTRA:                   0.227
REMARK UNBOUND:                 0.392
REMARK SMILES CC1=CCC(=C(C)C)C(=O)CC(C)=CCC1
REMARK SMILES IDX 12 1 14 2 13 3 15 4 16 5 2 6 1 7 3 8 11 10 9 11 10 12 5 13
REMARK SMILES IDX 6 14 7 15 8 16 4 17
REMARK H PARENT
REMARK Flexibility Score: 60.00
ROOT
ATOM      1  C   UNL     1     -33.296  15.266   3.038  1.00  0.00    -0.070 C 
ATOM      2  C   UNL     1     -32.105  15.641   2.522  1.00  0.00    -0.027 C 
ATOM      3  C   UNL     1     -34.134  16.321   3.718  1.00  0.00     0.039 C 
ENDROOT
BRANCH   2   4
ATOM      4  C   UNL     1     -31.172  14.757   1.723  1.00  0.00     0.032 C 
BRANCH   4   5
ATOM      5  C   UNL     1     -31.239  14.959   0.195  1.00  0.00     0.034 C 
BRANCH   5   6
ATOM      6  C   UNL     1     -31.208  13.655  -0.582  1.00  0.00    -0.077 C 
ATOM      7  C   UNL     1     -29.859  13.072  -0.919  1.00  0.00     0.039 C 
ATOM      8  C   UNL     1     -32.310  12.947  -0.932  1.00  0.00    -0.023 CG0
ATOM      9  G   UNL     1     -33.757  13.343  -0.716  1.00  0.00     0.000 G0
ENDBRANCH   5   6
ENDBRANCH   4   5
ENDBRANCH   2   4
BRANCH   1  10
ATOM     10  C   UNL     1     -33.867  13.871   2.886  1.00  0.00     0.111 C 
BRANCH  10  11
ATOM     11  C   UNL     1     -34.703  13.745   1.639  1.00  0.00     0.163 C 
ATOM     12  O   UNL     1     -35.681  14.527   1.499  1.00  0.00    -0.294 OA
BRANCH  11  13
ATOM     13  C   UNL     1     -34.375  12.780   0.549  1.00  0.00    -0.002 C 
ATOM     14  C   UNL     1     -34.699  11.457   0.666  1.00  0.00    -0.069 C 
ATOM     15  C   UNL     1     -35.255  10.897   1.956  1.00  0.00     0.039 C 
ATOM     16  C   UNL     1     -34.525  10.486  -0.480  1.00  0.00     0.039 C 
BRANCH  13  17
ATOM     17  C   UNL     1     -33.758  13.346  -0.720  1.00  0.00     0.066 CG0
ATOM     18  G   UNL     1     -32.310  12.929  -0.892  1.00  0.00     0.000 G0
ENDBRANCH  13  17
ENDBRANCH  11  13
ENDBRANCH  10  11
ENDBRANCH   1  10
TORSDOF 0
ENDMDL
MODEL 4
REMARK VINA RESULT:    -4.826     11.832     13.305
REMARK INTER + INTRA:          -6.408
REMARK INTER:                  -6.651
REMARK INTRA:                   0.243
REMARK UNBOUND:                 0.392
REMARK SMILES CC1=CCC(=C(C)C)C(=O)CC(C)=CCC1
REMARK SMILES IDX 12 1 14 2 13 3 15 4 16 5 2 6 1 7 3 8 11 10 9 11 10 12 5 13
REMARK SMILES IDX 6 14 7 15 8 16 4 17
REMARK H PARENT
REMARK Flexibility Score: 60.00
ROOT
ATOM      1  C   UNL     1     -39.320   8.818   9.461  1.00  0.00    -0.070 C 
ATOM      2  C   UNL     1     -39.444   9.374  10.686  1.00  0.00    -0.027 C 
ATOM      3  C   UNL     1     -37.994   8.198   9.099  1.00  0.00     0.039 C 
ENDROOT
BRANCH   2   4
ATOM      4  C   UNL     1     -40.715   9.956  11.267  1.00  0.00     0.032 C 
BRANCH   4   5
ATOM      5  C   UNL     1     -41.162  11.292  10.639  1.00  0.00     0.034 C 
BRANCH   5   6
ATOM      6  C   UNL     1     -42.602  11.275  10.160  1.00  0.00    -0.077 C 
ATOM      7  C   UNL     1     -43.680  11.047  11.189  1.00  0.00     0.039 C 
ATOM      8  C   UNL     1     -42.986  11.519   8.882  1.00  0.00    -0.023 CG0
ATOM      9  G   UNL     1     -42.085  11.754   7.686  1.00  0.00     0.000 G0
ENDBRANCH   5   6
ENDBRANCH   4   5
ENDBRANCH   2   4
BRANCH   1  10
ATOM     10  C   UNL     1     -40.468   8.706   8.478  1.00  0.00     0.111 C 
BRANCH  10  11
ATOM     11  C   UNL     1     -40.431   9.808   7.452  1.00  0.00     0.163 C 
ATOM     12  O   UNL     1     -39.316  10.116   6.951  1.00  0.00    -0.294 OA
BRANCH  11  13
ATOM     13  C   UNL     1     -41.665  10.496   6.971  1.00  0.00    -0.002 C 
ATOM     14  C   UNL     1     -42.432   9.945   5.982  1.00  0.00    -0.069 C 
ATOM     15  C   UNL     1     -41.979   8.709   5.236  1.00  0.00     0.039 C 
ATOM     16  C   UNL     1     -43.767  10.533   5.583  1.00  0.00     0.039 C 
BRANCH  13  17
ATOM     17  C   UNL     1     -42.076  11.772   7.688  1.00  0.00     0.066 CG0
ATOM     18  G   UNL     1     -42.991  11.501   8.867  1.00  0.00     0.000 G0
ENDBRANCH  13  17
ENDBRANCH  11  13
ENDBRANCH  10  11
ENDBRANCH   1  10
TORSDOF 0
ENDMDL
MODEL 5
REMARK VINA RESULT:    -4.783      2.039      4.987
REMARK INTER + INTRA:          -6.348
REMARK INTER:                  -6.725
REMARK INTRA:                   0.377
REMARK UNBOUND:                 0.392
REMARK SMILES CC1=CCC(=C(C)C)C(=O)CC(C)=CCC1
REMARK SMILES IDX 12 1 14 2 13 3 15 4 16 5 2 6 1 7 3 8 11 10 9 11 10 12 5 13
REMARK SMILES IDX 6 14 7 15 8 16 4 17
REMARK H PARENT
REMARK Flexibility Score: 60.00
ROOT
ATOM      1  C   UNL     1     -32.111  12.936  -0.257  1.00  0.00    -0.070 C 
ATOM      2  C   UNL     1     -33.422  12.644  -0.108  1.00  0.00    -0.027 C 
ATOM      3  C   UNL     1     -31.109  11.846   0.033  1.00  0.00     0.039 C 
ENDROOT
BRANCH   2   4
ATOM      4  C   UNL     1     -34.574  13.567  -0.442  1.00  0.00     0.032 C 
BRANCH   4   5
ATOM      5  C   UNL     1     -35.289  14.178   0.781  1.00  0.00     0.034 C 
BRANCH   5   6
ATOM      6  C   UNL     1     -34.766  13.649   2.105  1.00  0.00    -0.077 C 
ATOM      7  C   UNL     1     -35.358  12.365   2.630  1.00  0.00     0.039 C 
ATOM      8  C   UNL     1     -33.756  14.217   2.810  1.00  0.00    -0.023 CG0
ATOM      9  G   UNL     1     -33.030  15.508   2.487  1.00  0.00     0.000 G0
ENDBRANCH   5   6
ENDBRANCH   4   5
ENDBRANCH   2   4
BRANCH   1  10
ATOM     10  C   UNL     1     -31.608  14.264  -0.784  1.00  0.00     0.111 C 
BRANCH  10  11
ATOM     11  C   UNL     1     -31.940  15.396   0.154  1.00  0.00     0.163 C 
ATOM     12  O   UNL     1     -32.418  16.453  -0.338  1.00  0.00    -0.294 OA
BRANCH  11  13
ATOM     13  C   UNL     1     -31.781  15.282   1.633  1.00  0.00    -0.002 C 
ATOM     14  C   UNL     1     -30.551  15.065   2.191  1.00  0.00    -0.069 C 
ATOM     15  C   UNL     1     -29.341  14.777   1.330  1.00  0.00     0.039 C 
ATOM     16  C   UNL     1     -30.332  15.103   3.686  1.00  0.00     0.039 C 
BRANCH  13  17
ATOM     17  C   UNL     1     -33.019  15.512   2.486  1.00  0.00     0.066 CG0
ATOM     18  G   UNL     1     -33.751  14.221   2.798  1.00  0.00     0.000 G0
ENDBRANCH  13  17
ENDBRANCH  11  13
ENDBRANCH  10  11
ENDBRANCH   1  10
TORSDOF 0
ENDMDL
MODEL 6
REMARK VINA RESULT:    -4.743      1.767      3.669
REMARK INTER + INTRA:          -6.293
REMARK INTER:                  -7.023
REMARK INTRA:                   0.731
REMARK UNBOUND:                 0.392
REMARK SMILES CC1=CCC(=C(C)C)C(=O)CC(C)=CCC1
REMARK SMILES IDX 12 1 14 2 13 3 15 4 16 5 2 6 1 7 3 8 11 10 9 11 10 12 5 13
REMARK SMILES IDX 6 14 7 15 8 16 4 17
REMARK H PARENT
REMARK Flexibility Score: 60.00
ROOT
ATOM      1  C   UNL     1     -31.773  15.215   2.045  1.00  0.00    -0.070 C 
ATOM      2  C   UNL     1     -32.671  14.997   3.031  1.00  0.00    -0.027 C 
ATOM      3  C   UNL     1     -30.338  14.828   2.299  1.00  0.00     0.039 C 
ENDROOT
BRANCH   2   4
ATOM      4  C   UNL     1     -34.163  15.226   2.932  1.00  0.00     0.032 C 
BRANCH   4   5
ATOM      5  C   UNL     1     -34.828  14.630   1.674  1.00  0.00     0.034 C 
BRANCH   5   6
ATOM      6  C   UNL     1     -34.603  13.135   1.530  1.00  0.00    -0.077 C 
ATOM      7  C   UNL     1     -35.097  12.242   2.640  1.00  0.00     0.039 C 
ATOM      8  C   UNL     1     -34.051  12.547   0.440  1.00  0.00    -0.023 CG0
ATOM      9  G   UNL     1     -33.472  13.239  -0.778  1.00  0.00     0.000 G0
ENDBRANCH   5   6
ENDBRANCH   4   5
ENDBRANCH   2   4
BRANCH   1  10
ATOM     10  C   UNL     1     -32.153  15.739   0.675  1.00  0.00     0.111 C 
BRANCH  10  11
ATOM     11  C   UNL     1     -31.559  14.899  -0.426  1.00  0.00     0.163 C 
ATOM     12  O   UNL     1     -30.638  15.402  -1.125  1.00  0.00    -0.294 OA
BRANCH  11  13
ATOM     13  C   UNL     1     -31.976  13.487  -0.670  1.00  0.00    -0.002 C 
ATOM     14  C   UNL     1     -31.053  12.479  -0.695  1.00  0.00    -0.069 C 
ATOM     15  C   UNL     1     -29.570  12.773  -0.634  1.00  0.00     0.039 C 
ATOM     16  C   UNL     1     -31.457  11.025  -0.781  1.00  0.00     0.039 C 
BRANCH  13  17
ATOM     17  C   UNL     1     -33.467  13.213  -0.792  1.00  0.00     0.066 CG0
ATOM     18  G   UNL     1     -34.031  12.535   0.441  1.00  0.00     0.000 G0
ENDBRANCH  13  17
ENDBRANCH  11  13
ENDBRANCH  10  11
ENDBRANCH   1  10
TORSDOF 0
ENDMDL
MODEL 7
REMARK VINA RESULT:    -4.610      1.250      3.531
REMARK INTER + INTRA:          -6.105
REMARK INTER:                  -6.685
REMARK INTRA:                   0.581
REMARK UNBOUND:                 0.392
REMARK SMILES CC1=CCC(=C(C)C)C(=O)CC(C)=CCC1
REMARK SMILES IDX 12 1 14 2 13 3 15 4 16 5 2 6 1 7 3 8 11 10 9 11 10 12 5 13
REMARK SMILES IDX 6 14 7 15 8 16 4 17
REMARK H PARENT
REMARK Flexibility Score: 60.00
ROOT
ATOM      1  C   UNL     1     -33.334  14.857   2.672  1.00  0.00    -0.070 C 
ATOM      2  C   UNL     1     -34.366  14.076   2.284  1.00  0.00    -0.027 C 
ATOM      3  C   UNL     1     -33.643  16.060   3.527  1.00  0.00     0.039 C 
ENDROOT
BRANCH   2   4
ATOM      4  C   UNL     1     -34.250  12.780   1.511  1.00  0.00     0.032 C 
BRANCH   4   5
ATOM      5  C   UNL     1     -33.777  12.937   0.051  1.00  0.00     0.034 C 
BRANCH   5   6
ATOM      6  C   UNL     1     -32.703  11.938  -0.340  1.00  0.00    -0.077 C 
ATOM      7  C   UNL     1     -33.024  10.472  -0.199  1.00  0.00     0.039 C 
ATOM      8  C   UNL     1     -31.502  12.276  -0.871  1.00  0.00    -0.023 CG0
ATOM      9  G   UNL     1     -30.958  13.675  -1.087  1.00  0.00     0.000 G0
ENDBRANCH   5   6
ENDBRANCH   4   5
ENDBRANCH   2   4
BRANCH   1  10
ATOM     10  C   UNL     1     -31.885  14.532   2.370  1.00  0.00     0.111 C 
BRANCH  10  11
ATOM     11  C   UNL     1     -31.475  15.037   1.011  1.00  0.00     0.163 C 
ATOM     12  O   UNL     1     -31.974  16.121   0.604  1.00  0.00    -0.294 OA
BRANCH  11  13
ATOM     13  C   UNL     1     -30.460  14.337   0.170  1.00  0.00    -0.002 C 
ATOM     14  C   UNL     1     -29.161  14.232   0.582  1.00  0.00    -0.069 C 
ATOM     15  C   UNL     1     -28.671  14.952   1.820  1.00  0.00     0.039 C 
ATOM     16  C   UNL     1     -28.148  13.397  -0.167  1.00  0.00     0.039 C 
BRANCH  13  17
ATOM     17  C   UNL     1     -30.953  13.671  -1.105  1.00  0.00     0.066 CG0
ATOM     18  G   UNL     1     -31.495  12.277  -0.855  1.00  0.00     0.000 G0
ENDBRANCH  13  17
ENDBRANCH  11  13
ENDBRANCH  10  11
ENDBRANCH   1  10
TORSDOF 0
ENDMDL
MODEL 8
REMARK VINA RESULT:    -4.561      1.269      3.784
REMARK INTER + INTRA:          -6.035
REMARK INTER:                  -6.493
REMARK INTRA:                   0.458
REMARK UNBOUND:                 0.392
REMARK SMILES CC1=CCC(=C(C)C)C(=O)CC(C)=CCC1
REMARK SMILES IDX 12 1 14 2 13 3 15 4 16 5 2 6 1 7 3 8 11 10 9 11 10 12 5 13
REMARK SMILES IDX 6 14 7 15 8 16 4 17
REMARK H PARENT
REMARK Flexibility Score: 60.00
ROOT
ATOM      1  C   UNL     1     -32.952  11.708  -0.397  1.00  0.00    -0.070 C 
ATOM      2  C   UNL     1     -31.814  11.078  -0.764  1.00  0.00    -0.027 C 
ATOM      3  C   UNL     1     -34.223  11.345  -1.123  1.00  0.00     0.039 C 
ENDROOT
BRANCH   2   4
ATOM      4  C   UNL     1     -30.465  11.233  -0.094  1.00  0.00     0.032 C 
BRANCH   4   5
ATOM      5  C   UNL     1     -29.602  12.390  -0.637  1.00  0.00     0.034 C 
BRANCH   5   6
ATOM      6  C   UNL     1     -28.827  13.118   0.447  1.00  0.00    -0.077 C 
ATOM      7  C   UNL     1     -27.610  12.435   1.017  1.00  0.00     0.039 C 
ATOM      8  C   UNL     1     -29.117  14.368   0.885  1.00  0.00    -0.023 CG0
ATOM      9  G   UNL     1     -30.292  15.232   0.472  1.00  0.00     0.000 G0
ENDBRANCH   5   6
ENDBRANCH   4   5
ENDBRANCH   2   4
BRANCH   1  10
ATOM     10  C   UNL     1     -33.028  12.682   0.760  1.00  0.00     0.111 C 
BRANCH  10  11
ATOM     11  C   UNL     1     -32.568  14.059   0.358  1.00  0.00     0.163 C 
ATOM     12  O   UNL     1     -33.068  14.574  -0.679  1.00  0.00    -0.294 OA
BRANCH  11  13
ATOM     13  C   UNL     1     -31.598  14.849   1.172  1.00  0.00    -0.002 C 
ATOM     14  C   UNL     1     -31.845  15.114   2.491  1.00  0.00    -0.069 C 
ATOM     15  C   UNL     1     -33.170  14.757   3.127  1.00  0.00     0.039 C 
ATOM     16  C   UNL     1     -30.815  15.772   3.381  1.00  0.00     0.039 C 
BRANCH  13  17
ATOM     17  C   UNL     1     -30.296  15.257   0.502  1.00  0.00     0.066 CG0
ATOM     18  G   UNL     1     -29.141  14.354   0.889  1.00  0.00     0.000 G0
ENDBRANCH  13  17
ENDBRANCH  11  13
ENDBRANCH  10  11
ENDBRANCH   1  10
TORSDOF 0
ENDMDL
MODEL 9
REMARK VINA RESULT:    -4.410      1.621      3.987
REMARK INTER + INTRA:          -5.822
REMARK INTER:                  -6.464
REMARK INTRA:                   0.642
REMARK UNBOUND:                 0.392
REMARK SMILES CC1=CCC(=C(C)C)C(=O)CC(C)=CCC1
REMARK SMILES IDX 12 1 14 2 13 3 15 4 16 5 2 6 1 7 3 8 11 10 9 11 10 12 5 13
REMARK SMILES IDX 6 14 7 15 8 16 4 17
REMARK H PARENT
REMARK Flexibility Score: 60.00
ROOT
ATOM      1  C   UNL     1     -31.432  11.417  -0.689  1.00  0.00    -0.070 C 
ATOM      2  C   UNL     1     -30.092  11.368  -0.854  1.00  0.00    -0.027 C 
ATOM      3  C   UNL     1     -32.144  10.138  -0.325  1.00  0.00     0.039 C 
ENDROOT
BRANCH   2   4
ATOM      4  C   UNL     1     -29.193  12.556  -1.122  1.00  0.00     0.032 C 
BRANCH   4   5
ATOM      5  C   UNL     1     -28.676  13.275   0.141  1.00  0.00     0.034 C 
BRANCH   5   6
ATOM      6  C   UNL     1     -29.216  14.686   0.290  1.00  0.00    -0.077 C 
ATOM      7  C   UNL     1     -28.534  15.783  -0.487  1.00  0.00     0.039 C 
ATOM      8  C   UNL     1     -30.311  15.012   1.019  1.00  0.00    -0.023 CG0
ATOM      9  G   UNL     1     -31.139  14.086   1.889  1.00  0.00     0.000 G0
ENDBRANCH   5   6
ENDBRANCH   4   5
ENDBRANCH   2   4
BRANCH   1  10
ATOM     10  C   UNL     1     -32.234  12.700  -0.759  1.00  0.00     0.111 C 
BRANCH  10  11
ATOM     11  C   UNL     1     -32.995  12.951   0.517  1.00  0.00     0.163 C 
ATOM     12  O   UNL     1     -33.965  12.194   0.789  1.00  0.00    -0.294 OA
BRANCH  11  13
ATOM     13  C   UNL     1     -32.600  14.014   1.488  1.00  0.00    -0.002 C 
ATOM     14  C   UNL     1     -33.540  14.837   2.044  1.00  0.00    -0.069 C 
ATOM     15  C   UNL     1     -34.980  14.806   1.582  1.00  0.00     0.039 C 
ATOM     16  C   UNL     1     -33.197  15.814   3.146  1.00  0.00     0.039 C 
BRANCH  13  17
ATOM     17  C   UNL     1     -31.137  14.074   1.898  1.00  0.00     0.066 CG0
ATOM     18  G   UNL     1     -30.331  15.011   1.019  1.00  0.00     0.000 G0
ENDBRANCH  13  17
ENDBRANCH  11  13
ENDBRANCH  10  11
ENDBRANCH   1  10
TORSDOF 0
ENDMDL
