MODEL 1
REMARK VINA RESULT:     1.724      0.000      0.000
REMARK INTER + INTRA:           2.326
REMARK INTER:                   2.731
REMARK INTRA:                  -0.405
REMARK UNBOUND:                -0.405
REMARK SMILES CCCCCCCCCCCC(=O)[O-]
REMARK SMILES IDX 7 1 8 2 9 3 10 4 11 5 12 6 13 7 14 8 6 9 5 10 4 11 3 12 2 13
REMARK SMILES IDX 1 14
REMARK H PARENT
REMARK Flexibility Score: inf
ROOT
ATOM      1  C   UNL     1      -3.047  18.760 -10.773  1.00  0.00     0.000 C 
ENDROOT
BRANCH   1   2
ATOM      2  C   UNL     1      -4.300  19.653 -10.772  1.00  0.00     0.000 C 
BRANCH   2   3
ATOM      3  C   UNL     1      -3.959  21.140 -10.967  1.00  0.00     0.000 C 
BRANCH   3   4
ATOM      4  C   UNL     1      -5.138  21.960 -11.523  1.00  0.00     0.006 C 
BRANCH   4   5
ATOM      5  C   UNL     1      -6.479  21.204 -11.525  1.00  0.00     0.053 C 
BRANCH   5   6
ATOM      6  C   UNL     1      -6.740  20.499 -12.822  1.00  0.00     0.041 C 
ATOM      7  O   UNL     1      -6.719  21.139 -13.906  1.00  0.00    -0.550 OA
ATOM      8  O   UNL     1      -7.041  19.142 -12.832  1.00  0.00    -0.550 OA
ENDBRANCH   5   6
ENDBRANCH   4   5
ENDBRANCH   3   4
ENDBRANCH   2   3
ENDBRANCH   1   2
BRANCH   1   9
ATOM      9  C   UNL     1      -3.395  17.261 -10.766  1.00  0.00     0.000 C 
BRANCH   9  10
ATOM     10  C   UNL     1      -4.913  16.999 -10.792  1.00  0.00    -0.000 C 
BRANCH  10  11
ATOM     11  C   UNL     1      -5.316  15.515 -10.755  1.00  0.00    -0.000 C 
BRANCH  11  12
ATOM     12  C   UNL     1      -4.161  14.571 -11.131  1.00  0.00    -0.000 C 
BRANCH  12  13
ATOM     13  C   UNL     1      -3.546  13.875  -9.906  1.00  0.00    -0.003 C 
ATOM     14  C   UNL     1      -2.018  13.883  -9.929  1.00  0.00     0.004 C 
ENDBRANCH  12  13
ENDBRANCH  11  12
ENDBRANCH  10  11
ENDBRANCH   9  10
ENDBRANCH   1   9
TORSDOF 10
ENDMDL
MODEL 2
REMARK VINA RESULT:     2.175      3.156      6.336
REMARK INTER + INTRA:           3.042
REMARK INTER:                   3.898
REMARK INTRA:                  -0.857
REMARK UNBOUND:                -0.405
REMARK SMILES CCCCCCCCCCCC(=O)[O-]
REMARK SMILES IDX 7 1 8 2 9 3 10 4 11 5 12 6 13 7 14 8 6 9 5 10 4 11 3 12 2 13
REMARK SMILES IDX 1 14
REMARK H PARENT
REMARK Flexibility Score: inf
ROOT
ATOM      1  C   UNL     1      -3.051  19.228 -11.138  1.00  0.00     0.000 C 
ENDROOT
BRANCH   1   2
ATOM      2  C   UNL     1      -3.358  17.748 -10.853  1.00  0.00     0.000 C 
BRANCH   2   3
ATOM      3  C   UNL     1      -4.868  17.467 -10.775  1.00  0.00     0.000 C 
BRANCH   3   4
ATOM      4  C   UNL     1      -5.194  15.974 -10.588  1.00  0.00     0.006 C 
BRANCH   4   5
ATOM      5  C   UNL     1      -4.151  15.024 -11.203  1.00  0.00     0.053 C 
BRANCH   5   6
ATOM      6  C   UNL     1      -3.394  14.251 -10.165  1.00  0.00     0.041 C 
ATOM      7  O   UNL     1      -3.970  13.876  -9.110  1.00  0.00    -0.550 OA
ATOM      8  O   UNL     1      -2.044  13.976 -10.345  1.00  0.00    -0.550 OA
ENDBRANCH   5   6
ENDBRANCH   4   5
ENDBRANCH   3   4
ENDBRANCH   2   3
ENDBRANCH   1   2
BRANCH   1   9
ATOM      9  C   UNL     1      -3.994  20.179 -10.383  1.00  0.00     0.000 C 
BRANCH   9  10
ATOM     10  C   UNL     1      -4.173  21.534 -11.094  1.00  0.00    -0.000 C 
BRANCH  10  11
ATOM     11  C   UNL     1      -5.621  21.873 -11.490  1.00  0.00    -0.000 C 
BRANCH  11  12
ATOM     12  C   UNL     1      -6.548  20.645 -11.475  1.00  0.00    -0.000 C 
BRANCH  12  13
ATOM     13  C   UNL     1      -6.777  20.062 -12.878  1.00  0.00    -0.003 C 
ATOM     14  C   UNL     1      -6.859  21.140 -13.958  1.00  0.00     0.004 C 
ENDBRANCH  12  13
ENDBRANCH  11  12
ENDBRANCH  10  11
ENDBRANCH   9  10
ENDBRANCH   1   9
TORSDOF 10
ENDMDL
MODEL 3
REMARK VINA RESULT:     3.066      3.182      6.065
REMARK INTER + INTRA:           4.454
REMARK INTER:                   4.232
REMARK INTRA:                   0.222
REMARK UNBOUND:                -0.405
REMARK SMILES CCCCCCCCCCCC(=O)[O-]
REMARK SMILES IDX 7 1 8 2 9 3 10 4 11 5 12 6 13 7 14 8 6 9 5 10 4 11 3 12 2 13
REMARK SMILES IDX 1 14
REMARK H PARENT
REMARK Flexibility Score: inf
ROOT
ATOM      1  C   UNL     1      -4.240  19.295 -10.821  1.00  0.00     0.000 C 
ENDROOT
BRANCH   1   2
ATOM      2  C   UNL     1      -3.022  18.357 -10.881  1.00  0.00     0.000 C 
BRANCH   2   3
ATOM      3  C   UNL     1      -3.350  16.938 -10.384  1.00  0.00     0.000 C 
BRANCH   3   4
ATOM      4  C   UNL     1      -4.402  16.225 -11.253  1.00  0.00     0.006 C 
BRANCH   4   5
ATOM      5  C   UNL     1      -4.462  14.701 -11.038  1.00  0.00     0.053 C 
BRANCH   5   6
ATOM      6  C   UNL     1      -3.423  14.216 -10.072  1.00  0.00     0.041 C 
ATOM      7  O   UNL     1      -3.754  13.876  -8.905  1.00  0.00    -0.550 OA
ATOM      8  O   UNL     1      -2.086  14.173 -10.446  1.00  0.00    -0.550 OA
ENDBRANCH   5   6
ENDBRANCH   4   5
ENDBRANCH   3   4
ENDBRANCH   2   3
ENDBRANCH   1   2
BRANCH   1   9
ATOM      9  C   UNL     1      -3.837  20.780 -10.833  1.00  0.00     0.000 C 
BRANCH   9  10
ATOM     10  C   UNL     1      -4.942  21.695 -11.393  1.00  0.00    -0.000 C 
BRANCH  10  11
ATOM     11  C   UNL     1      -6.344  21.063 -11.444  1.00  0.00    -0.000 C 
BRANCH  11  12
ATOM     12  C   UNL     1      -6.766  20.657 -12.867  1.00  0.00    -0.000 C 
BRANCH  12  13
ATOM     13  C   UNL     1      -7.168  19.176 -12.962  1.00  0.00    -0.003 C 
ATOM     14  C   UNL     1      -6.902  18.409 -11.667  1.00  0.00     0.004 C 
ENDBRANCH  12  13
ENDBRANCH  11  12
ENDBRANCH  10  11
ENDBRANCH   9  10
ENDBRANCH   1   9
TORSDOF 10
ENDMDL
MODEL 4
REMARK VINA RESULT:     3.486      1.258      1.738
REMARK INTER + INTRA:           5.119
REMARK INTER:                   5.592
REMARK INTRA:                  -0.473
REMARK UNBOUND:                -0.405
REMARK SMILES CCCCCCCCCCCC(=O)[O-]
REMARK SMILES IDX 7 1 8 2 9 3 10 4 11 5 12 6 13 7 14 8 6 9 5 10 4 11 3 12 2 13
REMARK SMILES IDX 1 14
REMARK H PARENT
REMARK Flexibility Score: inf
ROOT
ATOM      1  C   UNL     1      -3.413  20.335 -10.772  1.00  0.00     0.000 C 
ENDROOT
BRANCH   1   2
ATOM      2  C   UNL     1      -4.947  20.381 -10.875  1.00  0.00     0.000 C 
BRANCH   2   3
ATOM      3  C   UNL     1      -5.462  21.742 -11.372  1.00  0.00     0.000 C 
BRANCH   3   4
ATOM      4  C   UNL     1      -6.783  21.637 -12.156  1.00  0.00     0.006 C 
BRANCH   4   5
ATOM      5  C   UNL     1      -6.735  20.644 -13.332  1.00  0.00     0.053 C 
BRANCH   5   6
ATOM      6  C   UNL     1      -6.690  21.332 -14.663  1.00  0.00     0.041 C 
ATOM      7  O   UNL     1      -7.152  22.497 -14.790  1.00  0.00    -0.550 OA
ATOM      8  O   UNL     1      -6.172  20.675 -15.773  1.00  0.00    -0.550 OA
ENDBRANCH   5   6
ENDBRANCH   4   5
ENDBRANCH   3   4
ENDBRANCH   2   3
ENDBRANCH   1   2
BRANCH   1   9
ATOM      9  C   UNL     1      -2.860  18.903 -10.871  1.00  0.00     0.000 C 
BRANCH   9  10
ATOM     10  C   UNL     1      -3.955  17.829 -10.738  1.00  0.00    -0.000 C 
BRANCH  10  11
ATOM     11  C   UNL     1      -3.441  16.414 -10.422  1.00  0.00    -0.000 C 
BRANCH  11  12
ATOM     12  C   UNL     1      -4.435  15.311 -10.827  1.00  0.00    -0.000 C 
BRANCH  12  13
ATOM     13  C   UNL     1      -3.959  13.909 -10.416  1.00  0.00    -0.003 C 
ATOM     14  C   UNL     1      -2.477  13.875 -10.045  1.00  0.00     0.004 C 
ENDBRANCH  12  13
ENDBRANCH  11  12
ENDBRANCH  10  11
ENDBRANCH   9  10
ENDBRANCH   1   9
TORSDOF 10
ENDMDL
MODEL 5
REMARK VINA RESULT:     3.521     15.549     18.684
REMARK INTER + INTRA:           5.174
REMARK INTER:                   5.638
REMARK INTRA:                  -0.465
REMARK UNBOUND:                -0.405
REMARK SMILES CCCCCCCCCCCC(=O)[O-]
REMARK SMILES IDX 7 1 8 2 9 3 10 4 11 5 12 6 13 7 14 8 6 9 5 10 4 11 3 12 2 13
REMARK SMILES IDX 1 14
REMARK H PARENT
REMARK Flexibility Score: inf
ROOT
ATOM      1  C   UNL     1     -15.286  30.713 -19.948  1.00  0.00     0.000 C 
ENDROOT
BRANCH   1   2
ATOM      2  C   UNL     1     -16.362  31.637 -19.352  1.00  0.00     0.000 C 
BRANCH   2   3
ATOM      3  C   UNL     1     -15.994  33.124 -19.482  1.00  0.00     0.000 C 
BRANCH   3   4
ATOM      4  C   UNL     1     -17.142  34.066 -19.073  1.00  0.00     0.006 C 
BRANCH   4   5
ATOM      5  C   UNL     1     -18.479  33.762 -19.773  1.00  0.00     0.053 C 
BRANCH   5   6
ATOM      6  C   UNL     1     -19.648  33.838 -18.837  1.00  0.00     0.041 C 
ATOM      7  O   UNL     1     -19.460  33.887 -17.592  1.00  0.00    -0.550 OA
ATOM      8  O   UNL     1     -20.945  33.818 -19.335  1.00  0.00    -0.550 OA
ENDBRANCH   5   6
ENDBRANCH   4   5
ENDBRANCH   3   4
ENDBRANCH   2   3
ENDBRANCH   1   2
BRANCH   1   9
ATOM      9  C   UNL     1     -14.246  30.273 -18.903  1.00  0.00     0.000 C 
BRANCH   9  10
ATOM     10  C   UNL     1     -13.485  28.999 -19.316  1.00  0.00    -0.000 C 
BRANCH  10  11
ATOM     11  C   UNL     1     -12.339  28.594 -18.373  1.00  0.00    -0.000 C 
BRANCH  11  12
ATOM     12  C   UNL     1     -12.706  27.410 -17.460  1.00  0.00    -0.000 C 
BRANCH  12  13
ATOM     13  C   UNL     1     -12.773  27.809 -15.977  1.00  0.00    -0.003 C 
ATOM     14  C   UNL     1     -14.189  28.166 -15.525  1.00  0.00     0.004 C 
ENDBRANCH  12  13
ENDBRANCH  11  12
ENDBRANCH  10  11
ENDBRANCH   9  10
ENDBRANCH   1   9
TORSDOF 10
ENDMDL
MODEL 6
REMARK VINA RESULT:     3.790      0.593      1.829
REMARK INTER + INTRA:           5.601
REMARK INTER:                   4.031
REMARK INTRA:                   1.570
REMARK UNBOUND:                -0.405
REMARK SMILES CCCCCCCCCCCC(=O)[O-]
REMARK SMILES IDX 7 1 8 2 9 3 10 4 11 5 12 6 13 7 14 8 6 9 5 10 4 11 3 12 2 13
REMARK SMILES IDX 1 14
REMARK H PARENT
REMARK Flexibility Score: inf
ROOT
ATOM      1  C   UNL     1      -3.043  18.557 -10.749  1.00  0.00     0.000 C 
ENDROOT
BRANCH   1   2
ATOM      2  C   UNL     1      -4.277  19.437 -11.010  1.00  0.00     0.000 C 
BRANCH   2   3
ATOM      3  C   UNL     1      -3.985  20.933 -10.800  1.00  0.00     0.000 C 
BRANCH   3   4
ATOM      4  C   UNL     1      -5.021  21.849 -11.478  1.00  0.00     0.006 C 
BRANCH   4   5
ATOM      5  C   UNL     1      -6.441  21.256 -11.530  1.00  0.00     0.053 C 
BRANCH   5   6
ATOM      6  C   UNL     1      -6.789  20.714 -12.884  1.00  0.00     0.041 C 
ATOM      7  O   UNL     1      -7.099  19.501 -13.019  1.00  0.00    -0.550 OA
ATOM      8  O   UNL     1      -6.735  21.538 -14.002  1.00  0.00    -0.550 OA
ENDBRANCH   5   6
ENDBRANCH   4   5
ENDBRANCH   3   4
ENDBRANCH   2   3
ENDBRANCH   1   2
BRANCH   1   9
ATOM      9  C   UNL     1      -3.373  17.055 -10.794  1.00  0.00     0.000 C 
BRANCH   9  10
ATOM     10  C   UNL     1      -2.676  16.255  -9.678  1.00  0.00    -0.000 C 
BRANCH  10  11
ATOM     11  C   UNL     1      -2.358  14.792 -10.030  1.00  0.00    -0.000 C 
BRANCH  11  12
ATOM     12  C   UNL     1      -3.591  13.875  -9.946  1.00  0.00    -0.000 C 
BRANCH  12  13
ATOM     13  C   UNL     1      -4.538  14.051 -11.144  1.00  0.00    -0.003 C 
ATOM     14  C   UNL     1      -5.276  15.389 -11.121  1.00  0.00     0.004 C 
ENDBRANCH  12  13
ENDBRANCH  11  12
ENDBRANCH  10  11
ENDBRANCH   9  10
ENDBRANCH   1   9
TORSDOF 10
ENDMDL
MODEL 7
REMARK VINA RESULT:     3.842      1.739      2.515
REMARK INTER + INTRA:           5.683
REMARK INTER:                   5.204
REMARK INTRA:                   0.478
REMARK UNBOUND:                -0.405
REMARK SMILES CCCCCCCCCCCC(=O)[O-]
REMARK SMILES IDX 7 1 8 2 9 3 10 4 11 5 12 6 13 7 14 8 6 9 5 10 4 11 3 12 2 13
REMARK SMILES IDX 1 14
REMARK H PARENT
REMARK Flexibility Score: inf
ROOT
ATOM      1  C   UNL     1      -5.674  17.789 -11.038  1.00  0.00     0.000 C 
ENDROOT
BRANCH   1   2
ATOM      2  C   UNL     1      -6.447  19.118 -11.056  1.00  0.00     0.000 C 
BRANCH   2   3
ATOM      3  C   UNL     1      -6.978  19.468 -12.457  1.00  0.00     0.000 C 
BRANCH   3   4
ATOM      4  C   UNL     1      -6.509  20.849 -12.951  1.00  0.00     0.006 C 
BRANCH   4   5
ATOM      5  C   UNL     1      -6.313  21.882 -11.827  1.00  0.00     0.053 C 
BRANCH   5   6
ATOM      6  C   UNL     1      -4.869  22.079 -11.472  1.00  0.00     0.041 C 
ATOM      7  O   UNL     1      -4.183  21.110 -11.052  1.00  0.00    -0.550 OA
ATOM      8  O   UNL     1      -4.291  23.339 -11.569  1.00  0.00    -0.550 OA
ENDBRANCH   5   6
ENDBRANCH   4   5
ENDBRANCH   3   4
ENDBRANCH   2   3
ENDBRANCH   1   2
BRANCH   1   9
ATOM      9  C   UNL     1      -4.236  17.954 -10.517  1.00  0.00     0.000 C 
BRANCH   9  10
ATOM     10  C   UNL     1      -3.379  16.689 -10.714  1.00  0.00    -0.000 C 
BRANCH  10  11
ATOM     11  C   UNL     1      -4.116  15.500 -11.354  1.00  0.00    -0.000 C 
BRANCH  11  12
ATOM     12  C   UNL     1      -4.547  14.439 -10.326  1.00  0.00    -0.000 C 
BRANCH  12  13
ATOM     13  C   UNL     1      -3.360  13.876  -9.528  1.00  0.00    -0.003 C 
ATOM     14  C   UNL     1      -2.025  14.061 -10.248  1.00  0.00     0.004 C 
ENDBRANCH  12  13
ENDBRANCH  11  12
ENDBRANCH  10  11
ENDBRANCH   9  10
ENDBRANCH   1   9
TORSDOF 10
ENDMDL
MODEL 8
REMARK VINA RESULT:     4.241     15.505     19.638
REMARK INTER + INTRA:           6.315
REMARK INTER:                   6.644
REMARK INTRA:                  -0.329
REMARK UNBOUND:                -0.405
REMARK SMILES CCCCCCCCCCCC(=O)[O-]
REMARK SMILES IDX 7 1 8 2 9 3 10 4 11 5 12 6 13 7 14 8 6 9 5 10 4 11 3 12 2 13
REMARK SMILES IDX 1 14
REMARK H PARENT
REMARK Flexibility Score: inf
ROOT
ATOM      1  C   UNL     1     -16.177  31.513 -19.567  1.00  0.00     0.000 C 
ENDROOT
BRANCH   1   2
ATOM      2  C   UNL     1     -14.998  30.618 -19.984  1.00  0.00     0.000 C 
BRANCH   2   3
ATOM      3  C   UNL     1     -14.275  29.999 -18.775  1.00  0.00     0.000 C 
BRANCH   3   4
ATOM      4  C   UNL     1     -13.205  28.968 -19.177  1.00  0.00     0.006 C 
BRANCH   4   5
ATOM      5  C   UNL     1     -12.199  28.642 -18.058  1.00  0.00     0.053 C 
BRANCH   5   6
ATOM      6  C   UNL     1     -12.735  27.643 -17.077  1.00  0.00     0.041 C 
ATOM      7  O   UNL     1     -12.689  26.412 -17.339  1.00  0.00    -0.550 OA
ATOM      8  O   UNL     1     -13.317  28.071 -15.890  1.00  0.00    -0.550 OA
ENDBRANCH   5   6
ENDBRANCH   4   5
ENDBRANCH   3   4
ENDBRANCH   2   3
ENDBRANCH   1   2
BRANCH   1   9
ATOM      9  C   UNL     1     -15.810  33.007 -19.571  1.00  0.00     0.000 C 
BRANCH   9  10
ATOM     10  C   UNL     1     -16.924  33.898 -18.989  1.00  0.00    -0.000 C 
BRANCH  10  11
ATOM     11  C   UNL     1     -18.305  33.720 -19.641  1.00  0.00    -0.000 C 
BRANCH  11  12
ATOM     12  C   UNL     1     -19.445  33.626 -18.612  1.00  0.00    -0.000 C 
BRANCH  12  13
ATOM     13  C   UNL     1     -20.834  33.627 -19.270  1.00  0.00    -0.003 C 
ATOM     14  C   UNL     1     -21.850  32.780 -18.504  1.00  0.00     0.004 C 
ENDBRANCH  12  13
ENDBRANCH  11  12
ENDBRANCH  10  11
ENDBRANCH   9  10
ENDBRANCH   1   9
TORSDOF 10
ENDMDL
MODEL 9
REMARK VINA RESULT:     4.593     14.780     18.919
REMARK INTER + INTRA:           6.874
REMARK INTER:                   7.047
REMARK INTRA:                  -0.173
REMARK UNBOUND:                -0.405
REMARK SMILES CCCCCCCCCCCC(=O)[O-]
REMARK SMILES IDX 7 1 8 2 9 3 10 4 11 5 12 6 13 7 14 8 6 9 5 10 4 11 3 12 2 13
REMARK SMILES IDX 1 14
REMARK H PARENT
REMARK Flexibility Score: inf
ROOT
ATOM      1  C   UNL     1     -14.973  30.423 -19.766  1.00  0.00     0.000 C 
ENDROOT
BRANCH   1   2
ATOM      2  C   UNL     1     -14.295  29.829 -18.519  1.00  0.00     0.000 C 
BRANCH   2   3
ATOM      3  C   UNL     1     -13.142  28.876 -18.876  1.00  0.00     0.000 C 
BRANCH   3   4
ATOM      4  C   UNL     1     -12.281  28.490 -17.659  1.00  0.00     0.006 C 
BRANCH   4   5
ATOM      5  C   UNL     1     -12.923  27.425 -16.752  1.00  0.00     0.053 C 
BRANCH   5   6
ATOM      6  C   UNL     1     -14.024  27.981 -15.901  1.00  0.00     0.041 C 
ATOM      7  O   UNL     1     -13.774  28.867 -15.041  1.00  0.00    -0.550 OA
ATOM      8  O   UNL     1     -15.321  27.497 -16.030  1.00  0.00    -0.550 OA
ENDBRANCH   5   6
ENDBRANCH   4   5
ENDBRANCH   3   4
ENDBRANCH   2   3
ENDBRANCH   1   2
BRANCH   1   9
ATOM      9  C   UNL     1     -16.094  31.414 -19.409  1.00  0.00     0.000 C 
BRANCH   9  10
ATOM     10  C   UNL     1     -15.705  32.880 -19.678  1.00  0.00    -0.000 C 
BRANCH  10  11
ATOM     11  C   UNL     1     -16.751  33.919 -19.240  1.00  0.00    -0.000 C 
BRANCH  11  12
ATOM     12  C   UNL     1     -18.197  33.454 -19.487  1.00  0.00    -0.000 C 
BRANCH  12  13
ATOM     13  C   UNL     1     -19.133  33.797 -18.317  1.00  0.00    -0.003 C 
ATOM     14  C   UNL     1     -20.599  33.500 -18.630  1.00  0.00     0.004 C 
ENDBRANCH  12  13
ENDBRANCH  11  12
ENDBRANCH  10  11
ENDBRANCH   9  10
ENDBRANCH   1   9
TORSDOF 10
ENDMDL
