MODEL 1
REMARK VINA RESULT:    -3.067      0.000      0.000
REMARK INTER + INTRA:          -4.741
REMARK INTER:                  -4.681
REMARK INTRA:                  -0.060
REMARK UNBOUND:                -0.060
REMARK SMILES CC1=CCC[C@@H](C)C(=O)C[C@@H](C(C)C)C(=O)C1
REMARK SMILES IDX 8 1 9 2 6 3 7 4 5 5 4 6 3 7 2 8 1 9 10 11 11 12 15 13 16 14
REMARK SMILES IDX 17 15 12 17 13 18 14 19
REMARK H PARENT
REMARK Flexibility Score: 70.00
ROOT
ATOM      1  C   UNL     1       7.857   1.245  -6.963  1.00  0.00     0.136 C 
ATOM      2  O   UNL     1       8.934   1.516  -6.451  1.00  0.00    -0.299 OA
ENDROOT
BRANCH   1   3
ATOM      3  C   UNL     1       7.262  -0.139  -6.763  1.00  0.00     0.053 C 
ATOM      4  C   UNL     1       6.985  -0.397  -5.275  1.00  0.00     0.016 C 
BRANCH   3   5
ATOM      5  C   UNL     1       8.204  -1.215  -7.344  1.00  0.00     0.015 C 
BRANCH   5   6
ATOM      6  C   UNL     1       7.884  -1.533  -8.818  1.00  0.00     0.028 C 
BRANCH   6   7
ATOM      7  C   UNL     1       6.406  -1.758  -9.009  1.00  0.00    -0.028 C 
ATOM      8  C   UNL     1       5.567  -0.893  -9.626  1.00  0.00    -0.070 CG0
ATOM      9  C   UNL     1       4.130  -1.307  -9.809  1.00  0.00     0.039 C 
ATOM     10  G   UNL     1       6.011   0.477 -10.118  1.00  0.00     0.000 G0
ENDBRANCH   6   7
ENDBRANCH   5   6
ENDBRANCH   3   5
ENDBRANCH   1   3
BRANCH   1  11
ATOM     11  C   UNL     1       7.138   2.293  -7.782  1.00  0.00     0.087 C 
BRANCH  11  12
ATOM     12  C   UNL     1       5.615   2.031  -8.010  1.00  0.00     0.066 C 
BRANCH  12  13
ATOM     13  C   UNL     1       5.266   1.623  -9.438  1.00  0.00     0.140 C 
ATOM     14  O   UNL     1       4.328   2.154 -10.016  1.00  0.00    -0.299 OA
BRANCH  13  15
ATOM     15  C   UNL     1       6.010   0.503 -10.125  1.00  0.00     0.106 CG0
ATOM     16  G   UNL     1       5.596  -0.869  -9.612  1.00  0.00     0.000 G0
ENDBRANCH  13  15
ENDBRANCH  12  13
BRANCH  12  17
ATOM     17  C   UNL     1       4.664   3.155  -7.479  1.00  0.00    -0.006 C 
ATOM     18  C   UNL     1       4.946   4.551  -8.059  1.00  0.00     0.008 C 
ATOM     19  C   UNL     1       4.664   3.219  -5.942  1.00  0.00     0.008 C 
ENDBRANCH  12  17
ENDBRANCH  11  12
ENDBRANCH   1  11
TORSDOF 1
ENDMDL
MODEL 2
REMARK VINA RESULT:    -2.989      2.355      5.256
REMARK INTER + INTRA:          -4.622
REMARK INTER:                  -4.311
REMARK INTRA:                  -0.311
REMARK UNBOUND:                -0.060
REMARK SMILES CC1=CCC[C@@H](C)C(=O)C[C@@H](C(C)C)C(=O)C1
REMARK SMILES IDX 8 1 9 2 6 3 7 4 5 5 4 6 3 7 2 8 1 9 10 11 11 12 15 13 16 14
REMARK SMILES IDX 17 15 12 17 13 18 14 19
REMARK H PARENT
REMARK Flexibility Score: 70.00
ROOT
ATOM      1  C   UNL     1       5.080   2.606  -8.071  1.00  0.00     0.136 C 
ATOM      2  O   UNL     1       4.259   3.034  -8.869  1.00  0.00    -0.299 OA
ENDROOT
BRANCH   1   3
ATOM      3  C   UNL     1       5.292   3.333  -6.754  1.00  0.00     0.053 C 
ATOM      4  C   UNL     1       3.995   3.347  -5.932  1.00  0.00     0.016 C 
BRANCH   3   5
ATOM      5  C   UNL     1       5.798   4.769  -7.012  1.00  0.00     0.015 C 
BRANCH   5   6
ATOM      6  C   UNL     1       7.231   4.983  -6.484  1.00  0.00     0.028 C 
BRANCH   6   7
ATOM      7  C   UNL     1       8.228   4.963  -7.614  1.00  0.00    -0.028 C 
ATOM      8  C   UNL     1       9.015   3.907  -7.929  1.00  0.00    -0.070 CG0
ATOM      9  C   UNL     1       9.900   4.021  -9.143  1.00  0.00     0.039 C 
ATOM     10  G   UNL     1       9.056   2.633  -7.099  1.00  0.00     0.000 G0
ENDBRANCH   6   7
ENDBRANCH   5   6
ENDBRANCH   3   5
ENDBRANCH   1   3
BRANCH   1  11
ATOM     11  C   UNL     1       5.867   1.359  -8.409  1.00  0.00     0.087 C 
BRANCH  11  12
ATOM     12  C   UNL     1       6.996   0.988  -7.395  1.00  0.00     0.066 C 
BRANCH  12  13
ATOM     13  C   UNL     1       8.384   1.456  -7.818  1.00  0.00     0.140 C 
ATOM     14  O   UNL     1       8.997   0.851  -8.687  1.00  0.00    -0.299 OA
BRANCH  13  15
ATOM     15  C   UNL     1       9.057   2.610  -7.115  1.00  0.00     0.106 CG0
ATOM     16  G   UNL     1       8.996   3.898  -7.923  1.00  0.00     0.000 G0
ENDBRANCH  13  15
ENDBRANCH  12  13
BRANCH  12  17
ATOM     17  C   UNL     1       7.004  -0.508  -6.934  1.00  0.00    -0.006 C 
ATOM     18  C   UNL     1       5.639  -1.210  -7.033  1.00  0.00     0.008 C 
ATOM     19  C   UNL     1       7.565  -0.660  -5.510  1.00  0.00     0.008 C 
ENDBRANCH  12  17
ENDBRANCH  11  12
ENDBRANCH   1  11
TORSDOF 1
ENDMDL
MODEL 3
REMARK VINA RESULT:    -2.892      1.729      3.881
REMARK INTER + INTRA:          -4.473
REMARK INTER:                  -4.536
REMARK INTRA:                   0.063
REMARK UNBOUND:                -0.060
REMARK SMILES CC1=CCC[C@@H](C)C(=O)C[C@@H](C(C)C)C(=O)C1
REMARK SMILES IDX 8 1 9 2 6 3 7 4 5 5 4 6 3 7 2 8 1 9 10 11 11 12 15 13 16 14
REMARK SMILES IDX 17 15 12 17 13 18 14 19
REMARK H PARENT
REMARK Flexibility Score: 70.00
ROOT
ATOM      1  C   UNL     1       5.386   2.370  -6.731  1.00  0.00     0.136 C 
ATOM      2  O   UNL     1       4.372   2.799  -6.200  1.00  0.00    -0.299 OA
ENDROOT
BRANCH   1   3
ATOM      3  C   UNL     1       5.793   2.894  -8.098  1.00  0.00     0.053 C 
ATOM      4  C   UNL     1       5.700   4.426  -8.137  1.00  0.00     0.016 C 
BRANCH   3   5
ATOM      5  C   UNL     1       4.914   2.259  -9.197  1.00  0.00     0.015 C 
BRANCH   5   6
ATOM      6  C   UNL     1       5.618   1.077  -9.894  1.00  0.00     0.028 C 
BRANCH   6   7
ATOM      7  C   UNL     1       4.791  -0.178  -9.787  1.00  0.00    -0.028 C 
ATOM      8  C   UNL     1       5.188  -1.312  -9.163  1.00  0.00    -0.070 CG0
ATOM      9  C   UNL     1       4.207  -2.452  -9.073  1.00  0.00     0.039 C 
ATOM     10  G   UNL     1       6.581  -1.486  -8.575  1.00  0.00     0.000 G0
ENDBRANCH   6   7
ENDBRANCH   5   6
ENDBRANCH   3   5
ENDBRANCH   1   3
BRANCH   1  11
ATOM     11  C   UNL     1       6.217   1.328  -6.016  1.00  0.00     0.087 C 
BRANCH  11  12
ATOM     12  C   UNL     1       7.162   0.486  -6.932  1.00  0.00     0.066 C 
BRANCH  12  13
ATOM     13  C   UNL     1       6.671  -0.936  -7.184  1.00  0.00     0.140 C 
ATOM     14  O   UNL     1       6.416  -1.673  -6.242  1.00  0.00    -0.299 OA
BRANCH  13  15
ATOM     15  C   UNL     1       6.579  -1.484  -8.589  1.00  0.00     0.106 CG0
ATOM     16  G   UNL     1       5.188  -1.321  -9.185  1.00  0.00     0.000 G0
ENDBRANCH  13  15
ENDBRANCH  12  13
BRANCH  12  17
ATOM     17  C   UNL     1       8.673   0.514  -6.526  1.00  0.00    -0.006 C 
ATOM     18  C   UNL     1       9.275   1.925  -6.419  1.00  0.00     0.008 C 
ATOM     19  C   UNL     1       9.530  -0.348  -7.468  1.00  0.00     0.008 C 
ENDBRANCH  12  17
ENDBRANCH  11  12
ENDBRANCH   1  11
TORSDOF 1
ENDMDL
MODEL 4
REMARK VINA RESULT:    -2.876      1.582      3.998
REMARK INTER + INTRA:          -4.449
REMARK INTER:                  -3.990
REMARK INTRA:                  -0.459
REMARK UNBOUND:                -0.060
REMARK SMILES CC1=CCC[C@@H](C)C(=O)C[C@@H](C(C)C)C(=O)C1
REMARK SMILES IDX 8 1 9 2 6 3 7 4 5 5 4 6 3 7 2 8 1 9 10 11 11 12 15 13 16 14
REMARK SMILES IDX 17 15 12 17 13 18 14 19
REMARK H PARENT
REMARK Flexibility Score: 70.00
ROOT
ATOM      1  C   UNL     1       6.932   0.156  -6.511  1.00  0.00     0.136 C 
ATOM      2  O   UNL     1       6.828   0.112  -5.294  1.00  0.00    -0.299 OA
ENDROOT
BRANCH   1   3
ATOM      3  C   UNL     1       8.234   0.629  -7.135  1.00  0.00     0.053 C 
ATOM      4  C   UNL     1       9.388  -0.308  -6.747  1.00  0.00     0.016 C 
BRANCH   3   5
ATOM      5  C   UNL     1       8.535   2.081  -6.706  1.00  0.00     0.015 C 
BRANCH   5   6
ATOM      6  C   UNL     1       8.254   3.090  -7.838  1.00  0.00     0.028 C 
BRANCH   6   7
ATOM      7  C   UNL     1       6.865   3.662  -7.713  1.00  0.00    -0.028 C 
ATOM      8  C   UNL     1       5.820   3.330  -8.508  1.00  0.00    -0.070 CG0
ATOM      9  C   UNL     1       4.474   3.932  -8.197  1.00  0.00     0.039 C 
ATOM     10  G   UNL     1       5.957   2.400  -9.704  1.00  0.00     0.000 G0
ENDBRANCH   6   7
ENDBRANCH   5   6
ENDBRANCH   3   5
ENDBRANCH   1   3
BRANCH   1  11
ATOM     11  C   UNL     1       5.762  -0.264  -7.373  1.00  0.00     0.087 C 
BRANCH  11  12
ATOM     12  C   UNL     1       5.978  -0.109  -8.912  1.00  0.00     0.066 C 
BRANCH  12  13
ATOM     13  C   UNL     1       5.238   1.076  -9.523  1.00  0.00     0.140 C 
ATOM     14  O   UNL     1       4.090   0.944  -9.921  1.00  0.00    -0.299 OA
BRANCH  13  15
ATOM     15  C   UNL     1       5.937   2.400  -9.728  1.00  0.00     0.106 CG0
ATOM     16  G   UNL     1       5.808   3.317  -8.522  1.00  0.00     0.000 G0
ENDBRANCH  13  15
ENDBRANCH  12  13
BRANCH  12  17
ATOM     17  C   UNL     1       5.764  -1.417  -9.744  1.00  0.00    -0.006 C 
ATOM     18  C   UNL     1       4.683  -2.357  -9.184  1.00  0.00     0.008 C 
ATOM     19  C   UNL     1       7.080  -2.192  -9.932  1.00  0.00     0.008 C 
ENDBRANCH  12  17
ENDBRANCH  11  12
ENDBRANCH   1  11
TORSDOF 1
ENDMDL
MODEL 5
REMARK VINA RESULT:    -2.853      1.771      2.561
REMARK INTER + INTRA:          -4.414
REMARK INTER:                  -3.968
REMARK INTRA:                  -0.446
REMARK UNBOUND:                -0.060
REMARK SMILES CC1=CCC[C@@H](C)C(=O)C[C@@H](C(C)C)C(=O)C1
REMARK SMILES IDX 8 1 9 2 6 3 7 4 5 5 4 6 3 7 2 8 1 9 10 11 11 12 15 13 16 14
REMARK SMILES IDX 17 15 12 17 13 18 14 19
REMARK H PARENT
REMARK Flexibility Score: 70.00
ROOT
ATOM      1  C   UNL     1       9.065   2.706  -8.375  1.00  0.00     0.136 C 
ATOM      2  O   UNL     1      10.061   3.015  -9.013  1.00  0.00    -0.299 OA
ENDROOT
BRANCH   1   3
ATOM      3  C   UNL     1       9.174   2.492  -6.875  1.00  0.00     0.053 C 
ATOM      4  C   UNL     1      10.065   3.570  -6.241  1.00  0.00     0.016 C 
BRANCH   3   5
ATOM      5  C   UNL     1       9.719   1.079  -6.575  1.00  0.00     0.015 C 
BRANCH   5   6
ATOM      6  C   UNL     1       8.610   0.118  -6.101  1.00  0.00     0.028 C 
BRANCH   6   7
ATOM      7  C   UNL     1       8.244  -0.858  -7.190  1.00  0.00    -0.028 C 
ATOM      8  C   UNL     1       7.045  -0.899  -7.817  1.00  0.00    -0.070 CG0
ATOM      9  C   UNL     1       6.869  -1.883  -8.945  1.00  0.00     0.039 C 
ATOM     10  G   UNL     1       5.874  -0.013  -7.417  1.00  0.00     0.000 G0
ENDBRANCH   6   7
ENDBRANCH   5   6
ENDBRANCH   3   5
ENDBRANCH   1   3
BRANCH   1  11
ATOM     11  C   UNL     1       7.743   2.544  -9.092  1.00  0.00     0.087 C 
BRANCH  11  12
ATOM     12  C   UNL     1       6.491   2.429  -8.164  1.00  0.00     0.066 C 
BRANCH  12  13
ATOM     13  C   UNL     1       5.686   1.150  -8.370  1.00  0.00     0.140 C 
ATOM     14  O   UNL     1       4.838   1.094  -9.249  1.00  0.00    -0.299 OA
BRANCH  13  15
ATOM     15  C   UNL     1       5.858  -0.028  -7.440  1.00  0.00     0.106 CG0
ATOM     16  G   UNL     1       7.051  -0.894  -7.815  1.00  0.00     0.000 G0
ENDBRANCH  13  15
ENDBRANCH  12  13
BRANCH  12  17
ATOM     17  C   UNL     1       5.572   3.695  -8.136  1.00  0.00    -0.006 C 
ATOM     18  C   UNL     1       6.310   5.022  -8.378  1.00  0.00     0.008 C 
ATOM     19  C   UNL     1       4.763   3.780  -6.830  1.00  0.00     0.008 C 
ENDBRANCH  12  17
ENDBRANCH  11  12
ENDBRANCH   1  11
TORSDOF 1
ENDMDL
MODEL 6
REMARK VINA RESULT:    -2.806      2.370      3.387
REMARK INTER + INTRA:          -4.342
REMARK INTER:                  -4.852
REMARK INTRA:                   0.510
REMARK UNBOUND:                -0.060
REMARK SMILES CC1=CCC[C@@H](C)C(=O)C[C@@H](C(C)C)C(=O)C1
REMARK SMILES IDX 8 1 9 2 6 3 7 4 5 5 4 6 3 7 2 8 1 9 10 11 11 12 15 13 16 14
REMARK SMILES IDX 17 15 12 17 13 18 14 19
REMARK H PARENT
REMARK Flexibility Score: 70.00
ROOT
ATOM      1  C   UNL     1       5.921  -0.321  -7.230  1.00  0.00     0.136 C 
ATOM      2  O   UNL     1       5.270  -0.698  -8.194  1.00  0.00    -0.299 OA
ENDROOT
BRANCH   1   3
ATOM      3  C   UNL     1       7.013  -1.216  -6.670  1.00  0.00     0.053 C 
ATOM      4  C   UNL     1       7.243  -0.918  -5.181  1.00  0.00     0.016 C 
BRANCH   3   5
ATOM      5  C   UNL     1       8.318  -1.036  -7.476  1.00  0.00     0.015 C 
BRANCH   5   6
ATOM      6  C   UNL     1       9.282  -0.038  -6.805  1.00  0.00     0.028 C 
BRANCH   6   7
ATOM      7  C   UNL     1       9.816   0.951  -7.809  1.00  0.00    -0.028 C 
ATOM      8  C   UNL     1       9.311   2.191  -8.013  1.00  0.00    -0.070 CG0
ATOM      9  C   UNL     1      10.014   3.089  -8.998  1.00  0.00     0.039 C 
ATOM     10  G   UNL     1       8.062   2.699  -7.308  1.00  0.00     0.000 G0
ENDBRANCH   6   7
ENDBRANCH   5   6
ENDBRANCH   3   5
ENDBRANCH   1   3
BRANCH   1  11
ATOM     11  C   UNL     1       5.627   1.030  -6.616  1.00  0.00     0.087 C 
BRANCH  11  12
ATOM     12  C   UNL     1       5.494   2.208  -7.633  1.00  0.00     0.066 C 
BRANCH  12  13
ATOM     13  C   UNL     1       6.830   2.722  -8.160  1.00  0.00     0.140 C 
ATOM     14  O   UNL     1       6.932   3.083  -9.324  1.00  0.00    -0.299 OA
BRANCH  13  15
ATOM     15  C   UNL     1       8.062   2.708  -7.287  1.00  0.00     0.106 CG0
ATOM     16  G   UNL     1       9.292   2.199  -8.026  1.00  0.00     0.000 G0
ENDBRANCH  13  15
ENDBRANCH  12  13
BRANCH  12  17
ATOM     17  C   UNL     1       4.566   3.379  -7.168  1.00  0.00    -0.006 C 
ATOM     18  C   UNL     1       5.087   4.782  -7.523  1.00  0.00     0.008 C 
ATOM     19  C   UNL     1       4.265   3.302  -5.662  1.00  0.00     0.008 C 
ENDBRANCH  12  17
ENDBRANCH  11  12
ENDBRANCH   1  11
TORSDOF 1
ENDMDL
MODEL 7
REMARK VINA RESULT:    -2.739      1.778      4.023
REMARK INTER + INTRA:          -4.240
REMARK INTER:                  -3.832
REMARK INTRA:                  -0.408
REMARK UNBOUND:                -0.060
REMARK SMILES CC1=CCC[C@@H](C)C(=O)C[C@@H](C(C)C)C(=O)C1
REMARK SMILES IDX 8 1 9 2 6 3 7 4 5 5 4 6 3 7 2 8 1 9 10 11 11 12 15 13 16 14
REMARK SMILES IDX 17 15 12 17 13 18 14 19
REMARK H PARENT
REMARK Flexibility Score: 70.00
ROOT
ATOM      1  C   UNL     1       5.279   2.646  -7.766  1.00  0.00     0.136 C 
ATOM      2  O   UNL     1       4.204   3.073  -7.368  1.00  0.00    -0.299 OA
ENDROOT
BRANCH   1   3
ATOM      3  C   UNL     1       5.450   2.303  -9.236  1.00  0.00     0.053 C 
ATOM      4  C   UNL     1       4.903   3.433 -10.120  1.00  0.00     0.016 C 
BRANCH   3   5
ATOM      5  C   UNL     1       4.751   0.964  -9.557  1.00  0.00     0.015 C 
BRANCH   5   6
ATOM      6  C   UNL     1       5.728  -0.228  -9.507  1.00  0.00     0.028 C 
BRANCH   6   7
ATOM      7  C   UNL     1       5.627  -0.949  -8.188  1.00  0.00    -0.028 C 
ATOM      8  C   UNL     1       6.635  -1.062  -7.291  1.00  0.00    -0.070 CG0
ATOM      9  C   UNL     1       6.344  -1.746  -5.980  1.00  0.00     0.039 C 
ATOM     10  G   UNL     1       8.041  -0.550  -7.563  1.00  0.00     0.000 G0
ENDBRANCH   6   7
ENDBRANCH   5   6
ENDBRANCH   3   5
ENDBRANCH   1   3
BRANCH   1  11
ATOM     11  C   UNL     1       6.418   2.470  -6.786  1.00  0.00     0.087 C 
BRANCH  11  12
ATOM     12  C   UNL     1       7.784   2.057  -7.420  1.00  0.00     0.066 C 
BRANCH  12  13
ATOM     13  C   UNL     1       8.350   0.752  -6.870  1.00  0.00     0.140 C 
ATOM     14  O   UNL     1       9.112   0.769  -5.913  1.00  0.00    -0.299 OA
BRANCH  13  15
ATOM     15  C   UNL     1       8.055  -0.564  -7.549  1.00  0.00     0.106 CG0
ATOM     16  G   UNL     1       6.631  -1.039  -7.299  1.00  0.00     0.000 G0
ENDBRANCH  13  15
ENDBRANCH  12  13
BRANCH  12  17
ATOM     17  C   UNL     1       8.865   3.188  -7.456  1.00  0.00    -0.006 C 
ATOM     18  C   UNL     1       8.300   4.611  -7.308  1.00  0.00     0.008 C 
ATOM     19  C   UNL     1       9.734   3.103  -8.722  1.00  0.00     0.008 C 
ENDBRANCH  12  17
ENDBRANCH  11  12
ENDBRANCH   1  11
TORSDOF 1
ENDMDL
MODEL 8
REMARK VINA RESULT:    -2.673     20.200     21.931
REMARK INTER + INTRA:          -4.139
REMARK INTER:                  -4.287
REMARK INTRA:                   0.148
REMARK UNBOUND:                -0.060
REMARK SMILES CC1=CCC[C@@H](C)C(=O)C[C@@H](C(C)C)C(=O)C1
REMARK SMILES IDX 8 1 9 2 6 3 7 4 5 5 4 6 3 7 2 8 1 9 10 11 11 12 15 13 16 14
REMARK SMILES IDX 17 15 12 17 13 18 14 19
REMARK H PARENT
REMARK Flexibility Score: 70.00
ROOT
ATOM      1  C   UNL     1      -5.240  -4.493   7.529  1.00  0.00     0.136 C 
ATOM      2  O   UNL     1      -5.386  -4.472   6.316  1.00  0.00    -0.299 OA
ENDROOT
BRANCH   1   3
ATOM      3  C   UNL     1      -5.782  -3.348   8.368  1.00  0.00     0.053 C 
ATOM      4  C   UNL     1      -5.277  -3.453   9.814  1.00  0.00     0.016 C 
BRANCH   3   5
ATOM      5  C   UNL     1      -7.326  -3.336   8.322  1.00  0.00     0.015 C 
BRANCH   5   6
ATOM      6  C   UNL     1      -7.941  -4.430   9.217  1.00  0.00     0.028 C 
BRANCH   6   7
ATOM      7  C   UNL     1      -8.605  -5.496   8.383  1.00  0.00    -0.028 C 
ATOM      8  C   UNL     1      -8.161  -6.769   8.264  1.00  0.00    -0.070 CG0
ATOM      9  C   UNL     1      -8.988  -7.736   7.455  1.00  0.00     0.039 C 
ATOM     10  G   UNL     1      -6.861  -7.252   8.891  1.00  0.00     0.000 G0
ENDBRANCH   6   7
ENDBRANCH   5   6
ENDBRANCH   3   5
ENDBRANCH   1   3
BRANCH   1  11
ATOM     11  C   UNL     1      -4.526  -5.661   8.173  1.00  0.00     0.087 C 
BRANCH  11  12
ATOM     12  C   UNL     1      -4.681  -7.027   7.432  1.00  0.00     0.066 C 
BRANCH  12  13
ATOM     13  C   UNL     1      -5.898  -7.834   7.873  1.00  0.00     0.140 C 
ATOM     14  O   UNL     1      -6.141  -8.912   7.350  1.00  0.00    -0.299 OA
BRANCH  13  15
ATOM     15  C   UNL     1      -6.865  -7.278   8.891  1.00  0.00     0.106 CG0
ATOM     16  G   UNL     1      -8.154  -6.779   8.254  1.00  0.00     0.000 G0
ENDBRANCH  13  15
ENDBRANCH  12  13
BRANCH  12  17
ATOM     17  C   UNL     1      -3.387  -7.907   7.390  1.00  0.00    -0.006 C 
ATOM     18  C   UNL     1      -2.429  -7.685   8.572  1.00  0.00     0.008 C 
ATOM     19  C   UNL     1      -2.626  -7.733   6.064  1.00  0.00     0.008 C 
ENDBRANCH  12  17
ENDBRANCH  11  12
ENDBRANCH   1  11
TORSDOF 1
ENDMDL
MODEL 9
REMARK VINA RESULT:    -2.581      2.703      4.522
REMARK INTER + INTRA:          -3.998
REMARK INTER:                  -3.653
REMARK INTRA:                  -0.345
REMARK UNBOUND:                -0.060
REMARK SMILES CC1=CCC[C@@H](C)C(=O)C[C@@H](C(C)C)C(=O)C1
REMARK SMILES IDX 8 1 9 2 6 3 7 4 5 5 4 6 3 7 2 8 1 9 10 11 11 12 15 13 16 14
REMARK SMILES IDX 17 15 12 17 13 18 14 19
REMARK H PARENT
REMARK Flexibility Score: 70.00
ROOT
ATOM      1  C   UNL     1       6.212   0.674  -7.681  1.00  0.00     0.136 C 
ATOM      2  O   UNL     1       5.606  -0.343  -7.987  1.00  0.00    -0.299 OA
ENDROOT
BRANCH   1   3
ATOM      3  C   UNL     1       6.203   1.144  -6.236  1.00  0.00     0.053 C 
ATOM      4  C   UNL     1       6.410  -0.042  -5.283  1.00  0.00     0.016 C 
BRANCH   3   5
ATOM      5  C   UNL     1       4.882   1.879  -5.922  1.00  0.00     0.015 C 
BRANCH   5   6
ATOM      6  C   UNL     1       4.994   3.399  -6.154  1.00  0.00     0.028 C 
BRANCH   6   7
ATOM      7  C   UNL     1       4.384   3.787  -7.476  1.00  0.00    -0.028 C 
ATOM      8  C   UNL     1       5.041   4.430  -8.470  1.00  0.00    -0.070 CG0
ATOM      9  C   UNL     1       4.308   4.670  -9.765  1.00  0.00     0.039 C 
ATOM     10  G   UNL     1       6.469   4.934  -8.323  1.00  0.00     0.000 G0
ENDBRANCH   6   7
ENDBRANCH   5   6
ENDBRANCH   3   5
ENDBRANCH   1   3
BRANCH   1  11
ATOM     11  C   UNL     1       6.961   1.443  -8.746  1.00  0.00     0.087 C 
BRANCH  11  12
ATOM     12  C   UNL     1       7.802   2.652  -8.228  1.00  0.00     0.066 C 
BRANCH  12  13
ATOM     13  C   UNL     1       7.484   3.971  -8.926  1.00  0.00     0.140 C 
ATOM     14  O   UNL     1       8.100   4.297  -9.931  1.00  0.00    -0.299 OA
BRANCH  13  15
ATOM     15  C   UNL     1       6.475   4.930  -8.342  1.00  0.00     0.106 CG0
ATOM     16  G   UNL     1       5.046   4.426  -8.484  1.00  0.00     0.000 G0
ENDBRANCH  13  15
ENDBRANCH  12  13
BRANCH  12  17
ATOM     17  C   UNL     1       9.344   2.398  -8.146  1.00  0.00    -0.006 C 
ATOM     18  C   UNL     1       9.827   1.166  -8.930  1.00  0.00     0.008 C 
ATOM     19  C   UNL     1       9.828   2.308  -6.688  1.00  0.00     0.008 C 
ENDBRANCH  12  17
ENDBRANCH  11  12
ENDBRANCH   1  11
TORSDOF 1
ENDMDL
