MODEL 1
REMARK VINA RESULT:     0.000      0.000      0.000
REMARK INTER + INTRA:          -1.304
REMARK INTER:                   0.000
REMARK INTRA:                  -1.304
REMARK UNBOUND:                -1.304
REMARK SMILES O=C([O-])CCCCCCCCC(=O)[O-]
REMARK SMILES IDX 7 1 6 2 5 3 4 4 2 5 1 6 3 7 8 8 9 9 10 10 11 11 12 12 13 13
REMARK SMILES IDX 14 14
REMARK H PARENT
REMARK Flexibility Score: inf
ROOT
ATOM      1  C   UNL     1     185.812 190.661 191.721  1.00  0.00     0.000 C 
ENDROOT
BRANCH   1   2
ATOM      2  C   UNL     1     185.275 191.401 192.960  1.00  0.00     0.000 C 
BRANCH   2   3
ATOM      3  C   UNL     1     185.430 190.642 194.293  1.00  0.00     0.006 C 
BRANCH   3   4
ATOM      4  C   UNL     1     186.336 189.403 194.220  1.00  0.00     0.053 C 
BRANCH   4   5
ATOM      5  C   UNL     1     187.444 189.461 195.226  1.00  0.00     0.041 C 
ATOM      6  O   UNL     1     187.321 190.161 196.266  1.00  0.00    -0.550 OA
ATOM      7  O   UNL     1     188.626 188.769 194.997  1.00  0.00    -0.550 OA
ENDBRANCH   4   5
ENDBRANCH   3   4
ENDBRANCH   2   3
ENDBRANCH   1   2
BRANCH   1   8
ATOM      8  C   UNL     1     187.023 191.361 191.086  1.00  0.00     0.000 C 
BRANCH   8   9
ATOM      9  C   UNL     1     188.281 190.490 191.198  1.00  0.00     0.000 C 
BRANCH   9  10
ATOM     10  C   UNL     1     189.219 191.016 192.291  1.00  0.00     0.006 C 
BRANCH  10  11
ATOM     11  C   UNL     1     188.895 192.471 192.639  1.00  0.00     0.053 C 
BRANCH  11  12
ATOM     12  C   UNL     1     188.828 192.652 194.123  1.00  0.00     0.041 C 
ATOM     13  O   UNL     1     187.843 193.235 194.646  1.00  0.00    -0.550 OA
ATOM     14  O   UNL     1     189.832 192.133 194.932  1.00  0.00    -0.550 OA
ENDBRANCH  11  12
ENDBRANCH  10  11
ENDBRANCH   9  10
ENDBRANCH   8   9
ENDBRANCH   1   8
TORSDOF 9
ENDMDL
MODEL 2
REMARK VINA RESULT:     0.002      8.230      9.620
REMARK INTER + INTRA:          -1.301
REMARK INTER:                   0.000
REMARK INTRA:                  -1.301
REMARK UNBOUND:                -1.304
REMARK SMILES O=C([O-])CCCCCCCCC(=O)[O-]
REMARK SMILES IDX 7 1 6 2 5 3 4 4 2 5 1 6 3 7 8 8 9 9 10 10 11 11 12 12 13 13
REMARK SMILES IDX 14 14
REMARK H PARENT
REMARK Flexibility Score: inf
ROOT
ATOM      1  C   UNL     1     180.381 191.019 188.678  1.00  0.00     0.000 C 
ENDROOT
BRANCH   1   2
ATOM      2  C   UNL     1     179.586 191.289 187.388  1.00  0.00     0.000 C 
BRANCH   2   3
ATOM      3  C   UNL     1     179.993 190.426 186.177  1.00  0.00     0.006 C 
BRANCH   3   4
ATOM      4  C   UNL     1     181.286 189.620 186.372  1.00  0.00     0.053 C 
BRANCH   4   5
ATOM      5  C   UNL     1     182.276 189.878 185.278  1.00  0.00     0.041 C 
ATOM      6  O   UNL     1     183.507 189.709 185.484  1.00  0.00    -0.550 OA
ATOM      7  O   UNL     1     181.841 190.335 184.041  1.00  0.00    -0.550 OA
ENDBRANCH   4   5
ENDBRANCH   3   4
ENDBRANCH   2   3
ENDBRANCH   1   2
BRANCH   1   8
ATOM      8  C   UNL     1     181.252 192.210 189.104  1.00  0.00     0.000 C 
BRANCH   8   9
ATOM      9  C   UNL     1     182.742 191.849 189.048  1.00  0.00     0.000 C 
BRANCH   9  10
ATOM     10  C   UNL     1     183.404 192.434 187.795  1.00  0.00     0.006 C 
BRANCH  10  11
ATOM     11  C   UNL     1     182.594 193.610 187.243  1.00  0.00     0.053 C 
BRANCH  11  12
ATOM     12  C   UNL     1     182.413 193.474 185.765  1.00  0.00     0.041 C 
ATOM     13  O   UNL     1     181.273 193.618 185.250  1.00  0.00    -0.550 OA
ATOM     14  O   UNL     1     183.512 193.238 184.949  1.00  0.00    -0.550 OA
ENDBRANCH  11  12
ENDBRANCH  10  11
ENDBRANCH   9  10
ENDBRANCH   8   9
ENDBRANCH   1   8
TORSDOF 9
ENDMDL
MODEL 3
REMARK VINA RESULT:     0.002     11.488     13.307
REMARK INTER + INTRA:          -1.301
REMARK INTER:                   0.000
REMARK INTRA:                  -1.301
REMARK UNBOUND:                -1.304
REMARK SMILES O=C([O-])CCCCCCCCC(=O)[O-]
REMARK SMILES IDX 7 1 6 2 5 3 4 4 2 5 1 6 3 7 8 8 9 9 10 10 11 11 12 12 13 13
REMARK SMILES IDX 14 14
REMARK H PARENT
REMARK Flexibility Score: inf
ROOT
ATOM      1  C   UNL     1     176.956 189.699 187.429  1.00  0.00     0.000 C 
ENDROOT
BRANCH   1   2
ATOM      2  C   UNL     1     178.407 190.071 187.075  1.00  0.00     0.000 C 
BRANCH   2   3
ATOM      3  C   UNL     1     178.617 190.593 185.640  1.00  0.00     0.006 C 
BRANCH   3   4
ATOM      4  C   UNL     1     177.331 190.716 184.810  1.00  0.00     0.053 C 
BRANCH   4   5
ATOM      5  C   UNL     1     177.167 192.087 184.231  1.00  0.00     0.041 C 
ATOM      6  O   UNL     1     178.179 192.788 183.963  1.00  0.00    -0.550 OA
ATOM      7  O   UNL     1     175.896 192.605 184.019  1.00  0.00    -0.550 OA
ENDBRANCH   4   5
ENDBRANCH   3   4
ENDBRANCH   2   3
ENDBRANCH   1   2
BRANCH   1   8
ATOM      8  C   UNL     1     176.309 190.684 188.413  1.00  0.00     0.000 C 
BRANCH   8   9
ATOM      9  C   UNL     1     175.144 191.434 187.755  1.00  0.00     0.000 C 
BRANCH   9  10
ATOM     10  C   UNL     1     175.497 192.908 187.525  1.00  0.00     0.006 C 
BRANCH  10  11
ATOM     11  C   UNL     1     176.796 193.280 188.244  1.00  0.00     0.053 C 
BRANCH  11  12
ATOM     12  C   UNL     1     177.726 193.992 187.313  1.00  0.00     0.041 C 
ATOM     13  O   UNL     1     178.950 193.699 187.294  1.00  0.00    -0.550 OA
ATOM     14  O   UNL     1     177.231 194.943 186.429  1.00  0.00    -0.550 OA
ENDBRANCH  11  12
ENDBRANCH  10  11
ENDBRANCH   9  10
ENDBRANCH   8   9
ENDBRANCH   1   8
TORSDOF 9
ENDMDL
MODEL 4
REMARK VINA RESULT:     0.002     11.489     12.870
REMARK INTER + INTRA:          -1.301
REMARK INTER:                   0.000
REMARK INTRA:                  -1.301
REMARK UNBOUND:                -1.304
REMARK SMILES O=C([O-])CCCCCCCCC(=O)[O-]
REMARK SMILES IDX 7 1 6 2 5 3 4 4 2 5 1 6 3 7 8 8 9 9 10 10 11 11 12 12 13 13
REMARK SMILES IDX 14 14
REMARK H PARENT
REMARK Flexibility Score: inf
ROOT
ATOM      1  C   UNL     1     177.623 187.754 189.873  1.00  0.00     0.000 C 
ENDROOT
BRANCH   1   2
ATOM      2  C   UNL     1     176.797 188.692 190.771  1.00  0.00     0.000 C 
BRANCH   2   3
ATOM      3  C   UNL     1     175.388 189.031 190.243  1.00  0.00     0.006 C 
BRANCH   3   4
ATOM      4  C   UNL     1     174.872 188.085 189.148  1.00  0.00     0.053 C 
BRANCH   4   5
ATOM      5  C   UNL     1     174.327 188.835 187.973  1.00  0.00     0.041 C 
ATOM      6  O   UNL     1     174.613 188.473 186.800  1.00  0.00    -0.550 OA
ATOM      7  O   UNL     1     173.529 189.954 188.172  1.00  0.00    -0.550 OA
ENDBRANCH   4   5
ENDBRANCH   3   4
ENDBRANCH   2   3
ENDBRANCH   1   2
BRANCH   1   8
ATOM      8  C   UNL     1     178.601 188.509 188.960  1.00  0.00     0.000 C 
BRANCH   8   9
ATOM      9  C   UNL     1     178.218 188.339 187.484  1.00  0.00     0.000 C 
BRANCH   9  10
ATOM     10  C   UNL     1     177.926 189.694 186.831  1.00  0.00     0.006 C 
BRANCH  10  11
ATOM     11  C   UNL     1     177.948 190.820 187.868  1.00  0.00     0.053 C 
BRANCH  11  12
ATOM     12  C   UNL     1     176.688 191.623 187.797  1.00  0.00     0.041 C 
ATOM     13  O   UNL     1     176.059 191.721 186.711  1.00  0.00    -0.550 OA
ATOM     14  O   UNL     1     176.181 192.224 188.943  1.00  0.00    -0.550 OA
ENDBRANCH  11  12
ENDBRANCH  10  11
ENDBRANCH   9  10
ENDBRANCH   8   9
ENDBRANCH   1   8
TORSDOF 9
ENDMDL
MODEL 5
REMARK VINA RESULT:     0.002     11.441     12.897
REMARK INTER + INTRA:          -1.301
REMARK INTER:                   0.000
REMARK INTRA:                  -1.301
REMARK UNBOUND:                -1.304
REMARK SMILES O=C([O-])CCCCCCCCC(=O)[O-]
REMARK SMILES IDX 7 1 6 2 5 3 4 4 2 5 1 6 3 7 8 8 9 9 10 10 11 11 12 12 13 13
REMARK SMILES IDX 14 14
REMARK H PARENT
REMARK Flexibility Score: inf
ROOT
ATOM      1  C   UNL     1     179.884 185.362 186.984  1.00  0.00     0.000 C 
ENDROOT
BRANCH   1   2
ATOM      2  C   UNL     1     178.667 185.175 186.061  1.00  0.00     0.000 C 
BRANCH   2   3
ATOM      3  C   UNL     1     177.620 184.157 186.557  1.00  0.00     0.006 C 
BRANCH   3   4
ATOM      4  C   UNL     1     177.960 183.494 187.900  1.00  0.00     0.053 C 
BRANCH   4   5
ATOM      5  C   UNL     1     176.860 183.660 188.901  1.00  0.00     0.041 C 
ATOM      6  O   UNL     1     175.658 183.701 188.522  1.00  0.00    -0.550 OA
ATOM      7  O   UNL     1     177.162 183.801 190.248  1.00  0.00    -0.550 OA
ENDBRANCH   4   5
ENDBRANCH   3   4
ENDBRANCH   2   3
ENDBRANCH   1   2
BRANCH   1   8
ATOM      8  C   UNL     1     179.877 186.711 187.718  1.00  0.00     0.000 C 
BRANCH   8   9
ATOM      9  C   UNL     1     179.707 186.513 189.230  1.00  0.00     0.000 C 
BRANCH   9  10
ATOM     10  C   UNL     1     178.365 187.079 189.712  1.00  0.00     0.006 C 
BRANCH  10  11
ATOM     11  C   UNL     1     177.621 187.776 188.570  1.00  0.00     0.053 C 
BRANCH  11  12
ATOM     12  C   UNL     1     176.228 187.244 188.449  1.00  0.00     0.041 C 
ATOM     13  O   UNL     1     175.723 187.042 187.314  1.00  0.00    -0.550 OA
ATOM     14  O   UNL     1     175.506 186.923 189.592  1.00  0.00    -0.550 OA
ENDBRANCH  11  12
ENDBRANCH  10  11
ENDBRANCH   9  10
ENDBRANCH   8   9
ENDBRANCH   1   8
TORSDOF 9
ENDMDL
MODEL 6
REMARK VINA RESULT:     0.002      7.775      9.845
REMARK INTER + INTRA:          -1.301
REMARK INTER:                   0.000
REMARK INTRA:                  -1.301
REMARK UNBOUND:                -1.304
REMARK SMILES O=C([O-])CCCCCCCCC(=O)[O-]
REMARK SMILES IDX 7 1 6 2 5 3 4 4 2 5 1 6 3 7 8 8 9 9 10 10 11 11 12 12 13 13
REMARK SMILES IDX 14 14
REMARK H PARENT
REMARK Flexibility Score: inf
ROOT
ATOM      1  C   UNL     1     178.316 191.505 195.307  1.00  0.00     0.000 C 
ENDROOT
BRANCH   1   2
ATOM      2  C   UNL     1     178.451 190.618 196.558  1.00  0.00     0.000 C 
BRANCH   2   3
ATOM      3  C   UNL     1     179.600 189.591 196.511  1.00  0.00     0.006 C 
BRANCH   3   4
ATOM      4  C   UNL     1     180.649 189.856 195.421  1.00  0.00     0.053 C 
BRANCH   4   5
ATOM      5  C   UNL     1     180.910 188.640 194.588  1.00  0.00     0.041 C 
ATOM      6  O   UNL     1     180.974 188.731 193.333  1.00  0.00    -0.550 OA
ATOM      7  O   UNL     1     181.050 187.399 195.195  1.00  0.00    -0.550 OA
ENDBRANCH   4   5
ENDBRANCH   3   4
ENDBRANCH   2   3
ENDBRANCH   1   2
BRANCH   1   8
ATOM      8  C   UNL     1     177.236 191.009 194.335  1.00  0.00     0.000 C 
BRANCH   8   9
ATOM      9  C   UNL     1     177.860 190.526 193.019  1.00  0.00     0.000 C 
BRANCH   9  10
ATOM     10  C   UNL     1     177.492 189.065 192.739  1.00  0.00     0.006 C 
BRANCH  10  11
ATOM     11  C   UNL     1     176.822 188.423 193.957  1.00  0.00     0.053 C 
BRANCH  11  12
ATOM     12  C   UNL     1     177.562 187.191 194.373  1.00  0.00     0.041 C 
ATOM     13  O   UNL     1     178.212 186.525 193.526  1.00  0.00    -0.550 OA
ATOM     14  O   UNL     1     177.573 186.805 195.708  1.00  0.00    -0.550 OA
ENDBRANCH  11  12
ENDBRANCH  10  11
ENDBRANCH   9  10
ENDBRANCH   8   9
ENDBRANCH   1   8
TORSDOF 9
ENDMDL
MODEL 7
REMARK VINA RESULT:     0.003     13.951     15.449
REMARK INTER + INTRA:          -1.300
REMARK INTER:                   0.000
REMARK INTRA:                  -1.300
REMARK UNBOUND:                -1.304
REMARK SMILES O=C([O-])CCCCCCCCC(=O)[O-]
REMARK SMILES IDX 7 1 6 2 5 3 4 4 2 5 1 6 3 7 8 8 9 9 10 10 11 11 12 12 13 13
REMARK SMILES IDX 14 14
REMARK H PARENT
REMARK Flexibility Score: inf
ROOT
ATOM      1  C   UNL     1     182.258 180.705 185.807  1.00  0.00     0.000 C 
ENDROOT
BRANCH   1   2
ATOM      2  C   UNL     1     182.464 179.464 184.920  1.00  0.00     0.000 C 
BRANCH   2   3
ATOM      3  C   UNL     1     181.570 179.401 183.666  1.00  0.00     0.006 C 
BRANCH   3   4
ATOM      4  C   UNL     1     180.720 180.658 183.424  1.00  0.00     0.053 C 
BRANCH   4   5
ATOM      5  C   UNL     1     180.875 181.178 182.028  1.00  0.00     0.041 C 
ATOM      6  O   UNL     1     181.215 180.401 181.095  1.00  0.00    -0.550 OA
ATOM      7  O   UNL     1     180.677 182.526 181.763  1.00  0.00    -0.550 OA
ENDBRANCH   4   5
ENDBRANCH   3   4
ENDBRANCH   2   3
ENDBRANCH   1   2
BRANCH   1   8
ATOM      8  C   UNL     1     183.462 181.658 185.790  1.00  0.00     0.000 C 
BRANCH   8   9
ATOM      9  C   UNL     1     183.077 183.020 185.197  1.00  0.00     0.000 C 
BRANCH   9  10
ATOM     10  C   UNL     1     183.575 183.154 183.754  1.00  0.00     0.006 C 
BRANCH  10  11
ATOM     11  C   UNL     1     184.717 182.173 183.473  1.00  0.00     0.053 C 
BRANCH  11  12
ATOM     12  C   UNL     1     184.508 181.488 182.160  1.00  0.00     0.041 C 
ATOM     13  O   UNL     1     184.609 180.236 182.075  1.00  0.00    -0.550 OA
ATOM     14  O   UNL     1     184.153 182.228 181.039  1.00  0.00    -0.550 OA
ENDBRANCH  11  12
ENDBRANCH  10  11
ENDBRANCH   9  10
ENDBRANCH   8   9
ENDBRANCH   1   8
TORSDOF 9
ENDMDL
MODEL 8
REMARK VINA RESULT:     0.003     11.653     13.260
REMARK INTER + INTRA:          -1.300
REMARK INTER:                   0.000
REMARK INTRA:                  -1.300
REMARK UNBOUND:                -1.304
REMARK SMILES O=C([O-])CCCCCCCCC(=O)[O-]
REMARK SMILES IDX 7 1 6 2 5 3 4 4 2 5 1 6 3 7 8 8 9 9 10 10 11 11 12 12 13 13
REMARK SMILES IDX 14 14
REMARK H PARENT
REMARK Flexibility Score: inf
ROOT
ATOM      1  C   UNL     1     179.205 185.561 187.726  1.00  0.00     0.000 C 
ENDROOT
BRANCH   1   2
ATOM      2  C   UNL     1     178.611 184.143 187.810  1.00  0.00     0.000 C 
BRANCH   2   3
ATOM      3  C   UNL     1     177.097 184.051 187.533  1.00  0.00     0.006 C 
BRANCH   3   4
ATOM      4  C   UNL     1     176.462 185.350 187.013  1.00  0.00     0.053 C 
BRANCH   4   5
ATOM      5  C   UNL     1     175.278 185.761 187.833  1.00  0.00     0.041 C 
ATOM      6  O   UNL     1     175.092 186.974 188.116  1.00  0.00    -0.550 OA
ATOM      7  O   UNL     1     174.398 184.800 188.311  1.00  0.00    -0.550 OA
ENDBRANCH   4   5
ENDBRANCH   3   4
ENDBRANCH   2   3
ENDBRANCH   1   2
BRANCH   1   8
ATOM      8  C   UNL     1     179.465 186.183 189.105  1.00  0.00     0.000 C 
BRANCH   8   9
ATOM      9  C   UNL     1     178.548 187.390 189.347  1.00  0.00     0.000 C 
BRANCH   9  10
ATOM     10  C   UNL     1     177.643 187.159 190.562  1.00  0.00     0.006 C 
BRANCH  10  11
ATOM     11  C   UNL     1     177.831 185.749 191.128  1.00  0.00     0.053 C 
BRANCH  11  12
ATOM     12  C   UNL     1     176.518 185.035 191.202  1.00  0.00     0.041 C 
ATOM     13  O   UNL     1     175.458 185.678 191.416  1.00  0.00    -0.550 OA
ATOM     14  O   UNL     1     176.460 183.664 190.985  1.00  0.00    -0.550 OA
ENDBRANCH  11  12
ENDBRANCH  10  11
ENDBRANCH   9  10
ENDBRANCH   8   9
ENDBRANCH   1   8
TORSDOF 9
ENDMDL
MODEL 9
REMARK VINA RESULT:     0.003     14.290     15.911
REMARK INTER + INTRA:          -1.299
REMARK INTER:                   0.000
REMARK INTRA:                  -1.299
REMARK UNBOUND:                -1.304
REMARK SMILES O=C([O-])CCCCCCCCC(=O)[O-]
REMARK SMILES IDX 7 1 6 2 5 3 4 4 2 5 1 6 3 7 8 8 9 9 10 10 11 11 12 12 13 13
REMARK SMILES IDX 14 14
REMARK H PARENT
REMARK Flexibility Score: inf
ROOT
ATOM      1  C   UNL     1     177.833 182.326 189.652  1.00  0.00     0.000 C 
ENDROOT
BRANCH   1   2
ATOM      2  C   UNL     1     177.151 183.650 190.040  1.00  0.00     0.000 C 
BRANCH   2   3
ATOM      3  C   UNL     1     176.933 184.639 188.878  1.00  0.00     0.006 C 
BRANCH   3   4
ATOM      4  C   UNL     1     177.604 184.231 187.558  1.00  0.00     0.053 C 
BRANCH   4   5
ATOM      5  C   UNL     1     176.630 184.199 186.421  1.00  0.00     0.041 C 
ATOM      6  O   UNL     1     175.743 185.087 186.321  1.00  0.00    -0.550 OA
ATOM      7  O   UNL     1     176.682 183.170 185.490  1.00  0.00    -0.550 OA
ENDBRANCH   4   5
ENDBRANCH   3   4
ENDBRANCH   2   3
ENDBRANCH   1   2
BRANCH   1   8
ATOM      8  C   UNL     1     176.850 181.149 189.567  1.00  0.00     0.000 C 
BRANCH   8   9
ATOM      9  C   UNL     1     176.705 180.657 188.121  1.00  0.00     0.000 C 
BRANCH   9  10
ATOM     10  C   UNL     1     175.249 180.748 187.651  1.00  0.00     0.006 C 
BRANCH  10  11
ATOM     11  C   UNL     1     174.385 181.486 188.677  1.00  0.00     0.053 C 
BRANCH  11  12
ATOM     12  C   UNL     1     173.730 182.677 188.052  1.00  0.00     0.041 C 
ATOM     13  O   UNL     1     173.525 183.716 188.731  1.00  0.00    -0.550 OA
ATOM     14  O   UNL     1     173.391 182.656 186.704  1.00  0.00    -0.550 OA
ENDBRANCH  11  12
ENDBRANCH  10  11
ENDBRANCH   9  10
ENDBRANCH   8   9
ENDBRANCH   1   8
TORSDOF 9
ENDMDL
