MODEL 1
REMARK VINA RESULT:    -3.773      0.000      0.000
REMARK INTER + INTRA:          -8.673
REMARK INTER:                  -6.971
REMARK INTRA:                  -1.701
REMARK UNBOUND:                -1.701
REMARK SMILES CCCCCCCCCCCCCCCCO
REMARK SMILES IDX 9 1 8 2 7 3 6 4 5 5 4 6 3 7 2 8 1 9 10 10 11 11 12 12 13 13
REMARK SMILES IDX 14 14 15 15 16 16 17 17
REMARK H PARENT 17 18
REMARK Flexibility Score: inf
ROOT
ATOM      1  C   UNL     1     -10.127  24.018 -38.447  1.00  0.00     0.000 C 
ENDROOT
BRANCH   1   2
ATOM      2  C   UNL     1     -11.286  25.022 -38.590  1.00  0.00    -0.000 C 
BRANCH   2   3
ATOM      3  C   UNL     1     -12.625  24.572 -37.972  1.00  0.00    -0.000 C 
BRANCH   3   4
ATOM      4  C   UNL     1     -13.022  25.298 -36.672  1.00  0.00    -0.000 C 
BRANCH   4   5
ATOM      5  C   UNL     1     -12.511  26.748 -36.553  1.00  0.00    -0.000 C 
BRANCH   5   6
ATOM      6  C   UNL     1     -11.521  26.993 -35.400  1.00  0.00    -0.000 C 
BRANCH   6   7
ATOM      7  C   UNL     1     -10.109  27.348 -35.894  1.00  0.00    -0.000 C 
BRANCH   7   8
ATOM      8  C   UNL     1     -10.130  28.215 -37.162  1.00  0.00    -0.003 C 
ATOM      9  C   UNL     1     -10.260  29.707 -36.855  1.00  0.00     0.004 C 
ENDBRANCH   7   8
ENDBRANCH   6   7
ENDBRANCH   5   6
ENDBRANCH   4   5
ENDBRANCH   3   4
ENDBRANCH   2   3
ENDBRANCH   1   2
BRANCH   1  10
ATOM     10  C   UNL     1      -9.546  23.977 -37.024  1.00  0.00     0.000 C 
BRANCH  10  11
ATOM     11  C   UNL     1      -9.041  22.577 -36.626  1.00  0.00     0.000 C 
BRANCH  11  12
ATOM     12  C   UNL     1     -10.054  21.708 -35.855  1.00  0.00     0.000 C 
BRANCH  12  13
ATOM     13  C   UNL     1      -9.463  20.887 -34.691  1.00  0.00     0.000 C 
BRANCH  13  14
ATOM     14  C   UNL     1      -8.342  21.589 -33.904  1.00  0.00     0.002 C 
BRANCH  14  15
ATOM     15  C   UNL     1      -8.875  22.660 -32.938  1.00  0.00     0.028 C 
BRANCH  15  16
ATOM     16  C   UNL     1      -8.323  24.050 -33.273  1.00  0.00     0.156 C 
BRANCH  16  17
ATOM     17  O   UNL     1      -9.352  25.000 -33.329  1.00  0.00    -0.396 OA
ATOM     18  H   UNL     1     -10.020  24.657 -33.980  1.00  0.00     0.210 HD
ENDBRANCH  16  17
ENDBRANCH  15  16
ENDBRANCH  14  15
ENDBRANCH  13  14
ENDBRANCH  12  13
ENDBRANCH  11  12
ENDBRANCH  10  11
ENDBRANCH   1  10
TORSDOF 15
ENDMDL
MODEL 2
REMARK VINA RESULT:    -3.610      2.456      4.470
REMARK INTER + INTRA:          -8.371
REMARK INTER:                  -6.265
REMARK INTRA:                  -2.106
REMARK UNBOUND:                -1.701
REMARK SMILES CCCCCCCCCCCCCCCCO
REMARK SMILES IDX 9 1 8 2 7 3 6 4 5 5 4 6 3 7 2 8 1 9 10 10 11 11 12 12 13 13
REMARK SMILES IDX 14 14 15 15 16 16 17 17
REMARK H PARENT 17 18
REMARK Flexibility Score: inf
ROOT
ATOM      1  C   UNL     1     -14.219  27.248 -39.411  1.00  0.00     0.000 C 
ENDROOT
BRANCH   1   2
ATOM      2  C   UNL     1     -12.852  27.153 -40.112  1.00  0.00    -0.000 C 
BRANCH   2   3
ATOM      3  C   UNL     1     -11.952  28.397 -39.967  1.00  0.00    -0.000 C 
BRANCH   3   4
ATOM      4  C   UNL     1     -10.863  28.293 -38.881  1.00  0.00    -0.000 C 
BRANCH   4   5
ATOM      5  C   UNL     1     -11.024  29.272 -37.701  1.00  0.00    -0.000 C 
BRANCH   5   6
ATOM      6  C   UNL     1     -12.131  30.325 -37.879  1.00  0.00    -0.000 C 
BRANCH   6   7
ATOM      7  C   UNL     1     -11.609  31.766 -37.751  1.00  0.00    -0.000 C 
BRANCH   7   8
ATOM      8  C   UNL     1     -10.746  31.969 -36.496  1.00  0.00    -0.003 C 
ATOM      9  C   UNL     1      -9.325  32.425 -36.824  1.00  0.00     0.004 C 
ENDBRANCH   7   8
ENDBRANCH   6   7
ENDBRANCH   5   6
ENDBRANCH   4   5
ENDBRANCH   3   4
ENDBRANCH   2   3
ENDBRANCH   1   2
BRANCH   1  10
ATOM     10  C   UNL     1     -14.335  26.309 -38.198  1.00  0.00     0.000 C 
BRANCH  10  11
ATOM     11  C   UNL     1     -13.891  26.976 -36.882  1.00  0.00     0.000 C 
BRANCH  11  12
ATOM     12  C   UNL     1     -12.685  26.316 -36.186  1.00  0.00     0.000 C 
BRANCH  12  13
ATOM     13  C   UNL     1     -11.899  25.308 -37.050  1.00  0.00     0.000 C 
BRANCH  13  14
ATOM     14  C   UNL     1     -10.369  25.386 -36.909  1.00  0.00     0.002 C 
BRANCH  14  15
ATOM     15  C   UNL     1      -9.922  26.343 -35.791  1.00  0.00     0.028 C 
BRANCH  15  16
ATOM     16  C   UNL     1      -9.373  25.582 -34.580  1.00  0.00     0.156 C 
BRANCH  16  17
ATOM     17  O   UNL     1     -10.165  25.804 -33.445  1.00  0.00    -0.396 OA
ATOM     18  H   UNL     1      -9.951  25.078 -32.802  1.00  0.00     0.210 HD
ENDBRANCH  16  17
ENDBRANCH  15  16
ENDBRANCH  14  15
ENDBRANCH  13  14
ENDBRANCH  12  13
ENDBRANCH  11  12
ENDBRANCH  10  11
ENDBRANCH   1  10
TORSDOF 15
ENDMDL
MODEL 3
REMARK VINA RESULT:    -3.574      2.209      5.168
REMARK INTER + INTRA:          -8.305
REMARK INTER:                  -6.020
REMARK INTRA:                  -2.285
REMARK UNBOUND:                -1.701
REMARK SMILES CCCCCCCCCCCCCCCCO
REMARK SMILES IDX 9 1 8 2 7 3 6 4 5 5 4 6 3 7 2 8 1 9 10 10 11 11 12 12 13 13
REMARK SMILES IDX 14 14 15 15 16 16 17 17
REMARK H PARENT 17 18
REMARK Flexibility Score: inf
ROOT
ATOM      1  C   UNL     1     -13.533  28.700 -39.451  1.00  0.00     0.000 C 
ENDROOT
BRANCH   1   2
ATOM      2  C   UNL     1     -14.729  28.691 -38.481  1.00  0.00    -0.000 C 
BRANCH   2   3
ATOM      3  C   UNL     1     -14.943  27.369 -37.715  1.00  0.00    -0.000 C 
BRANCH   3   4
ATOM      4  C   UNL     1     -13.961  27.120 -36.553  1.00  0.00    -0.000 C 
BRANCH   4   5
ATOM      5  C   UNL     1     -13.299  25.728 -36.546  1.00  0.00    -0.000 C 
BRANCH   5   6
ATOM      6  C   UNL     1     -13.581  24.870 -37.793  1.00  0.00    -0.000 C 
BRANCH   6   7
ATOM      7  C   UNL     1     -12.384  24.809 -38.756  1.00  0.00    -0.000 C 
BRANCH   7   8
ATOM      8  C   UNL     1     -11.579  23.509 -38.612  1.00  0.00    -0.003 C 
ATOM      9  C   UNL     1     -10.385  23.656 -37.669  1.00  0.00     0.004 C 
ENDBRANCH   7   8
ENDBRANCH   6   7
ENDBRANCH   5   6
ENDBRANCH   4   5
ENDBRANCH   3   4
ENDBRANCH   2   3
ENDBRANCH   1   2
BRANCH   1  10
ATOM     10  C   UNL     1     -12.507  29.797 -39.124  1.00  0.00     0.000 C 
BRANCH  10  11
ATOM     11  C   UNL     1     -11.460  29.346 -38.088  1.00  0.00     0.000 C 
BRANCH  11  12
ATOM     12  C   UNL     1     -10.787  27.991 -38.382  1.00  0.00     0.000 C 
BRANCH  12  13
ATOM     13  C   UNL     1     -10.068  27.341 -37.182  1.00  0.00     0.000 C 
BRANCH  13  14
ATOM     14  C   UNL     1     -10.246  28.076 -35.842  1.00  0.00     0.002 C 
BRANCH  14  15
ATOM     15  C   UNL     1     -10.431  27.116 -34.656  1.00  0.00     0.028 C 
BRANCH  15  16
ATOM     16  C   UNL     1      -9.432  25.955 -34.706  1.00  0.00     0.156 C 
BRANCH  16  17
ATOM     17  O   UNL     1      -9.438  25.235 -33.504  1.00  0.00    -0.396 OA
ATOM     18  H   UNL     1      -9.223  25.883 -32.783  1.00  0.00     0.210 HD
ENDBRANCH  16  17
ENDBRANCH  15  16
ENDBRANCH  14  15
ENDBRANCH  13  14
ENDBRANCH  12  13
ENDBRANCH  11  12
ENDBRANCH  10  11
ENDBRANCH   1  10
TORSDOF 15
ENDMDL
MODEL 4
REMARK VINA RESULT:    -3.570      2.579      4.116
REMARK INTER + INTRA:          -8.297
REMARK INTER:                  -6.439
REMARK INTRA:                  -1.858
REMARK UNBOUND:                -1.701
REMARK SMILES CCCCCCCCCCCCCCCCO
REMARK SMILES IDX 9 1 8 2 7 3 6 4 5 5 4 6 3 7 2 8 1 9 10 10 11 11 12 12 13 13
REMARK SMILES IDX 14 14 15 15 16 16 17 17
REMARK H PARENT 17 18
REMARK Flexibility Score: inf
ROOT
ATOM      1  C   UNL     1     -13.385  25.233 -36.870  1.00  0.00     0.000 C 
ENDROOT
BRANCH   1   2
ATOM      2  C   UNL     1     -13.349  26.744 -36.578  1.00  0.00    -0.000 C 
BRANCH   2   3
ATOM      3  C   UNL     1     -14.621  27.520 -36.976  1.00  0.00    -0.000 C 
BRANCH   3   4
ATOM      4  C   UNL     1     -14.416  28.599 -38.058  1.00  0.00    -0.000 C 
BRANCH   4   5
ATOM      5  C   UNL     1     -13.221  28.357 -39.001  1.00  0.00    -0.000 C 
BRANCH   5   6
ATOM      6  C   UNL     1     -12.228  29.529 -39.102  1.00  0.00    -0.000 C 
BRANCH   6   7
ATOM      7  C   UNL     1     -12.438  30.584 -38.004  1.00  0.00    -0.000 C 
BRANCH   7   8
ATOM      8  C   UNL     1     -11.152  30.879 -37.218  1.00  0.00    -0.003 C 
ATOM      9  C   UNL     1     -10.862  32.375 -37.101  1.00  0.00     0.004 C 
ENDBRANCH   7   8
ENDBRANCH   6   7
ENDBRANCH   5   6
ENDBRANCH   4   5
ENDBRANCH   3   4
ENDBRANCH   2   3
ENDBRANCH   1   2
BRANCH   1  10
ATOM     10  C   UNL     1     -12.028  24.682 -37.340  1.00  0.00     0.000 C 
BRANCH  10  11
ATOM     11  C   UNL     1     -11.626  25.196 -38.735  1.00  0.00     0.000 C 
BRANCH  11  12
ATOM     12  C   UNL     1     -10.324  26.019 -38.782  1.00  0.00     0.000 C 
BRANCH  12  13
ATOM     13  C   UNL     1      -9.628  26.225 -37.421  1.00  0.00     0.000 C 
BRANCH  13  14
ATOM     14  C   UNL     1     -10.098  27.460 -36.632  1.00  0.00     0.002 C 
BRANCH  14  15
ATOM     15  C   UNL     1      -9.890  27.311 -35.116  1.00  0.00     0.028 C 
BRANCH  15  16
ATOM     16  C   UNL     1      -9.506  25.877 -34.734  1.00  0.00     0.156 C 
BRANCH  16  17
ATOM     17  O   UNL     1      -9.992  25.549 -33.461  1.00  0.00    -0.396 OA
ATOM     18  H   UNL     1     -10.225  24.584 -33.486  1.00  0.00     0.210 HD
ENDBRANCH  16  17
ENDBRANCH  15  16
ENDBRANCH  14  15
ENDBRANCH  13  14
ENDBRANCH  12  13
ENDBRANCH  11  12
ENDBRANCH  10  11
ENDBRANCH   1  10
TORSDOF 15
ENDMDL
MODEL 5
REMARK VINA RESULT:    -3.513      3.506      6.750
REMARK INTER + INTRA:          -8.193
REMARK INTER:                  -7.017
REMARK INTRA:                  -1.176
REMARK UNBOUND:                -1.701
REMARK SMILES CCCCCCCCCCCCCCCCO
REMARK SMILES IDX 9 1 8 2 7 3 6 4 5 5 4 6 3 7 2 8 1 9 10 10 11 11 12 12 13 13
REMARK SMILES IDX 14 14 15 15 16 16 17 17
REMARK H PARENT 17 18
REMARK Flexibility Score: inf
ROOT
ATOM      1  C   UNL     1     -12.216  30.920 -38.467  1.00  0.00     0.000 C 
ENDROOT
BRANCH   1   2
ATOM      2  C   UNL     1     -11.637  31.545 -37.185  1.00  0.00    -0.000 C 
BRANCH   2   3
ATOM      3  C   UNL     1     -10.130  31.305 -36.960  1.00  0.00    -0.000 C 
BRANCH   3   4
ATOM      4  C   UNL     1      -9.378  32.464 -36.276  1.00  0.00    -0.000 C 
BRANCH   4   5
ATOM      5  C   UNL     1      -8.170  33.012 -37.062  1.00  0.00    -0.000 C 
BRANCH   5   6
ATOM      6  C   UNL     1      -8.147  34.541 -37.232  1.00  0.00    -0.000 C 
BRANCH   6   7
ATOM      7  C   UNL     1      -9.554  35.159 -37.255  1.00  0.00    -0.000 C 
BRANCH   7   8
ATOM      8  C   UNL     1     -10.031  35.484 -38.679  1.00  0.00    -0.003 C 
ATOM      9  C   UNL     1      -8.873  35.697 -39.654  1.00  0.00     0.004 C 
ENDBRANCH   7   8
ENDBRANCH   6   7
ENDBRANCH   5   6
ENDBRANCH   4   5
ENDBRANCH   3   4
ENDBRANCH   2   3
ENDBRANCH   1   2
BRANCH   1  10
ATOM     10  C   UNL     1     -12.879  29.554 -38.219  1.00  0.00     0.000 C 
BRANCH  10  11
ATOM     11  C   UNL     1     -12.225  28.417 -39.027  1.00  0.00     0.000 C 
BRANCH  11  12
ATOM     12  C   UNL     1     -10.766  28.096 -38.648  1.00  0.00     0.000 C 
BRANCH  12  13
ATOM     13  C   UNL     1     -10.553  26.738 -37.949  1.00  0.00     0.000 C 
BRANCH  13  14
ATOM     14  C   UNL     1     -11.089  26.657 -36.509  1.00  0.00     0.002 C 
BRANCH  14  15
ATOM     15  C   UNL     1     -10.117  27.255 -35.478  1.00  0.00     0.028 C 
BRANCH  15  16
ATOM     16  C   UNL     1      -9.328  26.164 -34.745  1.00  0.00     0.156 C 
BRANCH  16  17
ATOM     17  O   UNL     1     -10.003  25.745 -33.591  1.00  0.00    -0.396 OA
ATOM     18  H   UNL     1     -10.176  24.774 -33.699  1.00  0.00     0.210 HD
ENDBRANCH  16  17
ENDBRANCH  15  16
ENDBRANCH  14  15
ENDBRANCH  13  14
ENDBRANCH  12  13
ENDBRANCH  11  12
ENDBRANCH  10  11
ENDBRANCH   1  10
TORSDOF 15
ENDMDL
MODEL 6
REMARK VINA RESULT:    -3.507      9.199     13.493
REMARK INTER + INTRA:          -8.181
REMARK INTER:                  -6.485
REMARK INTRA:                  -1.696
REMARK UNBOUND:                -1.701
REMARK SMILES CCCCCCCCCCCCCCCCO
REMARK SMILES IDX 9 1 8 2 7 3 6 4 5 5 4 6 3 7 2 8 1 9 10 10 11 11 12 12 13 13
REMARK SMILES IDX 14 14 15 15 16 16 17 17
REMARK H PARENT 17 18
REMARK Flexibility Score: inf
ROOT
ATOM      1  C   UNL     1      -8.229  38.964 -41.080  1.00  0.00     0.000 C 
ENDROOT
BRANCH   1   2
ATOM      2  C   UNL     1      -7.224  38.133 -41.898  1.00  0.00    -0.000 C 
BRANCH   2   3
ATOM      3  C   UNL     1      -7.703  37.725 -43.307  1.00  0.00    -0.000 C 
BRANCH   3   4
ATOM      4  C   UNL     1      -8.776  36.619 -43.337  1.00  0.00    -0.000 C 
BRANCH   4   5
ATOM      5  C   UNL     1     -10.141  37.051 -43.909  1.00  0.00    -0.000 C 
BRANCH   5   6
ATOM      6  C   UNL     1     -11.174  37.492 -42.856  1.00  0.00    -0.000 C 
BRANCH   6   7
ATOM      7  C   UNL     1     -11.807  38.856 -43.178  1.00  0.00    -0.000 C 
BRANCH   7   8
ATOM      8  C   UNL     1     -10.791  39.856 -43.748  1.00  0.00    -0.003 C 
ATOM      9  C   UNL     1     -11.435  40.891 -44.670  1.00  0.00     0.004 C 
ENDBRANCH   7   8
ENDBRANCH   6   7
ENDBRANCH   5   6
ENDBRANCH   4   5
ENDBRANCH   3   4
ENDBRANCH   2   3
ENDBRANCH   1   2
BRANCH   1  10
ATOM     10  C   UNL     1      -8.510  38.365 -39.692  1.00  0.00     0.000 C 
BRANCH  10  11
ATOM     11  C   UNL     1      -8.329  36.835 -39.655  1.00  0.00     0.000 C 
BRANCH  11  12
ATOM     12  C   UNL     1      -9.632  36.017 -39.750  1.00  0.00     0.000 C 
BRANCH  12  13
ATOM     13  C   UNL     1      -9.943  35.134 -38.524  1.00  0.00     0.000 C 
BRANCH  13  14
ATOM     14  C   UNL     1      -8.934  35.249 -37.368  1.00  0.00     0.002 C 
BRANCH  14  15
ATOM     15  C   UNL     1      -8.036  34.007 -37.236  1.00  0.00     0.028 C 
BRANCH  15  16
ATOM     16  C   UNL     1      -8.747  32.871 -36.494  1.00  0.00     0.156 C 
BRANCH  16  17
ATOM     17  O   UNL     1      -8.021  31.675 -36.592  1.00  0.00    -0.396 OA
ATOM     18  H   UNL     1      -8.036  31.412 -37.549  1.00  0.00     0.210 HD
ENDBRANCH  16  17
ENDBRANCH  15  16
ENDBRANCH  14  15
ENDBRANCH  13  14
ENDBRANCH  12  13
ENDBRANCH  11  12
ENDBRANCH  10  11
ENDBRANCH   1  10
TORSDOF 15
ENDMDL
MODEL 7
REMARK VINA RESULT:    -3.467      2.681      5.342
REMARK INTER + INTRA:          -8.108
REMARK INTER:                  -6.042
REMARK INTRA:                  -2.066
REMARK UNBOUND:                -1.701
REMARK SMILES CCCCCCCCCCCCCCCCO
REMARK SMILES IDX 9 1 8 2 7 3 6 4 5 5 4 6 3 7 2 8 1 9 10 10 11 11 12 12 13 13
REMARK SMILES IDX 14 14 15 15 16 16 17 17
REMARK H PARENT 17 18
REMARK Flexibility Score: inf
ROOT
ATOM      1  C   UNL     1     -12.242  30.191 -38.511  1.00  0.00     0.000 C 
ENDROOT
BRANCH   1   2
ATOM      2  C   UNL     1     -13.618  29.824 -37.926  1.00  0.00    -0.000 C 
BRANCH   2   3
ATOM      3  C   UNL     1     -13.879  28.313 -37.762  1.00  0.00    -0.000 C 
BRANCH   3   4
ATOM      4  C   UNL     1     -13.771  27.486 -39.059  1.00  0.00    -0.000 C 
BRANCH   4   5
ATOM      5  C   UNL     1     -12.801  26.289 -38.990  1.00  0.00    -0.000 C 
BRANCH   5   6
ATOM      6  C   UNL     1     -11.827  26.176 -40.176  1.00  0.00    -0.000 C 
BRANCH   6   7
ATOM      7  C   UNL     1     -10.776  27.297 -40.193  1.00  0.00    -0.000 C 
BRANCH   7   8
ATOM      8  C   UNL     1     -10.631  27.946 -41.578  1.00  0.00    -0.003 C 
ATOM      9  C   UNL     1     -11.866  28.748 -41.987  1.00  0.00     0.004 C 
ENDBRANCH   7   8
ENDBRANCH   6   7
ENDBRANCH   5   6
ENDBRANCH   4   5
ENDBRANCH   3   4
ENDBRANCH   2   3
ENDBRANCH   1   2
BRANCH   1  10
ATOM     10  C   UNL     1     -11.451  31.159 -37.615  1.00  0.00     0.000 C 
BRANCH  10  11
ATOM     11  C   UNL     1     -10.305  30.467 -36.854  1.00  0.00     0.000 C 
BRANCH  11  12
ATOM     12  C   UNL     1     -10.167  28.953 -37.109  1.00  0.00     0.000 C 
BRANCH  12  13
ATOM     13  C   UNL     1     -10.493  28.052 -35.901  1.00  0.00     0.000 C 
BRANCH  13  14
ATOM     14  C   UNL     1     -10.858  26.599 -36.254  1.00  0.00     0.002 C 
BRANCH  14  15
ATOM     15  C   UNL     1      -9.742  25.602 -35.898  1.00  0.00     0.028 C 
BRANCH  15  16
ATOM     16  C   UNL     1      -9.089  25.940 -34.554  1.00  0.00     0.156 C 
BRANCH  16  17
ATOM     17  O   UNL     1      -9.779  25.336 -33.494  1.00  0.00    -0.396 OA
ATOM     18  H   UNL     1     -10.024  26.063 -32.863  1.00  0.00     0.210 HD
ENDBRANCH  16  17
ENDBRANCH  15  16
ENDBRANCH  14  15
ENDBRANCH  13  14
ENDBRANCH  12  13
ENDBRANCH  11  12
ENDBRANCH  10  11
ENDBRANCH   1  10
TORSDOF 15
ENDMDL
MODEL 8
REMARK VINA RESULT:    -3.420      8.748     13.003
REMARK INTER + INTRA:          -8.020
REMARK INTER:                  -6.611
REMARK INTRA:                  -1.409
REMARK UNBOUND:                -1.701
REMARK SMILES CCCCCCCCCCCCCCCCO
REMARK SMILES IDX 9 1 8 2 7 3 6 4 5 5 4 6 3 7 2 8 1 9 10 10 11 11 12 12 13 13
REMARK SMILES IDX 14 14 15 15 16 16 17 17
REMARK H PARENT 17 18
REMARK Flexibility Score: inf
ROOT
ATOM      1  C   UNL     1      -7.941  37.736 -41.365  1.00  0.00     0.000 C 
ENDROOT
BRANCH   1   2
ATOM      2  C   UNL     1      -7.927  37.877 -42.898  1.00  0.00    -0.000 C 
BRANCH   2   3
ATOM      3  C   UNL     1      -8.764  36.829 -43.661  1.00  0.00    -0.000 C 
BRANCH   3   4
ATOM      4  C   UNL     1     -10.139  37.323 -44.151  1.00  0.00    -0.000 C 
BRANCH   4   5
ATOM      5  C   UNL     1     -10.508  38.757 -43.721  1.00  0.00    -0.000 C 
BRANCH   5   6
ATOM      6  C   UNL     1     -11.687  38.854 -42.735  1.00  0.00    -0.000 C 
BRANCH   6   7
ATOM      7  C   UNL     1     -12.322  37.488 -42.430  1.00  0.00    -0.000 C 
BRANCH   7   8
ATOM      8  C   UNL     1     -13.809  37.432 -42.812  1.00  0.00    -0.003 C 
ATOM      9  C   UNL     1     -14.168  36.177 -43.606  1.00  0.00     0.004 C 
ENDBRANCH   7   8
ENDBRANCH   6   7
ENDBRANCH   5   6
ENDBRANCH   4   5
ENDBRANCH   3   4
ENDBRANCH   2   3
ENDBRANCH   1   2
BRANCH   1  10
ATOM     10  C   UNL     1      -8.635  36.448 -40.890  1.00  0.00     0.000 C 
BRANCH  10  11
ATOM     11  C   UNL     1      -9.667  36.702 -39.775  1.00  0.00     0.000 C 
BRANCH  11  12
ATOM     12  C   UNL     1      -9.936  35.503 -38.844  1.00  0.00     0.000 C 
BRANCH  12  13
ATOM     13  C   UNL     1      -9.698  35.770 -37.344  1.00  0.00     0.000 C 
BRANCH  13  14
ATOM     14  C   UNL     1      -8.380  35.207 -36.785  1.00  0.00     0.002 C 
BRANCH  14  15
ATOM     15  C   UNL     1      -7.973  33.879 -37.445  1.00  0.00     0.028 C 
BRANCH  15  16
ATOM     16  C   UNL     1      -8.601  32.676 -36.733  1.00  0.00     0.156 C 
BRANCH  16  17
ATOM     17  O   UNL     1      -7.705  31.600 -36.680  1.00  0.00    -0.396 OA
ATOM     18  H   UNL     1      -6.807  31.967 -36.888  1.00  0.00     0.210 HD
ENDBRANCH  16  17
ENDBRANCH  15  16
ENDBRANCH  14  15
ENDBRANCH  13  14
ENDBRANCH  12  13
ENDBRANCH  11  12
ENDBRANCH  10  11
ENDBRANCH   1  10
TORSDOF 15
ENDMDL
MODEL 9
REMARK VINA RESULT:    -3.337      1.723      2.550
REMARK INTER + INTRA:          -7.867
REMARK INTER:                  -6.193
REMARK INTRA:                  -1.674
REMARK UNBOUND:                -1.701
REMARK SMILES CCCCCCCCCCCCCCCCO
REMARK SMILES IDX 9 1 8 2 7 3 6 4 5 5 4 6 3 7 2 8 1 9 10 10 11 11 12 12 13 13
REMARK SMILES IDX 14 14 15 15 16 16 17 17
REMARK H PARENT 17 18
REMARK Flexibility Score: inf
ROOT
ATOM      1  C   UNL     1     -10.066  24.515 -38.349  1.00  0.00     0.000 C 
ENDROOT
BRANCH   1   2
ATOM      2  C   UNL     1      -9.293  25.654 -37.659  1.00  0.00    -0.000 C 
BRANCH   2   3
ATOM      3  C   UNL     1      -9.700  25.933 -36.198  1.00  0.00    -0.000 C 
BRANCH   3   4
ATOM      4  C   UNL     1     -10.688  27.100 -36.006  1.00  0.00    -0.000 C 
BRANCH   4   5
ATOM      5  C   UNL     1     -10.184  28.470 -36.503  1.00  0.00    -0.000 C 
BRANCH   5   6
ATOM      6  C   UNL     1     -11.118  29.182 -37.498  1.00  0.00    -0.000 C 
BRANCH   6   7
ATOM      7  C   UNL     1     -11.919  28.201 -38.369  1.00  0.00    -0.000 C 
BRANCH   7   8
ATOM      8  C   UNL     1     -11.731  28.461 -39.872  1.00  0.00    -0.003 C 
ATOM      9  C   UNL     1     -11.073  27.286 -40.595  1.00  0.00     0.004 C 
ENDBRANCH   7   8
ENDBRANCH   6   7
ENDBRANCH   5   6
ENDBRANCH   4   5
ENDBRANCH   3   4
ENDBRANCH   2   3
ENDBRANCH   1   2
BRANCH   1  10
ATOM     10  C   UNL     1     -11.100  23.850 -37.424  1.00  0.00     0.000 C 
BRANCH  10  11
ATOM     11  C   UNL     1     -10.867  22.336 -37.259  1.00  0.00     0.000 C 
BRANCH  11  12
ATOM     12  C   UNL     1      -9.392  21.891 -37.294  1.00  0.00     0.000 C 
BRANCH  12  13
ATOM     13  C   UNL     1      -8.935  21.041 -36.091  1.00  0.00     0.000 C 
BRANCH  13  14
ATOM     14  C   UNL     1      -9.339  21.594 -34.713  1.00  0.00     0.002 C 
BRANCH  14  15
ATOM     15  C   UNL     1      -8.513  22.823 -34.300  1.00  0.00     0.028 C 
BRANCH  15  16
ATOM     16  C   UNL     1      -8.800  23.238 -32.852  1.00  0.00     0.156 C 
BRANCH  16  17
ATOM     17  O   UNL     1      -9.742  22.384 -32.263  1.00  0.00    -0.396 OA
ATOM     18  H   UNL     1      -9.373  21.465 -32.327  1.00  0.00     0.210 HD
ENDBRANCH  16  17
ENDBRANCH  15  16
ENDBRANCH  14  15
ENDBRANCH  13  14
ENDBRANCH  12  13
ENDBRANCH  11  12
ENDBRANCH  10  11
ENDBRANCH   1  10
TORSDOF 15
ENDMDL
