MODEL 1
REMARK VINA RESULT:    -4.551      0.000      0.000
REMARK INTER + INTRA:          -5.171
REMARK INTER:                  -4.950
REMARK INTRA:                  -0.222
REMARK UNBOUND:                -0.222
REMARK SMILES O=C([O-])c1ccccc1O
REMARK SMILES IDX 4 1 9 2 5 3 8 4 6 5 7 6 2 7 1 8 3 9 10 10
REMARK H PARENT 10 11
REMARK Flexibility Score: inf
ROOT
ATOM      1  C   UNL     1      -5.983  -4.289 -39.717  1.00  0.00     0.039 A 
ATOM      2  C   UNL     1      -5.351  -4.856 -38.580  1.00  0.00     0.124 A 
ATOM      3  C   UNL     1      -5.313  -4.320 -40.954  1.00  0.00     0.014 A 
ATOM      4  C   UNL     1      -4.055  -5.375 -38.695  1.00  0.00     0.047 A 
ATOM      5  C   UNL     1      -4.029  -4.860 -41.056  1.00  0.00     0.001 A 
ATOM      6  C   UNL     1      -3.397  -5.378 -39.927  1.00  0.00     0.004 A 
ENDROOT
BRANCH   1   7
ATOM      7  C   UNL     1      -7.309  -3.634 -39.654  1.00  0.00     0.075 C 
ATOM      8  O   UNL     1      -8.261  -4.028 -40.376  1.00  0.00    -0.545 OA
ATOM      9  O   UNL     1      -7.535  -2.611 -38.739  1.00  0.00    -0.545 OA
ENDBRANCH   1   7
BRANCH   2  10
ATOM     10  O   UNL     1      -5.981  -4.955 -37.337  1.00  0.00    -0.507 OA
ATOM     11  H   UNL     1      -5.812  -5.705 -36.683  1.00  0.00     0.293 HD
ENDBRANCH   2  10
TORSDOF 2
ENDMDL
MODEL 2
REMARK VINA RESULT:    -4.490     10.972     11.668
REMARK INTER + INTRA:          -5.105
REMARK INTER:                  -4.895
REMARK INTRA:                  -0.210
REMARK UNBOUND:                -0.222
REMARK SMILES O=C([O-])c1ccccc1O
REMARK SMILES IDX 4 1 9 2 5 3 8 4 6 5 7 6 2 7 1 8 3 9 10 10
REMARK H PARENT 10 11
REMARK Flexibility Score: inf
ROOT
ATOM      1  C   UNL     1      -1.476   6.042 -40.273  1.00  0.00     0.039 A 
ATOM      2  C   UNL     1      -2.751   5.489 -39.983  1.00  0.00     0.124 A 
ATOM      3  C   UNL     1      -1.392   7.125 -41.168  1.00  0.00     0.014 A 
ATOM      4  C   UNL     1      -3.886   5.986 -40.636  1.00  0.00     0.047 A 
ATOM      5  C   UNL     1      -2.537   7.622 -41.796  1.00  0.00     0.001 A 
ATOM      6  C   UNL     1      -3.780   7.047 -41.537  1.00  0.00     0.004 A 
ENDROOT
BRANCH   1   7
ATOM      7  C   UNL     1      -0.221   5.508 -39.699  1.00  0.00     0.075 C 
ATOM      8  O   UNL     1       0.863   6.136 -39.815  1.00  0.00    -0.545 OA
ATOM      9  O   UNL     1      -0.241   4.329 -38.961  1.00  0.00    -0.545 OA
ENDBRANCH   1   7
BRANCH   2  10
ATOM     10  O   UNL     1      -2.938   4.480 -39.036  1.00  0.00    -0.507 OA
ATOM     11  H   UNL     1      -2.533   3.558 -39.115  1.00  0.00     0.293 HD
ENDBRANCH   2  10
TORSDOF 2
ENDMDL
MODEL 3
REMARK VINA RESULT:    -4.405      1.519      2.928
REMARK INTER + INTRA:          -5.013
REMARK INTER:                  -4.778
REMARK INTRA:                  -0.235
REMARK UNBOUND:                -0.222
REMARK SMILES O=C([O-])c1ccccc1O
REMARK SMILES IDX 4 1 9 2 5 3 8 4 6 5 7 6 2 7 1 8 3 9 10 10
REMARK H PARENT 10 11
REMARK Flexibility Score: inf
ROOT
ATOM      1  C   UNL     1      -4.415  -5.057 -39.522  1.00  0.00     0.039 A 
ATOM      2  C   UNL     1      -4.506  -4.414 -40.785  1.00  0.00     0.124 A 
ATOM      3  C   UNL     1      -3.488  -6.103 -39.358  1.00  0.00     0.014 A 
ATOM      4  C   UNL     1      -3.723  -4.871 -41.853  1.00  0.00     0.047 A 
ATOM      5  C   UNL     1      -2.701  -6.533 -40.428  1.00  0.00     0.001 A 
ATOM      6  C   UNL     1      -2.825  -5.925 -41.676  1.00  0.00     0.004 A 
ENDROOT
BRANCH   1   7
ATOM      7  C   UNL     1      -5.277  -4.697 -38.375  1.00  0.00     0.075 C 
ATOM      8  O   UNL     1      -4.909  -4.921 -37.193  1.00  0.00    -0.545 OA
ATOM      9  O   UNL     1      -6.484  -4.039 -38.592  1.00  0.00    -0.545 OA
ENDBRANCH   1   7
BRANCH   2  10
ATOM     10  O   UNL     1      -5.327  -3.307 -41.010  1.00  0.00    -0.507 OA
ATOM     11  H   UNL     1      -6.219  -3.358 -41.480  1.00  0.00     0.293 HD
ENDBRANCH   2  10
TORSDOF 2
ENDMDL
MODEL 4
REMARK VINA RESULT:    -4.383      9.074     10.221
REMARK INTER + INTRA:          -4.989
REMARK INTER:                  -4.745
REMARK INTRA:                  -0.243
REMARK UNBOUND:                -0.222
REMARK SMILES O=C([O-])c1ccccc1O
REMARK SMILES IDX 4 1 9 2 5 3 8 4 6 5 7 6 2 7 1 8 3 9 10 10
REMARK H PARENT 10 11
REMARK Flexibility Score: inf
ROOT
ATOM      1  C   UNL     1       2.142  -7.296 -34.379  1.00  0.00     0.039 A 
ATOM      2  C   UNL     1       0.983  -6.667 -33.853  1.00  0.00     0.124 A 
ATOM      3  C   UNL     1       2.203  -8.702 -34.399  1.00  0.00     0.014 A 
ATOM      4  C   UNL     1      -0.044  -7.450 -33.311  1.00  0.00     0.047 A 
ATOM      5  C   UNL     1       1.160  -9.468 -33.873  1.00  0.00     0.001 A 
ATOM      6  C   UNL     1       0.043  -8.843 -33.322  1.00  0.00     0.004 A 
ENDROOT
BRANCH   1   7
ATOM      7  C   UNL     1       3.310  -6.536 -34.878  1.00  0.00     0.075 C 
ATOM      8  O   UNL     1       3.169  -5.615 -35.724  1.00  0.00    -0.545 OA
ATOM      9  O   UNL     1       4.576  -6.790 -34.362  1.00  0.00    -0.545 OA
ENDBRANCH   1   7
BRANCH   2  10
ATOM     10  O   UNL     1       0.797  -5.283 -33.881  1.00  0.00    -0.507 OA
ATOM     11  H   UNL     1       1.257  -4.671 -34.540  1.00  0.00     0.293 HD
ENDBRANCH   2  10
TORSDOF 2
ENDMDL
MODEL 5
REMARK VINA RESULT:    -4.302      5.960      7.668
REMARK INTER + INTRA:          -4.901
REMARK INTER:                  -4.658
REMARK INTRA:                  -0.243
REMARK UNBOUND:                -0.222
REMARK SMILES O=C([O-])c1ccccc1O
REMARK SMILES IDX 4 1 9 2 5 3 8 4 6 5 7 6 2 7 1 8 3 9 10 10
REMARK H PARENT 10 11
REMARK Flexibility Score: inf
ROOT
ATOM      1  C   UNL     1     -10.720   0.767 -36.944  1.00  0.00     0.039 A 
ATOM      2  C   UNL     1      -9.487   0.117 -37.216  1.00  0.00     0.124 A 
ATOM      3  C   UNL     1     -11.881   0.328 -37.607  1.00  0.00     0.014 A 
ATOM      4  C   UNL     1      -9.438  -0.900 -38.178  1.00  0.00     0.047 A 
ATOM      5  C   UNL     1     -11.818  -0.702 -38.548  1.00  0.00     0.001 A 
ATOM      6  C   UNL     1     -10.597  -1.308 -38.840  1.00  0.00     0.004 A 
ENDROOT
BRANCH   1   7
ATOM      7  C   UNL     1     -10.834   1.915 -36.016  1.00  0.00     0.075 C 
ATOM      8  O   UNL     1     -11.717   2.796 -36.181  1.00  0.00    -0.545 OA
ATOM      9  O   UNL     1     -10.002   1.994 -34.905  1.00  0.00    -0.545 OA
ENDBRANCH   1   7
BRANCH   2  10
ATOM     10  O   UNL     1      -8.307   0.424 -36.535  1.00  0.00    -0.507 OA
ATOM     11  H   UNL     1      -7.974   1.366 -36.390  1.00  0.00     0.293 HD
ENDBRANCH   2  10
TORSDOF 2
ENDMDL
MODEL 6
REMARK VINA RESULT:    -4.288      8.935      9.798
REMARK INTER + INTRA:          -4.886
REMARK INTER:                  -4.680
REMARK INTRA:                  -0.205
REMARK UNBOUND:                -0.222
REMARK SMILES O=C([O-])c1ccccc1O
REMARK SMILES IDX 4 1 9 2 5 3 8 4 6 5 7 6 2 7 1 8 3 9 10 10
REMARK H PARENT 10 11
REMARK Flexibility Score: inf
ROOT
ATOM      1  C   UNL     1       0.840  -7.716 -33.916  1.00  0.00     0.039 A 
ATOM      2  C   UNL     1       0.261  -6.507 -33.450  1.00  0.00     0.124 A 
ATOM      3  C   UNL     1       0.251  -8.940 -33.545  1.00  0.00     0.014 A 
ATOM      4  C   UNL     1      -0.839  -6.555 -32.584  1.00  0.00     0.047 A 
ATOM      5  C   UNL     1      -0.859  -8.969 -32.698  1.00  0.00     0.001 A 
ATOM      6  C   UNL     1      -1.397  -7.779 -32.211  1.00  0.00     0.004 A 
ENDROOT
BRANCH   1   7
ATOM      7  C   UNL     1       2.061  -7.751 -34.752  1.00  0.00     0.075 C 
ATOM      8  O   UNL     1       2.446  -8.820 -35.292  1.00  0.00    -0.545 OA
ATOM      9  O   UNL     1       2.763  -6.577 -35.005  1.00  0.00    -0.545 OA
ENDBRANCH   1   7
BRANCH   2  10
ATOM     10  O   UNL     1       0.721  -5.249 -33.845  1.00  0.00    -0.507 OA
ATOM     11  H   UNL     1       0.330  -4.728 -34.616  1.00  0.00     0.293 HD
ENDBRANCH   2  10
TORSDOF 2
ENDMDL
MODEL 7
REMARK VINA RESULT:    -4.279      9.173     10.093
REMARK INTER + INTRA:          -4.876
REMARK INTER:                  -4.643
REMARK INTRA:                  -0.233
REMARK UNBOUND:                -0.222
REMARK SMILES O=C([O-])c1ccccc1O
REMARK SMILES IDX 4 1 9 2 5 3 8 4 6 5 7 6 2 7 1 8 3 9 10 10
REMARK H PARENT 10 11
REMARK Flexibility Score: inf
ROOT
ATOM      1  C   UNL     1       0.570  -7.081 -32.257  1.00  0.00     0.039 A 
ATOM      2  C   UNL     1       0.943  -6.514 -33.504  1.00  0.00     0.124 A 
ATOM      3  C   UNL     1       1.068  -8.350 -31.910  1.00  0.00     0.014 A 
ATOM      4  C   UNL     1       1.742  -7.251 -34.387  1.00  0.00     0.047 A 
ATOM      5  C   UNL     1       1.881  -9.063 -32.794  1.00  0.00     0.001 A 
ATOM      6  C   UNL     1       2.210  -8.518 -34.035  1.00  0.00     0.004 A 
ENDROOT
BRANCH   1   7
ATOM      7  C   UNL     1      -0.351  -6.407 -31.314  1.00  0.00     0.075 C 
ATOM      8  O   UNL     1      -1.466  -5.969 -31.700  1.00  0.00    -0.545 OA
ATOM      9  O   UNL     1      -0.019  -6.312 -29.967  1.00  0.00    -0.545 OA
ENDBRANCH   1   7
BRANCH   2  10
ATOM     10  O   UNL     1       0.573  -5.223 -33.887  1.00  0.00    -0.507 OA
ATOM     11  H   UNL     1       1.176  -4.418 -33.793  1.00  0.00     0.293 HD
ENDBRANCH   2  10
TORSDOF 2
ENDMDL
MODEL 8
REMARK VINA RESULT:    -4.244     10.115     11.556
REMARK INTER + INTRA:          -4.838
REMARK INTER:                  -4.618
REMARK INTRA:                  -0.220
REMARK UNBOUND:                -0.222
REMARK SMILES O=C([O-])c1ccccc1O
REMARK SMILES IDX 4 1 9 2 5 3 8 4 6 5 7 6 2 7 1 8 3 9 10 10
REMARK H PARENT 10 11
REMARK Flexibility Score: inf
ROOT
ATOM      1  C   UNL     1     -10.430   4.283 -33.796  1.00  0.00     0.039 A 
ATOM      2  C   UNL     1     -10.638   2.942 -34.217  1.00  0.00     0.124 A 
ATOM      3  C   UNL     1     -10.925   5.330 -34.595  1.00  0.00     0.014 A 
ATOM      4  C   UNL     1     -11.271   2.691 -35.440  1.00  0.00     0.047 A 
ATOM      5  C   UNL     1     -11.573   5.061 -35.802  1.00  0.00     0.001 A 
ATOM      6  C   UNL     1     -11.737   3.744 -36.229  1.00  0.00     0.004 A 
ENDROOT
BRANCH   1   7
ATOM      7  C   UNL     1      -9.683   4.630 -32.567  1.00  0.00     0.075 C 
ATOM      8  O   UNL     1      -9.477   3.772 -31.670  1.00  0.00    -0.545 OA
ATOM      9  O   UNL     1      -9.139   5.902 -32.421  1.00  0.00    -0.545 OA
ENDBRANCH   1   7
BRANCH   2  10
ATOM     10  O   UNL     1     -10.266   1.843 -33.441  1.00  0.00    -0.507 OA
ATOM     11  H   UNL     1     -10.231   0.896 -33.792  1.00  0.00     0.293 HD
ENDBRANCH   2  10
TORSDOF 2
ENDMDL
MODEL 9
REMARK VINA RESULT:    -4.200      8.798     10.741
REMARK INTER + INTRA:          -4.790
REMARK INTER:                  -4.548
REMARK INTRA:                  -0.242
REMARK UNBOUND:                -0.222
REMARK SMILES O=C([O-])c1ccccc1O
REMARK SMILES IDX 4 1 9 2 5 3 8 4 6 5 7 6 2 7 1 8 3 9 10 10
REMARK H PARENT 10 11
REMARK Flexibility Score: inf
ROOT
ATOM      1  C   UNL     1       1.181  -7.212 -32.388  1.00  0.00     0.039 A 
ATOM      2  C   UNL     1       0.299  -6.304 -33.032  1.00  0.00     0.124 A 
ATOM      3  C   UNL     1       0.639  -8.225 -31.575  1.00  0.00     0.014 A 
ATOM      4  C   UNL     1      -1.079  -6.395 -32.798  1.00  0.00     0.047 A 
ATOM      5  C   UNL     1      -0.739  -8.314 -31.370  1.00  0.00     0.001 A 
ATOM      6  C   UNL     1      -1.596  -7.395 -31.973  1.00  0.00     0.004 A 
ENDROOT
BRANCH   1   7
ATOM      7  C   UNL     1       2.654  -7.119 -32.505  1.00  0.00     0.075 C 
ATOM      8  O   UNL     1       3.388  -7.154 -31.484  1.00  0.00    -0.545 OA
ATOM      9  O   UNL     1       3.248  -7.060 -33.761  1.00  0.00    -0.545 OA
ENDBRANCH   1   7
BRANCH   2  10
ATOM     10  O   UNL     1       0.743  -5.330 -33.929  1.00  0.00    -0.507 OA
ATOM     11  H   UNL     1       0.130  -4.669 -34.384  1.00  0.00     0.293 HD
ENDBRANCH   2  10
TORSDOF 2
ENDMDL
