MODEL 1
REMARK VINA RESULT:    -3.128      0.000      0.000
REMARK INTER + INTRA:          -6.060
REMARK INTER:                  -4.774
REMARK INTRA:                  -1.286
REMARK UNBOUND:                -1.286
REMARK SMILES CCCCCCCCCCC(=O)[O-]
REMARK SMILES IDX 7 1 8 2 9 3 10 4 11 5 12 6 13 7 6 8 5 9 4 10 3 11 2 12 1 13
REMARK H PARENT
REMARK Flexibility Score: inf
ROOT
ATOM      1  C   UNL     1      60.985  32.629  59.349  1.00  0.00     0.000 C 
ENDROOT
BRANCH   1   2
ATOM      2  C   UNL     1      61.443  33.701  60.346  1.00  0.00     0.000 C 
BRANCH   2   3
ATOM      3  C   UNL     1      62.820  34.259  59.960  1.00  0.00     0.006 C 
BRANCH   3   4
ATOM      4  C   UNL     1      63.782  34.311  61.154  1.00  0.00     0.053 C 
BRANCH   4   5
ATOM      5  C   UNL     1      64.021  35.717  61.613  1.00  0.00     0.041 C 
ATOM      6  O   UNL     1      63.052  36.502  61.784  1.00  0.00    -0.550 OA
ATOM      7  O   UNL     1      65.318  36.169  61.820  1.00  0.00    -0.550 OA
ENDBRANCH   4   5
ENDBRANCH   3   4
ENDBRANCH   2   3
ENDBRANCH   1   2
BRANCH   1   8
ATOM      8  C   UNL     1      60.514  31.363  60.081  1.00  0.00     0.000 C 
BRANCH   8   9
ATOM      9  C   UNL     1      60.975  31.318  61.546  1.00  0.00    -0.000 C 
BRANCH   9  10
ATOM     10  C   UNL     1      61.996  30.202  61.812  1.00  0.00    -0.000 C 
BRANCH  10  11
ATOM     11  C   UNL     1      63.429  30.709  61.612  1.00  0.00    -0.000 C 
BRANCH  11  12
ATOM     12  C   UNL     1      64.133  29.942  60.487  1.00  0.00    -0.003 C 
ATOM     13  C   UNL     1      64.168  30.760  59.199  1.00  0.00     0.004 C 
ENDBRANCH  11  12
ENDBRANCH  10  11
ENDBRANCH   9  10
ENDBRANCH   8   9
ENDBRANCH   1   8
TORSDOF 9
ENDMDL
MODEL 2
REMARK VINA RESULT:    -3.092     12.766     14.239
REMARK INTER + INTRA:          -6.005
REMARK INTER:                  -5.158
REMARK INTRA:                  -0.847
REMARK UNBOUND:                -1.286
REMARK SMILES CCCCCCCCCCC(=O)[O-]
REMARK SMILES IDX 7 1 8 2 9 3 10 4 11 5 12 6 13 7 6 8 5 9 4 10 3 11 2 12 1 13
REMARK H PARENT
REMARK Flexibility Score: inf
ROOT
ATOM      1  C   UNL     1      59.755  28.151  49.259  1.00  0.00     0.000 C 
ENDROOT
BRANCH   1   2
ATOM      2  C   UNL     1      59.256  26.702  49.311  1.00  0.00     0.000 C 
BRANCH   2   3
ATOM      3  C   UNL     1      59.730  26.001  50.592  1.00  0.00     0.006 C 
BRANCH   3   4
ATOM      4  C   UNL     1      59.556  24.479  50.521  1.00  0.00     0.053 C 
BRANCH   4   5
ATOM      5  C   UNL     1      60.752  23.811  49.914  1.00  0.00     0.041 C 
ATOM      6  O   UNL     1      60.612  22.781  49.204  1.00  0.00    -0.550 OA
ATOM      7  O   UNL     1      62.025  24.308  50.161  1.00  0.00    -0.550 OA
ENDBRANCH   4   5
ENDBRANCH   3   4
ENDBRANCH   2   3
ENDBRANCH   1   2
BRANCH   1   8
ATOM      8  C   UNL     1      58.578  29.137  49.231  1.00  0.00     0.000 C 
BRANCH   8   9
ATOM      9  C   UNL     1      57.763  29.126  50.533  1.00  0.00    -0.000 C 
BRANCH   9  10
ATOM     10  C   UNL     1      56.277  28.812  50.300  1.00  0.00    -0.000 C 
BRANCH  10  11
ATOM     11  C   UNL     1      55.870  27.518  51.013  1.00  0.00    -0.000 C 
BRANCH  11  12
ATOM     12  C   UNL     1      55.748  26.357  50.020  1.00  0.00    -0.003 C 
ATOM     13  C   UNL     1      54.342  26.281  49.430  1.00  0.00     0.004 C 
ENDBRANCH  11  12
ENDBRANCH  10  11
ENDBRANCH   9  10
ENDBRANCH   8   9
ENDBRANCH   1   8
TORSDOF 9
ENDMDL
MODEL 3
REMARK VINA RESULT:    -3.079      2.952      5.136
REMARK INTER + INTRA:          -5.984
REMARK INTER:                  -5.240
REMARK INTRA:                  -0.744
REMARK UNBOUND:                -1.286
REMARK SMILES CCCCCCCCCCC(=O)[O-]
REMARK SMILES IDX 7 1 8 2 9 3 10 4 11 5 12 6 13 7 6 8 5 9 4 10 3 11 2 12 1 13
REMARK H PARENT
REMARK Flexibility Score: inf
ROOT
ATOM      1  C   UNL     1      60.767  31.827  60.207  1.00  0.00     0.000 C 
ENDROOT
BRANCH   1   2
ATOM      2  C   UNL     1      60.869  31.438  61.687  1.00  0.00     0.000 C 
BRANCH   2   3
ATOM      3  C   UNL     1      61.785  30.221  61.875  1.00  0.00     0.006 C 
BRANCH   3   4
ATOM      4  C   UNL     1      63.262  30.565  61.643  1.00  0.00     0.053 C 
BRANCH   4   5
ATOM      5  C   UNL     1      63.867  29.717  60.567  1.00  0.00     0.041 C 
ATOM      6  O   UNL     1      63.895  30.126  59.376  1.00  0.00    -0.550 OA
ATOM      7  O   UNL     1      64.370  28.459  60.873  1.00  0.00    -0.550 OA
ENDBRANCH   4   5
ENDBRANCH   3   4
ENDBRANCH   2   3
ENDBRANCH   1   2
BRANCH   1   8
ATOM      8  C   UNL     1      61.045  33.325  60.011  1.00  0.00     0.000 C 
BRANCH   8   9
ATOM      9  C   UNL     1      62.541  33.633  59.844  1.00  0.00    -0.000 C 
BRANCH   9  10
ATOM     10  C   UNL     1      63.100  34.492  60.989  1.00  0.00    -0.000 C 
BRANCH  10  11
ATOM     11  C   UNL     1      62.562  35.925  60.914  1.00  0.00    -0.000 C 
BRANCH  11  12
ATOM     12  C   UNL     1      63.393  36.873  61.785  1.00  0.00    -0.003 C 
ATOM     13  C   UNL     1      64.815  36.351  61.967  1.00  0.00     0.004 C 
ENDBRANCH  11  12
ENDBRANCH  10  11
ENDBRANCH   9  10
ENDBRANCH   8   9
ENDBRANCH   1   8
TORSDOF 9
ENDMDL
MODEL 4
REMARK VINA RESULT:    -3.077      3.718      5.871
REMARK INTER + INTRA:          -5.982
REMARK INTER:                  -5.309
REMARK INTRA:                  -0.673
REMARK UNBOUND:                -1.286
REMARK SMILES CCCCCCCCCCC(=O)[O-]
REMARK SMILES IDX 7 1 8 2 9 3 10 4 11 5 12 6 13 7 6 8 5 9 4 10 3 11 2 12 1 13
REMARK H PARENT
REMARK Flexibility Score: inf
ROOT
ATOM      1  C   UNL     1      62.877  32.168  60.167  1.00  0.00     0.000 C 
ENDROOT
BRANCH   1   2
ATOM      2  C   UNL     1      61.596  32.356  60.988  1.00  0.00     0.000 C 
BRANCH   2   3
ATOM      3  C   UNL     1      61.014  31.002  61.418  1.00  0.00     0.006 C 
BRANCH   3   4
ATOM      4  C   UNL     1      62.100  30.028  61.894  1.00  0.00     0.053 C 
BRANCH   4   5
ATOM      5  C   UNL     1      61.930  28.669  61.288  1.00  0.00     0.041 C 
ATOM      6  O   UNL     1      61.785  28.543  60.043  1.00  0.00    -0.550 OA
ATOM      7  O   UNL     1      61.900  27.544  62.101  1.00  0.00    -0.550 OA
ENDBRANCH   4   5
ENDBRANCH   3   4
ENDBRANCH   2   3
ENDBRANCH   1   2
BRANCH   1   8
ATOM      8  C   UNL     1      64.064  32.886  60.828  1.00  0.00     0.000 C 
BRANCH   8   9
ATOM      9  C   UNL     1      64.137  34.375  60.458  1.00  0.00    -0.000 C 
BRANCH   9  10
ATOM     10  C   UNL     1      64.110  35.294  61.689  1.00  0.00    -0.000 C 
BRANCH  10  11
ATOM     11  C   UNL     1      63.142  36.464  61.480  1.00  0.00    -0.000 C 
BRANCH  11  12
ATOM     12  C   UNL     1      61.891  36.015  60.716  1.00  0.00    -0.003 C 
ATOM     13  C   UNL     1      60.843  37.124  60.673  1.00  0.00     0.004 C 
ENDBRANCH  11  12
ENDBRANCH  10  11
ENDBRANCH   9  10
ENDBRANCH   8   9
ENDBRANCH   1   8
TORSDOF 9
ENDMDL
MODEL 5
REMARK VINA RESULT:    -3.047     12.008     13.546
REMARK INTER + INTRA:          -5.936
REMARK INTER:                  -4.914
REMARK INTRA:                  -1.021
REMARK UNBOUND:                -1.286
REMARK SMILES CCCCCCCCCCC(=O)[O-]
REMARK SMILES IDX 7 1 8 2 9 3 10 4 11 5 12 6 13 7 6 8 5 9 4 10 3 11 2 12 1 13
REMARK H PARENT
REMARK Flexibility Score: inf
ROOT
ATOM      1  C   UNL     1      57.565  28.021  51.261  1.00  0.00     0.000 C 
ENDROOT
BRANCH   1   2
ATOM      2  C   UNL     1      57.259  28.980  50.104  1.00  0.00     0.000 C 
BRANCH   2   3
ATOM      3  C   UNL     1      58.551  29.437  49.411  1.00  0.00     0.006 C 
BRANCH   3   4
ATOM      4  C   UNL     1      59.469  28.260  49.059  1.00  0.00     0.053 C 
BRANCH   4   5
ATOM      5  C   UNL     1      60.850  28.449  49.607  1.00  0.00     0.041 C 
ATOM      6  O   UNL     1      61.774  27.656  49.288  1.00  0.00    -0.550 OA
ATOM      7  O   UNL     1      61.109  29.483  50.497  1.00  0.00    -0.550 OA
ENDBRANCH   4   5
ENDBRANCH   3   4
ENDBRANCH   2   3
ENDBRANCH   1   2
BRANCH   1   8
ATOM      8  C   UNL     1      56.559  26.861  51.294  1.00  0.00     0.000 C 
BRANCH   8   9
ATOM      9  C   UNL     1      56.114  26.421  49.891  1.00  0.00    -0.000 C 
BRANCH   9  10
ATOM     10  C   UNL     1      54.607  26.130  49.812  1.00  0.00    -0.000 C 
BRANCH  10  11
ATOM     11  C   UNL     1      53.803  27.176  50.592  1.00  0.00    -0.000 C 
BRANCH  11  12
ATOM     12  C   UNL     1      53.546  28.423  49.738  1.00  0.00    -0.003 C 
ATOM     13  C   UNL     1      53.638  29.695  50.576  1.00  0.00     0.004 C 
ENDBRANCH  11  12
ENDBRANCH  10  11
ENDBRANCH   9  10
ENDBRANCH   8   9
ENDBRANCH   1   8
TORSDOF 9
ENDMDL
MODEL 6
REMARK VINA RESULT:    -3.000      2.894      5.013
REMARK INTER + INTRA:          -5.865
REMARK INTER:                  -4.827
REMARK INTRA:                  -1.038
REMARK UNBOUND:                -1.286
REMARK SMILES CCCCCCCCCCC(=O)[O-]
REMARK SMILES IDX 7 1 8 2 9 3 10 4 11 5 12 6 13 7 6 8 5 9 4 10 3 11 2 12 1 13
REMARK H PARENT
REMARK Flexibility Score: inf
ROOT
ATOM      1  C   UNL     1      61.031  34.351  60.057  1.00  0.00     0.000 C 
ENDROOT
BRANCH   1   2
ATOM      2  C   UNL     1      61.748  33.135  60.656  1.00  0.00     0.000 C 
BRANCH   2   3
ATOM      3  C   UNL     1      63.116  32.920  59.992  1.00  0.00     0.006 C 
BRANCH   3   4
ATOM      4  C   UNL     1      64.153  32.352  60.969  1.00  0.00     0.053 C 
BRANCH   4   5
ATOM      5  C   UNL     1      64.261  30.861  60.860  1.00  0.00     0.041 C 
ATOM      6  O   UNL     1      65.003  30.341  59.986  1.00  0.00    -0.550 OA
ATOM      7  O   UNL     1      63.515  30.047  61.702  1.00  0.00    -0.550 OA
ENDBRANCH   4   5
ENDBRANCH   3   4
ENDBRANCH   2   3
ENDBRANCH   1   2
BRANCH   1   8
ATOM      8  C   UNL     1      61.991  35.541  59.913  1.00  0.00     0.000 C 
BRANCH   8   9
ATOM      9  C   UNL     1      61.734  36.641  60.954  1.00  0.00    -0.000 C 
BRANCH   9  10
ATOM     10  C   UNL     1      63.022  37.125  61.636  1.00  0.00    -0.000 C 
BRANCH  10  11
ATOM     11  C   UNL     1      63.991  35.960  61.870  1.00  0.00    -0.000 C 
BRANCH  11  12
ATOM     12  C   UNL     1      65.412  36.327  61.425  1.00  0.00    -0.003 C 
ATOM     13  C   UNL     1      65.445  36.721  59.951  1.00  0.00     0.004 C 
ENDBRANCH  11  12
ENDBRANCH  10  11
ENDBRANCH   9  10
ENDBRANCH   8   9
ENDBRANCH   1   8
TORSDOF 9
ENDMDL
MODEL 7
REMARK VINA RESULT:    -2.989     12.595     14.050
REMARK INTER + INTRA:          -5.848
REMARK INTER:                  -4.792
REMARK INTRA:                  -1.056
REMARK UNBOUND:                -1.286
REMARK SMILES CCCCCCCCCCC(=O)[O-]
REMARK SMILES IDX 7 1 8 2 9 3 10 4 11 5 12 6 13 7 6 8 5 9 4 10 3 11 2 12 1 13
REMARK H PARENT
REMARK Flexibility Score: inf
ROOT
ATOM      1  C   UNL     1      57.945  29.183  51.319  1.00  0.00     0.000 C 
ENDROOT
BRANCH   1   2
ATOM      2  C   UNL     1      56.527  28.685  51.621  1.00  0.00     0.000 C 
BRANCH   2   3
ATOM      3  C   UNL     1      55.752  28.411  50.324  1.00  0.00     0.006 C 
BRANCH   3   4
ATOM      4  C   UNL     1      55.488  26.915  50.110  1.00  0.00     0.053 C 
BRANCH   4   5
ATOM      5  C   UNL     1      54.107  26.665  49.584  1.00  0.00     0.041 C 
ATOM      6  O   UNL     1      53.299  27.620  49.444  1.00  0.00    -0.550 OA
ATOM      7  O   UNL     1      53.703  25.372  49.280  1.00  0.00    -0.550 OA
ENDBRANCH   4   5
ENDBRANCH   3   4
ENDBRANCH   2   3
ENDBRANCH   1   2
BRANCH   1   8
ATOM      8  C   UNL     1      58.124  29.458  49.818  1.00  0.00     0.000 C 
BRANCH   8   9
ATOM      9  C   UNL     1      59.293  28.671  49.207  1.00  0.00    -0.000 C 
BRANCH   9  10
ATOM     10  C   UNL     1      59.085  27.151  49.275  1.00  0.00    -0.000 C 
BRANCH  10  11
ATOM     11  C   UNL     1      60.362  26.441  49.739  1.00  0.00    -0.000 C 
BRANCH  11  12
ATOM     12  C   UNL     1      60.099  25.592  50.988  1.00  0.00    -0.003 C 
ATOM     13  C   UNL     1      58.622  25.226  51.105  1.00  0.00     0.004 C 
ENDBRANCH  11  12
ENDBRANCH  10  11
ENDBRANCH   9  10
ENDBRANCH   8   9
ENDBRANCH   1   8
TORSDOF 9
ENDMDL
MODEL 8
REMARK VINA RESULT:    -2.831      2.886      4.998
REMARK INTER + INTRA:          -5.606
REMARK INTER:                  -4.639
REMARK INTRA:                  -0.967
REMARK UNBOUND:                -1.286
REMARK SMILES CCCCCCCCCCC(=O)[O-]
REMARK SMILES IDX 7 1 8 2 9 3 10 4 11 5 12 6 13 7 6 8 5 9 4 10 3 11 2 12 1 13
REMARK H PARENT
REMARK Flexibility Score: inf
ROOT
ATOM      1  C   UNL     1      61.283  33.461  58.797  1.00  0.00     0.000 C 
ENDROOT
BRANCH   1   2
ATOM      2  C   UNL     1      60.768  32.219  59.534  1.00  0.00     0.000 C 
BRANCH   2   3
ATOM      3  C   UNL     1      61.033  32.326  61.043  1.00  0.00     0.006 C 
BRANCH   3   4
ATOM      4  C   UNL     1      60.933  30.967  61.747  1.00  0.00     0.053 C 
BRANCH   4   5
ATOM      5  C   UNL     1      62.234  30.224  61.706  1.00  0.00     0.041 C 
ATOM      6  O   UNL     1      62.247  28.965  61.745  1.00  0.00    -0.550 OA
ATOM      7  O   UNL     1      63.432  30.923  61.657  1.00  0.00    -0.550 OA
ENDBRANCH   4   5
ENDBRANCH   3   4
ENDBRANCH   2   3
ENDBRANCH   1   2
BRANCH   1   8
ATOM      8  C   UNL     1      60.752  34.747  59.447  1.00  0.00     0.000 C 
BRANCH   8   9
ATOM      9  C   UNL     1      61.365  36.018  58.838  1.00  0.00    -0.000 C 
BRANCH   9  10
ATOM     10  C   UNL     1      62.667  36.441  59.537  1.00  0.00    -0.000 C 
BRANCH  10  11
ATOM     11  C   UNL     1      62.532  36.336  61.060  1.00  0.00    -0.000 C 
BRANCH  11  12
ATOM     12  C   UNL     1      63.798  35.741  61.686  1.00  0.00    -0.003 C 
ATOM     13  C   UNL     1      64.125  34.378  61.081  1.00  0.00     0.004 C 
ENDBRANCH  11  12
ENDBRANCH  10  11
ENDBRANCH   9  10
ENDBRANCH   8   9
ENDBRANCH   1   8
TORSDOF 9
ENDMDL
MODEL 9
REMARK VINA RESULT:    -2.821     13.525     14.705
REMARK INTER + INTRA:          -5.592
REMARK INTER:                  -4.566
REMARK INTRA:                  -1.026
REMARK UNBOUND:                -1.286
REMARK SMILES CCCCCCCCCCC(=O)[O-]
REMARK SMILES IDX 7 1 8 2 9 3 10 4 11 5 12 6 13 7 6 8 5 9 4 10 3 11 2 12 1 13
REMARK H PARENT
REMARK Flexibility Score: inf
ROOT
ATOM      1  C   UNL     1      55.404  28.122  51.574  1.00  0.00     0.000 C 
ENDROOT
BRANCH   1   2
ATOM      2  C   UNL     1      55.112  28.528  50.124  1.00  0.00     0.000 C 
BRANCH   2   3
ATOM      3  C   UNL     1      53.616  28.397  49.806  1.00  0.00     0.006 C 
BRANCH   3   4
ATOM      4  C   UNL     1      52.950  27.264  50.599  1.00  0.00     0.053 C 
BRANCH   4   5
ATOM      5  C   UNL     1      53.092  25.944  49.906  1.00  0.00     0.041 C 
ATOM      6  O   UNL     1      53.170  25.891  48.651  1.00  0.00    -0.550 OA
ATOM      7  O   UNL     1      53.105  24.769  50.646  1.00  0.00    -0.550 OA
ENDBRANCH   4   5
ENDBRANCH   3   4
ENDBRANCH   2   3
ENDBRANCH   1   2
BRANCH   1   8
ATOM      8  C   UNL     1      56.492  27.039  51.634  1.00  0.00     0.000 C 
BRANCH   8   9
ATOM      9  C   UNL     1      56.781  26.412  50.261  1.00  0.00    -0.000 C 
BRANCH   9  10
ATOM     10  C   UNL     1      58.255  26.013  50.091  1.00  0.00    -0.000 C 
BRANCH  10  11
ATOM     11  C   UNL     1      59.181  27.208  50.342  1.00  0.00    -0.000 C 
BRANCH  11  12
ATOM     12  C   UNL     1      59.327  28.068  49.082  1.00  0.00    -0.003 C 
ATOM     13  C   UNL     1      58.694  29.443  49.274  1.00  0.00     0.004 C 
ENDBRANCH  11  12
ENDBRANCH  10  11
ENDBRANCH   9  10
ENDBRANCH   8   9
ENDBRANCH   1   8
TORSDOF 9
ENDMDL
