MODEL 1
REMARK VINA RESULT:    -3.412      0.000      0.000
REMARK INTER + INTRA:          -5.612
REMARK INTER:                  -5.406
REMARK INTRA:                  -0.206
REMARK UNBOUND:                -0.206
REMARK SMILES CCCCCCCCCCCC(=O)[O-]
REMARK SMILES IDX 7 1 8 2 9 3 10 4 11 5 12 6 13 7 14 8 6 9 5 10 4 11 3 12 2 13
REMARK SMILES IDX 1 14
REMARK H PARENT
REMARK Flexibility Score: inf
ROOT
ATOM      1  C   UNL     1       5.931  45.042  11.020  1.00  0.00     0.000 C 
ENDROOT
BRANCH   1   2
ATOM      2  C   UNL     1       7.409  45.121  10.611  1.00  0.00     0.000 C 
BRANCH   2   3
ATOM      3  C   UNL     1       7.999  43.747  10.257  1.00  0.00     0.000 C 
BRANCH   3   4
ATOM      4  C   UNL     1       7.396  42.608  11.098  1.00  0.00     0.006 C 
BRANCH   4   5
ATOM      5  C   UNL     1       7.922  42.611  12.538  1.00  0.00     0.053 C 
BRANCH   5   6
ATOM      6  C   UNL     1       6.816  42.430  13.533  1.00  0.00     0.041 C 
ATOM      7  O   UNL     1       6.851  41.475  14.353  1.00  0.00    -0.550 OA
ATOM      8  O   UNL     1       5.765  43.337  13.577  1.00  0.00    -0.550 OA
ENDBRANCH   5   6
ENDBRANCH   4   5
ENDBRANCH   3   4
ENDBRANCH   2   3
ENDBRANCH   1   2
BRANCH   1   9
ATOM      9  C   UNL     1       5.076  44.477   9.875  1.00  0.00     0.000 C 
BRANCH   9  10
ATOM     10  C   UNL     1       3.578  44.775  10.049  1.00  0.00    -0.000 C 
BRANCH  10  11
ATOM     11  C   UNL     1       3.116  44.650  11.511  1.00  0.00    -0.000 C 
BRANCH  11  12
ATOM     12  C   UNL     1       1.984  43.621  11.694  1.00  0.00    -0.000 C 
BRANCH  12  13
ATOM     13  C   UNL     1       1.503  42.946  10.398  1.00  0.00    -0.003 C 
ATOM     14  C   UNL     1       0.158  42.237  10.556  1.00  0.00     0.004 C 
ENDBRANCH  12  13
ENDBRANCH  11  12
ENDBRANCH  10  11
ENDBRANCH   9  10
ENDBRANCH   1   9
TORSDOF 10
ENDMDL
MODEL 2
REMARK VINA RESULT:    -3.207      1.958      2.945
REMARK INTER + INTRA:          -5.288
REMARK INTER:                  -4.987
REMARK INTRA:                  -0.301
REMARK UNBOUND:                -0.206
REMARK SMILES CCCCCCCCCCCC(=O)[O-]
REMARK SMILES IDX 7 1 8 2 9 3 10 4 11 5 12 6 13 7 14 8 6 9 5 10 4 11 3 12 2 13
REMARK SMILES IDX 1 14
REMARK H PARENT
REMARK Flexibility Score: inf
ROOT
ATOM      1  C   UNL     1       4.914  43.188  12.836  1.00  0.00     0.000 C 
ENDROOT
BRANCH   1   2
ATOM      2  C   UNL     1       5.805  42.926  14.059  1.00  0.00     0.000 C 
BRANCH   2   3
ATOM      3  C   UNL     1       7.114  42.208  13.695  1.00  0.00     0.000 C 
BRANCH   3   4
ATOM      4  C   UNL     1       7.380  42.194  12.179  1.00  0.00     0.006 C 
BRANCH   4   5
ATOM      5  C   UNL     1       8.303  43.338  11.743  1.00  0.00     0.053 C 
BRANCH   5   6
ATOM      6  C   UNL     1       7.832  43.977  10.472  1.00  0.00     0.041 C 
ATOM      7  O   UNL     1       6.817  43.530   9.877  1.00  0.00    -0.550 OA
ATOM      8  O   UNL     1       8.493  45.089   9.967  1.00  0.00    -0.550 OA
ENDBRANCH   5   6
ENDBRANCH   4   5
ENDBRANCH   3   4
ENDBRANCH   2   3
ENDBRANCH   1   2
BRANCH   1   9
ATOM      9  C   UNL     1       5.015  44.654  12.389  1.00  0.00     0.000 C 
BRANCH   9  10
ATOM     10  C   UNL     1       3.832  45.091  11.509  1.00  0.00    -0.000 C 
BRANCH  10  11
ATOM     11  C   UNL     1       3.891  44.485  10.097  1.00  0.00    -0.000 C 
BRANCH  11  12
ATOM     12  C   UNL     1       2.935  43.291   9.918  1.00  0.00    -0.000 C 
BRANCH  12  13
ATOM     13  C   UNL     1       1.802  43.203  10.956  1.00  0.00    -0.003 C 
ATOM     14  C   UNL     1       0.570  42.463  10.437  1.00  0.00     0.004 C 
ENDBRANCH  12  13
ENDBRANCH  11  12
ENDBRANCH  10  11
ENDBRANCH   9  10
ENDBRANCH   1   9
TORSDOF 10
ENDMDL
MODEL 3
REMARK VINA RESULT:    -3.107      2.426      5.200
REMARK INTER + INTRA:          -5.128
REMARK INTER:                  -4.121
REMARK INTRA:                  -1.008
REMARK UNBOUND:                -0.206
REMARK SMILES CCCCCCCCCCCC(=O)[O-]
REMARK SMILES IDX 7 1 8 2 9 3 10 4 11 5 12 6 13 7 14 8 6 9 5 10 4 11 3 12 2 13
REMARK SMILES IDX 1 14
REMARK H PARENT
REMARK Flexibility Score: inf
ROOT
ATOM      1  C   UNL     1       6.026  44.231  10.062  1.00  0.00     0.000 C 
ENDROOT
BRANCH   1   2
ATOM      2  C   UNL     1       5.312  45.125  11.087  1.00  0.00     0.000 C 
BRANCH   2   3
ATOM      3  C   UNL     1       3.861  44.689  11.343  1.00  0.00     0.000 C 
BRANCH   3   4
ATOM      4  C   UNL     1       3.537  43.316  10.728  1.00  0.00     0.006 C 
BRANCH   4   5
ATOM      5  C   UNL     1       2.230  43.336   9.925  1.00  0.00     0.053 C 
BRANCH   5   6
ATOM      6  C   UNL     1       1.060  42.915  10.761  1.00  0.00     0.041 C 
ATOM      7  O   UNL     1       0.885  43.413  11.904  1.00  0.00    -0.550 OA
ATOM      8  O   UNL     1       0.142  42.001  10.261  1.00  0.00    -0.550 OA
ENDBRANCH   5   6
ENDBRANCH   4   5
ENDBRANCH   3   4
ENDBRANCH   2   3
ENDBRANCH   1   2
BRANCH   1   9
ATOM      9  C   UNL     1       7.535  44.519  10.042  1.00  0.00     0.000 C 
BRANCH   9  10
ATOM     10  C   UNL     1       8.324  43.623  11.011  1.00  0.00    -0.000 C 
BRANCH  10  11
ATOM     11  C   UNL     1       7.628  42.276  11.269  1.00  0.00    -0.000 C 
BRANCH  11  12
ATOM     12  C   UNL     1       7.385  42.005  12.765  1.00  0.00    -0.000 C 
BRANCH  12  13
ATOM     13  C   UNL     1       6.595  43.099  13.505  1.00  0.00    -0.003 C 
ATOM     14  C   UNL     1       5.403  42.551  14.289  1.00  0.00     0.004 C 
ENDBRANCH  12  13
ENDBRANCH  11  12
ENDBRANCH  10  11
ENDBRANCH   9  10
ENDBRANCH   1   9
TORSDOF 10
ENDMDL
MODEL 4
REMARK VINA RESULT:    -2.934      2.482      5.417
REMARK INTER + INTRA:          -4.856
REMARK INTER:                  -4.607
REMARK INTRA:                  -0.249
REMARK UNBOUND:                -0.206
REMARK SMILES CCCCCCCCCCCC(=O)[O-]
REMARK SMILES IDX 7 1 8 2 9 3 10 4 11 5 12 6 13 7 14 8 6 9 5 10 4 11 3 12 2 13
REMARK SMILES IDX 1 14
REMARK H PARENT
REMARK Flexibility Score: inf
ROOT
ATOM      1  C   UNL     1       5.496  44.249  12.617  1.00  0.00     0.000 C 
ENDROOT
BRANCH   1   2
ATOM      2  C   UNL     1       4.070  43.984  12.110  1.00  0.00     0.000 C 
BRANCH   2   3
ATOM      3  C   UNL     1       3.620  45.002  11.050  1.00  0.00     0.000 C 
BRANCH   3   4
ATOM      4  C   UNL     1       2.875  44.343   9.875  1.00  0.00     0.006 C 
BRANCH   4   5
ATOM      5  C   UNL     1       2.462  42.900  10.188  1.00  0.00     0.053 C 
BRANCH   5   6
ATOM      6  C   UNL     1       1.098  42.834  10.804  1.00  0.00     0.041 C 
ATOM      7  O   UNL     1       0.207  42.106  10.294  1.00  0.00    -0.550 OA
ATOM      8  O   UNL     1       0.823  43.550  11.962  1.00  0.00    -0.550 OA
ENDBRANCH   5   6
ENDBRANCH   4   5
ENDBRANCH   3   4
ENDBRANCH   2   3
ENDBRANCH   1   2
BRANCH   1   9
ATOM      9  C   UNL     1       6.275  45.125  11.624  1.00  0.00     0.000 C 
BRANCH   9  10
ATOM     10  C   UNL     1       7.444  44.377  10.961  1.00  0.00    -0.000 C 
BRANCH  10  11
ATOM     11  C   UNL     1       7.011  43.038  10.340  1.00  0.00    -0.000 C 
BRANCH  11  12
ATOM     12  C   UNL     1       7.407  41.824  11.202  1.00  0.00    -0.000 C 
BRANCH  12  13
ATOM     13  C   UNL     1       8.094  42.168  12.535  1.00  0.00    -0.003 C 
ATOM     14  C   UNL     1       7.272  41.760  13.756  1.00  0.00     0.004 C 
ENDBRANCH  12  13
ENDBRANCH  11  12
ENDBRANCH  10  11
ENDBRANCH   9  10
ENDBRANCH   1   9
TORSDOF 10
ENDMDL
MODEL 5
REMARK VINA RESULT:    -2.213      1.051      1.676
REMARK INTER + INTRA:          -3.713
REMARK INTER:                  -4.140
REMARK INTRA:                   0.427
REMARK UNBOUND:                -0.206
REMARK SMILES CCCCCCCCCCCC(=O)[O-]
REMARK SMILES IDX 7 1 8 2 9 3 10 4 11 5 12 6 13 7 14 8 6 9 5 10 4 11 3 12 2 13
REMARK SMILES IDX 1 14
REMARK H PARENT
REMARK Flexibility Score: inf
ROOT
ATOM      1  C   UNL     1       6.831  44.182  10.077  1.00  0.00     0.000 C 
ENDROOT
BRANCH   1   2
ATOM      2  C   UNL     1       6.502  42.682  10.093  1.00  0.00     0.000 C 
BRANCH   2   3
ATOM      3  C   UNL     1       7.438  41.881  11.013  1.00  0.00     0.000 C 
BRANCH   3   4
ATOM      4  C   UNL     1       7.916  42.696  12.227  1.00  0.00     0.006 C 
BRANCH   4   5
ATOM      5  C   UNL     1       7.331  42.169  13.543  1.00  0.00     0.053 C 
BRANCH   5   6
ATOM      6  C   UNL     1       6.053  42.864  13.899  1.00  0.00     0.041 C 
ATOM      7  O   UNL     1       5.901  44.086  13.640  1.00  0.00    -0.550 OA
ATOM      8  O   UNL     1       5.014  42.151  14.485  1.00  0.00    -0.550 OA
ENDBRANCH   5   6
ENDBRANCH   4   5
ENDBRANCH   3   4
ENDBRANCH   2   3
ENDBRANCH   1   2
BRANCH   1   9
ATOM      9  C   UNL     1       5.793  44.979  10.882  1.00  0.00     0.000 C 
BRANCH   9  10
ATOM     10  C   UNL     1       4.438  45.085  10.164  1.00  0.00    -0.000 C 
BRANCH  10  11
ATOM     11  C   UNL     1       3.806  43.710   9.886  1.00  0.00    -0.000 C 
BRANCH  11  12
ATOM     12  C   UNL     1       2.267  43.750   9.875  1.00  0.00    -0.000 C 
BRANCH  12  13
ATOM     13  C   UNL     1       1.588  42.975  11.018  1.00  0.00    -0.003 C 
ATOM     14  C   UNL     1       0.232  42.392  10.623  1.00  0.00     0.004 C 
ENDBRANCH  12  13
ENDBRANCH  11  12
ENDBRANCH  10  11
ENDBRANCH   9  10
ENDBRANCH   1   9
TORSDOF 10
ENDMDL
MODEL 6
REMARK VINA RESULT:    -1.984      2.425      5.248
REMARK INTER + INTRA:          -3.350
REMARK INTER:                  -3.458
REMARK INTRA:                   0.108
REMARK UNBOUND:                -0.206
REMARK SMILES CCCCCCCCCCCC(=O)[O-]
REMARK SMILES IDX 7 1 8 2 9 3 10 4 11 5 12 6 13 7 14 8 6 9 5 10 4 11 3 12 2 13
REMARK SMILES IDX 1 14
REMARK H PARENT
REMARK Flexibility Score: inf
ROOT
ATOM      1  C   UNL     1       4.797  43.397  12.796  1.00  0.00     0.000 C 
ENDROOT
BRANCH   1   2
ATOM      2  C   UNL     1       4.863  44.753  12.078  1.00  0.00     0.000 C 
BRANCH   2   3
ATOM      3  C   UNL     1       3.603  45.045  11.247  1.00  0.00     0.000 C 
BRANCH   3   4
ATOM      4  C   UNL     1       3.583  44.278   9.913  1.00  0.00     0.006 C 
BRANCH   4   5
ATOM      5  C   UNL     1       2.894  42.914  10.040  1.00  0.00     0.053 C 
BRANCH   5   6
ATOM      6  C   UNL     1       1.580  43.021  10.753  1.00  0.00     0.041 C 
ATOM      7  O   UNL     1       1.509  43.601  11.868  1.00  0.00    -0.550 OA
ATOM      8  O   UNL     1       0.429  42.510  10.167  1.00  0.00    -0.550 OA
ENDBRANCH   5   6
ENDBRANCH   4   5
ENDBRANCH   3   4
ENDBRANCH   2   3
ENDBRANCH   1   2
BRANCH   1   9
ATOM      9  C   UNL     1       6.011  43.207  13.719  1.00  0.00     0.000 C 
BRANCH   9  10
ATOM     10  C   UNL     1       7.137  42.392  13.060  1.00  0.00    -0.000 C 
BRANCH  10  11
ATOM     11  C   UNL     1       8.038  43.251  12.158  1.00  0.00    -0.000 C 
BRANCH  11  12
ATOM     12  C   UNL     1       7.893  42.905  10.664  1.00  0.00    -0.000 C 
BRANCH  12  13
ATOM     13  C   UNL     1       6.599  42.160  10.292  1.00  0.00    -0.003 C 
ATOM     14  C   UNL     1       6.841  40.707   9.886  1.00  0.00     0.004 C 
ENDBRANCH  12  13
ENDBRANCH  11  12
ENDBRANCH  10  11
ENDBRANCH   9  10
ENDBRANCH   1   9
TORSDOF 10
ENDMDL
MODEL 7
REMARK VINA RESULT:    -1.845      1.553      2.066
REMARK INTER + INTRA:          -3.129
REMARK INTER:                  -3.720
REMARK INTRA:                   0.591
REMARK UNBOUND:                -0.206
REMARK SMILES CCCCCCCCCCCC(=O)[O-]
REMARK SMILES IDX 7 1 8 2 9 3 10 4 11 5 12 6 13 7 14 8 6 9 5 10 4 11 3 12 2 13
REMARK SMILES IDX 1 14
REMARK H PARENT
REMARK Flexibility Score: inf
ROOT
ATOM      1  C   UNL     1       4.969  43.819  12.685  1.00  0.00     0.000 C 
ENDROOT
BRANCH   1   2
ATOM      2  C   UNL     1       6.065  44.746  12.137  1.00  0.00     0.000 C 
BRANCH   2   3
ATOM      3  C   UNL     1       6.424  44.439  10.674  1.00  0.00     0.000 C 
BRANCH   3   4
ATOM      4  C   UNL     1       7.939  44.285  10.455  1.00  0.00     0.006 C 
BRANCH   4   5
ATOM      5  C   UNL     1       8.596  43.428  11.544  1.00  0.00     0.053 C 
BRANCH   5   6
ATOM      6  C   UNL     1       7.862  42.139  11.754  1.00  0.00     0.041 C 
ATOM      7  O   UNL     1       7.578  41.753  12.918  1.00  0.00    -0.550 OA
ATOM      8  O   UNL     1       7.459  41.383  10.660  1.00  0.00    -0.550 OA
ENDBRANCH   5   6
ENDBRANCH   4   5
ENDBRANCH   3   4
ENDBRANCH   2   3
ENDBRANCH   1   2
BRANCH   1   9
ATOM      9  C   UNL     1       3.576  44.313  12.268  1.00  0.00     0.000 C 
BRANCH   9  10
ATOM     10  C   UNL     1       3.393  44.359  10.741  1.00  0.00    -0.000 C 
BRANCH  10  11
ATOM     11  C   UNL     1       3.496  42.968  10.093  1.00  0.00    -0.000 C 
BRANCH  11  12
ATOM     12  C   UNL     1       2.122  42.307   9.875  1.00  0.00    -0.000 C 
BRANCH  12  13
ATOM     13  C   UNL     1       0.954  42.973  10.623  1.00  0.00    -0.003 C 
ATOM     14  C   UNL     1      -0.246  42.045  10.806  1.00  0.00     0.004 C 
ENDBRANCH  12  13
ENDBRANCH  11  12
ENDBRANCH  10  11
ENDBRANCH   9  10
ENDBRANCH   1   9
TORSDOF 10
ENDMDL
MODEL 8
REMARK VINA RESULT:    -1.800      2.131      3.186
REMARK INTER + INTRA:          -3.058
REMARK INTER:                  -2.631
REMARK INTRA:                  -0.427
REMARK UNBOUND:                -0.206
REMARK SMILES CCCCCCCCCCCC(=O)[O-]
REMARK SMILES IDX 7 1 8 2 9 3 10 4 11 5 12 6 13 7 14 8 6 9 5 10 4 11 3 12 2 13
REMARK SMILES IDX 1 14
REMARK H PARENT
REMARK Flexibility Score: inf
ROOT
ATOM      1  C   UNL     1       3.429  43.696  11.419  1.00  0.00     0.000 C 
ENDROOT
BRANCH   1   2
ATOM      2  C   UNL     1       3.941  44.953  10.700  1.00  0.00     0.000 C 
BRANCH   2   3
ATOM      3  C   UNL     1       5.377  44.791  10.174  1.00  0.00     0.000 C 
BRANCH   3   4
ATOM      4  C   UNL     1       6.438  45.102  11.243  1.00  0.00     0.006 C 
BRANCH   4   5
ATOM      5  C   UNL     1       7.426  43.945  11.433  1.00  0.00     0.053 C 
BRANCH   5   6
ATOM      6  C   UNL     1       7.015  43.043  12.556  1.00  0.00     0.041 C 
ATOM      7  O   UNL     1       6.059  43.364  13.310  1.00  0.00    -0.550 OA
ATOM      8  O   UNL     1       7.666  41.831  12.749  1.00  0.00    -0.550 OA
ENDBRANCH   5   6
ENDBRANCH   4   5
ENDBRANCH   3   4
ENDBRANCH   2   3
ENDBRANCH   1   2
BRANCH   1   9
ATOM      9  C   UNL     1       2.334  43.002  10.594  1.00  0.00     0.000 C 
BRANCH   9  10
ATOM     10  C   UNL     1       0.937  43.150  11.217  1.00  0.00    -0.000 C 
BRANCH  10  11
ATOM     11  C   UNL     1       0.959  43.944  12.535  1.00  0.00    -0.000 C 
BRANCH  11  12
ATOM     12  C   UNL     1      -0.355  43.821  13.329  1.00  0.00    -0.000 C 
BRANCH  12  13
ATOM     13  C   UNL     1      -0.592  44.929  14.370  1.00  0.00    -0.003 C 
ATOM     14  C   UNL     1      -2.068  45.124  14.712  1.00  0.00     0.004 C 
ENDBRANCH  12  13
ENDBRANCH  11  12
ENDBRANCH  10  11
ENDBRANCH   9  10
ENDBRANCH   1   9
TORSDOF 10
ENDMDL
