MODEL 1
REMARK VINA RESULT:    -5.275      0.000      0.000
REMARK INTER + INTRA:          -5.952
REMARK INTER:                  -5.737
REMARK INTRA:                  -0.215
REMARK UNBOUND:                -0.215
REMARK SMILES O=C([O-])c1ccccc1O
REMARK SMILES IDX 4 1 9 2 5 3 8 4 6 5 7 6 2 7 1 8 3 9 10 10
REMARK H PARENT 10 11
REMARK Flexibility Score: inf
ROOT
ATOM      1  C   UNL     1      22.588  -7.778  19.633  1.00  0.00     0.039 A 
ATOM      2  C   UNL     1      23.233  -6.516  19.586  1.00  0.00     0.124 A 
ATOM      3  C   UNL     1      23.367  -8.934  19.825  1.00  0.00     0.014 A 
ATOM      4  C   UNL     1      24.617  -6.437  19.794  1.00  0.00     0.047 A 
ATOM      5  C   UNL     1      24.749  -8.840  20.010  1.00  0.00     0.001 A 
ATOM      6  C   UNL     1      25.371  -7.593  20.004  1.00  0.00     0.004 A 
ENDROOT
BRANCH   1   7
ATOM      7  C   UNL     1      21.120  -7.934  19.521  1.00  0.00     0.075 C 
ATOM      8  O   UNL     1      20.396  -6.977  19.138  1.00  0.00    -0.545 OA
ATOM      9  O   UNL     1      20.516  -9.125  19.906  1.00  0.00    -0.545 OA
ENDBRANCH   1   7
BRANCH   2  10
ATOM     10  O   UNL     1      22.552  -5.329  19.305  1.00  0.00    -0.507 OA
ATOM     11  H   UNL     1      21.558  -5.283  19.134  1.00  0.00     0.293 HD
ENDBRANCH   2  10
TORSDOF 2
ENDMDL
MODEL 2
REMARK VINA RESULT:    -4.768     10.789     11.314
REMARK INTER + INTRA:          -5.401
REMARK INTER:                  -5.150
REMARK INTRA:                  -0.251
REMARK UNBOUND:                -0.215
REMARK SMILES O=C([O-])c1ccccc1O
REMARK SMILES IDX 4 1 9 2 5 3 8 4 6 5 7 6 2 7 1 8 3 9 10 10
REMARK H PARENT 10 11
REMARK Flexibility Score: inf
ROOT
ATOM      1  C   UNL     1      19.628  -3.616  29.545  1.00  0.00     0.039 A 
ATOM      2  C   UNL     1      18.955  -4.837  29.285  1.00  0.00     0.124 A 
ATOM      3  C   UNL     1      20.566  -3.143  28.610  1.00  0.00     0.014 A 
ATOM      4  C   UNL     1      19.188  -5.512  28.079  1.00  0.00     0.047 A 
ATOM      5  C   UNL     1      20.802  -3.839  27.421  1.00  0.00     0.001 A 
ATOM      6  C   UNL     1      20.106  -5.016  27.153  1.00  0.00     0.004 A 
ENDROOT
BRANCH   1   7
ATOM      7  C   UNL     1      19.364  -2.795  30.749  1.00  0.00     0.075 C 
ATOM      8  O   UNL     1      20.297  -2.180  31.330  1.00  0.00    -0.545 OA
ATOM      9  O   UNL     1      18.086  -2.750  31.293  1.00  0.00    -0.545 OA
ENDBRANCH   1   7
BRANCH   2  10
ATOM     10  O   UNL     1      18.081  -5.428  30.200  1.00  0.00    -0.507 OA
ATOM     11  H   UNL     1      18.324  -6.228  30.768  1.00  0.00     0.293 HD
ENDBRANCH   2  10
TORSDOF 2
ENDMDL
MODEL 3
REMARK VINA RESULT:    -4.732     10.811     11.209
REMARK INTER + INTRA:          -5.362
REMARK INTER:                  -5.113
REMARK INTRA:                  -0.249
REMARK UNBOUND:                -0.215
REMARK SMILES O=C([O-])c1ccccc1O
REMARK SMILES IDX 4 1 9 2 5 3 8 4 6 5 7 6 2 7 1 8 3 9 10 10
REMARK H PARENT 10 11
REMARK Flexibility Score: inf
ROOT
ATOM      1  C   UNL     1      19.571  -3.550  29.644  1.00  0.00     0.039 A 
ATOM      2  C   UNL     1      20.440  -3.106  28.614  1.00  0.00     0.124 A 
ATOM      3  C   UNL     1      18.901  -4.777  29.487  1.00  0.00     0.014 A 
ATOM      4  C   UNL     1      20.664  -3.922  27.497  1.00  0.00     0.047 A 
ATOM      5  C   UNL     1      19.119  -5.570  28.357  1.00  0.00     0.001 A 
ATOM      6  C   UNL     1      20.007  -5.147  27.369  1.00  0.00     0.004 A 
ENDROOT
BRANCH   1   7
ATOM      7  C   UNL     1      19.359  -2.791  30.898  1.00  0.00     0.075 C 
ATOM      8  O   UNL     1      20.292  -2.120  31.413  1.00  0.00    -0.545 OA
ATOM      9  O   UNL     1      18.140  -2.870  31.560  1.00  0.00    -0.545 OA
ENDBRANCH   1   7
BRANCH   2  10
ATOM     10  O   UNL     1      21.070  -1.860  28.643  1.00  0.00    -0.507 OA
ATOM     11  H   UNL     1      21.924  -1.677  29.151  1.00  0.00     0.293 HD
ENDBRANCH   2  10
TORSDOF 2
ENDMDL
MODEL 4
REMARK VINA RESULT:    -4.684     10.131     10.827
REMARK INTER + INTRA:          -5.310
REMARK INTER:                  -5.082
REMARK INTRA:                  -0.228
REMARK UNBOUND:                -0.215
REMARK SMILES O=C([O-])c1ccccc1O
REMARK SMILES IDX 4 1 9 2 5 3 8 4 6 5 7 6 2 7 1 8 3 9 10 10
REMARK H PARENT 10 11
REMARK Flexibility Score: inf
ROOT
ATOM      1  C   UNL     1      20.238  -3.308  29.008  1.00  0.00     0.039 A 
ATOM      2  C   UNL     1      20.541  -3.997  27.806  1.00  0.00     0.124 A 
ATOM      3  C   UNL     1      19.288  -3.859  29.887  1.00  0.00     0.014 A 
ATOM      4  C   UNL     1      19.940  -5.236  27.547  1.00  0.00     0.047 A 
ATOM      5  C   UNL     1      18.681  -5.086  29.605  1.00  0.00     0.001 A 
ATOM      6  C   UNL     1      19.014  -5.777  28.441  1.00  0.00     0.004 A 
ENDROOT
BRANCH   1   7
ATOM      7  C   UNL     1      20.905  -2.045  29.400  1.00  0.00     0.075 C 
ATOM      8  O   UNL     1      22.161  -1.957  29.422  1.00  0.00    -0.545 OA
ATOM      9  O   UNL     1      20.145  -0.958  29.814  1.00  0.00    -0.545 OA
ENDBRANCH   1   7
BRANCH   2  10
ATOM     10  O   UNL     1      21.399  -3.478  26.834  1.00  0.00    -0.507 OA
ATOM     11  H   UNL     1      21.178  -3.457  25.848  1.00  0.00     0.293 HD
ENDBRANCH   2  10
TORSDOF 2
ENDMDL
MODEL 5
REMARK VINA RESULT:    -4.597     10.068     10.961
REMARK INTER + INTRA:          -5.216
REMARK INTER:                  -5.000
REMARK INTRA:                  -0.215
REMARK UNBOUND:                -0.215
REMARK SMILES O=C([O-])c1ccccc1O
REMARK SMILES IDX 4 1 9 2 5 3 8 4 6 5 7 6 2 7 1 8 3 9 10 10
REMARK H PARENT 10 11
REMARK Flexibility Score: inf
ROOT
ATOM      1  C   UNL     1      18.836  -4.424  28.209  1.00  0.00     0.039 A 
ATOM      2  C   UNL     1      18.472  -5.225  29.323  1.00  0.00     0.124 A 
ATOM      3  C   UNL     1      17.988  -3.370  27.823  1.00  0.00     0.014 A 
ATOM      4  C   UNL     1      17.315  -4.913  30.051  1.00  0.00     0.047 A 
ATOM      5  C   UNL     1      16.828  -3.085  28.547  1.00  0.00     0.001 A 
ATOM      6  C   UNL     1      16.498  -3.850  29.665  1.00  0.00     0.004 A 
ENDROOT
BRANCH   1   7
ATOM      7  C   UNL     1      20.091  -4.628  27.451  1.00  0.00     0.075 C 
ATOM      8  O   UNL     1      20.311  -5.710  26.844  1.00  0.00    -0.545 OA
ATOM      9  O   UNL     1      21.075  -3.646  27.458  1.00  0.00    -0.545 OA
ENDBRANCH   1   7
BRANCH   2  10
ATOM     10  O   UNL     1      19.202  -6.347  29.717  1.00  0.00    -0.507 OA
ATOM     11  H   UNL     1      19.512  -6.508  30.666  1.00  0.00     0.293 HD
ENDBRANCH   2  10
TORSDOF 2
ENDMDL
MODEL 6
REMARK VINA RESULT:    -4.591     12.536     13.446
REMARK INTER + INTRA:          -5.209
REMARK INTER:                  -4.988
REMARK INTRA:                  -0.221
REMARK UNBOUND:                -0.215
REMARK SMILES O=C([O-])c1ccccc1O
REMARK SMILES IDX 4 1 9 2 5 3 8 4 6 5 7 6 2 7 1 8 3 9 10 10
REMARK H PARENT 10 11
REMARK Flexibility Score: inf
ROOT
ATOM      1  C   UNL     1      16.096   2.494  25.666  1.00  0.00     0.039 A 
ATOM      2  C   UNL     1      15.997   1.675  24.512  1.00  0.00     0.124 A 
ATOM      3  C   UNL     1      17.296   3.186  25.909  1.00  0.00     0.014 A 
ATOM      4  C   UNL     1      17.067   1.621  23.608  1.00  0.00     0.047 A 
ATOM      5  C   UNL     1      18.362   3.105  25.009  1.00  0.00     0.001 A 
ATOM      6  C   UNL     1      18.243   2.331  23.855  1.00  0.00     0.004 A 
ENDROOT
BRANCH   1   7
ATOM      7  C   UNL     1      14.975   2.681  26.616  1.00  0.00     0.075 C 
ATOM      8  O   UNL     1      13.810   2.304  26.323  1.00  0.00    -0.545 OA
ATOM      9  O   UNL     1      15.187   3.342  27.820  1.00  0.00    -0.545 OA
ENDBRANCH   1   7
BRANCH   2  10
ATOM     10  O   UNL     1      14.881   0.880  24.243  1.00  0.00    -0.507 OA
ATOM     11  H   UNL     1      14.926   0.007  23.736  1.00  0.00     0.293 HD
ENDBRANCH   2  10
TORSDOF 2
ENDMDL
MODEL 7
REMARK VINA RESULT:    -4.489     11.529     11.930
REMARK INTER + INTRA:          -5.098
REMARK INTER:                  -4.883
REMARK INTRA:                  -0.215
REMARK UNBOUND:                -0.215
REMARK SMILES O=C([O-])c1ccccc1O
REMARK SMILES IDX 4 1 9 2 5 3 8 4 6 5 7 6 2 7 1 8 3 9 10 10
REMARK H PARENT 10 11
REMARK Flexibility Score: inf
ROOT
ATOM      1  C   UNL     1      20.245  -2.749  29.712  1.00  0.00     0.039 A 
ATOM      2  C   UNL     1      21.391  -1.987  30.054  1.00  0.00     0.124 A 
ATOM      3  C   UNL     1      19.188  -2.842  30.636  1.00  0.00     0.014 A 
ATOM      4  C   UNL     1      21.424  -1.295  31.272  1.00  0.00     0.047 A 
ATOM      5  C   UNL     1      19.245  -2.162  31.856  1.00  0.00     0.001 A 
ATOM      6  C   UNL     1      20.357  -1.382  32.168  1.00  0.00     0.004 A 
ENDROOT
BRANCH   1   7
ATOM      7  C   UNL     1      20.093  -3.428  28.405  1.00  0.00     0.075 C 
ATOM      8  O   UNL     1      21.074  -3.554  27.625  1.00  0.00    -0.545 OA
ATOM      9  O   UNL     1      18.843  -3.874  27.994  1.00  0.00    -0.545 OA
ENDBRANCH   1   7
BRANCH   2  10
ATOM     10  O   UNL     1      22.523  -1.918  29.240  1.00  0.00    -0.507 OA
ATOM     11  H   UNL     1      23.177  -2.681  29.125  1.00  0.00     0.293 HD
ENDBRANCH   2  10
TORSDOF 2
ENDMDL
MODEL 8
REMARK VINA RESULT:    -4.482     12.667     13.869
REMARK INTER + INTRA:          -5.090
REMARK INTER:                  -4.847
REMARK INTRA:                  -0.243
REMARK UNBOUND:                -0.215
REMARK SMILES O=C([O-])c1ccccc1O
REMARK SMILES IDX 4 1 9 2 5 3 8 4 6 5 7 6 2 7 1 8 3 9 10 10
REMARK H PARENT 10 11
REMARK Flexibility Score: inf
ROOT
ATOM      1  C   UNL     1      17.682   3.370  25.586  1.00  0.00     0.039 A 
ATOM      2  C   UNL     1      16.382   2.925  25.937  1.00  0.00     0.124 A 
ATOM      3  C   UNL     1      18.325   2.788  24.478  1.00  0.00     0.014 A 
ATOM      4  C   UNL     1      15.741   1.965  25.142  1.00  0.00     0.047 A 
ATOM      5  C   UNL     1      17.680   1.817  23.708  1.00  0.00     0.001 A 
ATOM      6  C   UNL     1      16.386   1.414  24.034  1.00  0.00     0.004 A 
ENDROOT
BRANCH   1   7
ATOM      7  C   UNL     1      18.385   4.450  26.317  1.00  0.00     0.075 C 
ATOM      8  O   UNL     1      18.507   4.409  27.569  1.00  0.00    -0.545 OA
ATOM      9  O   UNL     1      18.860   5.559  25.628  1.00  0.00    -0.545 OA
ENDBRANCH   1   7
BRANCH   2  10
ATOM     10  O   UNL     1      15.709   3.378  27.074  1.00  0.00    -0.507 OA
ATOM     11  H   UNL     1      14.925   2.894  27.489  1.00  0.00     0.293 HD
ENDBRANCH   2  10
TORSDOF 2
ENDMDL
MODEL 9
REMARK VINA RESULT:    -4.462     11.360     11.906
REMARK INTER + INTRA:          -5.069
REMARK INTER:                  -4.825
REMARK INTRA:                  -0.244
REMARK UNBOUND:                -0.215
REMARK SMILES O=C([O-])c1ccccc1O
REMARK SMILES IDX 4 1 9 2 5 3 8 4 6 5 7 6 2 7 1 8 3 9 10 10
REMARK H PARENT 10 11
REMARK Flexibility Score: inf
ROOT
ATOM      1  C   UNL     1      19.300  -3.750  29.556  1.00  0.00     0.039 A 
ATOM      2  C   UNL     1      18.028  -4.113  30.068  1.00  0.00     0.124 A 
ATOM      3  C   UNL     1      20.039  -2.751  30.215  1.00  0.00     0.014 A 
ATOM      4  C   UNL     1      17.562  -3.518  31.249  1.00  0.00     0.047 A 
ATOM      5  C   UNL     1      19.551  -2.153  31.379  1.00  0.00     0.001 A 
ATOM      6  C   UNL     1      18.319  -2.544  31.901  1.00  0.00     0.004 A 
ENDROOT
BRANCH   1   7
ATOM      7  C   UNL     1      19.904  -4.402  28.372  1.00  0.00     0.075 C 
ATOM      8  O   UNL     1      20.689  -3.771  27.616  1.00  0.00    -0.545 OA
ATOM      9  O   UNL     1      19.554  -5.707  28.042  1.00  0.00    -0.545 OA
ENDBRANCH   1   7
BRANCH   2  10
ATOM     10  O   UNL     1      17.187  -5.024  29.426  1.00  0.00    -0.507 OA
ATOM     11  H   UNL     1      16.384  -5.450  29.868  1.00  0.00     0.293 HD
ENDBRANCH   2  10
TORSDOF 2
ENDMDL
