MODEL 1
REMARK VINA RESULT:    -3.899      0.000      0.000
REMARK INTER + INTRA:          -9.239
REMARK INTER:                  -7.090
REMARK INTRA:                  -2.149
REMARK UNBOUND:                -2.149
REMARK SMILES CCCCCCCCCCCCCCCC(=O)[O-]
REMARK SMILES IDX 9 1 10 2 11 3 12 4 13 5 14 6 15 7 16 8 17 9 18 10 8 11 7 12
REMARK SMILES IDX 6 13 5 14 4 15 3 16 2 17 1 18
REMARK H PARENT
REMARK Flexibility Score: inf
ROOT
ATOM      1  C   UNL     1     -94.672  42.437  13.516  1.00  0.00     0.000 C 
ENDROOT
BRANCH   1   2
ATOM      2  C   UNL     1     -94.695  41.465  12.322  1.00  0.00     0.000 C 
BRANCH   2   3
ATOM      3  C   UNL     1     -93.854  41.904  11.106  1.00  0.00     0.000 C 
BRANCH   3   4
ATOM      4  C   UNL     1     -93.085  40.772  10.402  1.00  0.00     0.000 C 
BRANCH   4   5
ATOM      5  C   UNL     1     -92.174  39.986  11.355  1.00  0.00     0.000 C 
BRANCH   5   6
ATOM      6  C   UNL     1     -92.306  38.476  11.122  1.00  0.00     0.006 C 
BRANCH   6   7
ATOM      7  C   UNL     1     -93.245  38.181   9.948  1.00  0.00     0.053 C 
BRANCH   7   8
ATOM      8  C   UNL     1     -93.348  36.707   9.717  1.00  0.00     0.041 C 
ATOM      9  O   UNL     1     -92.758  35.902  10.484  1.00  0.00    -0.550 OA
ATOM     10  O   UNL     1     -94.134  36.220   8.681  1.00  0.00    -0.550 OA
ENDBRANCH   7   8
ENDBRANCH   6   7
ENDBRANCH   5   6
ENDBRANCH   4   5
ENDBRANCH   3   4
ENDBRANCH   2   3
ENDBRANCH   1   2
BRANCH   1  11
ATOM     11  C   UNL     1     -94.309  41.746  14.839  1.00  0.00     0.000 C 
BRANCH  11  12
ATOM     12  C   UNL     1     -92.854  42.035  15.228  1.00  0.00    -0.000 C 
BRANCH  12  13
ATOM     13  C   UNL     1     -92.092  40.733  15.516  1.00  0.00    -0.000 C 
BRANCH  13  14
ATOM     14  C   UNL     1     -92.725  39.514  14.829  1.00  0.00    -0.000 C 
BRANCH  14  15
ATOM     15  C   UNL     1     -93.292  38.496  15.834  1.00  0.00    -0.000 C 
BRANCH  15  16
ATOM     16  C   UNL     1     -94.469  37.691  15.260  1.00  0.00    -0.000 C 
BRANCH  16  17
ATOM     17  C   UNL     1     -94.868  38.152  13.851  1.00  0.00    -0.003 C 
ATOM     18  C   UNL     1     -95.201  36.962  12.957  1.00  0.00     0.004 C 
ENDBRANCH  16  17
ENDBRANCH  15  16
ENDBRANCH  14  15
ENDBRANCH  13  14
ENDBRANCH  12  13
ENDBRANCH  11  12
ENDBRANCH   1  11
TORSDOF 14
ENDMDL
MODEL 2
REMARK VINA RESULT:    -3.775      1.176      2.850
REMARK INTER + INTRA:          -9.013
REMARK INTER:                  -6.931
REMARK INTRA:                  -2.082
REMARK UNBOUND:                -2.149
REMARK SMILES CCCCCCCCCCCCCCCC(=O)[O-]
REMARK SMILES IDX 9 1 10 2 11 3 12 4 13 5 14 6 15 7 16 8 17 9 18 10 8 11 7 12
REMARK SMILES IDX 6 13 5 14 4 15 3 16 2 17 1 18
REMARK H PARENT
REMARK Flexibility Score: inf
ROOT
ATOM      1  C   UNL     1     -95.587  39.716  12.317  1.00  0.00     0.000 C 
ENDROOT
BRANCH   1   2
ATOM      2  C   UNL     1     -95.395  40.865  11.310  1.00  0.00     0.000 C 
BRANCH   2   3
ATOM      3  C   UNL     1     -93.982  41.482  11.283  1.00  0.00     0.000 C 
BRANCH   3   4
ATOM      4  C   UNL     1     -92.956  40.728  10.419  1.00  0.00     0.000 C 
BRANCH   4   5
ATOM      5  C   UNL     1     -91.987  39.876  11.250  1.00  0.00     0.000 C 
BRANCH   5   6
ATOM      6  C   UNL     1     -92.247  38.380  11.037  1.00  0.00     0.006 C 
BRANCH   6   7
ATOM      7  C   UNL     1     -93.036  38.138   9.747  1.00  0.00     0.053 C 
BRANCH   7   8
ATOM      8  C   UNL     1     -93.409  36.694   9.624  1.00  0.00     0.041 C 
ATOM      9  O   UNL     1     -94.094  36.298   8.645  1.00  0.00    -0.550 OA
ATOM     10  O   UNL     1     -92.961  35.778  10.567  1.00  0.00    -0.550 OA
ENDBRANCH   7   8
ENDBRANCH   6   7
ENDBRANCH   5   6
ENDBRANCH   4   5
ENDBRANCH   3   4
ENDBRANCH   2   3
ENDBRANCH   1   2
BRANCH   1  11
ATOM     11  C   UNL     1     -94.869  39.966  13.651  1.00  0.00     0.000 C 
BRANCH  11  12
ATOM     12  C   UNL     1     -94.163  38.696  14.142  1.00  0.00    -0.000 C 
BRANCH  12  13
ATOM     13  C   UNL     1     -93.107  39.031  15.207  1.00  0.00    -0.000 C 
BRANCH  13  14
ATOM     14  C   UNL     1     -92.027  39.991  14.686  1.00  0.00    -0.000 C 
BRANCH  14  15
ATOM     15  C   UNL     1     -91.956  41.297  15.497  1.00  0.00    -0.000 C 
BRANCH  15  16
ATOM     16  C   UNL     1     -92.403  41.112  16.956  1.00  0.00    -0.000 C 
BRANCH  16  17
ATOM     17  C   UNL     1     -93.403  42.185  17.408  1.00  0.00    -0.003 C 
ATOM     18  C   UNL     1     -94.838  41.758  17.116  1.00  0.00     0.004 C 
ENDBRANCH  16  17
ENDBRANCH  15  16
ENDBRANCH  14  15
ENDBRANCH  13  14
ENDBRANCH  12  13
ENDBRANCH  11  12
ENDBRANCH   1  11
TORSDOF 14
ENDMDL
MODEL 3
REMARK VINA RESULT:    -3.718      0.963      1.329
REMARK INTER + INTRA:          -8.909
REMARK INTER:                  -6.450
REMARK INTRA:                  -2.459
REMARK UNBOUND:                -2.149
REMARK SMILES CCCCCCCCCCCCCCCC(=O)[O-]
REMARK SMILES IDX 9 1 10 2 11 3 12 4 13 5 14 6 15 7 16 8 17 9 18 10 8 11 7 12
REMARK SMILES IDX 6 13 5 14 4 15 3 16 2 17 1 18
REMARK H PARENT
REMARK Flexibility Score: inf
ROOT
ATOM      1  C   UNL     1     -95.462  41.465  13.528  1.00  0.00     0.000 C 
ENDROOT
BRANCH   1   2
ATOM      2  C   UNL     1     -95.075  40.888  12.153  1.00  0.00     0.000 C 
BRANCH   2   3
ATOM      3  C   UNL     1     -94.280  41.845  11.243  1.00  0.00     0.000 C 
BRANCH   3   4
ATOM      4  C   UNL     1     -93.167  41.182  10.412  1.00  0.00     0.000 C 
BRANCH   4   5
ATOM      5  C   UNL     1     -92.394  40.112  11.196  1.00  0.00     0.000 C 
BRANCH   5   6
ATOM      6  C   UNL     1     -92.251  38.825  10.375  1.00  0.00     0.006 C 
BRANCH   6   7
ATOM      7  C   UNL     1     -93.156  37.719  10.924  1.00  0.00     0.053 C 
BRANCH   7   8
ATOM      8  C   UNL     1     -94.262  37.422   9.962  1.00  0.00     0.041 C 
ATOM      9  O   UNL     1     -95.275  38.167   9.910  1.00  0.00    -0.550 OA
ATOM     10  O   UNL     1     -94.153  36.347   9.089  1.00  0.00    -0.550 OA
ENDBRANCH   7   8
ENDBRANCH   6   7
ENDBRANCH   5   6
ENDBRANCH   4   5
ENDBRANCH   3   4
ENDBRANCH   2   3
ENDBRANCH   1   2
BRANCH   1  11
ATOM     11  C   UNL     1     -94.499  42.561  14.007  1.00  0.00     0.000 C 
BRANCH  11  12
ATOM     12  C   UNL     1     -93.955  42.241  15.405  1.00  0.00    -0.000 C 
BRANCH  12  13
ATOM     13  C   UNL     1     -92.421  42.152  15.392  1.00  0.00    -0.000 C 
BRANCH  13  14
ATOM     14  C   UNL     1     -91.913  40.753  15.012  1.00  0.00    -0.000 C 
BRANCH  14  15
ATOM     15  C   UNL     1     -92.784  39.628  15.599  1.00  0.00    -0.000 C 
BRANCH  15  16
ATOM     16  C   UNL     1     -93.290  38.651  14.527  1.00  0.00    -0.000 C 
BRANCH  16  17
ATOM     17  C   UNL     1     -94.512  37.845  14.990  1.00  0.00    -0.003 C 
ATOM     18  C   UNL     1     -95.394  37.457  13.808  1.00  0.00     0.004 C 
ENDBRANCH  16  17
ENDBRANCH  15  16
ENDBRANCH  14  15
ENDBRANCH  13  14
ENDBRANCH  12  13
ENDBRANCH  11  12
ENDBRANCH   1  11
TORSDOF 14
ENDMDL
MODEL 4
REMARK VINA RESULT:    -3.684      3.448      5.761
REMARK INTER + INTRA:          -8.848
REMARK INTER:                  -6.638
REMARK INTRA:                  -2.210
REMARK UNBOUND:                -2.149
REMARK SMILES CCCCCCCCCCCCCCCC(=O)[O-]
REMARK SMILES IDX 9 1 10 2 11 3 12 4 13 5 14 6 15 7 16 8 17 9 18 10 8 11 7 12
REMARK SMILES IDX 6 13 5 14 4 15 3 16 2 17 1 18
REMARK H PARENT
REMARK Flexibility Score: inf
ROOT
ATOM      1  C   UNL     1     -95.168  40.309  12.400  1.00  0.00     0.000 C 
ENDROOT
BRANCH   1   2
ATOM      2  C   UNL     1     -94.954  39.952  13.882  1.00  0.00     0.000 C 
BRANCH   2   3
ATOM      3  C   UNL     1     -93.915  38.843  14.145  1.00  0.00     0.000 C 
BRANCH   3   4
ATOM      4  C   UNL     1     -92.820  39.201  15.165  1.00  0.00     0.000 C 
BRANCH   4   5
ATOM      5  C   UNL     1     -91.923  40.355  14.696  1.00  0.00     0.000 C 
BRANCH   5   6
ATOM      6  C   UNL     1     -92.091  41.584  15.598  1.00  0.00     0.006 C 
BRANCH   6   7
ATOM      7  C   UNL     1     -92.510  41.175  17.013  1.00  0.00     0.053 C 
BRANCH   7   8
ATOM      8  C   UNL     1     -93.734  41.924  17.434  1.00  0.00     0.041 C 
ATOM      9  O   UNL     1     -93.828  42.377  18.605  1.00  0.00    -0.550 OA
ATOM     10  O   UNL     1     -94.752  42.164  16.520  1.00  0.00    -0.550 OA
ENDBRANCH   7   8
ENDBRANCH   6   7
ENDBRANCH   5   6
ENDBRANCH   4   5
ENDBRANCH   3   4
ENDBRANCH   2   3
ENDBRANCH   1   2
BRANCH   1  11
ATOM     11  C   UNL     1     -94.126  41.304  11.869  1.00  0.00     0.000 C 
BRANCH  11  12
ATOM     12  C   UNL     1     -93.389  40.731  10.652  1.00  0.00    -0.000 C 
BRANCH  12  13
ATOM     13  C   UNL     1     -92.106  40.002  11.079  1.00  0.00    -0.000 C 
BRANCH  13  14
ATOM     14  C   UNL     1     -92.253  38.474  11.036  1.00  0.00    -0.000 C 
BRANCH  14  15
ATOM     15  C   UNL     1     -92.764  37.967   9.676  1.00  0.00    -0.000 C 
BRANCH  15  16
ATOM     16  C   UNL     1     -94.093  37.204   9.792  1.00  0.00    -0.000 C 
BRANCH  16  17
ATOM     17  C   UNL     1     -94.407  36.780  11.234  1.00  0.00    -0.003 C 
ATOM     18  C   UNL     1     -95.809  36.189  11.339  1.00  0.00     0.004 C 
ENDBRANCH  16  17
ENDBRANCH  15  16
ENDBRANCH  14  15
ENDBRANCH  13  14
ENDBRANCH  12  13
ENDBRANCH  11  12
ENDBRANCH   1  11
TORSDOF 14
ENDMDL
MODEL 5
REMARK VINA RESULT:    -3.681      3.212      5.984
REMARK INTER + INTRA:          -8.842
REMARK INTER:                  -6.360
REMARK INTRA:                  -2.482
REMARK UNBOUND:                -2.149
REMARK SMILES CCCCCCCCCCCCCCCC(=O)[O-]
REMARK SMILES IDX 9 1 10 2 11 3 12 4 13 5 14 6 15 7 16 8 17 9 18 10 8 11 7 12
REMARK SMILES IDX 6 13 5 14 4 15 3 16 2 17 1 18
REMARK H PARENT
REMARK Flexibility Score: inf
ROOT
ATOM      1  C   UNL     1     -94.181  36.389  11.338  1.00  0.00     0.000 C 
ENDROOT
BRANCH   1   2
ATOM      2  C   UNL     1     -95.275  36.757  12.358  1.00  0.00     0.000 C 
BRANCH   2   3
ATOM      3  C   UNL     1     -94.800  37.622  13.543  1.00  0.00     0.000 C 
BRANCH   3   4
ATOM      4  C   UNL     1     -95.284  39.082  13.521  1.00  0.00     0.000 C 
BRANCH   4   5
ATOM      5  C   UNL     1     -94.191  40.080  13.927  1.00  0.00     0.000 C 
BRANCH   5   6
ATOM      6  C   UNL     1     -93.004  39.359  14.578  1.00  0.00     0.006 C 
BRANCH   6   7
ATOM      7  C   UNL     1     -91.875  40.342  14.903  1.00  0.00     0.053 C 
BRANCH   7   8
ATOM      8  C   UNL     1     -92.309  41.309  15.959  1.00  0.00     0.041 C 
ATOM      9  O   UNL     1     -92.258  42.548  15.743  1.00  0.00    -0.550 OA
ATOM     10  O   UNL     1     -92.815  40.840  17.164  1.00  0.00    -0.550 OA
ENDBRANCH   7   8
ENDBRANCH   6   7
ENDBRANCH   5   6
ENDBRANCH   4   5
ENDBRANCH   3   4
ENDBRANCH   2   3
ENDBRANCH   1   2
BRANCH   1  11
ATOM     11  C   UNL     1     -94.295  37.183  10.029  1.00  0.00     0.000 C 
BRANCH  11  12
ATOM     12  C   UNL     1     -92.992  37.933   9.726  1.00  0.00    -0.000 C 
BRANCH  12  13
ATOM     13  C   UNL     1     -92.332  38.432  11.019  1.00  0.00    -0.000 C 
BRANCH  13  14
ATOM     14  C   UNL     1     -92.140  39.957  11.035  1.00  0.00    -0.000 C 
BRANCH  14  15
ATOM     15  C   UNL     1     -93.090  40.682  10.065  1.00  0.00    -0.000 C 
BRANCH  15  16
ATOM     16  C   UNL     1     -93.799  41.879  10.717  1.00  0.00    -0.000 C 
BRANCH  16  17
ATOM     17  C   UNL     1     -95.314  41.873  10.471  1.00  0.00    -0.003 C 
ATOM     18  C   UNL     1     -95.807  40.474  10.112  1.00  0.00     0.004 C 
ENDBRANCH  16  17
ENDBRANCH  15  16
ENDBRANCH  14  15
ENDBRANCH  13  14
ENDBRANCH  12  13
ENDBRANCH  11  12
ENDBRANCH   1  11
TORSDOF 14
ENDMDL
MODEL 6
REMARK VINA RESULT:    -3.626      2.414      4.658
REMARK INTER + INTRA:          -8.743
REMARK INTER:                  -6.108
REMARK INTRA:                  -2.634
REMARK UNBOUND:                -2.149
REMARK SMILES CCCCCCCCCCCCCCCC(=O)[O-]
REMARK SMILES IDX 9 1 10 2 11 3 12 4 13 5 14 6 15 7 16 8 17 9 18 10 8 11 7 12
REMARK SMILES IDX 6 13 5 14 4 15 3 16 2 17 1 18
REMARK H PARENT
REMARK Flexibility Score: inf
ROOT
ATOM      1  C   UNL     1     -94.852  42.260  12.706  1.00  0.00     0.000 C 
ENDROOT
BRANCH   1   2
ATOM      2  C   UNL     1     -94.738  41.164  13.782  1.00  0.00     0.000 C 
BRANCH   2   3
ATOM      3  C   UNL     1     -93.780  41.488  14.946  1.00  0.00     0.000 C 
BRANCH   3   4
ATOM      4  C   UNL     1     -92.441  40.730  14.920  1.00  0.00     0.000 C 
BRANCH   4   5
ATOM      5  C   UNL     1     -92.617  39.206  14.914  1.00  0.00     0.000 C 
BRANCH   5   6
ATOM      6  C   UNL     1     -93.352  38.733  16.174  1.00  0.00     0.006 C 
BRANCH   6   7
ATOM      7  C   UNL     1     -94.162  37.464  15.895  1.00  0.00     0.053 C 
BRANCH   7   8
ATOM      8  C   UNL     1     -95.615  37.791  15.752  1.00  0.00     0.041 C 
ATOM      9  O   UNL     1     -96.392  36.986  15.175  1.00  0.00    -0.550 OA
ATOM     10  O   UNL     1     -96.120  38.964  16.297  1.00  0.00    -0.550 OA
ENDBRANCH   7   8
ENDBRANCH   6   7
ENDBRANCH   5   6
ENDBRANCH   4   5
ENDBRANCH   3   4
ENDBRANCH   2   3
ENDBRANCH   1   2
BRANCH   1  11
ATOM     11  C   UNL     1     -94.977  41.690  11.286  1.00  0.00     0.000 C 
BRANCH  11  12
ATOM     12  C   UNL     1     -93.690  41.922  10.485  1.00  0.00    -0.000 C 
BRANCH  12  13
ATOM     13  C   UNL     1     -93.029  40.588  10.107  1.00  0.00    -0.000 C 
BRANCH  13  14
ATOM     14  C   UNL     1     -92.116  40.045  11.218  1.00  0.00    -0.000 C 
BRANCH  14  15
ATOM     15  C   UNL     1     -92.263  38.526  11.413  1.00  0.00    -0.000 C 
BRANCH  15  16
ATOM     16  C   UNL     1     -93.643  38.006  10.985  1.00  0.00    -0.000 C 
BRANCH  16  17
ATOM     17  C   UNL     1     -94.604  37.833  12.170  1.00  0.00    -0.003 C 
ATOM     18  C   UNL     1     -96.036  38.176  11.771  1.00  0.00     0.004 C 
ENDBRANCH  16  17
ENDBRANCH  15  16
ENDBRANCH  14  15
ENDBRANCH  13  14
ENDBRANCH  12  13
ENDBRANCH  11  12
ENDBRANCH   1  11
TORSDOF 14
ENDMDL
MODEL 7
REMARK VINA RESULT:    -3.623      3.433      5.651
REMARK INTER + INTRA:          -8.737
REMARK INTER:                  -6.415
REMARK INTRA:                  -2.323
REMARK UNBOUND:                -2.149
REMARK SMILES CCCCCCCCCCCCCCCC(=O)[O-]
REMARK SMILES IDX 9 1 10 2 11 3 12 4 13 5 14 6 15 7 16 8 17 9 18 10 8 11 7 12
REMARK SMILES IDX 6 13 5 14 4 15 3 16 2 17 1 18
REMARK H PARENT
REMARK Flexibility Score: inf
ROOT
ATOM      1  C   UNL     1     -93.000  40.549  10.230  1.00  0.00     0.000 C 
ENDROOT
BRANCH   1   2
ATOM      2  C   UNL     1     -93.705  41.846  10.668  1.00  0.00     0.000 C 
BRANCH   2   3
ATOM      3  C   UNL     1     -95.209  41.701  10.976  1.00  0.00     0.000 C 
BRANCH   3   4
ATOM      4  C   UNL     1     -95.555  41.510  12.463  1.00  0.00     0.000 C 
BRANCH   4   5
ATOM      5  C   UNL     1     -94.455  42.022  13.403  1.00  0.00     0.000 C 
BRANCH   5   6
ATOM      6  C   UNL     1     -94.186  41.019  14.532  1.00  0.00     0.006 C 
BRANCH   6   7
ATOM      7  C   UNL     1     -92.686  40.904  14.818  1.00  0.00     0.053 C 
BRANCH   7   8
ATOM      8  C   UNL     1     -92.301  41.791  15.960  1.00  0.00     0.041 C 
ATOM      9  O   UNL     1     -92.047  43.008  15.759  1.00  0.00    -0.550 OA
ATOM     10  O   UNL     1     -92.269  41.285  17.253  1.00  0.00    -0.550 OA
ENDBRANCH   7   8
ENDBRANCH   6   7
ENDBRANCH   5   6
ENDBRANCH   4   5
ENDBRANCH   3   4
ENDBRANCH   2   3
ENDBRANCH   1   2
BRANCH   1  11
ATOM     11  C   UNL     1     -92.018  40.019  11.286  1.00  0.00     0.000 C 
BRANCH  11  12
ATOM     12  C   UNL     1     -92.292  38.542  11.599  1.00  0.00    -0.000 C 
BRANCH  12  13
ATOM     13  C   UNL     1     -93.750  38.334  12.036  1.00  0.00    -0.000 C 
BRANCH  13  14
ATOM     14  C   UNL     1     -94.411  37.136  11.338  1.00  0.00    -0.000 C 
BRANCH  14  15
ATOM     15  C   UNL     1     -93.425  36.343  10.463  1.00  0.00    -0.000 C 
BRANCH  15  16
ATOM     16  C   UNL     1     -93.852  36.291   8.988  1.00  0.00    -0.000 C 
BRANCH  16  17
ATOM     17  C   UNL     1     -93.372  37.513   8.191  1.00  0.00    -0.003 C 
ATOM     18  C   UNL     1     -94.546  38.399   7.784  1.00  0.00     0.004 C 
ENDBRANCH  16  17
ENDBRANCH  15  16
ENDBRANCH  14  15
ENDBRANCH  13  14
ENDBRANCH  12  13
ENDBRANCH  11  12
ENDBRANCH   1  11
TORSDOF 14
ENDMDL
MODEL 8
REMARK VINA RESULT:    -3.585      3.251      5.141
REMARK INTER + INTRA:          -8.668
REMARK INTER:                  -6.193
REMARK INTRA:                  -2.475
REMARK UNBOUND:                -2.149
REMARK SMILES CCCCCCCCCCCCCCCC(=O)[O-]
REMARK SMILES IDX 9 1 10 2 11 3 12 4 13 5 14 6 15 7 16 8 17 9 18 10 8 11 7 12
REMARK SMILES IDX 6 13 5 14 4 15 3 16 2 17 1 18
REMARK H PARENT
REMARK Flexibility Score: inf
ROOT
ATOM      1  C   UNL     1     -94.471  42.178  12.543  1.00  0.00     0.000 C 
ENDROOT
BRANCH   1   2
ATOM      2  C   UNL     1     -95.468  41.581  13.553  1.00  0.00     0.000 C 
BRANCH   2   3
ATOM      3  C   UNL     1     -95.681  40.058  13.440  1.00  0.00     0.000 C 
BRANCH   3   4
ATOM      4  C   UNL     1     -95.069  39.226  14.581  1.00  0.00     0.000 C 
BRANCH   4   5
ATOM      5  C   UNL     1     -93.618  38.809  14.303  1.00  0.00     0.000 C 
BRANCH   5   6
ATOM      6  C   UNL     1     -92.678  39.328  15.398  1.00  0.00     0.006 C 
BRANCH   6   7
ATOM      7  C   UNL     1     -92.011  40.640  14.974  1.00  0.00     0.053 C 
BRANCH   7   8
ATOM      8  C   UNL     1     -92.458  41.763  15.855  1.00  0.00     0.041 C 
ATOM      9  O   UNL     1     -92.154  42.951  15.571  1.00  0.00    -0.550 OA
ATOM     10  O   UNL     1     -93.251  41.503  16.965  1.00  0.00    -0.550 OA
ENDBRANCH   7   8
ENDBRANCH   6   7
ENDBRANCH   5   6
ENDBRANCH   4   5
ENDBRANCH   3   4
ENDBRANCH   2   3
ENDBRANCH   1   2
BRANCH   1  11
ATOM     11  C   UNL     1     -94.747  41.735  11.099  1.00  0.00     0.000 C 
BRANCH  11  12
ATOM     12  C   UNL     1     -93.439  41.437  10.356  1.00  0.00    -0.000 C 
BRANCH  12  13
ATOM     13  C   UNL     1     -92.622  40.362  11.089  1.00  0.00    -0.000 C 
BRANCH  13  14
ATOM     14  C   UNL     1     -92.355  39.126  10.217  1.00  0.00    -0.000 C 
BRANCH  14  15
ATOM     15  C   UNL     1     -92.829  37.821  10.881  1.00  0.00    -0.000 C 
BRANCH  15  16
ATOM     16  C   UNL     1     -94.360  37.699  10.919  1.00  0.00    -0.000 C 
BRANCH  16  17
ATOM     17  C   UNL     1     -94.831  36.320  11.401  1.00  0.00    -0.003 C 
ATOM     18  C   UNL     1     -96.062  36.441  12.295  1.00  0.00     0.004 C 
ENDBRANCH  16  17
ENDBRANCH  15  16
ENDBRANCH  14  15
ENDBRANCH  13  14
ENDBRANCH  12  13
ENDBRANCH  11  12
ENDBRANCH   1  11
TORSDOF 14
ENDMDL
MODEL 9
REMARK VINA RESULT:    -3.533      1.168      2.854
REMARK INTER + INTRA:          -8.573
REMARK INTER:                  -6.418
REMARK INTRA:                  -2.155
REMARK UNBOUND:                -2.149
REMARK SMILES CCCCCCCCCCCCCCCC(=O)[O-]
REMARK SMILES IDX 9 1 10 2 11 3 12 4 13 5 14 6 15 7 16 8 17 9 18 10 8 11 7 12
REMARK SMILES IDX 6 13 5 14 4 15 3 16 2 17 1 18
REMARK H PARENT
REMARK Flexibility Score: inf
ROOT
ATOM      1  C   UNL     1     -94.372  41.536  11.996  1.00  0.00     0.000 C 
ENDROOT
BRANCH   1   2
ATOM      2  C   UNL     1     -93.894  41.791  10.554  1.00  0.00     0.000 C 
BRANCH   2   3
ATOM      3  C   UNL     1     -92.945  40.719   9.981  1.00  0.00     0.000 C 
BRANCH   3   4
ATOM      4  C   UNL     1     -92.049  40.018  11.017  1.00  0.00     0.000 C 
BRANCH   4   5
ATOM      5  C   UNL     1     -92.152  38.488  10.957  1.00  0.00     0.000 C 
BRANCH   5   6
ATOM      6  C   UNL     1     -93.071  38.043   9.814  1.00  0.00     0.006 C 
BRANCH   6   7
ATOM      7  C   UNL     1     -93.361  36.542   9.893  1.00  0.00     0.053 C 
BRANCH   7   8
ATOM      8  C   UNL     1     -94.583  36.286  10.717  1.00  0.00     0.041 C 
ATOM      9  O   UNL     1     -94.520  35.540  11.729  1.00  0.00    -0.550 OA
ATOM     10  O   UNL     1     -95.781  36.909  10.394  1.00  0.00    -0.550 OA
ENDBRANCH   7   8
ENDBRANCH   6   7
ENDBRANCH   5   6
ENDBRANCH   4   5
ENDBRANCH   3   4
ENDBRANCH   2   3
ENDBRANCH   1   2
BRANCH   1  11
ATOM     11  C   UNL     1     -95.847  41.114  12.069  1.00  0.00     0.000 C 
BRANCH  11  12
ATOM     12  C   UNL     1     -95.996  39.756  12.766  1.00  0.00    -0.000 C 
BRANCH  12  13
ATOM     13  C   UNL     1     -94.622  39.167  13.122  1.00  0.00    -0.000 C 
BRANCH  13  14
ATOM     14  C   UNL     1     -94.620  38.453  14.482  1.00  0.00    -0.000 C 
BRANCH  14  15
ATOM     15  C   UNL     1     -93.461  38.907  15.387  1.00  0.00    -0.000 C 
BRANCH  15  16
ATOM     16  C   UNL     1     -92.325  39.578  14.600  1.00  0.00    -0.000 C 
BRANCH  16  17
ATOM     17  C   UNL     1     -91.881  40.909  15.223  1.00  0.00    -0.003 C 
ATOM     18  C   UNL     1     -93.065  41.854  15.401  1.00  0.00     0.004 C 
ENDBRANCH  16  17
ENDBRANCH  15  16
ENDBRANCH  14  15
ENDBRANCH  13  14
ENDBRANCH  12  13
ENDBRANCH  11  12
ENDBRANCH   1  11
TORSDOF 14
ENDMDL
