MODEL 1
REMARK VINA RESULT:    -7.115      0.000      0.000
REMARK INTER + INTRA:         -11.219
REMARK INTER:                  -9.818
REMARK INTRA:                  -1.401
REMARK UNBOUND:                -1.401
REMARK SMILES C=C(CC[C@H](C(=O)[O-])[C@H]1CC[C@@]2(C)C3=C(CC[C@@]12C)[C@@]1(C)CC[C@H](O)C(C)(C)[C@@H]1CC3)C(C)C
REMARK SMILES IDX 4 1 5 2 6 3 7 4 8 5 9 6 10 7 18 8 11 9 12 10 17 11 19 12
REMARK SMILES IDX 13 13 14 14 16 15 15 16 31 17 20 18 30 19 29 20 22 21 21 22
REMARK SMILES IDX 26 23 23 24 24 25 27 26 28 27 25 28 3 30 2 31 1 32 32 33
REMARK SMILES IDX 33 34 34 35
REMARK H PARENT 25 29
REMARK Flexibility Score: inf
ROOT
ATOM      1  C   UNL     1     175.503 173.929 151.873  1.00  0.00     0.014 C 
ENDROOT
BRANCH   1   2
ATOM      2  C   UNL     1     176.062 173.691 153.315  1.00  0.00     0.039 C 
BRANCH   2   3
ATOM      3  C   UNL     1     177.095 172.591 153.359  1.00  0.00     0.045 C 
ATOM      4  O   UNL     1     178.089 172.700 154.123  1.00  0.00    -0.550 OA
ATOM      5  O   UNL     1     176.947 171.430 152.608  1.00  0.00    -0.550 OA
ENDBRANCH   2   3
BRANCH   2   6
ATOM      6  C   UNL     1     175.008 173.544 154.469  1.00  0.00     0.004 C 
ATOM      7  C   UNL     1     175.027 172.161 155.124  1.00  0.00     0.006 C 
ATOM      8  C   UNL     1     174.871 174.602 155.623  1.00  0.00    -0.020 C 
ATOM      9  C   UNL     1     174.383 172.301 156.497  1.00  0.00     0.012 C 
ATOM     10  C   UNL     1     174.057 173.803 156.738  1.00  0.00    -0.006 C 
ATOM     11  C   UNL     1     176.240 175.128 156.166  1.00  0.00     0.012 C 
ATOM     12  C   UNL     1     174.107 175.864 155.110  1.00  0.00     0.012 C 
ATOM     13  C   UNL     1     172.517 173.966 156.539  1.00  0.00     0.017 C 
ATOM     14  C   UNL     1     174.490 174.170 158.187  1.00  0.00    -0.064 C 
ATOM     15  C   UNL     1     176.795 174.282 157.302  1.00  0.00     0.032 C 
ATOM     16  C   UNL     1     175.819 174.333 158.468  1.00  0.00    -0.064 C 
ATOM     17  C   UNL     1     173.509 174.000 159.343  1.00  0.00     0.032 C 
ATOM     18  C   UNL     1     176.301 174.465 159.937  1.00  0.00    -0.008 C 
ATOM     19  C   UNL     1     173.819 174.837 160.597  1.00  0.00     0.009 C 
ATOM     20  C   UNL     1     175.266 175.385 160.679  1.00  0.00     0.007 C 
ATOM     21  C   UNL     1     177.707 175.137 160.009  1.00  0.00     0.014 C 
ATOM     22  C   UNL     1     176.388 173.022 160.514  1.00  0.00     0.016 C 
ATOM     23  C   UNL     1     175.681 175.900 162.120  1.00  0.00    -0.006 C 
ATOM     24  C   UNL     1     178.125 175.575 161.417  1.00  0.00     0.033 C 
ATOM     25  C   UNL     1     177.101 176.537 162.029  1.00  0.00     0.120 C 
ATOM     26  C   UNL     1     175.641 174.800 163.218  1.00  0.00     0.014 C 
ATOM     27  C   UNL     1     174.698 177.018 162.563  1.00  0.00     0.014 C 
BRANCH  25  28
ATOM     28  O   UNL     1     177.548 176.940 163.301  1.00  0.00    -0.393 OA
ATOM     29  H   UNL     1     178.418 176.489 163.460  1.00  0.00     0.210 HD
ENDBRANCH  25  28
ENDBRANCH   2   6
ENDBRANCH   1   2
BRANCH   1  30
ATOM     30  C   UNL     1     175.772 175.348 151.338  1.00  0.00     0.031 C 
BRANCH  30  31
ATOM     31  C   UNL     1     174.506 176.162 151.159  1.00  0.00    -0.075 C 
ATOM     32  C   UNL     1     173.381 175.548 150.744  1.00  0.00     0.008 C 
BRANCH  31  33
ATOM     33  C   UNL     1     174.495 177.638 151.534  1.00  0.00     0.008 C 
ATOM     34  C   UNL     1     173.196 178.035 152.249  1.00  0.00     0.012 C 
ATOM     35  C   UNL     1     175.719 177.999 152.386  1.00  0.00     0.012 C 
ENDBRANCH  31  33
ENDBRANCH  30  31
ENDBRANCH   1  30
TORSDOF 7
ENDMDL
MODEL 2
REMARK VINA RESULT:    -6.731      6.537      9.860
REMARK INTER + INTRA:         -10.689
REMARK INTER:                  -8.735
REMARK INTRA:                  -1.954
REMARK UNBOUND:                -1.401
REMARK SMILES C=C(CC[C@H](C(=O)[O-])[C@H]1CC[C@@]2(C)C3=C(CC[C@@]12C)[C@@]1(C)CC[C@H](O)C(C)(C)[C@@H]1CC3)C(C)C
REMARK SMILES IDX 4 1 5 2 6 3 7 4 8 5 9 6 10 7 18 8 11 9 12 10 17 11 19 12
REMARK SMILES IDX 13 13 14 14 16 15 15 16 31 17 20 18 30 19 29 20 22 21 21 22
REMARK SMILES IDX 26 23 23 24 24 25 27 26 28 27 25 28 3 30 2 31 1 32 32 33
REMARK SMILES IDX 33 34 34 35
REMARK H PARENT 25 29
REMARK Flexibility Score: inf
ROOT
ATOM      1  C   UNL     1     164.243 173.896 151.906  1.00  0.00     0.014 C 
ENDROOT
BRANCH   1   2
ATOM      2  C   UNL     1     165.650 174.016 152.580  1.00  0.00     0.039 C 
BRANCH   2   3
ATOM      3  C   UNL     1     165.594 173.798 154.074  1.00  0.00     0.045 C 
ATOM      4  O   UNL     1     164.569 174.145 154.716  1.00  0.00    -0.550 OA
ATOM      5  O   UNL     1     166.634 173.173 154.752  1.00  0.00    -0.550 OA
ENDBRANCH   2   3
BRANCH   2   6
ATOM      6  C   UNL     1     166.507 175.278 152.210  1.00  0.00     0.004 C 
ATOM      7  C   UNL     1     166.651 176.265 153.371  1.00  0.00     0.006 C 
ATOM      8  C   UNL     1     167.914 175.165 151.520  1.00  0.00    -0.020 C 
ATOM      9  C   UNL     1     167.873 177.128 153.083  1.00  0.00     0.012 C 
ATOM     10  C   UNL     1     168.553 176.603 151.786  1.00  0.00    -0.006 C 
ATOM     11  C   UNL     1     168.809 174.016 152.089  1.00  0.00     0.012 C 
ATOM     12  C   UNL     1     167.746 174.856 149.999  1.00  0.00     0.012 C 
ATOM     13  C   UNL     1     168.184 177.606 150.648  1.00  0.00     0.017 C 
ATOM     14  C   UNL     1     170.089 176.550 152.028  1.00  0.00    -0.064 C 
ATOM     15  C   UNL     1     169.664 174.454 153.268  1.00  0.00     0.032 C 
ATOM     16  C   UNL     1     170.612 175.549 152.801  1.00  0.00    -0.064 C 
ATOM     17  C   UNL     1     170.952 177.770 151.723  1.00  0.00     0.032 C 
ATOM     18  C   UNL     1     172.095 175.599 153.254  1.00  0.00    -0.008 C 
ATOM     19  C   UNL     1     172.447 177.479 151.500  1.00  0.00     0.009 C 
ATOM     20  C   UNL     1     172.934 176.105 152.026  1.00  0.00     0.007 C 
ATOM     21  C   UNL     1     172.608 174.182 153.658  1.00  0.00     0.014 C 
ATOM     22  C   UNL     1     172.157 176.543 154.490  1.00  0.00     0.016 C 
ATOM     23  C   UNL     1     174.510 175.980 152.143  1.00  0.00    -0.006 C 
ATOM     24  C   UNL     1     174.127 174.087 153.830  1.00  0.00     0.033 C 
ATOM     25  C   UNL     1     174.862 174.518 152.556  1.00  0.00     0.120 C 
ATOM     26  C   UNL     1     175.151 176.998 153.128  1.00  0.00     0.014 C 
ATOM     27  C   UNL     1     175.146 176.235 150.750  1.00  0.00     0.014 C 
BRANCH  25  28
ATOM     28  O   UNL     1     176.248 174.375 152.750  1.00  0.00    -0.393 OA
ATOM     29  H   UNL     1     176.376 173.976 153.650  1.00  0.00     0.210 HD
ENDBRANCH  25  28
ENDBRANCH   2   6
ENDBRANCH   1   2
BRANCH   1  30
ATOM     30  C   UNL     1     164.010 174.928 150.786  1.00  0.00     0.031 C 
BRANCH  30  31
ATOM     31  C   UNL     1     162.870 175.881 151.089  1.00  0.00    -0.075 C 
ATOM     32  C   UNL     1     161.609 175.410 151.125  1.00  0.00     0.008 C 
BRANCH  31  33
ATOM     33  C   UNL     1     163.170 177.333 151.438  1.00  0.00     0.008 C 
ATOM     34  C   UNL     1     163.239 177.553 152.956  1.00  0.00     0.012 C 
ATOM     35  C   UNL     1     164.462 177.808 150.759  1.00  0.00     0.012 C 
ENDBRANCH  31  33
ENDBRANCH  30  31
ENDBRANCH   1  30
TORSDOF 7
ENDMDL
MODEL 3
REMARK VINA RESULT:    -6.664      8.236     11.550
REMARK INTER + INTRA:         -10.597
REMARK INTER:                  -9.343
REMARK INTRA:                  -1.254
REMARK UNBOUND:                -1.401
REMARK SMILES C=C(CC[C@H](C(=O)[O-])[C@H]1CC[C@@]2(C)C3=C(CC[C@@]12C)[C@@]1(C)CC[C@H](O)C(C)(C)[C@@H]1CC3)C(C)C
REMARK SMILES IDX 4 1 5 2 6 3 7 4 8 5 9 6 10 7 18 8 11 9 12 10 17 11 19 12
REMARK SMILES IDX 13 13 14 14 16 15 15 16 31 17 20 18 30 19 29 20 22 21 21 22
REMARK SMILES IDX 26 23 23 24 24 25 27 26 28 27 25 28 3 30 2 31 1 32 32 33
REMARK SMILES IDX 33 34 34 35
REMARK H PARENT 25 29
REMARK Flexibility Score: inf
ROOT
ATOM      1  C   UNL     1     171.474 174.866 152.682  1.00  0.00     0.014 C 
ENDROOT
BRANCH   1   2
ATOM      2  C   UNL     1     169.979 174.416 152.778  1.00  0.00     0.039 C 
BRANCH   2   3
ATOM      3  C   UNL     1     169.817 172.921 152.641  1.00  0.00     0.045 C 
ATOM      4  O   UNL     1     168.882 172.337 153.248  1.00  0.00    -0.550 OA
ATOM      5  O   UNL     1     170.651 172.176 151.814  1.00  0.00    -0.550 OA
ENDBRANCH   2   3
BRANCH   2   6
ATOM      6  C   UNL     1     168.945 175.196 151.890  1.00  0.00     0.004 C 
ATOM      7  C   UNL     1     168.365 174.343 150.759  1.00  0.00     0.006 C 
ATOM      8  C   UNL     1     167.757 176.017 152.509  1.00  0.00    -0.020 C 
ATOM      9  C   UNL     1     167.058 174.994 150.326  1.00  0.00     0.012 C 
ATOM     10  C   UNL     1     166.772 176.200 151.267  1.00  0.00    -0.006 C 
ATOM     11  C   UNL     1     167.053 175.305 153.710  1.00  0.00     0.012 C 
ATOM     12  C   UNL     1     168.276 177.379 153.068  1.00  0.00     0.012 C 
ATOM     13  C   UNL     1     167.115 177.491 150.459  1.00  0.00     0.017 C 
ATOM     14  C   UNL     1     165.270 176.158 151.671  1.00  0.00    -0.064 C 
ATOM     15  C   UNL     1     165.913 174.394 153.279  1.00  0.00     0.032 C 
ATOM     16  C   UNL     1     164.849 175.238 152.592  1.00  0.00    -0.064 C 
ATOM     17  C   UNL     1     164.228 176.865 150.811  1.00  0.00     0.032 C 
ATOM     18  C   UNL     1     163.335 175.012 152.842  1.00  0.00    -0.008 C 
ATOM     19  C   UNL     1     162.907 177.206 151.523  1.00  0.00     0.009 C 
ATOM     20  C   UNL     1     162.652 176.426 152.838  1.00  0.00     0.007 C 
ATOM     21  C   UNL     1     163.088 174.342 154.229  1.00  0.00     0.014 C 
ATOM     22  C   UNL     1     162.829 174.066 151.714  1.00  0.00     0.016 C 
ATOM     23  C   UNL     1     161.152 176.492 153.347  1.00  0.00    -0.006 C 
ATOM     24  C   UNL     1     161.624 174.355 154.683  1.00  0.00     0.033 C 
ATOM     25  C   UNL     1     161.066 175.781 154.732  1.00  0.00     0.120 C 
ATOM     26  C   UNL     1     160.123 175.882 152.354  1.00  0.00     0.014 C 
ATOM     27  C   UNL     1     160.750 177.976 153.561  1.00  0.00     0.014 C 
BRANCH  25  28
ATOM     28  O   UNL     1     159.737 175.743 155.192  1.00  0.00    -0.393 OA
ATOM     29  H   UNL     1     159.159 176.019 154.433  1.00  0.00     0.210 HD
ENDBRANCH  25  28
ENDBRANCH   2   6
ENDBRANCH   1   2
BRANCH   1  30
ATOM     30  C   UNL     1     171.788 175.680 151.412  1.00  0.00     0.031 C 
BRANCH  30  31
ATOM     31  C   UNL     1     172.442 177.014 151.712  1.00  0.00    -0.075 C 
ATOM     32  C   UNL     1     171.677 178.047 152.115  1.00  0.00     0.008 C 
BRANCH  31  33
ATOM     33  C   UNL     1     173.958 177.148 151.644  1.00  0.00     0.008 C 
ATOM     34  C   UNL     1     174.422 177.691 150.285  1.00  0.00     0.012 C 
ATOM     35  C   UNL     1     174.487 178.020 152.790  1.00  0.00     0.012 C 
ENDBRANCH  31  33
ENDBRANCH  30  31
ENDBRANCH   1  30
TORSDOF 7
ENDMDL
MODEL 4
REMARK VINA RESULT:    -6.617      1.660      2.284
REMARK INTER + INTRA:         -10.532
REMARK INTER:                  -8.897
REMARK INTRA:                  -1.636
REMARK UNBOUND:                -1.401
REMARK SMILES C=C(CC[C@H](C(=O)[O-])[C@H]1CC[C@@]2(C)C3=C(CC[C@@]12C)[C@@]1(C)CC[C@H](O)C(C)(C)[C@@H]1CC3)C(C)C
REMARK SMILES IDX 4 1 5 2 6 3 7 4 8 5 9 6 10 7 18 8 11 9 12 10 17 11 19 12
REMARK SMILES IDX 13 13 14 14 16 15 15 16 31 17 20 18 30 19 29 20 22 21 21 22
REMARK SMILES IDX 26 23 23 24 24 25 27 26 28 27 25 28 3 30 2 31 1 32 32 33
REMARK SMILES IDX 33 34 34 35
REMARK H PARENT 25 29
REMARK Flexibility Score: inf
ROOT
ATOM      1  C   UNL     1     173.890 173.860 151.963  1.00  0.00     0.014 C 
ENDROOT
BRANCH   1   2
ATOM      2  C   UNL     1     174.466 174.485 153.276  1.00  0.00     0.039 C 
BRANCH   2   3
ATOM      3  C   UNL     1     175.796 175.166 153.055  1.00  0.00     0.045 C 
ATOM      4  O   UNL     1     176.580 174.730 152.173  1.00  0.00    -0.550 OA
ATOM      5  O   UNL     1     176.155 176.300 153.775  1.00  0.00    -0.550 OA
ENDBRANCH   2   3
BRANCH   2   6
ATOM      6  C   UNL     1     174.489 173.566 154.548  1.00  0.00     0.004 C 
ATOM      7  C   UNL     1     175.899 173.109 154.931  1.00  0.00     0.006 C 
ATOM      8  C   UNL     1     173.750 173.954 155.880  1.00  0.00    -0.020 C 
ATOM      9  C   UNL     1     175.860 172.696 156.396  1.00  0.00     0.012 C 
ATOM     10  C   UNL     1     174.440 172.999 156.956  1.00  0.00    -0.006 C 
ATOM     11  C   UNL     1     173.891 175.463 156.265  1.00  0.00     0.012 C 
ATOM     12  C   UNL     1     172.217 173.694 155.742  1.00  0.00     0.012 C 
ATOM     13  C   UNL     1     173.696 171.631 157.057  1.00  0.00     0.017 C 
ATOM     14  C   UNL     1     174.599 173.671 158.351  1.00  0.00    -0.064 C 
ATOM     15  C   UNL     1     175.118 175.749 157.118  1.00  0.00     0.032 C 
ATOM     16  C   UNL     1     174.993 174.979 158.424  1.00  0.00    -0.064 C 
ATOM     17  C   UNL     1     174.670 172.810 159.608  1.00  0.00     0.032 C 
ATOM     18  C   UNL     1     175.386 175.606 159.787  1.00  0.00    -0.008 C 
ATOM     19  C   UNL     1     174.314 173.532 160.921  1.00  0.00     0.009 C 
ATOM     20  C   UNL     1     174.356 175.079 160.850  1.00  0.00     0.007 C 
ATOM     21  C   UNL     1     175.298 177.163 159.737  1.00  0.00     0.014 C 
ATOM     22  C   UNL     1     176.856 175.181 160.072  1.00  0.00     0.016 C 
ATOM     23  C   UNL     1     174.372 175.790 162.267  1.00  0.00    -0.006 C 
ATOM     24  C   UNL     1     175.378 177.844 161.107  1.00  0.00     0.033 C 
ATOM     25  C   UNL     1     174.284 177.332 162.050  1.00  0.00     0.120 C 
ATOM     26  C   UNL     1     175.607 175.429 163.139  1.00  0.00     0.014 C 
ATOM     27  C   UNL     1     173.112 175.361 163.067  1.00  0.00     0.014 C 
BRANCH  25  28
ATOM     28  O   UNL     1     174.374 178.014 163.277  1.00  0.00    -0.393 OA
ATOM     29  H   UNL     1     174.127 178.959 163.103  1.00  0.00     0.210 HD
ENDBRANCH  25  28
ENDBRANCH   2   6
ENDBRANCH   1   2
BRANCH   1  30
ATOM     30  C   UNL     1     173.245 174.895 151.023  1.00  0.00     0.031 C 
BRANCH  30  31
ATOM     31  C   UNL     1     172.325 175.859 151.747  1.00  0.00    -0.075 C 
ATOM     32  C   UNL     1     171.236 175.381 152.379  1.00  0.00     0.008 C 
BRANCH  31  33
ATOM     33  C   UNL     1     172.689 177.336 151.831  1.00  0.00     0.008 C 
ATOM     34  C   UNL     1     172.914 177.787 153.281  1.00  0.00     0.012 C 
ATOM     35  C   UNL     1     173.916 177.651 150.964  1.00  0.00     0.012 C 
ENDBRANCH  31  33
ENDBRANCH  30  31
ENDBRANCH   1  30
TORSDOF 7
ENDMDL
MODEL 5
REMARK VINA RESULT:    -6.578      7.569     11.069
REMARK INTER + INTRA:         -10.479
REMARK INTER:                  -9.464
REMARK INTRA:                  -1.015
REMARK UNBOUND:                -1.401
REMARK SMILES C=C(CC[C@H](C(=O)[O-])[C@H]1CC[C@@]2(C)C3=C(CC[C@@]12C)[C@@]1(C)CC[C@H](O)C(C)(C)[C@@H]1CC3)C(C)C
REMARK SMILES IDX 4 1 5 2 6 3 7 4 8 5 9 6 10 7 18 8 11 9 12 10 17 11 19 12
REMARK SMILES IDX 13 13 14 14 16 15 15 16 31 17 20 18 30 19 29 20 22 21 21 22
REMARK SMILES IDX 26 23 23 24 24 25 27 26 28 27 25 28 3 30 2 31 1 32 32 33
REMARK SMILES IDX 33 34 34 35
REMARK H PARENT 25 29
REMARK Flexibility Score: inf
ROOT
ATOM      1  C   UNL     1     172.482 174.974 152.072  1.00  0.00     0.014 C 
ENDROOT
BRANCH   1   2
ATOM      2  C   UNL     1     171.123 175.743 152.169  1.00  0.00     0.039 C 
BRANCH   2   3
ATOM      3  C   UNL     1     171.310 177.205 152.497  1.00  0.00     0.045 C 
ATOM      4  O   UNL     1     170.616 178.070 151.902  1.00  0.00    -0.550 OA
ATOM      5  O   UNL     1     172.200 177.617 153.482  1.00  0.00    -0.550 OA
ENDBRANCH   2   3
BRANCH   2   6
ATOM      6  C   UNL     1     170.001 175.089 153.052  1.00  0.00     0.004 C 
ATOM      7  C   UNL     1     169.684 175.898 154.312  1.00  0.00     0.006 C 
ATOM      8  C   UNL     1     168.630 174.611 152.450  1.00  0.00    -0.020 C 
ATOM      9  C   UNL     1     168.296 175.481 154.781  1.00  0.00     0.012 C 
ATOM     10  C   UNL     1     167.704 174.484 153.743  1.00  0.00    -0.006 C 
ATOM     11  C   UNL     1     168.025 175.594 151.395  1.00  0.00     0.012 C 
ATOM     12  C   UNL     1     168.812 173.251 151.706  1.00  0.00     0.012 C 
ATOM     13  C   UNL     1     167.810 173.061 154.377  1.00  0.00     0.017 C 
ATOM     14  C   UNL     1     166.224 174.883 153.473  1.00  0.00    -0.064 C 
ATOM     15  C   UNL     1     167.133 176.660 152.014  1.00  0.00     0.032 C 
ATOM     16  C   UNL     1     165.956 175.975 152.693  1.00  0.00    -0.064 C 
ATOM     17  C   UNL     1     165.108 174.304 154.336  1.00  0.00     0.032 C 
ATOM     18  C   UNL     1     164.513 176.536 152.596  1.00  0.00    -0.008 C 
ATOM     19  C   UNL     1     163.705 174.332 153.704  1.00  0.00     0.009 C 
ATOM     20  C   UNL     1     163.545 175.302 152.506  1.00  0.00     0.007 C 
ATOM     21  C   UNL     1     164.333 177.407 151.314  1.00  0.00     0.014 C 
ATOM     22  C   UNL     1     164.288 177.421 153.857  1.00  0.00     0.016 C 
ATOM     23  C   UNL     1     162.038 175.609 152.120  1.00  0.00    -0.006 C 
ATOM     24  C   UNL     1     162.876 177.750 150.986  1.00  0.00     0.033 C 
ATOM     25  C   UNL     1     162.025 176.486 150.830  1.00  0.00     0.120 C 
ATOM     26  C   UNL     1     161.224 176.291 153.255  1.00  0.00     0.014 C 
ATOM     27  C   UNL     1     161.317 174.276 151.783  1.00  0.00     0.014 C 
BRANCH  25  28
ATOM     28  O   UNL     1     160.710 176.852 150.490  1.00  0.00    -0.393 OA
ATOM     29  H   UNL     1     160.433 176.272 149.735  1.00  0.00     0.210 HD
ENDBRANCH  25  28
ENDBRANCH   2   6
ENDBRANCH   1   2
BRANCH   1  30
ATOM     30  C   UNL     1     173.274 175.291 150.789  1.00  0.00     0.031 C 
BRANCH  30  31
ATOM     31  C   UNL     1     174.745 175.550 151.052  1.00  0.00    -0.075 C 
ATOM     32  C   UNL     1     175.589 174.507 151.157  1.00  0.00     0.008 C 
BRANCH  31  33
ATOM     33  C   UNL     1     175.264 176.982 151.103  1.00  0.00     0.008 C 
ATOM     34  C   UNL     1     174.358 177.946 150.325  1.00  0.00     0.012 C 
ATOM     35  C   UNL     1     175.443 177.452 152.553  1.00  0.00     0.012 C 
ENDBRANCH  31  33
ENDBRANCH  30  31
ENDBRANCH   1  30
TORSDOF 7
ENDMDL
MODEL 6
REMARK VINA RESULT:    -6.561      8.250     11.602
REMARK INTER + INTRA:         -10.455
REMARK INTER:                  -9.855
REMARK INTRA:                  -0.600
REMARK UNBOUND:                -1.401
REMARK SMILES C=C(CC[C@H](C(=O)[O-])[C@H]1CC[C@@]2(C)C3=C(CC[C@@]12C)[C@@]1(C)CC[C@H](O)C(C)(C)[C@@H]1CC3)C(C)C
REMARK SMILES IDX 4 1 5 2 6 3 7 4 8 5 9 6 10 7 18 8 11 9 12 10 17 11 19 12
REMARK SMILES IDX 13 13 14 14 16 15 15 16 31 17 20 18 30 19 29 20 22 21 21 22
REMARK SMILES IDX 26 23 23 24 24 25 27 26 28 27 25 28 3 30 2 31 1 32 32 33
REMARK SMILES IDX 33 34 34 35
REMARK H PARENT 25 29
REMARK Flexibility Score: inf
ROOT
ATOM      1  C   UNL     1     171.668 175.750 151.852  1.00  0.00     0.014 C 
ENDROOT
BRANCH   1   2
ATOM      2  C   UNL     1     170.233 175.849 152.468  1.00  0.00     0.039 C 
BRANCH   2   3
ATOM      3  C   UNL     1     170.170 175.305 153.875  1.00  0.00     0.045 C 
ATOM      4  O   UNL     1     169.535 175.937 154.759  1.00  0.00    -0.550 OA
ATOM      5  O   UNL     1     170.758 174.090 154.207  1.00  0.00    -0.550 OA
ENDBRANCH   2   3
BRANCH   2   6
ATOM      6  C   UNL     1     169.046 175.320 151.587  1.00  0.00     0.004 C 
ATOM      7  C   UNL     1     168.592 173.911 151.979  1.00  0.00     0.006 C 
ATOM      8  C   UNL     1     167.750 176.168 151.325  1.00  0.00    -0.020 C 
ATOM      9  C   UNL     1     167.175 173.728 151.452  1.00  0.00     0.012 C 
ATOM     10  C   UNL     1     166.706 175.071 150.820  1.00  0.00    -0.006 C 
ATOM     11  C   UNL     1     167.227 176.931 152.586  1.00  0.00     0.012 C 
ATOM     12  C   UNL     1     168.031 177.267 150.253  1.00  0.00     0.012 C 
ATOM     13  C   UNL     1     166.782 174.890 149.272  1.00  0.00     0.017 C 
ATOM     14  C   UNL     1     165.251 175.352 151.295  1.00  0.00    -0.064 C 
ATOM     15  C   UNL     1     166.257 176.109 153.422  1.00  0.00     0.032 C 
ATOM     16  C   UNL     1     165.036 175.787 152.574  1.00  0.00    -0.064 C 
ATOM     17  C   UNL     1     164.071 174.817 150.491  1.00  0.00     0.032 C 
ATOM     18  C   UNL     1     163.597 175.851 153.150  1.00  0.00    -0.008 C 
ATOM     19  C   UNL     1     162.734 175.546 150.721  1.00  0.00     0.009 C 
ATOM     20  C   UNL     1     162.669 176.405 152.010  1.00  0.00     0.007 C 
ATOM     21  C   UNL     1     163.522 176.822 154.370  1.00  0.00     0.014 C 
ATOM     22  C   UNL     1     163.233 174.410 153.613  1.00  0.00     0.016 C 
ATOM     23  C   UNL     1     161.200 176.825 152.432  1.00  0.00    -0.006 C 
ATOM     24  C   UNL     1     162.096 177.172 154.809  1.00  0.00     0.033 C 
ATOM     25  C   UNL     1     161.291 177.784 153.658  1.00  0.00     0.120 C 
ATOM     26  C   UNL     1     160.266 175.622 152.745  1.00  0.00     0.014 C 
ATOM     27  C   UNL     1     160.543 177.618 151.270  1.00  0.00     0.014 C 
BRANCH  25  28
ATOM     28  O   UNL     1     160.007 178.125 154.121  1.00  0.00    -0.393 OA
ATOM     29  H   UNL     1     159.597 177.294 154.477  1.00  0.00     0.210 HD
ENDBRANCH  25  28
ENDBRANCH   2   6
ENDBRANCH   1   2
BRANCH   1  30
ATOM     30  C   UNL     1     172.741 176.481 152.680  1.00  0.00     0.031 C 
BRANCH  30  31
ATOM     31  C   UNL     1     174.024 176.718 151.907  1.00  0.00    -0.075 C 
ATOM     32  C   UNL     1     173.954 177.139 150.629  1.00  0.00     0.008 C 
BRANCH  31  33
ATOM     33  C   UNL     1     175.369 176.568 152.606  1.00  0.00     0.008 C 
ATOM     34  C   UNL     1     175.576 177.643 153.681  1.00  0.00     0.012 C 
ATOM     35  C   UNL     1     175.526 175.163 153.202  1.00  0.00     0.012 C 
ENDBRANCH  31  33
ENDBRANCH  30  31
ENDBRANCH   1  30
TORSDOF 7
ENDMDL
MODEL 7
REMARK VINA RESULT:    -6.495      2.094      3.892
REMARK INTER + INTRA:         -10.364
REMARK INTER:                  -9.022
REMARK INTRA:                  -1.342
REMARK UNBOUND:                -1.401
REMARK SMILES C=C(CC[C@H](C(=O)[O-])[C@H]1CC[C@@]2(C)C3=C(CC[C@@]12C)[C@@]1(C)CC[C@H](O)C(C)(C)[C@@H]1CC3)C(C)C
REMARK SMILES IDX 4 1 5 2 6 3 7 4 8 5 9 6 10 7 18 8 11 9 12 10 17 11 19 12
REMARK SMILES IDX 13 13 14 14 16 15 15 16 31 17 20 18 30 19 29 20 22 21 21 22
REMARK SMILES IDX 26 23 23 24 24 25 27 26 28 27 25 28 3 30 2 31 1 32 32 33
REMARK SMILES IDX 33 34 34 35
REMARK H PARENT 25 29
REMARK Flexibility Score: inf
ROOT
ATOM      1  C   UNL     1     173.981 174.235 154.409  1.00  0.00     0.014 C 
ENDROOT
BRANCH   1   2
ATOM      2  C   UNL     1     174.576 175.065 155.596  1.00  0.00     0.039 C 
BRANCH   2   3
ATOM      3  C   UNL     1     175.282 176.315 155.128  1.00  0.00     0.045 C 
ATOM      4  O   UNL     1     175.027 177.417 155.679  1.00  0.00    -0.550 OA
ATOM      5  O   UNL     1     176.250 176.268 154.131  1.00  0.00    -0.550 OA
ENDBRANCH   2   3
BRANCH   2   6
ATOM      6  C   UNL     1     175.428 174.278 156.654  1.00  0.00     0.004 C 
ATOM      7  C   UNL     1     176.903 174.687 156.658  1.00  0.00     0.006 C 
ATOM      8  C   UNL     1     174.982 174.135 158.154  1.00  0.00    -0.020 C 
ATOM      9  C   UNL     1     177.484 174.276 158.004  1.00  0.00     0.012 C 
ATOM     10  C   UNL     1     176.334 173.703 158.883  1.00  0.00    -0.006 C 
ATOM     11  C   UNL     1     174.384 175.444 158.764  1.00  0.00     0.012 C 
ATOM     12  C   UNL     1     173.860 173.057 158.283  1.00  0.00     0.012 C 
ATOM     13  C   UNL     1     176.503 172.151 158.887  1.00  0.00     0.017 C 
ATOM     14  C   UNL     1     176.470 174.299 160.314  1.00  0.00    -0.064 C 
ATOM     15  C   UNL     1     175.437 176.346 159.390  1.00  0.00     0.032 C 
ATOM     16  C   UNL     1     176.100 175.598 160.537  1.00  0.00    -0.064 C 
ATOM     17  C   UNL     1     177.325 173.589 161.358  1.00  0.00     0.032 C 
ATOM     18  C   UNL     1     176.439 176.291 161.883  1.00  0.00    -0.008 C 
ATOM     19  C   UNL     1     177.000 173.938 162.822  1.00  0.00     0.009 C 
ATOM     20  C   UNL     1     176.182 175.238 163.020  1.00  0.00     0.007 C 
ATOM     21  C   UNL     1     175.516 177.525 162.127  1.00  0.00     0.014 C 
ATOM     22  C   UNL     1     177.919 176.763 161.786  1.00  0.00     0.016 C 
ATOM     23  C   UNL     1     176.188 175.785 164.508  1.00  0.00    -0.006 C 
ATOM     24  C   UNL     1     175.577 178.085 163.553  1.00  0.00     0.033 C 
ATOM     25  C   UNL     1     175.229 177.012 164.590  1.00  0.00     0.120 C 
ATOM     26  C   UNL     1     177.602 176.158 165.036  1.00  0.00     0.014 C 
ATOM     27  C   UNL     1     175.625 174.691 165.455  1.00  0.00     0.014 C 
BRANCH  25  28
ATOM     28  O   UNL     1     175.260 177.584 165.875  1.00  0.00    -0.393 OA
ATOM     29  H   UNL     1     174.419 178.098 165.985  1.00  0.00     0.210 HD
ENDBRANCH  25  28
ENDBRANCH   2   6
ENDBRANCH   1   2
BRANCH   1  30
ATOM     30  C   UNL     1     174.710 172.900 154.170  1.00  0.00     0.031 C 
BRANCH  30  31
ATOM     31  C   UNL     1     175.782 172.995 153.102  1.00  0.00    -0.075 C 
ATOM     32  C   UNL     1     177.009 172.500 153.354  1.00  0.00     0.008 C 
BRANCH  31  33
ATOM     33  C   UNL     1     175.437 173.564 151.731  1.00  0.00     0.008 C 
ATOM     34  C   UNL     1     176.613 174.343 151.125  1.00  0.00     0.012 C 
ATOM     35  C   UNL     1     174.966 172.457 150.778  1.00  0.00     0.012 C 
ENDBRANCH  31  33
ENDBRANCH  30  31
ENDBRANCH   1  30
TORSDOF 7
ENDMDL
MODEL 8
REMARK VINA RESULT:    -6.457      1.833      3.200
REMARK INTER + INTRA:         -10.312
REMARK INTER:                  -9.253
REMARK INTRA:                  -1.059
REMARK UNBOUND:                -1.401
REMARK SMILES C=C(CC[C@H](C(=O)[O-])[C@H]1CC[C@@]2(C)C3=C(CC[C@@]12C)[C@@]1(C)CC[C@H](O)C(C)(C)[C@@H]1CC3)C(C)C
REMARK SMILES IDX 4 1 5 2 6 3 7 4 8 5 9 6 10 7 18 8 11 9 12 10 17 11 19 12
REMARK SMILES IDX 13 13 14 14 16 15 15 16 31 17 20 18 30 19 29 20 22 21 21 22
REMARK SMILES IDX 26 23 23 24 24 25 27 26 28 27 25 28 3 30 2 31 1 32 32 33
REMARK SMILES IDX 33 34 34 35
REMARK H PARENT 25 29
REMARK Flexibility Score: inf
ROOT
ATOM      1  C   UNL     1     173.717 174.243 154.322  1.00  0.00     0.014 C 
ENDROOT
BRANCH   1   2
ATOM      2  C   UNL     1     174.896 174.988 155.031  1.00  0.00     0.039 C 
BRANCH   2   3
ATOM      3  C   UNL     1     175.867 175.597 154.047  1.00  0.00     0.045 C 
ATOM      4  O   UNL     1     176.295 174.907 153.086  1.00  0.00    -0.550 OA
ATOM      5  O   UNL     1     176.262 176.926 154.152  1.00  0.00    -0.550 OA
ENDBRANCH   2   3
BRANCH   2   6
ATOM      6  C   UNL     1     175.640 174.212 156.175  1.00  0.00     0.004 C 
ATOM      7  C   UNL     1     177.068 174.711 156.406  1.00  0.00     0.006 C 
ATOM      8  C   UNL     1     174.996 173.978 157.589  1.00  0.00    -0.020 C 
ATOM      9  C   UNL     1     177.478 174.280 157.808  1.00  0.00     0.012 C 
ATOM     10  C   UNL     1     176.256 173.600 158.492  1.00  0.00    -0.006 C 
ATOM     11  C   UNL     1     174.230 175.221 158.149  1.00  0.00     0.012 C 
ATOM     12  C   UNL     1     173.942 172.828 157.518  1.00  0.00     0.012 C 
ATOM     13  C   UNL     1     176.527 172.063 158.469  1.00  0.00     0.017 C 
ATOM     14  C   UNL     1     176.146 174.143 159.946  1.00  0.00    -0.064 C 
ATOM     15  C   UNL     1     175.120 176.159 158.950  1.00  0.00     0.032 C 
ATOM     16  C   UNL     1     175.661 175.405 160.156  1.00  0.00    -0.064 C 
ATOM     17  C   UNL     1     176.889 173.443 161.079  1.00  0.00     0.032 C 
ATOM     18  C   UNL     1     175.757 176.061 161.558  1.00  0.00    -0.008 C 
ATOM     19  C   UNL     1     176.336 173.709 162.491  1.00  0.00     0.009 C 
ATOM     20  C   UNL     1     175.412 174.947 162.611  1.00  0.00     0.007 C 
ATOM     21  C   UNL     1     174.728 177.224 161.707  1.00  0.00     0.014 C 
ATOM     22  C   UNL     1     177.200 176.627 161.693  1.00  0.00     0.016 C 
ATOM     23  C   UNL     1     175.169 175.430 164.101  1.00  0.00    -0.006 C 
ATOM     24  C   UNL     1     174.547 177.725 163.144  1.00  0.00     0.033 C 
ATOM     25  C   UNL     1     174.128 176.590 164.084  1.00  0.00     0.120 C 
ATOM     26  C   UNL     1     176.465 175.867 164.841  1.00  0.00     0.014 C 
ATOM     27  C   UNL     1     174.552 174.264 164.921  1.00  0.00     0.014 C 
BRANCH  25  28
ATOM     28  O   UNL     1     173.936 177.108 165.378  1.00  0.00    -0.393 OA
ATOM     29  H   UNL     1     174.505 177.918 165.454  1.00  0.00     0.210 HD
ENDBRANCH  25  28
ENDBRANCH   2   6
ENDBRANCH   1   2
BRANCH   1  30
ATOM     30  C   UNL     1     172.687 175.194 153.683  1.00  0.00     0.031 C 
BRANCH  30  31
ATOM     31  C   UNL     1     172.896 175.374 152.192  1.00  0.00    -0.075 C 
ATOM     32  C   UNL     1     172.912 174.290 151.393  1.00  0.00     0.008 C 
BRANCH  31  33
ATOM     33  C   UNL     1     172.993 176.777 151.605  1.00  0.00     0.008 C 
ATOM     34  C   UNL     1     173.051 177.851 152.701  1.00  0.00     0.012 C 
ATOM     35  C   UNL     1     174.197 176.896 150.660  1.00  0.00     0.012 C 
ENDBRANCH  31  33
ENDBRANCH  30  31
ENDBRANCH   1  30
TORSDOF 7
ENDMDL
