MODEL 1
REMARK VINA RESULT:    -2.583      0.000      0.000
REMARK INTER + INTRA:          -6.453
REMARK INTER:                  -4.546
REMARK INTRA:                  -1.907
REMARK UNBOUND:                -1.907
REMARK SMILES CCCCCCCCCCCCCCC(=O)[O-]
REMARK SMILES IDX 9 1 10 2 11 3 12 4 13 5 14 6 15 7 16 8 17 9 8 10 7 11 6 12
REMARK SMILES IDX 5 13 4 14 3 15 2 16 1 17
REMARK H PARENT
REMARK Flexibility Score: inf
ROOT
ATOM      1  C   UNL     1       9.711  -6.841  -5.079  1.00  0.00     0.000 C 
ENDROOT
BRANCH   1   2
ATOM      2  C   UNL     1       9.201  -6.179  -6.370  1.00  0.00     0.000 C 
BRANCH   2   3
ATOM      3  C   UNL     1       9.145  -7.156  -7.553  1.00  0.00     0.000 C 
BRANCH   3   4
ATOM      4  C   UNL     1       8.452  -6.512  -8.764  1.00  0.00     0.000 C 
BRANCH   4   5
ATOM      5  C   UNL     1       7.793  -7.547  -9.689  1.00  0.00     0.006 C 
BRANCH   5   6
ATOM      6  C   UNL     1       7.042  -8.638  -8.916  1.00  0.00     0.053 C 
BRANCH   6   7
ATOM      7  C   UNL     1       5.570  -8.368  -8.928  1.00  0.00     0.041 C 
ATOM      8  O   UNL     1       5.089  -7.515  -9.721  1.00  0.00    -0.550 OA
ATOM      9  O   UNL     1       4.736  -9.020  -8.029  1.00  0.00    -0.550 OA
ENDBRANCH   6   7
ENDBRANCH   5   6
ENDBRANCH   4   5
ENDBRANCH   3   4
ENDBRANCH   2   3
ENDBRANCH   1   2
BRANCH   1  10
ATOM     10  C   UNL     1       9.408  -6.007  -3.825  1.00  0.00     0.000 C 
BRANCH  10  11
ATOM     11  C   UNL     1       9.838  -6.750  -2.554  1.00  0.00    -0.000 C 
BRANCH  11  12
ATOM     12  C   UNL     1       9.801  -8.271  -2.768  1.00  0.00    -0.000 C 
BRANCH  12  13
ATOM     13  C   UNL     1       8.702  -8.958  -1.943  1.00  0.00    -0.000 C 
BRANCH  13  14
ATOM     14  C   UNL     1       7.632  -9.630  -2.822  1.00  0.00    -0.000 C 
BRANCH  14  15
ATOM     15  C   UNL     1       6.724  -8.599  -3.525  1.00  0.00    -0.000 C 
BRANCH  15  16
ATOM     16  C   UNL     1       6.598  -8.824  -5.042  1.00  0.00    -0.003 C 
ATOM     17  C   UNL     1       7.511  -9.932  -5.560  1.00  0.00     0.004 C 
ENDBRANCH  15  16
ENDBRANCH  14  15
ENDBRANCH  13  14
ENDBRANCH  12  13
ENDBRANCH  11  12
ENDBRANCH  10  11
ENDBRANCH   1  10
TORSDOF 13
ENDMDL
MODEL 2
REMARK VINA RESULT:    -1.486     13.274     15.791
REMARK INTER + INTRA:          -4.522
REMARK INTER:                  -3.945
REMARK INTRA:                  -0.577
REMARK UNBOUND:                -1.907
REMARK SMILES CCCCCCCCCCCCCCC(=O)[O-]
REMARK SMILES IDX 9 1 10 2 11 3 12 4 13 5 14 6 15 7 16 8 17 9 8 10 7 11 6 12
REMARK SMILES IDX 5 13 4 14 3 15 2 16 1 17
REMARK H PARENT
REMARK Flexibility Score: inf
ROOT
ATOM      1  C   UNL     1      -7.602  -6.308  -4.799  1.00  0.00     0.000 C 
ENDROOT
BRANCH   1   2
ATOM      2  C   UNL     1      -7.173  -7.774  -4.621  1.00  0.00     0.000 C 
BRANCH   2   3
ATOM      3  C   UNL     1      -6.020  -8.170  -5.555  1.00  0.00     0.000 C 
BRANCH   3   4
ATOM      4  C   UNL     1      -6.464  -8.126  -7.025  1.00  0.00     0.000 C 
BRANCH   4   5
ATOM      5  C   UNL     1      -5.591  -7.194  -7.880  1.00  0.00     0.006 C 
BRANCH   5   6
ATOM      6  C   UNL     1      -4.127  -7.649  -7.943  1.00  0.00     0.053 C 
BRANCH   6   7
ATOM      7  C   UNL     1      -3.759  -8.034  -9.341  1.00  0.00     0.041 C 
ATOM      8  O   UNL     1      -2.700  -7.592  -9.862  1.00  0.00    -0.550 OA
ATOM      9  O   UNL     1      -4.609  -8.839 -10.087  1.00  0.00    -0.550 OA
ENDBRANCH   6   7
ENDBRANCH   5   6
ENDBRANCH   4   5
ENDBRANCH   3   4
ENDBRANCH   2   3
ENDBRANCH   1   2
BRANCH   1  10
ATOM     10  C   UNL     1      -9.128  -6.138  -4.840  1.00  0.00     0.000 C 
BRANCH  10  11
ATOM     11  C   UNL     1      -9.763  -7.119  -5.833  1.00  0.00    -0.000 C 
BRANCH  11  12
ATOM     12  C   UNL     1      -9.848  -8.531  -5.232  1.00  0.00    -0.000 C 
BRANCH  12  13
ATOM     13  C   UNL     1     -10.125  -9.609  -6.291  1.00  0.00    -0.000 C 
BRANCH  13  14
ATOM     14  C   UNL     1      -9.278  -9.424  -7.563  1.00  0.00    -0.000 C 
BRANCH  14  15
ATOM     15  C   UNL     1     -10.068  -9.767  -8.843  1.00  0.00    -0.000 C 
BRANCH  15  16
ATOM     16  C   UNL     1      -9.202  -9.772 -10.116  1.00  0.00    -0.003 C 
ATOM     17  C   UNL     1      -7.742 -10.125  -9.844  1.00  0.00     0.004 C 
ENDBRANCH  15  16
ENDBRANCH  14  15
ENDBRANCH  13  14
ENDBRANCH  12  13
ENDBRANCH  11  12
ENDBRANCH  10  11
ENDBRANCH   1  10
TORSDOF 13
ENDMDL
MODEL 3
REMARK VINA RESULT:    -0.834     12.999     15.776
REMARK INTER + INTRA:          -3.375
REMARK INTER:                  -3.310
REMARK INTRA:                  -0.065
REMARK UNBOUND:                -1.907
REMARK SMILES CCCCCCCCCCCCCCC(=O)[O-]
REMARK SMILES IDX 9 1 10 2 11 3 12 4 13 5 14 6 15 7 16 8 17 9 8 10 7 11 6 12
REMARK SMILES IDX 5 13 4 14 3 15 2 16 1 17
REMARK H PARENT
REMARK Flexibility Score: inf
ROOT
ATOM      1  C   UNL     1      -6.201  -8.972  -8.897  1.00  0.00     0.000 C 
ENDROOT
BRANCH   1   2
ATOM      2  C   UNL     1      -4.877  -8.938  -9.678  1.00  0.00     0.000 C 
BRANCH   2   3
ATOM      3  C   UNL     1      -3.989  -7.748  -9.285  1.00  0.00     0.000 C 
BRANCH   3   4
ATOM      4  C   UNL     1      -4.430  -7.155  -7.938  1.00  0.00     0.000 C 
BRANCH   4   5
ATOM      5  C   UNL     1      -4.205  -8.120  -6.764  1.00  0.00     0.006 C 
BRANCH   5   6
ATOM      6  C   UNL     1      -5.127  -7.826  -5.573  1.00  0.00     0.053 C 
BRANCH   6   7
ATOM      7  C   UNL     1      -6.061  -8.972  -5.342  1.00  0.00     0.041 C 
ATOM      8  O   UNL     1      -6.055  -9.962  -6.120  1.00  0.00    -0.550 OA
ATOM      9  O   UNL     1      -6.974  -8.924  -4.296  1.00  0.00    -0.550 OA
ENDBRANCH   6   7
ENDBRANCH   5   6
ENDBRANCH   4   5
ENDBRANCH   3   4
ENDBRANCH   2   3
ENDBRANCH   1   2
BRANCH   1  10
ATOM     10  C   UNL     1      -7.319  -9.699  -9.659  1.00  0.00     0.000 C 
BRANCH  10  11
ATOM     11  C   UNL     1      -8.453 -10.110  -8.710  1.00  0.00    -0.000 C 
BRANCH  11  12
ATOM     12  C   UNL     1      -9.607  -9.098  -8.763  1.00  0.00    -0.000 C 
BRANCH  12  13
ATOM     13  C   UNL     1      -9.176  -7.686  -8.337  1.00  0.00    -0.000 C 
BRANCH  13  14
ATOM     14  C   UNL     1     -10.123  -7.064  -7.296  1.00  0.00    -0.000 C 
BRANCH  14  15
ATOM     15  C   UNL     1      -9.821  -7.558  -5.865  1.00  0.00    -0.000 C 
BRANCH  15  16
ATOM     16  C   UNL     1      -9.676  -6.420  -4.840  1.00  0.00    -0.003 C 
ATOM     17  C   UNL     1      -8.228  -5.991  -4.623  1.00  0.00     0.004 C 
ENDBRANCH  15  16
ENDBRANCH  14  15
ENDBRANCH  13  14
ENDBRANCH  12  13
ENDBRANCH  11  12
ENDBRANCH  10  11
ENDBRANCH   1  10
TORSDOF 13
ENDMDL
MODEL 4
REMARK VINA RESULT:    -0.739      1.565      2.493
REMARK INTER + INTRA:          -3.208
REMARK INTER:                  -2.594
REMARK INTRA:                  -0.614
REMARK UNBOUND:                -1.907
REMARK SMILES CCCCCCCCCCCCCCC(=O)[O-]
REMARK SMILES IDX 9 1 10 2 11 3 12 4 13 5 14 6 15 7 16 8 17 9 8 10 7 11 6 12
REMARK SMILES IDX 5 13 4 14 3 15 2 16 1 17
REMARK H PARENT
REMARK Flexibility Score: inf
ROOT
ATOM      1  C   UNL     1       7.674  -6.253  -5.901  1.00  0.00     0.000 C 
ENDROOT
BRANCH   1   2
ATOM      2  C   UNL     1       7.483  -6.315  -7.425  1.00  0.00     0.000 C 
BRANCH   2   3
ATOM      3  C   UNL     1       7.241  -7.744  -7.934  1.00  0.00     0.000 C 
BRANCH   3   4
ATOM      4  C   UNL     1       7.357  -7.809  -9.465  1.00  0.00     0.000 C 
BRANCH   4   5
ATOM      5  C   UNL     1       6.390  -8.825 -10.090  1.00  0.00     0.006 C 
BRANCH   5   6
ATOM      6  C   UNL     1       4.942  -8.319 -10.125  1.00  0.00     0.053 C 
BRANCH   6   7
ATOM      7  C   UNL     1       4.099  -9.079  -9.150  1.00  0.00     0.041 C 
ATOM      8  O   UNL     1       4.150  -8.806  -7.921  1.00  0.00    -0.550 OA
ATOM      9  O   UNL     1       3.295 -10.122  -9.591  1.00  0.00    -0.550 OA
ENDBRANCH   6   7
ENDBRANCH   5   6
ENDBRANCH   4   5
ENDBRANCH   3   4
ENDBRANCH   2   3
ENDBRANCH   1   2
BRANCH   1  10
ATOM     10  C   UNL     1       9.152  -6.167  -5.492  1.00  0.00     0.000 C 
BRANCH  10  11
ATOM     11  C   UNL     1      10.022  -7.058  -6.389  1.00  0.00    -0.000 C 
BRANCH  11  12
ATOM     12  C   UNL     1      10.125  -8.480  -5.817  1.00  0.00    -0.000 C 
BRANCH  12  13
ATOM     13  C   UNL     1       9.698  -8.558  -4.343  1.00  0.00    -0.000 C 
BRANCH  13  14
ATOM     14  C   UNL     1       9.040  -9.902  -3.986  1.00  0.00    -0.000 C 
BRANCH  14  15
ATOM     15  C   UNL     1       8.918 -10.103  -2.461  1.00  0.00    -0.000 C 
BRANCH  15  16
ATOM     16  C   UNL     1       7.515  -9.789  -1.910  1.00  0.00    -0.003 C 
ATOM     17  C   UNL     1       6.457  -9.669  -3.003  1.00  0.00     0.004 C 
ENDBRANCH  15  16
ENDBRANCH  14  15
ENDBRANCH  13  14
ENDBRANCH  12  13
ENDBRANCH  11  12
ENDBRANCH  10  11
ENDBRANCH   1  10
TORSDOF 13
ENDMDL
