MODEL 1
REMARK VINA RESULT:    -6.895      0.000      0.000
REMARK INTER + INTRA:          -8.526
REMARK INTER:                  -8.306
REMARK INTRA:                  -0.219
REMARK UNBOUND:                -0.219
REMARK SMILES O=c1c(O)c(-c2ccc(O)c(O)c2)oc2cc(O)cc(O)c12
REMARK SMILES IDX 5 1 3 2 2 3 1 4 22 5 20 6 19 7 17 8 16 9 15 10 14 11 6 12
REMARK SMILES IDX 7 13 8 14 9 15 13 16 11 17 10 18 12 20 4 22 21 24 18 26
REMARK H PARENT 10 19 12 21 4 23 21 25 18 27
REMARK Flexibility Score: inf
ROOT
ATOM      1  C   UNL     1     -10.639   7.067   5.646  1.00  0.00     0.180 A 
ATOM      2  C   UNL     1     -11.537   8.124   5.426  1.00  0.00     0.208 A 
ATOM      3  C   UNL     1     -11.048   9.441   5.412  1.00  0.00     0.238 A 
ATOM      4  O   UNL     1     -11.845  10.377   5.140  1.00  0.00    -0.285 OA
ATOM      5  C   UNL     1      -9.679   9.687   5.674  1.00  0.00     0.111 A 
ATOM      6  C   UNL     1      -9.083  10.984   5.729  1.00  0.00     0.134 A 
ATOM      7  C   UNL     1      -7.697  11.100   5.891  1.00  0.00     0.093 A 
ATOM      8  C   UNL     1      -6.894   9.974   6.063  1.00  0.00     0.123 A 
ATOM      9  C   UNL     1      -7.473   8.705   6.066  1.00  0.00     0.094 A 
ATOM     10  C   UNL     1      -8.848   8.553   5.868  1.00  0.00     0.146 A 
ATOM     11  O   UNL     1      -9.355   7.326   5.856  1.00  0.00    -0.452 OA
ENDROOT
BRANCH   1  12
ATOM     12  C   UNL     1     -11.076   5.651   5.661  1.00  0.00     0.025 A 
ATOM     13  C   UNL     1     -11.875   5.143   6.700  1.00  0.00     0.016 A 
ATOM     14  C   UNL     1     -12.297   3.810   6.679  1.00  0.00     0.051 A 
ATOM     15  C   UNL     1     -11.937   2.972   5.616  1.00  0.00     0.157 A 
ATOM     16  C   UNL     1     -10.737   4.813   4.586  1.00  0.00     0.062 A 
ATOM     17  C   UNL     1     -11.159   3.475   4.566  1.00  0.00     0.158 A 
BRANCH  15  18
ATOM     18  O   UNL     1     -12.353   1.643   5.592  1.00  0.00    -0.504 OA
ATOM     19  H   UNL     1     -12.287   1.052   6.413  1.00  0.00     0.293 HD
ENDBRANCH  15  18
BRANCH  17  20
ATOM     20  O   UNL     1     -10.808   2.642   3.505  1.00  0.00    -0.504 OA
ATOM     21  H   UNL     1     -11.168   2.794   2.570  1.00  0.00     0.293 HD
ENDBRANCH  17  20
ENDBRANCH   1  12
BRANCH   2  22
ATOM     22  O   UNL     1     -12.899   7.866   5.245  1.00  0.00    -0.502 OA
ATOM     23  H   UNL     1     -13.277   6.926   5.229  1.00  0.00     0.293 HD
ENDBRANCH   2  22
BRANCH   6  24
ATOM     24  O   UNL     1      -9.803  12.181   5.657  1.00  0.00    -0.507 OA
ATOM     25  H   UNL     1     -10.808  12.250   5.623  1.00  0.00     0.293 HD
ENDBRANCH   6  24
BRANCH   8  26
ATOM     26  O   UNL     1      -5.521  10.129   6.240  1.00  0.00    -0.508 OA
ATOM     27  H   UNL     1      -4.885   9.342   6.168  1.00  0.00     0.293 HD
ENDBRANCH   8  26
TORSDOF 6
ENDMDL
MODEL 2
REMARK VINA RESULT:    -6.301      1.225      1.802
REMARK INTER + INTRA:          -7.810
REMARK INTER:                  -7.484
REMARK INTRA:                  -0.326
REMARK UNBOUND:                -0.219
REMARK SMILES O=c1c(O)c(-c2ccc(O)c(O)c2)oc2cc(O)cc(O)c12
REMARK SMILES IDX 5 1 3 2 2 3 1 4 22 5 20 6 19 7 17 8 16 9 15 10 14 11 6 12
REMARK SMILES IDX 7 13 8 14 9 15 13 16 11 17 10 18 12 20 4 22 21 24 18 26
REMARK H PARENT 10 19 12 21 4 23 21 25 18 27
REMARK Flexibility Score: inf
ROOT
ATOM      1  C   UNL     1     -11.360   6.773   5.553  1.00  0.00     0.180 A 
ATOM      2  C   UNL     1     -12.467   7.623   5.713  1.00  0.00     0.208 A 
ATOM      3  C   UNL     1     -12.261   9.012   5.739  1.00  0.00     0.238 A 
ATOM      4  O   UNL     1     -13.265   9.769   5.807  1.00  0.00    -0.285 OA
ATOM      5  C   UNL     1     -10.947   9.531   5.660  1.00  0.00     0.111 A 
ATOM      6  C   UNL     1     -10.616  10.919   5.722  1.00  0.00     0.134 A 
ATOM      7  C   UNL     1      -9.290  11.322   5.527  1.00  0.00     0.093 A 
ATOM      8  C   UNL     1      -8.273  10.389   5.337  1.00  0.00     0.123 A 
ATOM      9  C   UNL     1      -8.576   9.026   5.331  1.00  0.00     0.094 A 
ATOM     10  C   UNL     1      -9.895   8.594   5.483  1.00  0.00     0.146 A 
ATOM     11  O   UNL     1     -10.143   7.290   5.449  1.00  0.00    -0.452 OA
ENDROOT
BRANCH   1  12
ATOM     12  C   UNL     1     -11.499   5.299   5.502  1.00  0.00     0.025 A 
ATOM     13  C   UNL     1     -11.625   4.617   4.279  1.00  0.00     0.016 A 
ATOM     14  C   UNL     1     -11.729   3.223   4.254  1.00  0.00     0.051 A 
ATOM     15  C   UNL     1     -11.696   2.492   5.449  1.00  0.00     0.157 A 
ATOM     16  C   UNL     1     -11.445   4.559   6.695  1.00  0.00     0.062 A 
ATOM     17  C   UNL     1     -11.550   3.161   6.671  1.00  0.00     0.158 A 
BRANCH  15  18
ATOM     18  O   UNL     1     -11.801   1.103   5.429  1.00  0.00    -0.504 OA
ATOM     19  H   UNL     1     -11.673   0.549   6.268  1.00  0.00     0.293 HD
ENDBRANCH  15  18
BRANCH  17  20
ATOM     20  O   UNL     1     -11.510   2.431   7.857  1.00  0.00    -0.504 OA
ATOM     21  H   UNL     1     -10.648   2.023   8.201  1.00  0.00     0.293 HD
ENDBRANCH  17  20
ENDBRANCH   1  12
BRANCH   2  22
ATOM     22  O   UNL     1     -13.750   7.088   5.866  1.00  0.00    -0.502 OA
ATOM     23  H   UNL     1     -14.553   7.450   5.366  1.00  0.00     0.293 HD
ENDBRANCH   2  22
BRANCH   6  24
ATOM     24  O   UNL     1     -11.540  11.933   5.994  1.00  0.00    -0.507 OA
ATOM     25  H   UNL     1     -11.560  12.487   6.836  1.00  0.00     0.293 HD
ENDBRANCH   6  24
BRANCH   8  26
ATOM     26  O   UNL     1      -6.961  10.825   5.164  1.00  0.00    -0.508 OA
ATOM     27  H   UNL     1      -6.687  11.374   4.357  1.00  0.00     0.293 HD
ENDBRANCH   8  26
TORSDOF 6
ENDMDL
MODEL 3
REMARK VINA RESULT:    -6.231      2.193      3.861
REMARK INTER + INTRA:          -7.726
REMARK INTER:                  -7.505
REMARK INTRA:                  -0.221
REMARK UNBOUND:                -0.219
REMARK SMILES O=c1c(O)c(-c2ccc(O)c(O)c2)oc2cc(O)cc(O)c12
REMARK SMILES IDX 5 1 3 2 2 3 1 4 22 5 20 6 19 7 17 8 16 9 15 10 14 11 6 12
REMARK SMILES IDX 7 13 8 14 9 15 13 16 11 17 10 18 12 20 4 22 21 24 18 26
REMARK H PARENT 10 19 12 21 4 23 21 25 18 27
REMARK Flexibility Score: inf
ROOT
ATOM      1  C   UNL     1     -11.762   7.451   5.760  1.00  0.00     0.180 A 
ATOM      2  C   UNL     1     -10.441   7.783   5.415  1.00  0.00     0.208 A 
ATOM      3  C   UNL     1     -10.144   9.106   5.050  1.00  0.00     0.238 A 
ATOM      4  O   UNL     1      -8.945   9.413   4.815  1.00  0.00    -0.285 OA
ATOM      5  C   UNL     1     -11.181  10.068   4.980  1.00  0.00     0.111 A 
ATOM      6  C   UNL     1     -11.004  11.427   4.579  1.00  0.00     0.134 A 
ATOM      7  C   UNL     1     -12.084  12.315   4.650  1.00  0.00     0.093 A 
ATOM      8  C   UNL     1     -13.348  11.882   5.046  1.00  0.00     0.123 A 
ATOM      9  C   UNL     1     -13.546  10.543   5.387  1.00  0.00     0.094 A 
ATOM     10  C   UNL     1     -12.480   9.641   5.364  1.00  0.00     0.146 A 
ATOM     11  O   UNL     1     -12.707   8.382   5.716  1.00  0.00    -0.452 OA
ENDROOT
BRANCH   1  12
ATOM     12  C   UNL     1     -12.149   6.081   6.169  1.00  0.00     0.025 A 
ATOM     13  C   UNL     1     -12.891   5.245   5.316  1.00  0.00     0.016 A 
ATOM     14  C   UNL     1     -13.223   3.947   5.714  1.00  0.00     0.051 A 
ATOM     15  C   UNL     1     -12.809   3.463   6.962  1.00  0.00     0.157 A 
ATOM     16  C   UNL     1     -11.718   5.584   7.410  1.00  0.00     0.062 A 
ATOM     17  C   UNL     1     -12.052   4.281   7.809  1.00  0.00     0.158 A 
BRANCH  15  18
ATOM     18  O   UNL     1     -13.140   2.170   7.362  1.00  0.00    -0.504 OA
ATOM     19  H   UNL     1     -13.754   1.584   6.809  1.00  0.00     0.293 HD
ENDBRANCH  15  18
BRANCH  17  20
ATOM     20  O   UNL     1     -11.635   3.795   9.047  1.00  0.00    -0.504 OA
ATOM     21  H   UNL     1     -11.407   2.817   9.184  1.00  0.00     0.293 HD
ENDBRANCH  17  20
ENDBRANCH   1  12
BRANCH   2  22
ATOM     22  O   UNL     1      -9.445   6.802   5.416  1.00  0.00    -0.502 OA
ATOM     23  H   UNL     1      -9.275   6.198   4.621  1.00  0.00     0.293 HD
ENDBRANCH   2  22
BRANCH   6  24
ATOM     24  O   UNL     1      -9.804  11.947   4.083  1.00  0.00    -0.507 OA
ATOM     25  H   UNL     1      -9.660  12.904   3.802  1.00  0.00     0.293 HD
ENDBRANCH   6  24
BRANCH   8  26
ATOM     26  O   UNL     1     -14.404  12.789   5.087  1.00  0.00    -0.508 OA
ATOM     27  H   UNL     1     -14.429  13.602   4.482  1.00  0.00     0.293 HD
ENDBRANCH   8  26
TORSDOF 6
ENDMDL
MODEL 4
REMARK VINA RESULT:    -6.136      1.391      6.739
REMARK INTER + INTRA:          -7.611
REMARK INTER:                  -7.299
REMARK INTRA:                  -0.313
REMARK UNBOUND:                -0.219
REMARK SMILES O=c1c(O)c(-c2ccc(O)c(O)c2)oc2cc(O)cc(O)c12
REMARK SMILES IDX 5 1 3 2 2 3 1 4 22 5 20 6 19 7 17 8 16 9 15 10 14 11 6 12
REMARK SMILES IDX 7 13 8 14 9 15 13 16 11 17 10 18 12 20 4 22 21 24 18 26
REMARK H PARENT 10 19 12 21 4 23 21 25 18 27
REMARK Flexibility Score: inf
ROOT
ATOM      1  C   UNL     1      -9.859   8.291   5.860  1.00  0.00     0.180 A 
ATOM      2  C   UNL     1     -11.133   8.817   5.588  1.00  0.00     0.208 A 
ATOM      3  C   UNL     1     -12.228   7.941   5.510  1.00  0.00     0.238 A 
ATOM      4  O   UNL     1     -13.378   8.426   5.341  1.00  0.00    -0.285 OA
ATOM      5  C   UNL     1     -12.027   6.546   5.648  1.00  0.00     0.111 A 
ATOM      6  C   UNL     1     -13.056   5.562   5.542  1.00  0.00     0.134 A 
ATOM      7  C   UNL     1     -12.758   4.220   5.803  1.00  0.00     0.093 A 
ATOM      8  C   UNL     1     -11.458   3.815   6.102  1.00  0.00     0.123 A 
ATOM      9  C   UNL     1     -10.433   4.761   6.154  1.00  0.00     0.094 A 
ATOM     10  C   UNL     1     -10.706   6.113   5.937  1.00  0.00     0.146 A 
ATOM     11  O   UNL     1      -9.706   6.983   6.017  1.00  0.00    -0.452 OA
ENDROOT
BRANCH   1  12
ATOM     12  C   UNL     1      -8.659   9.152   5.972  1.00  0.00     0.025 A 
ATOM     13  C   UNL     1      -7.823   9.390   4.866  1.00  0.00     0.016 A 
ATOM     14  C   UNL     1      -6.710  10.227   4.990  1.00  0.00     0.051 A 
ATOM     15  C   UNL     1      -6.424  10.846   6.214  1.00  0.00     0.157 A 
ATOM     16  C   UNL     1      -8.381   9.793   7.190  1.00  0.00     0.062 A 
ATOM     17  C   UNL     1      -7.263  10.632   7.314  1.00  0.00     0.158 A 
BRANCH  15  18
ATOM     18  O   UNL     1      -5.315  11.679   6.341  1.00  0.00    -0.504 OA
ATOM     19  H   UNL     1      -4.405  11.315   6.601  1.00  0.00     0.293 HD
ENDBRANCH  15  18
BRANCH  17  20
ATOM     20  O   UNL     1      -6.982  11.255   8.529  1.00  0.00    -0.504 OA
ATOM     21  H   UNL     1      -7.679  11.804   9.018  1.00  0.00     0.293 HD
ENDBRANCH  17  20
ENDBRANCH   1  12
BRANCH   2  22
ATOM     22  O   UNL     1     -11.299  10.189   5.379  1.00  0.00    -0.502 OA
ATOM     23  H   UNL     1     -11.845  10.560   4.610  1.00  0.00     0.293 HD
ENDBRANCH   2  22
BRANCH   6  24
ATOM     24  O   UNL     1     -14.373   5.844   5.163  1.00  0.00    -0.507 OA
ATOM     25  H   UNL     1     -14.655   6.167   4.251  1.00  0.00     0.293 HD
ENDBRANCH   6  24
BRANCH   8  26
ATOM     26  O   UNL     1     -11.194   2.468   6.338  1.00  0.00    -0.508 OA
ATOM     27  H   UNL     1     -11.929   1.770   6.308  1.00  0.00     0.293 HD
ENDBRANCH   8  26
TORSDOF 6
ENDMDL
MODEL 5
REMARK VINA RESULT:    -6.059      3.629      7.019
REMARK INTER + INTRA:          -7.519
REMARK INTER:                  -7.190
REMARK INTRA:                  -0.329
REMARK UNBOUND:                -0.219
REMARK SMILES O=c1c(O)c(-c2ccc(O)c(O)c2)oc2cc(O)cc(O)c12
REMARK SMILES IDX 5 1 3 2 2 3 1 4 22 5 20 6 19 7 17 8 16 9 15 10 14 11 6 12
REMARK SMILES IDX 7 13 8 14 9 15 13 16 11 17 10 18 12 20 4 22 21 24 18 26
REMARK H PARENT 10 19 12 21 4 23 21 25 18 27
REMARK Flexibility Score: inf
ROOT
ATOM      1  C   UNL     1     -10.768  10.915   5.267  1.00  0.00     0.180 A 
ATOM      2  C   UNL     1     -11.063  11.709   4.145  1.00  0.00     0.208 A 
ATOM      3  C   UNL     1     -12.246  11.465   3.430  1.00  0.00     0.238 A 
ATOM      4  O   UNL     1     -12.541  12.228   2.473  1.00  0.00    -0.285 OA
ATOM      5  C   UNL     1     -13.092  10.395   3.810  1.00  0.00     0.111 A 
ATOM      6  C   UNL     1     -14.293  10.027   3.131  1.00  0.00     0.134 A 
ATOM      7  C   UNL     1     -15.105   9.017   3.661  1.00  0.00     0.093 A 
ATOM      8  C   UNL     1     -14.731   8.318   4.807  1.00  0.00     0.123 A 
ATOM      9  C   UNL     1     -13.531   8.631   5.448  1.00  0.00     0.094 A 
ATOM     10  C   UNL     1     -12.719   9.660   4.966  1.00  0.00     0.146 A 
ATOM     11  O   UNL     1     -11.596   9.940   5.619  1.00  0.00    -0.452 OA
ENDROOT
BRANCH   1  12
ATOM     12  C   UNL     1      -9.547  11.121   6.080  1.00  0.00     0.025 A 
ATOM     13  C   UNL     1      -9.525  12.035   7.148  1.00  0.00     0.016 A 
ATOM     14  C   UNL     1      -8.368  12.194   7.917  1.00  0.00     0.051 A 
ATOM     15  C   UNL     1      -7.225  11.434   7.638  1.00  0.00     0.157 A 
ATOM     16  C   UNL     1      -8.406  10.346   5.818  1.00  0.00     0.062 A 
ATOM     17  C   UNL     1      -7.245  10.506   6.589  1.00  0.00     0.158 A 
BRANCH  15  18
ATOM     18  O   UNL     1      -6.070  11.591   8.401  1.00  0.00    -0.504 OA
ATOM     19  H   UNL     1      -5.493  10.798   8.658  1.00  0.00     0.293 HD
ENDBRANCH  15  18
BRANCH  17  20
ATOM     20  O   UNL     1      -6.109   9.746   6.318  1.00  0.00    -0.504 OA
ATOM     21  H   UNL     1      -5.625   9.235   7.048  1.00  0.00     0.293 HD
ENDBRANCH  17  20
ENDBRANCH   1  12
BRANCH   2  22
ATOM     22  O   UNL     1     -10.177  12.712   3.740  1.00  0.00    -0.502 OA
ATOM     23  H   UNL     1     -10.493  13.595   3.357  1.00  0.00     0.293 HD
ENDBRANCH   2  22
BRANCH   6  24
ATOM     24  O   UNL     1     -14.719  10.600   1.928  1.00  0.00    -0.507 OA
ATOM     25  H   UNL     1     -14.433  10.297   1.010  1.00  0.00     0.293 HD
ENDBRANCH   6  24
BRANCH   8  26
ATOM     26  O   UNL     1     -15.555   7.307   5.296  1.00  0.00    -0.508 OA
ATOM     27  H   UNL     1     -15.177   6.514   5.802  1.00  0.00     0.293 HD
ENDBRANCH   8  26
TORSDOF 6
ENDMDL
MODEL 6
REMARK VINA RESULT:    -6.020      1.737      3.550
REMARK INTER + INTRA:          -7.471
REMARK INTER:                  -7.206
REMARK INTRA:                  -0.265
REMARK UNBOUND:                -0.219
REMARK SMILES O=c1c(O)c(-c2ccc(O)c(O)c2)oc2cc(O)cc(O)c12
REMARK SMILES IDX 5 1 3 2 2 3 1 4 22 5 20 6 19 7 17 8 16 9 15 10 14 11 6 12
REMARK SMILES IDX 7 13 8 14 9 15 13 16 11 17 10 18 12 20 4 22 21 24 18 26
REMARK H PARENT 10 19 12 21 4 23 21 25 18 27
REMARK Flexibility Score: inf
ROOT
ATOM      1  C   UNL     1     -11.382   7.396   5.638  1.00  0.00     0.180 A 
ATOM      2  C   UNL     1     -10.099   7.932   5.437  1.00  0.00     0.208 A 
ATOM      3  C   UNL     1      -9.972   9.292   5.115  1.00  0.00     0.238 A 
ATOM      4  O   UNL     1      -8.817   9.783   5.010  1.00  0.00    -0.285 OA
ATOM      5  C   UNL     1     -11.131  10.087   4.940  1.00  0.00     0.111 A 
ATOM      6  C   UNL     1     -11.123  11.465   4.569  1.00  0.00     0.134 A 
ATOM      7  C   UNL     1     -12.328  12.177   4.531  1.00  0.00     0.093 A 
ATOM      8  C   UNL     1     -13.545  11.549   4.786  1.00  0.00     0.123 A 
ATOM      9  C   UNL     1     -13.571  10.188   5.096  1.00  0.00     0.094 A 
ATOM     10  C   UNL     1     -12.382   9.460   5.181  1.00  0.00     0.146 A 
ATOM     11  O   UNL     1     -12.449   8.172   5.500  1.00  0.00    -0.452 OA
ENDROOT
BRANCH   1  12
ATOM     12  C   UNL     1     -11.595   5.974   5.995  1.00  0.00     0.025 A 
ATOM     13  C   UNL     1     -11.972   5.594   7.296  1.00  0.00     0.016 A 
ATOM     14  C   UNL     1     -12.193   4.248   7.602  1.00  0.00     0.051 A 
ATOM     15  C   UNL     1     -12.052   3.267   6.613  1.00  0.00     0.157 A 
ATOM     16  C   UNL     1     -11.478   4.988   5.001  1.00  0.00     0.062 A 
ATOM     17  C   UNL     1     -11.698   3.637   5.310  1.00  0.00     0.158 A 
BRANCH  15  18
ATOM     18  O   UNL     1     -12.270   1.924   6.915  1.00  0.00    -0.504 OA
ATOM     19  H   UNL     1     -12.123   1.195   6.227  1.00  0.00     0.293 HD
ENDBRANCH  15  18
BRANCH  17  20
ATOM     20  O   UNL     1     -11.567   2.660   4.325  1.00  0.00    -0.504 OA
ATOM     21  H   UNL     1     -11.460   2.903   3.347  1.00  0.00     0.293 HD
ENDBRANCH  17  20
ENDBRANCH   1  12
BRANCH   2  22
ATOM     22  O   UNL     1      -8.970   7.113   5.539  1.00  0.00    -0.502 OA
ATOM     23  H   UNL     1      -8.188   7.337   6.142  1.00  0.00     0.293 HD
ENDBRANCH   2  22
BRANCH   6  24
ATOM     24  O   UNL     1      -9.972  12.172   4.206  1.00  0.00    -0.507 OA
ATOM     25  H   UNL     1      -9.476  12.815   4.804  1.00  0.00     0.293 HD
ENDBRANCH   6  24
BRANCH   8  26
ATOM     26  O   UNL     1     -14.727  12.284   4.721  1.00  0.00    -0.508 OA
ATOM     27  H   UNL     1     -14.771  13.245   5.041  1.00  0.00     0.293 HD
ENDBRANCH   8  26
TORSDOF 6
ENDMDL
MODEL 7
REMARK VINA RESULT:    -5.961      2.216      3.049
REMARK INTER + INTRA:          -7.400
REMARK INTER:                  -7.082
REMARK INTRA:                  -0.318
REMARK UNBOUND:                -0.219
REMARK SMILES O=c1c(O)c(-c2ccc(O)c(O)c2)oc2cc(O)cc(O)c12
REMARK SMILES IDX 5 1 3 2 2 3 1 4 22 5 20 6 19 7 17 8 16 9 15 10 14 11 6 12
REMARK SMILES IDX 7 13 8 14 9 15 13 16 11 17 10 18 12 20 4 22 21 24 18 26
REMARK H PARENT 10 19 12 21 4 23 21 25 18 27
REMARK Flexibility Score: inf
ROOT
ATOM      1  C   UNL     1     -12.554   7.299   5.609  1.00  0.00     0.180 A 
ATOM      2  C   UNL     1     -13.893   7.666   5.399  1.00  0.00     0.208 A 
ATOM      3  C   UNL     1     -14.196   9.010   5.124  1.00  0.00     0.238 A 
ATOM      4  O   UNL     1     -15.389   9.318   4.863  1.00  0.00    -0.285 OA
ATOM      5  C   UNL     1     -13.164   9.979   5.121  1.00  0.00     0.111 A 
ATOM      6  C   UNL     1     -13.362  11.376   4.900  1.00  0.00     0.134 A 
ATOM      7  C   UNL     1     -12.252  12.225   4.813  1.00  0.00     0.093 A 
ATOM      8  C   UNL     1     -10.959  11.742   5.002  1.00  0.00     0.123 A 
ATOM      9  C   UNL     1     -10.757  10.388   5.274  1.00  0.00     0.094 A 
ATOM     10  C   UNL     1     -11.841   9.509   5.328  1.00  0.00     0.146 A 
ATOM     11  O   UNL     1     -11.603   8.224   5.567  1.00  0.00    -0.452 OA
ENDROOT
BRANCH   1  12
ATOM     12  C   UNL     1     -12.154   5.901   5.889  1.00  0.00     0.025 A 
ATOM     13  C   UNL     1     -12.042   5.420   7.205  1.00  0.00     0.016 A 
ATOM     14  C   UNL     1     -11.688   4.089   7.444  1.00  0.00     0.051 A 
ATOM     15  C   UNL     1     -11.453   3.218   6.372  1.00  0.00     0.157 A 
ATOM     16  C   UNL     1     -11.939   5.017   4.818  1.00  0.00     0.062 A 
ATOM     17  C   UNL     1     -11.582   3.682   5.057  1.00  0.00     0.158 A 
BRANCH  15  18
ATOM     18  O   UNL     1     -11.098   1.891   6.606  1.00  0.00    -0.504 OA
ATOM     19  H   UNL     1     -11.572   1.331   7.305  1.00  0.00     0.293 HD
ENDBRANCH  15  18
BRANCH  17  20
ATOM     20  O   UNL     1     -11.356   2.812   3.993  1.00  0.00    -0.504 OA
ATOM     21  H   UNL     1     -10.801   3.088   3.190  1.00  0.00     0.293 HD
ENDBRANCH  17  20
ENDBRANCH   1  12
BRANCH   2  22
ATOM     22  O   UNL     1     -14.907   6.708   5.482  1.00  0.00    -0.502 OA
ATOM     23  H   UNL     1     -14.764   5.739   5.220  1.00  0.00     0.293 HD
ENDBRANCH   2  22
BRANCH   6  24
ATOM     24  O   UNL     1     -14.618  11.980   4.785  1.00  0.00    -0.507 OA
ATOM     25  H   UNL     1     -14.922  12.536   4.001  1.00  0.00     0.293 HD
ENDBRANCH   6  24
BRANCH   8  26
ATOM     26  O   UNL     1      -9.879  12.620   4.927  1.00  0.00    -0.508 OA
ATOM     27  H   UNL     1      -9.858  13.378   4.254  1.00  0.00     0.293 HD
ENDBRANCH   8  26
TORSDOF 6
ENDMDL
MODEL 8
REMARK VINA RESULT:    -5.516      4.424      5.303
REMARK INTER + INTRA:          -6.864
REMARK INTER:                  -6.695
REMARK INTRA:                  -0.168
REMARK UNBOUND:                -0.219
REMARK SMILES O=c1c(O)c(-c2ccc(O)c(O)c2)oc2cc(O)cc(O)c12
REMARK SMILES IDX 5 1 3 2 2 3 1 4 22 5 20 6 19 7 17 8 16 9 15 10 14 11 6 12
REMARK SMILES IDX 7 13 8 14 9 15 13 16 11 17 10 18 12 20 4 22 21 24 18 26
REMARK H PARENT 10 19 12 21 4 23 21 25 18 27
REMARK Flexibility Score: inf
ROOT
ATOM      1  C   UNL     1     -11.219  11.156   5.216  1.00  0.00     0.180 A 
ATOM      2  C   UNL     1     -11.536  11.783   6.433  1.00  0.00     0.208 A 
ATOM      3  C   UNL     1     -10.523  11.970   7.386  1.00  0.00     0.238 A 
ATOM      4  O   UNL     1     -10.797  12.599   8.442  1.00  0.00    -0.285 OA
ATOM      5  C   UNL     1      -9.219  11.479   7.136  1.00  0.00     0.111 A 
ATOM      6  C   UNL     1      -8.125  11.572   8.049  1.00  0.00     0.134 A 
ATOM      7  C   UNL     1      -6.853  11.146   7.650  1.00  0.00     0.093 A 
ATOM      8  C   UNL     1      -6.646  10.571   6.397  1.00  0.00     0.123 A 
ATOM      9  C   UNL     1      -7.719  10.423   5.517  1.00  0.00     0.094 A 
ATOM     10  C   UNL     1      -8.992  10.875   5.871  1.00  0.00     0.146 A 
ATOM     11  O   UNL     1      -9.980  10.735   4.995  1.00  0.00    -0.452 OA
ENDROOT
BRANCH   1  12
ATOM     12  C   UNL     1     -12.230  10.936   4.155  1.00  0.00     0.025 A 
ATOM     13  C   UNL     1     -12.119  11.556   2.898  1.00  0.00     0.016 A 
ATOM     14  C   UNL     1     -13.072  11.313   1.904  1.00  0.00     0.051 A 
ATOM     15  C   UNL     1     -14.139  10.440   2.149  1.00  0.00     0.157 A 
ATOM     16  C   UNL     1     -13.290  10.044   4.387  1.00  0.00     0.062 A 
ATOM     17  C   UNL     1     -14.247   9.802   3.390  1.00  0.00     0.158 A 
BRANCH  15  18
ATOM     18  O   UNL     1     -15.092  10.197   1.161  1.00  0.00    -0.504 OA
ATOM     19  H   UNL     1     -15.138   9.308   0.676  1.00  0.00     0.293 HD
ENDBRANCH  15  18
BRANCH  17  20
ATOM     20  O   UNL     1     -15.305   8.928   3.628  1.00  0.00    -0.504 OA
ATOM     21  H   UNL     1     -15.354   8.019   3.182  1.00  0.00     0.293 HD
ENDBRANCH  17  20
ENDBRANCH   1  12
BRANCH   2  22
ATOM     22  O   UNL     1     -12.847  12.193   6.693  1.00  0.00    -0.502 OA
ATOM     23  H   UNL     1     -13.649  11.778   6.232  1.00  0.00     0.293 HD
ENDBRANCH   2  22
BRANCH   6  24
ATOM     24  O   UNL     1      -8.238  12.050   9.359  1.00  0.00    -0.507 OA
ATOM     25  H   UNL     1      -8.938  12.700   9.679  1.00  0.00     0.293 HD
ENDBRANCH   6  24
BRANCH   8  26
ATOM     26  O   UNL     1      -5.370  10.140   6.040  1.00  0.00    -0.508 OA
ATOM     27  H   UNL     1      -4.538  10.549   6.452  1.00  0.00     0.293 HD
ENDBRANCH   8  26
TORSDOF 6
ENDMDL
MODEL 9
REMARK VINA RESULT:    -5.242      4.406      6.991
REMARK INTER + INTRA:          -6.534
REMARK INTER:                  -6.536
REMARK INTRA:                   0.003
REMARK UNBOUND:                -0.219
REMARK SMILES O=c1c(O)c(-c2ccc(O)c(O)c2)oc2cc(O)cc(O)c12
REMARK SMILES IDX 5 1 3 2 2 3 1 4 22 5 20 6 19 7 17 8 16 9 15 10 14 11 6 12
REMARK SMILES IDX 7 13 8 14 9 15 13 16 11 17 10 18 12 20 4 22 21 24 18 26
REMARK H PARENT 10 19 12 21 4 23 21 25 18 27
REMARK Flexibility Score: inf
ROOT
ATOM      1  C   UNL     1     -11.130  10.938   5.675  1.00  0.00     0.180 A 
ATOM      2  C   UNL     1     -11.969  11.233   6.763  1.00  0.00     0.208 A 
ATOM      3  C   UNL     1     -13.323  11.518   6.522  1.00  0.00     0.238 A 
ATOM      4  O   UNL     1     -14.084  11.707   7.507  1.00  0.00    -0.285 OA
ATOM      5  C   UNL     1     -13.808  11.560   5.193  1.00  0.00     0.111 A 
ATOM      6  C   UNL     1     -15.151  11.882   4.828  1.00  0.00     0.134 A 
ATOM      7  C   UNL     1     -15.544  11.788   3.487  1.00  0.00     0.093 A 
ATOM      8  C   UNL     1     -14.631  11.447   2.491  1.00  0.00     0.123 A 
ATOM      9  C   UNL     1     -13.302  11.184   2.829  1.00  0.00     0.094 A 
ATOM     10  C   UNL     1     -12.889  11.231   4.162  1.00  0.00     0.146 A 
ATOM     11  O   UNL     1     -11.621  10.953   4.443  1.00  0.00    -0.452 OA
ENDROOT
BRANCH   1  12
ATOM     12  C   UNL     1      -9.696  10.614   5.851  1.00  0.00     0.025 A 
ATOM     13  C   UNL     1      -9.126   9.470   5.265  1.00  0.00     0.016 A 
ATOM     14  C   UNL     1      -7.764   9.198   5.423  1.00  0.00     0.051 A 
ATOM     15  C   UNL     1      -6.952  10.071   6.158  1.00  0.00     0.157 A 
ATOM     16  C   UNL     1      -8.872  11.497   6.569  1.00  0.00     0.062 A 
ATOM     17  C   UNL     1      -7.505  11.224   6.729  1.00  0.00     0.158 A 
BRANCH  15  18
ATOM     18  O   UNL     1      -5.594   9.802   6.320  1.00  0.00    -0.504 OA
ATOM     19  H   UNL     1      -4.890  10.280   5.770  1.00  0.00     0.293 HD
ENDBRANCH  15  18
BRANCH  17  20
ATOM     20  O   UNL     1      -6.693  12.094   7.453  1.00  0.00    -0.504 OA
ATOM     21  H   UNL     1      -7.010  12.522   8.315  1.00  0.00     0.293 HD
ENDBRANCH  17  20
ENDBRANCH   1  12
BRANCH   2  22
ATOM     22  O   UNL     1     -11.453  11.262   8.063  1.00  0.00    -0.502 OA
ATOM     23  H   UNL     1     -10.857  12.010   8.395  1.00  0.00     0.293 HD
ENDBRANCH   2  22
BRANCH   6  24
ATOM     24  O   UNL     1     -16.124  12.320   5.731  1.00  0.00    -0.507 OA
ATOM     25  H   UNL     1     -16.335  11.879   6.613  1.00  0.00     0.293 HD
ENDBRANCH   6  24
BRANCH   8  26
ATOM     26  O   UNL     1     -15.053  11.381   1.165  1.00  0.00    -0.508 OA
ATOM     27  H   UNL     1     -14.416  11.126   0.418  1.00  0.00     0.293 HD
ENDBRANCH   8  26
TORSDOF 6
ENDMDL
