MODEL 1
REMARK VINA RESULT:    -1.936      0.000      0.000
REMARK INTER + INTRA:          -1.936
REMARK INTER:                  -1.936
REMARK INTRA:                   0.000
REMARK UNBOUND:                 0.000
REMARK SMILES CC(=O)[O-]
REMARK SMILES IDX 1 1 2 2 3 3 4 4
REMARK H PARENT
REMARK Flexibility Score: inf
ROOT
ATOM      1  C   UNL     1      25.426   7.605  29.630  1.00  0.00     0.063 C 
ATOM      2  C   UNL     1      25.139   8.789  28.771  1.00  0.00     0.038 C 
ATOM      3  O   UNL     1      24.637   8.631  27.626  1.00  0.00    -0.550 OA
ATOM      4  O   UNL     1      25.373  10.071  29.251  1.00  0.00    -0.550 OA
ENDROOT
TORSDOF 0
ENDMDL
MODEL 2
REMARK VINA RESULT:    -1.894      1.461      2.265
REMARK INTER + INTRA:          -1.894
REMARK INTER:                  -1.894
REMARK INTRA:                   0.000
REMARK UNBOUND:                 0.000
REMARK SMILES CC(=O)[O-]
REMARK SMILES IDX 1 1 2 2 3 3 4 4
REMARK H PARENT
REMARK Flexibility Score: inf
ROOT
ATOM      1  C   UNL     1      25.141  10.125  29.363  1.00  0.00     0.063 C 
ATOM      2  C   UNL     1      25.014   8.645  29.240  1.00  0.00     0.038 C 
ATOM      3  O   UNL     1      25.356   7.900  30.197  1.00  0.00    -0.550 OA
ATOM      4  O   UNL     1      24.468   8.086  28.092  1.00  0.00    -0.550 OA
ENDROOT
TORSDOF 0
ENDMDL
MODEL 3
REMARK VINA RESULT:    -1.892      1.319      1.718
REMARK INTER + INTRA:          -1.892
REMARK INTER:                  -1.892
REMARK INTRA:                   0.000
REMARK UNBOUND:                 0.000
REMARK SMILES CC(=O)[O-]
REMARK SMILES IDX 1 1 2 2 3 3 4 4
REMARK H PARENT
REMARK Flexibility Score: inf
ROOT
ATOM      1  C   UNL     1      25.479   7.573  29.637  1.00  0.00     0.063 C 
ATOM      2  C   UNL     1      24.894   8.924  29.876  1.00  0.00     0.038 C 
ATOM      3  O   UNL     1      25.350   9.926  29.266  1.00  0.00    -0.550 OA
ATOM      4  O   UNL     1      23.810   9.071  30.732  1.00  0.00    -0.550 OA
ENDROOT
TORSDOF 0
ENDMDL
MODEL 4
REMARK VINA RESULT:    -1.821      1.789      2.141
REMARK INTER + INTRA:          -1.821
REMARK INTER:                  -1.821
REMARK INTRA:                   0.000
REMARK UNBOUND:                 0.000
REMARK SMILES CC(=O)[O-]
REMARK SMILES IDX 1 1 2 2 3 3 4 4
REMARK H PARENT
REMARK Flexibility Score: inf
ROOT
ATOM      1  C   UNL     1      24.069   6.696  29.049  1.00  0.00     0.063 C 
ATOM      2  C   UNL     1      25.199   7.620  29.352  1.00  0.00     0.038 C 
ATOM      3  O   UNL     1      25.819   7.522  30.444  1.00  0.00    -0.550 OA
ATOM      4  O   UNL     1      25.605   8.555  28.409  1.00  0.00    -0.550 OA
ENDROOT
TORSDOF 0
ENDMDL
MODEL 5
REMARK VINA RESULT:    -1.803      2.118      2.253
REMARK INTER + INTRA:          -1.803
REMARK INTER:                  -1.803
REMARK INTRA:                   0.000
REMARK UNBOUND:                 0.000
REMARK SMILES CC(=O)[O-]
REMARK SMILES IDX 1 1 2 2 3 3 4 4
REMARK H PARENT
REMARK Flexibility Score: inf
ROOT
ATOM      1  C   UNL     1      25.052   9.640  28.486  1.00  0.00     0.063 C 
ATOM      2  C   UNL     1      24.835   9.225  27.071  1.00  0.00     0.038 C 
ATOM      3  O   UNL     1      23.987   8.335  26.797  1.00  0.00    -0.550 OA
ATOM      4  O   UNL     1      25.529   9.855  26.046  1.00  0.00    -0.550 OA
ENDROOT
TORSDOF 0
ENDMDL
MODEL 6
REMARK VINA RESULT:    -1.725     15.145     15.250
REMARK INTER + INTRA:          -1.725
REMARK INTER:                  -1.725
REMARK INTRA:                   0.000
REMARK UNBOUND:                 0.000
REMARK SMILES CC(=O)[O-]
REMARK SMILES IDX 1 1 2 2 3 3 4 4
REMARK H PARENT
REMARK Flexibility Score: inf
ROOT
ATOM      1  C   UNL     1      11.298   7.977  33.289  1.00  0.00     0.063 C 
ATOM      2  C   UNL     1      10.331   8.233  32.183  1.00  0.00     0.038 C 
ATOM      3  O   UNL     1      10.657   7.992  30.991  1.00  0.00    -0.550 OA
ATOM      4  O   UNL     1       9.050   8.685  32.470  1.00  0.00    -0.550 OA
ENDROOT
TORSDOF 0
ENDMDL
MODEL 7
REMARK VINA RESULT:    -1.676     16.882     17.063
REMARK INTER + INTRA:          -1.676
REMARK INTER:                  -1.676
REMARK INTRA:                   0.000
REMARK UNBOUND:                 0.000
REMARK SMILES CC(=O)[O-]
REMARK SMILES IDX 1 1 2 2 3 3 4 4
REMARK H PARENT
REMARK Flexibility Score: inf
ROOT
ATOM      1  C   UNL     1       8.030   6.338  31.016  1.00  0.00     0.063 C 
ATOM      2  C   UNL     1       8.338   7.797  31.021  1.00  0.00     0.038 C 
ATOM      3  O   UNL     1       9.058   8.287  31.930  1.00  0.00    -0.550 OA
ATOM      4  O   UNL     1       7.876   8.609  29.994  1.00  0.00    -0.550 OA
ENDROOT
TORSDOF 0
ENDMDL
MODEL 8
REMARK VINA RESULT:    -1.659     16.772     16.894
REMARK INTER + INTRA:          -1.659
REMARK INTER:                  -1.659
REMARK INTRA:                   0.000
REMARK UNBOUND:                 0.000
REMARK SMILES CC(=O)[O-]
REMARK SMILES IDX 1 1 2 2 3 3 4 4
REMARK H PARENT
REMARK Flexibility Score: inf
ROOT
ATOM      1  C   UNL     1       8.141   6.337  31.079  1.00  0.00     0.063 C 
ATOM      2  C   UNL     1       8.479   7.787  31.166  1.00  0.00     0.038 C 
ATOM      3  O   UNL     1       7.894   8.617  30.420  1.00  0.00    -0.550 OA
ATOM      4  O   UNL     1       9.398   8.233  32.107  1.00  0.00    -0.550 OA
ENDROOT
TORSDOF 0
ENDMDL
