MODEL 1
REMARK VINA RESULT:    -5.145      0.000      0.000
REMARK INTER + INTRA:          -6.468
REMARK INTER:                  -6.048
REMARK INTRA:                  -0.421
REMARK UNBOUND:                -0.421
REMARK SMILES CC1(C)CC[C@@]2(C(=O)[O-])CC[C@@]3(C)C(=CC[C@H]4[C@@]5(C)CC[C@H](O)[C@](C)(CO)[C@@H]5CC[C@@]43C)[C@@H]2C1
REMARK SMILES IDX 6 1 5 2 10 3 33 4 4 5 11 6 14 7 34 8 2 9 12 10 15 11 1 12
REMARK SMILES IDX 3 13 13 14 31 15 16 16 17 17 30 18 32 19 18 20 29 21 28 22
REMARK SMILES IDX 20 23 19 24 24 25 21 26 22 27 25 28 7 29 8 30 9 31 26 32
REMARK SMILES IDX 27 33 23 35
REMARK H PARENT 27 34 23 36
REMARK Flexibility Score: inf
ROOT
ATOM      1  C   UNL     1      55.778  37.741 124.315  1.00  0.00     0.017 C 
ATOM      2  C   UNL     1      54.503  36.937 123.749  1.00  0.00     0.014 C 
ATOM      3  C   UNL     1      56.618  38.351 123.097  1.00  0.00     0.014 C 
ATOM      4  C   UNL     1      55.227  38.863 125.250  1.00  0.00     0.028 C 
ATOM      5  C   UNL     1      53.133  37.599 123.957  1.00  0.00     0.007 C 
ATOM      6  C   UNL     1      57.224  39.811 123.267  1.00  0.00     0.013 C 
ATOM      7  C   UNL     1      56.160  40.025 125.356  1.00  0.00    -0.064 C 
ATOM      8  C   UNL     1      54.209  38.415 126.288  1.00  0.00     0.015 C 
ATOM      9  C   UNL     1      52.870  38.006 125.515  1.00  0.00    -0.035 C 
ATOM     10  C   UNL     1      56.275  40.820 124.032  1.00  0.00    -0.006 C 
ATOM     11  C   UNL     1      57.107  39.956 126.270  1.00  0.00    -0.027 C 
ATOM     12  C   UNL     1      52.226  36.819 126.213  1.00  0.00     0.011 C 
ATOM     13  C   UNL     1      51.943  39.238 125.501  1.00  0.00     0.011 C 
ATOM     14  C   UNL     1      55.039  40.933 123.005  1.00  0.00     0.017 C 
ATOM     15  C   UNL     1      56.810  42.315 124.448  1.00  0.00    -0.020 C 
ATOM     16  C   UNL     1      58.219  40.974 126.237  1.00  0.00     0.032 C 
ATOM     17  C   UNL     1      57.575  42.323 125.830  1.00  0.00     0.006 C 
ATOM     18  C   UNL     1      55.553  43.271 124.609  1.00  0.00     0.008 C 
ATOM     19  C   UNL     1      57.721  42.793 123.259  1.00  0.00     0.012 C 
ATOM     20  C   UNL     1      57.990  43.758 126.504  1.00  0.00    -0.025 C 
ATOM     21  C   UNL     1      55.487  44.125 125.933  1.00  0.00     0.005 C 
ATOM     22  C   UNL     1      56.855  44.830 126.087  1.00  0.00     0.006 C 
ATOM     23  C   UNL     1      59.352  44.374 126.076  1.00  0.00     0.010 C 
ATOM     24  C   UNL     1      58.121  43.471 128.053  1.00  0.00     0.012 C 
ATOM     25  C   UNL     1      56.916  46.249 126.789  1.00  0.00     0.020 C 
ATOM     26  C   UNL     1      59.517  45.799 126.639  1.00  0.00     0.033 C 
ATOM     27  C   UNL     1      58.307  46.788 126.424  1.00  0.00     0.123 C 
ATOM     28  C   UNL     1      55.838  47.170 126.127  1.00  0.00     0.017 C 
ENDROOT
BRANCH   1  29
ATOM     29  C   UNL     1      56.710  36.899 125.207  1.00  0.00     0.048 C 
ATOM     30  O   UNL     1      56.238  35.877 125.832  1.00  0.00    -0.550 OA
ATOM     31  O   UNL     1      58.122  36.998 125.136  1.00  0.00    -0.550 OA
ENDBRANCH   1  29
BRANCH  25  32
ATOM     32  C   UNL     1      56.684  46.230 128.381  1.00  0.00     0.165 C 
BRANCH  32  33
ATOM     33  O   UNL     1      56.457  47.460 129.045  1.00  0.00    -0.396 OA
ATOM     34  H   UNL     1      57.296  47.994 129.050  1.00  0.00     0.210 HD
ENDBRANCH  32  33
ENDBRANCH  25  32
BRANCH  27  35
ATOM     35  O   UNL     1      58.579  47.977 127.143  1.00  0.00    -0.392 OA
ATOM     36  H   UNL     1      57.894  48.623 126.877  1.00  0.00     0.210 HD
ENDBRANCH  27  35
TORSDOF 4
ENDMDL
MODEL 2
REMARK VINA RESULT:    -4.795      1.945      8.126
REMARK INTER + INTRA:          -6.056
REMARK INTER:                  -5.650
REMARK INTRA:                  -0.406
REMARK UNBOUND:                -0.421
REMARK SMILES CC1(C)CC[C@@]2(C(=O)[O-])CC[C@@]3(C)C(=CC[C@H]4[C@@]5(C)CC[C@H](O)[C@](C)(CO)[C@@H]5CC[C@@]43C)[C@@H]2C1
REMARK SMILES IDX 6 1 5 2 10 3 33 4 4 5 11 6 14 7 34 8 2 9 12 10 15 11 1 12
REMARK SMILES IDX 3 13 13 14 31 15 16 16 17 17 30 18 32 19 18 20 29 21 28 22
REMARK SMILES IDX 20 23 19 24 24 25 21 26 22 27 25 28 7 29 8 30 9 31 26 32
REMARK SMILES IDX 27 33 23 35
REMARK H PARENT 27 34 23 36
REMARK Flexibility Score: inf
ROOT
ATOM      1  C   UNL     1      60.104  45.276 125.769  1.00  0.00     0.017 C 
ATOM      2  C   UNL     1      60.403  46.330 126.949  1.00  0.00     0.014 C 
ATOM      3  C   UNL     1      61.120  44.044 125.873  1.00  0.00     0.014 C 
ATOM      4  C   UNL     1      58.623  44.814 125.939  1.00  0.00     0.028 C 
ATOM      5  C   UNL     1      59.373  46.388 128.087  1.00  0.00     0.007 C 
ATOM      6  C   UNL     1      60.555  42.586 125.587  1.00  0.00     0.013 C 
ATOM      7  C   UNL     1      58.380  43.458 125.361  1.00  0.00    -0.064 C 
ATOM      8  C   UNL     1      57.600  45.927 126.111  1.00  0.00     0.015 C 
ATOM      9  C   UNL     1      57.852  46.605 127.537  1.00  0.00    -0.035 C 
ATOM     10  C   UNL     1      59.098  42.335 126.150  1.00  0.00    -0.006 C 
ATOM     11  C   UNL     1      58.080  43.394 124.079  1.00  0.00    -0.027 C 
ATOM     12  C   UNL     1      57.593  48.100 127.438  1.00  0.00     0.011 C 
ATOM     13  C   UNL     1      56.912  45.924 128.551  1.00  0.00     0.011 C 
ATOM     14  C   UNL     1      59.348  42.447 127.738  1.00  0.00     0.017 C 
ATOM     15  C   UNL     1      58.294  40.949 125.796  1.00  0.00    -0.020 C 
ATOM     16  C   UNL     1      58.086  42.047 123.401  1.00  0.00     0.032 C 
ATOM     17  C   UNL     1      57.516  41.032 124.423  1.00  0.00     0.006 C 
ATOM     18  C   UNL     1      57.211  40.693 126.927  1.00  0.00     0.008 C 
ATOM     19  C   UNL     1      59.377  39.809 125.799  1.00  0.00     0.012 C 
ATOM     20  C   UNL     1      56.489  39.823 124.014  1.00  0.00    -0.025 C 
ATOM     21  C   UNL     1      55.746  40.375 126.436  1.00  0.00     0.005 C 
ATOM     22  C   UNL     1      55.855  39.247 125.384  1.00  0.00     0.006 C 
ATOM     23  C   UNL     1      57.095  38.602 123.264  1.00  0.00     0.010 C 
ATOM     24  C   UNL     1      55.459  40.472 123.006  1.00  0.00     0.012 C 
ATOM     25  C   UNL     1      54.669  38.206 125.243  1.00  0.00     0.020 C 
ATOM     26  C   UNL     1      56.056  37.472 123.117  1.00  0.00     0.033 C 
ATOM     27  C   UNL     1      55.272  37.058 124.421  1.00  0.00     0.123 C 
ATOM     28  C   UNL     1      54.321  37.665 126.670  1.00  0.00     0.017 C 
ENDROOT
BRANCH   1  29
ATOM     29  C   UNL     1      60.175  45.878 124.353  1.00  0.00     0.048 C 
ATOM     30  O   UNL     1      60.020  47.147 124.194  1.00  0.00    -0.550 OA
ATOM     31  O   UNL     1      60.708  45.165 123.250  1.00  0.00    -0.550 OA
ENDBRANCH   1  29
BRANCH  25  32
ATOM     32  C   UNL     1      53.333  38.788 124.563  1.00  0.00     0.165 C 
BRANCH  32  33
ATOM     33  O   UNL     1      52.168  37.982 124.564  1.00  0.00    -0.396 OA
ATOM     34  H   UNL     1      52.401  37.063 124.867  1.00  0.00     0.210 HD
ENDBRANCH  32  33
ENDBRANCH  25  32
BRANCH  27  35
ATOM     35  O   UNL     1      54.266  36.133 124.053  1.00  0.00    -0.392 OA
ATOM     36  H   UNL     1      53.593  36.161 124.763  1.00  0.00     0.210 HD
ENDBRANCH  27  35
TORSDOF 4
ENDMDL
MODEL 3
REMARK VINA RESULT:    -4.450      1.835      2.641
REMARK INTER + INTRA:          -5.651
REMARK INTER:                  -5.517
REMARK INTRA:                  -0.134
REMARK UNBOUND:                -0.421
REMARK SMILES CC1(C)CC[C@@]2(C(=O)[O-])CC[C@@]3(C)C(=CC[C@H]4[C@@]5(C)CC[C@H](O)[C@](C)(CO)[C@@H]5CC[C@@]43C)[C@@H]2C1
REMARK SMILES IDX 6 1 5 2 10 3 33 4 4 5 11 6 14 7 34 8 2 9 12 10 15 11 1 12
REMARK SMILES IDX 3 13 13 14 31 15 16 16 17 17 30 18 32 19 18 20 29 21 28 22
REMARK SMILES IDX 20 23 19 24 24 25 21 26 22 27 25 28 7 29 8 30 9 31 26 32
REMARK SMILES IDX 27 33 23 35
REMARK H PARENT 27 34 23 36
REMARK Flexibility Score: inf
ROOT
ATOM      1  C   UNL     1      54.495  37.054 125.346  1.00  0.00     0.017 C 
ATOM      2  C   UNL     1      53.450  36.400 124.311  1.00  0.00     0.014 C 
ATOM      3  C   UNL     1      55.976  36.549 125.011  1.00  0.00     0.014 C 
ATOM      4  C   UNL     1      54.370  38.603 125.200  1.00  0.00     0.028 C 
ATOM      5  C   UNL     1      52.856  37.344 123.256  1.00  0.00     0.007 C 
ATOM      6  C   UNL     1      57.165  37.601 125.120  1.00  0.00     0.013 C 
ATOM      7  C   UNL     1      55.622  39.315 125.594  1.00  0.00    -0.064 C 
ATOM      8  C   UNL     1      52.954  39.156 125.247  1.00  0.00     0.015 C 
ATOM      9  C   UNL     1      52.199  38.683 123.918  1.00  0.00    -0.035 C 
ATOM     10  C   UNL     1      56.792  39.052 124.614  1.00  0.00    -0.006 C 
ATOM     11  C   UNL     1      55.770  39.613 126.869  1.00  0.00    -0.027 C 
ATOM     12  C   UNL     1      50.744  38.386 124.243  1.00  0.00     0.011 C 
ATOM     13  C   UNL     1      52.339  39.809 122.875  1.00  0.00     0.011 C 
ATOM     14  C   UNL     1      56.535  38.784 123.045  1.00  0.00     0.017 C 
ATOM     15  C   UNL     1      57.839  40.300 124.815  1.00  0.00    -0.020 C 
ATOM     16  C   UNL     1      57.119  40.089 127.349  1.00  0.00     0.032 C 
ATOM     17  C   UNL     1      57.696  40.991 126.229  1.00  0.00     0.006 C 
ATOM     18  C   UNL     1      57.518  41.407 123.724  1.00  0.00     0.008 C 
ATOM     19  C   UNL     1      59.274  39.699 124.588  1.00  0.00     0.012 C 
ATOM     20  C   UNL     1      58.509  42.382 126.523  1.00  0.00    -0.025 C 
ATOM     21  C   UNL     1      57.366  42.886 124.251  1.00  0.00     0.005 C 
ATOM     22  C   UNL     1      58.605  43.186 125.125  1.00  0.00     0.006 C 
ATOM     23  C   UNL     1      59.964  42.254 127.056  1.00  0.00     0.010 C 
ATOM     24  C   UNL     1      57.698  43.106 127.671  1.00  0.00     0.012 C 
ATOM     25  C   UNL     1      59.165  44.667 125.186  1.00  0.00     0.020 C 
ATOM     26  C   UNL     1      60.660  43.629 127.103  1.00  0.00     0.033 C 
ATOM     27  C   UNL     1      60.564  44.514 125.801  1.00  0.00     0.123 C 
ATOM     28  C   UNL     1      59.323  45.192 123.720  1.00  0.00     0.017 C 
ENDROOT
BRANCH   1  29
ATOM     29  C   UNL     1      54.181  36.765 126.827  1.00  0.00     0.048 C 
ATOM     30  O   UNL     1      52.979  36.916 127.262  1.00  0.00    -0.550 OA
ATOM     31  O   UNL     1      55.070  36.047 127.665  1.00  0.00    -0.550 OA
ENDBRANCH   1  29
BRANCH  25  32
ATOM     32  C   UNL     1      58.258  45.702 126.019  1.00  0.00     0.165 C 
BRANCH  32  33
ATOM     33  O   UNL     1      56.945  45.971 125.561  1.00  0.00    -0.396 OA
ATOM     34  H   UNL     1      56.289  45.492 126.136  1.00  0.00     0.210 HD
ENDBRANCH  32  33
ENDBRANCH  25  32
BRANCH  27  35
ATOM     35  O   UNL     1      61.116  45.784 126.093  1.00  0.00    -0.392 OA
ATOM     36  H   UNL     1      60.450  46.445 125.815  1.00  0.00     0.210 HD
ENDBRANCH  27  35
TORSDOF 4
ENDMDL
MODEL 4
REMARK VINA RESULT:    -4.403      3.447      7.820
REMARK INTER + INTRA:          -5.595
REMARK INTER:                  -5.399
REMARK INTRA:                  -0.197
REMARK UNBOUND:                -0.421
REMARK SMILES CC1(C)CC[C@@]2(C(=O)[O-])CC[C@@]3(C)C(=CC[C@H]4[C@@]5(C)CC[C@H](O)[C@](C)(CO)[C@@H]5CC[C@@]43C)[C@@H]2C1
REMARK SMILES IDX 6 1 5 2 10 3 33 4 4 5 11 6 14 7 34 8 2 9 12 10 15 11 1 12
REMARK SMILES IDX 3 13 13 14 31 15 16 16 17 17 30 18 32 19 18 20 29 21 28 22
REMARK SMILES IDX 20 23 19 24 24 25 21 26 22 27 25 28 7 29 8 30 9 31 26 32
REMARK SMILES IDX 27 33 23 35
REMARK H PARENT 27 34 23 36
REMARK Flexibility Score: inf
ROOT
ATOM      1  C   UNL     1      51.984  45.862 125.995  1.00  0.00     0.017 C 
ATOM      2  C   UNL     1      50.520  46.343 126.461  1.00  0.00     0.014 C 
ATOM      3  C   UNL     1      52.963  45.806 127.259  1.00  0.00     0.014 C 
ATOM      4  C   UNL     1      51.812  44.455 125.340  1.00  0.00     0.028 C 
ATOM      5  C   UNL     1      49.422  45.268 126.472  1.00  0.00     0.007 C 
ATOM      6  C   UNL     1      53.992  44.597 127.353  1.00  0.00     0.013 C 
ATOM      7  C   UNL     1      53.059  43.636 125.417  1.00  0.00    -0.064 C 
ATOM      8  C   UNL     1      50.713  44.345 124.295  1.00  0.00     0.015 C 
ATOM      9  C   UNL     1      49.308  44.482 125.047  1.00  0.00    -0.035 C 
ATOM     10  C   UNL     1      53.406  43.211 126.866  1.00  0.00    -0.006 C 
ATOM     11  C   UNL     1      53.945  43.794 124.454  1.00  0.00    -0.027 C 
ATOM     12  C   UNL     1      48.334  45.243 124.162  1.00  0.00     0.011 C 
ATOM     13  C   UNL     1      48.807  43.059 125.364  1.00  0.00     0.011 C 
ATOM     14  C   UNL     1      52.257  42.947 127.966  1.00  0.00     0.017 C 
ATOM     15  C   UNL     1      54.378  41.896 126.730  1.00  0.00    -0.020 C 
ATOM     16  C   UNL     1      55.317  43.192 124.628  1.00  0.00     0.032 C 
ATOM     17  C   UNL     1      55.118  41.829 125.336  1.00  0.00     0.006 C 
ATOM     18  C   UNL     1      53.479  40.593 126.841  1.00  0.00     0.008 C 
ATOM     19  C   UNL     1      55.385  41.978 127.935  1.00  0.00     0.012 C 
ATOM     20  C   UNL     1      55.960  40.480 124.943  1.00  0.00    -0.025 C 
ATOM     21  C   UNL     1      53.689  39.500 125.723  1.00  0.00     0.005 C 
ATOM     22  C   UNL     1      55.209  39.227 125.635  1.00  0.00     0.006 C 
ATOM     23  C   UNL     1      57.443  40.410 125.406  1.00  0.00     0.010 C 
ATOM     24  C   UNL     1      56.006  40.460 123.363  1.00  0.00     0.012 C 
ATOM     25  C   UNL     1      55.710  37.779 125.232  1.00  0.00     0.020 C 
ATOM     26  C   UNL     1      58.043  39.016 125.134  1.00  0.00     0.033 C 
ATOM     27  C   UNL     1      57.197  37.776 125.616  1.00  0.00     0.123 C 
ATOM     28  C   UNL     1      54.963  36.735 126.128  1.00  0.00     0.017 C 
ENDROOT
BRANCH   1  29
ATOM     29  C   UNL     1      52.616  46.739 124.898  1.00  0.00     0.048 C 
ATOM     30  O   UNL     1      51.856  47.400 124.096  1.00  0.00    -0.550 OA
ATOM     31  O   UNL     1      53.985  47.107 124.915  1.00  0.00    -0.550 OA
ENDBRANCH   1  29
BRANCH  25  32
ATOM     32  C   UNL     1      55.494  37.391 123.685  1.00  0.00     0.165 C 
BRANCH  32  33
ATOM     33  O   UNL     1      56.637  37.166 122.879  1.00  0.00    -0.396 OA
ATOM     34  H   UNL     1      56.772  36.187 122.762  1.00  0.00     0.210 HD
ENDBRANCH  32  33
ENDBRANCH  25  32
BRANCH  27  35
ATOM     35  O   UNL     1      57.827  36.602 125.138  1.00  0.00    -0.392 OA
ATOM     36  H   UNL     1      57.553  36.502 124.204  1.00  0.00     0.210 HD
ENDBRANCH  27  35
TORSDOF 4
ENDMDL
MODEL 5
REMARK VINA RESULT:    -4.375      3.851      6.778
REMARK INTER + INTRA:          -5.563
REMARK INTER:                  -5.187
REMARK INTRA:                  -0.375
REMARK UNBOUND:                -0.421
REMARK SMILES CC1(C)CC[C@@]2(C(=O)[O-])CC[C@@]3(C)C(=CC[C@H]4[C@@]5(C)CC[C@H](O)[C@](C)(CO)[C@@H]5CC[C@@]43C)[C@@H]2C1
REMARK SMILES IDX 6 1 5 2 10 3 33 4 4 5 11 6 14 7 34 8 2 9 12 10 15 11 1 12
REMARK SMILES IDX 3 13 13 14 31 15 16 16 17 17 30 18 32 19 18 20 29 21 28 22
REMARK SMILES IDX 20 23 19 24 24 25 21 26 22 27 25 28 7 29 8 30 9 31 26 32
REMARK SMILES IDX 27 33 23 35
REMARK H PARENT 27 34 23 36
REMARK Flexibility Score: inf
ROOT
ATOM      1  C   UNL     1      56.298  38.326 125.033  1.00  0.00     0.017 C 
ATOM      2  C   UNL     1      57.845  38.492 125.447  1.00  0.00     0.014 C 
ATOM      3  C   UNL     1      55.446  37.854 126.302  1.00  0.00     0.014 C 
ATOM      4  C   UNL     1      55.818  39.713 124.504  1.00  0.00     0.028 C 
ATOM      5  C   UNL     1      58.372  39.932 125.547  1.00  0.00     0.007 C 
ATOM      6  C   UNL     1      54.002  38.487 126.508  1.00  0.00     0.013 C 
ATOM      7  C   UNL     1      54.345  39.903 124.659  1.00  0.00    -0.064 C 
ATOM      8  C   UNL     1      56.716  40.369 123.466  1.00  0.00     0.015 C 
ATOM      9  C   UNL     1      58.074  40.797 124.196  1.00  0.00    -0.035 C 
ATOM     10  C   UNL     1      53.911  40.023 126.141  1.00  0.00    -0.006 C 
ATOM     11  C   UNL     1      53.573  39.452 123.690  1.00  0.00    -0.027 C 
ATOM     12  C   UNL     1      59.242  40.603 123.242  1.00  0.00     0.011 C 
ATOM     13  C   UNL     1      57.926  42.268 124.634  1.00  0.00     0.011 C 
ATOM     14  C   UNL     1      54.880  40.672 127.254  1.00  0.00     0.017 C 
ATOM     15  C   UNL     1      52.462  40.793 126.127  1.00  0.00    -0.020 C 
ATOM     16  C   UNL     1      52.085  39.385 123.924  1.00  0.00     0.032 C 
ATOM     17  C   UNL     1      51.707  40.641 124.748  1.00  0.00     0.006 C 
ATOM     18  C   UNL     1      52.715  42.344 126.348  1.00  0.00     0.008 C 
ATOM     19  C   UNL     1      51.642  40.190 127.326  1.00  0.00     0.012 C 
ATOM     20  C   UNL     1      50.349  41.518 124.481  1.00  0.00    -0.025 C 
ATOM     21  C   UNL     1      52.007  43.321 125.331  1.00  0.00     0.005 C 
ATOM     22  C   UNL     1      50.516  42.915 125.276  1.00  0.00     0.006 C 
ATOM     23  C   UNL     1      49.003  40.902 124.956  1.00  0.00     0.010 C 
ATOM     24  C   UNL     1      50.231  41.637 122.909  1.00  0.00     0.012 C 
ATOM     25  C   UNL     1      49.423  44.029 125.005  1.00  0.00     0.020 C 
ATOM     26  C   UNL     1      47.849  41.915 124.811  1.00  0.00     0.033 C 
ATOM     27  C   UNL     1      48.098  43.358 125.396  1.00  0.00     0.123 C 
ATOM     28  C   UNL     1      49.684  45.221 125.986  1.00  0.00     0.017 C 
ENDROOT
BRANCH   1  29
ATOM     29  C   UNL     1      56.059  37.348 123.866  1.00  0.00     0.048 C 
ATOM     30  O   UNL     1      56.882  37.328 122.875  1.00  0.00    -0.550 OA
ATOM     31  O   UNL     1      55.163  36.255 123.963  1.00  0.00    -0.550 OA
ENDBRANCH   1  29
BRANCH  25  32
ATOM     32  C   UNL     1      49.384  44.590 123.498  1.00  0.00     0.165 C 
BRANCH  32  33
ATOM     33  O   UNL     1      48.742  45.829 123.254  1.00  0.00    -0.396 OA
ATOM     34  H   UNL     1      49.428  46.543 123.148  1.00  0.00     0.210 HD
ENDBRANCH  32  33
ENDBRANCH  25  32
BRANCH  27  35
ATOM     35  O   UNL     1      47.004  44.176 125.027  1.00  0.00    -0.392 OA
ATOM     36  H   UNL     1      46.368  44.139 125.770  1.00  0.00     0.210 HD
ENDBRANCH  27  35
TORSDOF 4
ENDMDL
MODEL 6
REMARK VINA RESULT:    -4.339      2.023      8.138
REMARK INTER + INTRA:          -5.521
REMARK INTER:                  -5.320
REMARK INTRA:                  -0.201
REMARK UNBOUND:                -0.421
REMARK SMILES CC1(C)CC[C@@]2(C(=O)[O-])CC[C@@]3(C)C(=CC[C@H]4[C@@]5(C)CC[C@H](O)[C@](C)(CO)[C@@H]5CC[C@@]43C)[C@@H]2C1
REMARK SMILES IDX 6 1 5 2 10 3 33 4 4 5 11 6 14 7 34 8 2 9 12 10 15 11 1 12
REMARK SMILES IDX 3 13 13 14 31 15 16 16 17 17 30 18 32 19 18 20 29 21 28 22
REMARK SMILES IDX 20 23 19 24 24 25 21 26 22 27 25 28 7 29 8 30 9 31 26 32
REMARK SMILES IDX 27 33 23 35
REMARK H PARENT 27 34 23 36
REMARK Flexibility Score: inf
ROOT
ATOM      1  C   UNL     1      54.849  46.147 128.281  1.00  0.00     0.017 C 
ATOM      2  C   UNL     1      53.876  47.420 128.127  1.00  0.00     0.014 C 
ATOM      3  C   UNL     1      54.259  45.145 129.380  1.00  0.00     0.014 C 
ATOM      4  C   UNL     1      54.939  45.472 126.877  1.00  0.00     0.028 C 
ATOM      5  C   UNL     1      53.049  47.491 126.834  1.00  0.00     0.007 C 
ATOM      6  C   UNL     1      54.361  43.583 129.096  1.00  0.00     0.013 C 
ATOM      7  C   UNL     1      55.265  44.017 126.966  1.00  0.00    -0.064 C 
ATOM      8  C   UNL     1      55.246  46.405 125.716  1.00  0.00     0.015 C 
ATOM      9  C   UNL     1      53.972  47.347 125.497  1.00  0.00    -0.035 C 
ATOM     10  C   UNL     1      54.116  43.184 127.585  1.00  0.00    -0.006 C 
ATOM     11  C   UNL     1      56.541  43.687 127.024  1.00  0.00    -0.027 C 
ATOM     12  C   UNL     1      54.436  48.736 125.089  1.00  0.00     0.011 C 
ATOM     13  C   UNL     1      53.088  46.695 124.415  1.00  0.00     0.011 C 
ATOM     14  C   UNL     1      52.571  43.603 127.393  1.00  0.00     0.017 C 
ATOM     15  C   UNL     1      54.354  41.640 127.081  1.00  0.00    -0.020 C 
ATOM     16  C   UNL     1      56.904  42.266 127.376  1.00  0.00     0.032 C 
ATOM     17  C   UNL     1      55.857  41.355 126.687  1.00  0.00     0.006 C 
ATOM     18  C   UNL     1      53.480  41.396 125.779  1.00  0.00     0.008 C 
ATOM     19  C   UNL     1      53.862  40.722 128.259  1.00  0.00     0.012 C 
ATOM     20  C   UNL     1      56.238  39.936 125.963  1.00  0.00    -0.025 C 
ATOM     21  C   UNL     1      54.225  40.751 124.546  1.00  0.00     0.005 C 
ATOM     22  C   UNL     1      54.965  39.498 125.068  1.00  0.00     0.006 C 
ATOM     23  C   UNL     1      56.555  38.729 126.891  1.00  0.00     0.010 C 
ATOM     24  C   UNL     1      57.570  40.219 125.162  1.00  0.00     0.012 C 
ATOM     25  C   UNL     1      55.162  38.260 124.100  1.00  0.00     0.020 C 
ATOM     26  C   UNL     1      56.705  37.429 126.077  1.00  0.00     0.033 C 
ATOM     27  C   UNL     1      55.564  37.111 125.036  1.00  0.00     0.123 C 
ATOM     28  C   UNL     1      53.776  37.915 123.458  1.00  0.00     0.017 C 
ENDROOT
BRANCH   1  29
ATOM     29  C   UNL     1      56.303  46.506 128.647  1.00  0.00     0.048 C 
ATOM     30  O   UNL     1      56.788  47.641 128.281  1.00  0.00    -0.550 OA
ATOM     31  O   UNL     1      57.037  45.792 129.627  1.00  0.00    -0.550 OA
ENDBRANCH   1  29
BRANCH  25  32
ATOM     32  C   UNL     1      56.242  38.479 122.927  1.00  0.00     0.165 C 
BRANCH  32  33
ATOM     33  O   UNL     1      57.392  37.653 122.905  1.00  0.00    -0.396 OA
ATOM     34  H   UNL     1      58.184  38.195 122.642  1.00  0.00     0.210 HD
ENDBRANCH  32  33
ENDBRANCH  25  32
BRANCH  27  35
ATOM     35  O   UNL     1      55.959  35.978 124.285  1.00  0.00    -0.392 OA
ATOM     36  H   UNL     1      55.212  35.347 124.324  1.00  0.00     0.210 HD
ENDBRANCH  27  35
TORSDOF 4
ENDMDL
MODEL 7
REMARK VINA RESULT:    -4.239      1.909      2.880
REMARK INTER + INTRA:          -5.403
REMARK INTER:                  -5.362
REMARK INTRA:                  -0.042
REMARK UNBOUND:                -0.421
REMARK SMILES CC1(C)CC[C@@]2(C(=O)[O-])CC[C@@]3(C)C(=CC[C@H]4[C@@]5(C)CC[C@H](O)[C@](C)(CO)[C@@H]5CC[C@@]43C)[C@@H]2C1
REMARK SMILES IDX 6 1 5 2 10 3 33 4 4 5 11 6 14 7 34 8 2 9 12 10 15 11 1 12
REMARK SMILES IDX 3 13 13 14 31 15 16 16 17 17 30 18 32 19 18 20 29 21 28 22
REMARK SMILES IDX 20 23 19 24 24 25 21 26 22 27 25 28 7 29 8 30 9 31 26 32
REMARK SMILES IDX 27 33 23 35
REMARK H PARENT 27 34 23 36
REMARK Flexibility Score: inf
ROOT
ATOM      1  C   UNL     1      54.344  37.646 125.465  1.00  0.00     0.017 C 
ATOM      2  C   UNL     1      53.159  37.116 126.416  1.00  0.00     0.014 C 
ATOM      3  C   UNL     1      53.727  38.436 124.218  1.00  0.00     0.014 C 
ATOM      4  C   UNL     1      55.248  38.570 126.339  1.00  0.00     0.028 C 
ATOM      5  C   UNL     1      52.990  37.838 127.761  1.00  0.00     0.007 C 
ATOM      6  C   UNL     1      54.468  39.755 123.730  1.00  0.00     0.013 C 
ATOM      7  C   UNL     1      55.983  39.584 125.524  1.00  0.00    -0.064 C 
ATOM      8  C   UNL     1      55.679  37.994 127.679  1.00  0.00     0.015 C 
ATOM      9  C   UNL     1      54.382  37.901 128.610  1.00  0.00    -0.035 C 
ATOM     10  C   UNL     1      55.042  40.647 124.904  1.00  0.00    -0.006 C 
ATOM     11  C   UNL     1      57.139  39.219 125.007  1.00  0.00    -0.027 C 
ATOM     12  C   UNL     1      54.468  36.651 129.472  1.00  0.00     0.011 C 
ATOM     13  C   UNL     1      54.325  39.184 129.462  1.00  0.00     0.011 C 
ATOM     14  C   UNL     1      53.686  41.108 125.644  1.00  0.00     0.017 C 
ATOM     15  C   UNL     1      55.985  41.949 124.578  1.00  0.00    -0.020 C 
ATOM     16  C   UNL     1      57.781  40.109 123.973  1.00  0.00     0.032 C 
ATOM     17  C   UNL     1      57.509  41.570 124.411  1.00  0.00     0.006 C 
ATOM     18  C   UNL     1      55.890  42.957 125.800  1.00  0.00     0.008 C 
ATOM     19  C   UNL     1      55.387  42.599 123.277  1.00  0.00     0.012 C 
ATOM     20  C   UNL     1      58.622  42.766 124.295  1.00  0.00    -0.025 C 
ATOM     21  C   UNL     1      57.258  43.488 126.379  1.00  0.00     0.005 C 
ATOM     22  C   UNL     1      58.086  44.007 125.181  1.00  0.00     0.006 C 
ATOM     23  C   UNL     1      58.907  43.333 122.875  1.00  0.00     0.010 C 
ATOM     24  C   UNL     1      59.982  42.121 124.777  1.00  0.00     0.012 C 
ATOM     25  C   UNL     1      59.087  45.215 125.401  1.00  0.00     0.020 C 
ATOM     26  C   UNL     1      59.825  44.570 122.947  1.00  0.00     0.033 C 
ATOM     27  C   UNL     1      59.420  45.691 123.980  1.00  0.00     0.123 C 
ATOM     28  C   UNL     1      58.317  46.361 126.140  1.00  0.00     0.017 C 
ENDROOT
BRANCH   1  29
ATOM     29  C   UNL     1      55.284  36.538 124.951  1.00  0.00     0.048 C 
ATOM     30  O   UNL     1      55.456  36.387 123.684  1.00  0.00    -0.550 OA
ATOM     31  O   UNL     1      56.209  35.875 125.796  1.00  0.00    -0.550 OA
ENDBRANCH   1  29
BRANCH  25  32
ATOM     32  C   UNL     1      60.415  44.854 126.235  1.00  0.00     0.165 C 
BRANCH  32  33
ATOM     33  O   UNL     1      60.889  45.788 127.188  1.00  0.00    -0.396 OA
ATOM     34  H   UNL     1      60.703  46.712 126.869  1.00  0.00     0.210 HD
ENDBRANCH  32  33
ENDBRANCH  25  32
BRANCH  27  35
ATOM     35  O   UNL     1      60.458  46.653 124.012  1.00  0.00    -0.392 OA
ATOM     36  H   UNL     1      61.208  46.234 124.481  1.00  0.00     0.210 HD
ENDBRANCH  27  35
TORSDOF 4
ENDMDL
MODEL 8
REMARK VINA RESULT:    -4.189     10.234     12.200
REMARK INTER + INTRA:          -5.345
REMARK INTER:                  -5.079
REMARK INTRA:                  -0.266
REMARK UNBOUND:                -0.421
REMARK SMILES CC1(C)CC[C@@]2(C(=O)[O-])CC[C@@]3(C)C(=CC[C@H]4[C@@]5(C)CC[C@H](O)[C@](C)(CO)[C@@H]5CC[C@@]43C)[C@@H]2C1
REMARK SMILES IDX 6 1 5 2 10 3 33 4 4 5 11 6 14 7 34 8 2 9 12 10 15 11 1 12
REMARK SMILES IDX 3 13 13 14 31 15 16 16 17 17 30 18 32 19 18 20 29 21 28 22
REMARK SMILES IDX 20 23 19 24 24 25 21 26 22 27 25 28 7 29 8 30 9 31 26 32
REMARK SMILES IDX 27 33 23 35
REMARK H PARENT 27 34 23 36
REMARK Flexibility Score: inf
ROOT
ATOM      1  C   UNL     1      49.885  39.148 133.630  1.00  0.00     0.017 C 
ATOM      2  C   UNL     1      48.838  37.926 133.677  1.00  0.00     0.014 C 
ATOM      3  C   UNL     1      49.268  40.358 132.783  1.00  0.00     0.014 C 
ATOM      4  C   UNL     1      50.161  39.565 135.109  1.00  0.00     0.028 C 
ATOM      5  C   UNL     1      48.137  37.682 135.022  1.00  0.00     0.007 C 
ATOM      6  C   UNL     1      49.515  41.838 133.309  1.00  0.00     0.013 C 
ATOM      7  C   UNL     1      50.586  40.993 135.228  1.00  0.00    -0.064 C 
ATOM      8  C   UNL     1      50.508  38.430 136.060  1.00  0.00     0.015 C 
ATOM      9  C   UNL     1      49.193  37.539 136.256  1.00  0.00    -0.035 C 
ATOM     10  C   UNL     1      49.448  41.985 134.883  1.00  0.00    -0.006 C 
ATOM     11  C   UNL     1      51.871  41.253 135.087  1.00  0.00    -0.027 C 
ATOM     12  C   UNL     1      49.588  36.076 136.376  1.00  0.00     0.011 C 
ATOM     13  C   UNL     1      48.470  38.046 137.520  1.00  0.00     0.011 C 
ATOM     14  C   UNL     1      47.903  41.629 135.169  1.00  0.00     0.017 C 
ATOM     15  C   UNL     1      49.850  43.402 135.606  1.00  0.00    -0.020 C 
ATOM     16  C   UNL     1      52.305  42.689 134.938  1.00  0.00     0.032 C 
ATOM     17  C   UNL     1      51.402  43.527 135.877  1.00  0.00     0.006 C 
ATOM     18  C   UNL     1      49.128  43.469 137.017  1.00  0.00     0.008 C 
ATOM     19  C   UNL     1      49.317  44.537 134.657  1.00  0.00     0.012 C 
ATOM     20  C   UNL     1      51.956  44.776 136.780  1.00  0.00    -0.025 C 
ATOM     21  C   UNL     1      50.034  43.847 138.252  1.00  0.00     0.005 C 
ATOM     22  C   UNL     1      50.813  45.126 137.867  1.00  0.00     0.006 C 
ATOM     23  C   UNL     1      52.273  46.104 136.035  1.00  0.00     0.010 C 
ATOM     24  C   UNL     1      53.335  44.282 137.375  1.00  0.00     0.012 C 
ATOM     25  C   UNL     1      51.196  46.165 139.000  1.00  0.00     0.020 C 
ATOM     26  C   UNL     1      52.599  47.234 137.032  1.00  0.00     0.033 C 
ATOM     27  C   UNL     1      51.592  47.433 138.229  1.00  0.00     0.123 C 
ATOM     28  C   UNL     1      49.909  46.474 139.836  1.00  0.00     0.017 C 
ENDROOT
BRANCH   1  29
ATOM     29  C   UNL     1      51.265  38.775 133.055  1.00  0.00     0.048 C 
ATOM     30  O   UNL     1      51.674  37.555 133.126  1.00  0.00    -0.550 OA
ATOM     31  O   UNL     1      51.978  39.629 132.178  1.00  0.00    -0.550 OA
ENDBRANCH   1  29
BRANCH  25  32
ATOM     32  C   UNL     1      52.365  45.685 139.996  1.00  0.00     0.165 C 
BRANCH  32  33
ATOM     33  O   UNL     1      52.101  44.609 140.879  1.00  0.00    -0.396 OA
ATOM     34  H   UNL     1      52.103  43.754 140.370  1.00  0.00     0.210 HD
ENDBRANCH  32  33
ENDBRANCH  25  32
BRANCH  27  35
ATOM     35  O   UNL     1      52.141  48.395 139.110  1.00  0.00    -0.392 OA
ATOM     36  H   UNL     1      52.688  48.992 138.561  1.00  0.00     0.210 HD
ENDBRANCH  27  35
TORSDOF 4
ENDMDL
MODEL 9
REMARK VINA RESULT:    -4.176      1.764      2.334
REMARK INTER + INTRA:          -5.329
REMARK INTER:                  -4.934
REMARK INTRA:                  -0.395
REMARK UNBOUND:                -0.421
REMARK SMILES CC1(C)CC[C@@]2(C(=O)[O-])CC[C@@]3(C)C(=CC[C@H]4[C@@]5(C)CC[C@H](O)[C@](C)(CO)[C@@H]5CC[C@@]43C)[C@@H]2C1
REMARK SMILES IDX 6 1 5 2 10 3 33 4 4 5 11 6 14 7 34 8 2 9 12 10 15 11 1 12
REMARK SMILES IDX 3 13 13 14 31 15 16 16 17 17 30 18 32 19 18 20 29 21 28 22
REMARK SMILES IDX 20 23 19 24 24 25 21 26 22 27 25 28 7 29 8 30 9 31 26 32
REMARK SMILES IDX 27 33 23 35
REMARK H PARENT 27 34 23 36
REMARK Flexibility Score: inf
ROOT
ATOM      1  C   UNL     1      54.931  37.591 124.774  1.00  0.00     0.017 C 
ATOM      2  C   UNL     1      54.280  36.624 123.664  1.00  0.00     0.014 C 
ATOM      3  C   UNL     1      56.335  38.152 124.247  1.00  0.00     0.014 C 
ATOM      4  C   UNL     1      53.911  38.746 125.025  1.00  0.00     0.028 C 
ATOM      5  C   UNL     1      53.062  37.178 122.909  1.00  0.00     0.007 C 
ATOM      6  C   UNL     1      56.694  39.670 124.554  1.00  0.00     0.013 C 
ATOM      7  C   UNL     1      54.571  39.991 125.519  1.00  0.00    -0.064 C 
ATOM      8  C   UNL     1      52.476  38.312 125.282  1.00  0.00     0.015 C 
ATOM      9  C   UNL     1      51.896  37.711 123.918  1.00  0.00    -0.035 C 
ATOM     10  C   UNL     1      55.465  40.660 124.445  1.00  0.00    -0.006 C 
ATOM     11  C   UNL     1      54.761  40.098 126.819  1.00  0.00    -0.027 C 
ATOM     12  C   UNL     1      50.972  36.545 124.233  1.00  0.00     0.011 C 
ATOM     13  C   UNL     1      51.158  38.847 123.183  1.00  0.00     0.011 C 
ATOM     14  C   UNL     1      55.115  40.560 122.875  1.00  0.00     0.017 C 
ATOM     15  C   UNL     1      55.616  42.230 124.897  1.00  0.00    -0.020 C 
ATOM     16  C   UNL     1      55.650  41.203 127.332  1.00  0.00     0.032 C 
ATOM     17  C   UNL     1      55.375  42.443 126.444  1.00  0.00     0.006 C 
ATOM     18  C   UNL     1      54.515  43.081 124.135  1.00  0.00     0.008 C 
ATOM     19  C   UNL     1      57.059  42.669 124.454  1.00  0.00     0.012 C 
ATOM     20  C   UNL     1      55.275  43.968 127.034  1.00  0.00    -0.025 C 
ATOM     21  C   UNL     1      53.642  44.052 125.021  1.00  0.00     0.005 C 
ATOM     22  C   UNL     1      54.621  44.888 125.877  1.00  0.00     0.006 C 
ATOM     23  C   UNL     1      56.607  44.658 127.442  1.00  0.00     0.010 C 
ATOM     24  C   UNL     1      54.433  43.847 128.366  1.00  0.00     0.012 C 
ATOM     25  C   UNL     1      54.225  46.368 126.277  1.00  0.00     0.020 C 
ATOM     26  C   UNL     1      56.377  46.141 127.794  1.00  0.00     0.033 C 
ATOM     27  C   UNL     1      55.542  46.992 126.762  1.00  0.00     0.123 C 
ATOM     28  C   UNL     1      53.767  47.120 124.982  1.00  0.00     0.017 C 
ENDROOT
BRANCH   1  29
ATOM     29  C   UNL     1      55.131  36.927 126.149  1.00  0.00     0.048 C 
ATOM     30  O   UNL     1      54.433  35.892 126.463  1.00  0.00    -0.550 OA
ATOM     31  O   UNL     1      56.256  37.200 126.968  1.00  0.00    -0.550 OA
ENDBRANCH   1  29
BRANCH  25  32
ATOM     32  C   UNL     1      53.067  46.485 127.388  1.00  0.00     0.165 C 
BRANCH  32  33
ATOM     33  O   UNL     1      52.329  47.691 127.471  1.00  0.00    -0.396 OA
ATOM     34  H   UNL     1      51.395  47.490 127.750  1.00  0.00     0.210 HD
ENDBRANCH  32  33
ENDBRANCH  25  32
BRANCH  27  35
ATOM     35  O   UNL     1      55.304  48.265 127.333  1.00  0.00    -0.392 OA
ATOM     36  H   UNL     1      54.572  48.665 126.821  1.00  0.00     0.210 HD
ENDBRANCH  27  35
TORSDOF 4
ENDMDL
