MODEL 1
REMARK VINA RESULT:    -4.406      0.000      0.000
REMARK INTER + INTRA:          -5.411
REMARK INTER:                  -5.307
REMARK INTRA:                  -0.103
REMARK UNBOUND:                -0.103
REMARK SMILES CC[C@@H](C)[C@@H]([NH3+])C(=O)[O-]
REMARK SMILES IDX 3 1 4 2 5 3 6 4 7 8 8 9 9 10 2 11 1 12
REMARK H PARENT 6 5 6 6 6 7
REMARK Flexibility Score: inf
ROOT
ATOM      1  C   UNL     1       2.524  -7.196  -1.633  1.00  0.00     0.050 C 
ATOM      2  C   UNL     1       3.413  -6.472  -2.661  1.00  0.00     0.014 C 
ENDROOT
BRANCH   1   3
ATOM      3  C   UNL     1       3.331  -8.163  -0.707  1.00  0.00     0.230 C 
BRANCH   3   4
ATOM      4  N   UNL     1       4.273  -7.437   0.157  1.00  0.00    -0.350 N 
ATOM      5  H   UNL     1       3.756  -6.752   0.756  1.00  0.00     0.345 HD
ATOM      6  H   UNL     1       4.816  -8.088   0.768  1.00  0.00     0.345 HD
ATOM      7  H   UNL     1       4.949  -6.903  -0.437  1.00  0.00     0.345 HD
ENDBRANCH   3   4
BRANCH   3   8
ATOM      8  C   UNL     1       2.437  -9.059   0.119  1.00  0.00     0.099 C 
ATOM      9  O   UNL     1       1.702  -9.910  -0.447  1.00  0.00    -0.544 OA
ATOM     10  O   UNL     1       2.399  -8.941   1.503  1.00  0.00    -0.544 OA
ENDBRANCH   3   8
ENDBRANCH   1   3
BRANCH   1  11
ATOM     11  C   UNL     1       1.694  -6.152  -0.844  1.00  0.00     0.006 C 
ATOM     12  C   UNL     1       1.655  -4.777  -1.513  1.00  0.00     0.004 C 
ENDBRANCH   1  11
TORSDOF 4
ENDMDL
MODEL 2
REMARK VINA RESULT:    -4.364      1.606      2.171
REMARK INTER + INTRA:          -5.361
REMARK INTER:                  -5.299
REMARK INTRA:                  -0.061
REMARK UNBOUND:                -0.103
REMARK SMILES CC[C@@H](C)[C@@H]([NH3+])C(=O)[O-]
REMARK SMILES IDX 3 1 4 2 5 3 6 4 7 8 8 9 9 10 2 11 1 12
REMARK H PARENT 6 5 6 6 6 7
REMARK Flexibility Score: inf
ROOT
ATOM      1  C   UNL     1       2.526  -6.457  -0.886  1.00  0.00     0.050 C 
ATOM      2  C   UNL     1       1.722  -5.194  -1.249  1.00  0.00     0.014 C 
ENDROOT
BRANCH   1   3
ATOM      3  C   UNL     1       1.660  -7.543  -0.169  1.00  0.00     0.230 C 
BRANCH   3   4
ATOM      4  N   UNL     1       0.381  -7.768  -0.859  1.00  0.00    -0.350 N 
ATOM      5  H   UNL     1       0.007  -6.862  -1.225  1.00  0.00     0.345 HD
ATOM      6  H   UNL     1       0.483  -8.444  -1.649  1.00  0.00     0.345 HD
ATOM      7  H   UNL     1      -0.316  -8.156  -0.182  1.00  0.00     0.345 HD
ENDBRANCH   3   4
BRANCH   3   8
ATOM      8  C   UNL     1       2.399  -8.848   0.016  1.00  0.00     0.099 C 
ATOM      9  O   UNL     1       1.893  -9.923  -0.401  1.00  0.00    -0.544 OA
ATOM     10  O   UNL     1       3.626  -8.881   0.667  1.00  0.00    -0.544 OA
ENDBRANCH   3   8
ENDBRANCH   1   3
BRANCH   1  11
ATOM     11  C   UNL     1       3.245  -6.991  -2.151  1.00  0.00     0.006 C 
ATOM     12  C   UNL     1       3.701  -5.884  -3.103  1.00  0.00     0.004 C 
ENDBRANCH   1  11
TORSDOF 4
ENDMDL
MODEL 3
REMARK VINA RESULT:    -4.262      8.392      9.132
REMARK INTER + INTRA:          -5.237
REMARK INTER:                  -5.163
REMARK INTRA:                  -0.074
REMARK UNBOUND:                -0.103
REMARK SMILES CC[C@@H](C)[C@@H]([NH3+])C(=O)[O-]
REMARK SMILES IDX 3 1 4 2 5 3 6 4 7 8 8 9 9 10 2 11 1 12
REMARK H PARENT 6 5 6 6 6 7
REMARK Flexibility Score: inf
ROOT
ATOM      1  C   UNL     1      -5.176  -5.875   4.315  1.00  0.00     0.050 C 
ATOM      2  C   UNL     1      -6.100  -5.858   5.547  1.00  0.00     0.014 C 
ENDROOT
BRANCH   1   3
ATOM      3  C   UNL     1      -5.772  -6.690   3.121  1.00  0.00     0.230 C 
BRANCH   3   4
ATOM      4  N   UNL     1      -6.468  -5.824   2.159  1.00  0.00    -0.350 N 
ATOM      5  H   UNL     1      -7.411  -6.221   1.936  1.00  0.00     0.345 HD
ATOM      6  H   UNL     1      -6.582  -4.852   2.526  1.00  0.00     0.345 HD
ATOM      7  H   UNL     1      -5.918  -5.778   1.271  1.00  0.00     0.345 HD
ENDBRANCH   3   4
BRANCH   3   8
ATOM      8  C   UNL     1      -4.735  -7.536   2.419  1.00  0.00     0.099 C 
ATOM      9  O   UNL     1      -3.841  -6.988   1.722  1.00  0.00    -0.544 OA
ATOM     10  O   UNL     1      -4.770  -8.922   2.513  1.00  0.00    -0.544 OA
ENDBRANCH   3   8
ENDBRANCH   1   3
BRANCH   1  11
ATOM     11  C   UNL     1      -4.803  -4.421   3.931  1.00  0.00     0.006 C 
ATOM     12  C   UNL     1      -3.331  -4.252   3.551  1.00  0.00     0.004 C 
ENDBRANCH   1  11
TORSDOF 4
ENDMDL
MODEL 4
REMARK VINA RESULT:    -4.192      7.734      8.360
REMARK INTER + INTRA:          -5.153
REMARK INTER:                  -5.071
REMARK INTRA:                  -0.081
REMARK UNBOUND:                -0.103
REMARK SMILES CC[C@@H](C)[C@@H]([NH3+])C(=O)[O-]
REMARK SMILES IDX 3 1 4 2 5 3 6 4 7 8 8 9 9 10 2 11 1 12
REMARK H PARENT 6 5 6 6 6 7
REMARK Flexibility Score: inf
ROOT
ATOM      1  C   UNL     1      -4.674  -5.765   2.846  1.00  0.00     0.050 C 
ATOM      2  C   UNL     1      -3.501  -5.104   3.595  1.00  0.00     0.014 C 
ENDROOT
BRANCH   1   3
ATOM      3  C   UNL     1      -4.643  -7.326   2.925  1.00  0.00     0.230 C 
BRANCH   3   4
ATOM      4  N   UNL     1      -5.938  -7.920   2.566  1.00  0.00    -0.350 N 
ATOM      5  H   UNL     1      -6.563  -7.192   2.148  1.00  0.00     0.345 HD
ATOM      6  H   UNL     1      -5.827  -8.708   1.889  1.00  0.00     0.345 HD
ATOM      7  H   UNL     1      -6.402  -8.289   3.428  1.00  0.00     0.345 HD
ENDBRANCH   3   4
BRANCH   3   8
ATOM      8  C   UNL     1      -3.534  -7.929   2.094  1.00  0.00     0.099 C 
ATOM      9  O   UNL     1      -3.725  -8.177   0.874  1.00  0.00    -0.544 OA
ATOM     10  O   UNL     1      -2.306  -8.237   2.667  1.00  0.00    -0.544 OA
ENDBRANCH   3   8
ENDBRANCH   1   3
BRANCH   1  11
ATOM     11  C   UNL     1      -6.010  -5.158   3.346  1.00  0.00     0.006 C 
ATOM     12  C   UNL     1      -6.132  -5.132   4.870  1.00  0.00     0.004 C 
ENDBRANCH   1  11
TORSDOF 4
ENDMDL
MODEL 5
REMARK VINA RESULT:    -4.184      0.981      1.554
REMARK INTER + INTRA:          -5.143
REMARK INTER:                  -5.206
REMARK INTRA:                   0.063
REMARK UNBOUND:                -0.103
REMARK SMILES CC[C@@H](C)[C@@H]([NH3+])C(=O)[O-]
REMARK SMILES IDX 3 1 4 2 5 3 6 4 7 8 8 9 9 10 2 11 1 12
REMARK H PARENT 6 5 6 6 6 7
REMARK Flexibility Score: inf
ROOT
ATOM      1  C   UNL     1       1.526  -7.083  -0.521  1.00  0.00     0.050 C 
ATOM      2  C   UNL     1       0.183  -7.837  -0.472  1.00  0.00     0.014 C 
ENDROOT
BRANCH   1   3
ATOM      3  C   UNL     1       2.761  -8.037  -0.414  1.00  0.00     0.230 C 
BRANCH   3   4
ATOM      4  N   UNL     1       3.970  -7.322   0.019  1.00  0.00    -0.350 N 
ATOM      5  H   UNL     1       3.711  -6.395   0.429  1.00  0.00     0.345 HD
ATOM      6  H   UNL     1       4.511  -7.872   0.725  1.00  0.00     0.345 HD
ATOM      7  H   UNL     1       4.587  -7.150  -0.807  1.00  0.00     0.345 HD
ENDBRANCH   3   4
BRANCH   3   8
ATOM      8  C   UNL     1       2.501  -9.228   0.479  1.00  0.00     0.099 C 
ATOM      9  O   UNL     1       2.092 -10.310  -0.019  1.00  0.00    -0.544 OA
ATOM     10  O   UNL     1       2.685  -9.138   1.853  1.00  0.00    -0.544 OA
ENDBRANCH   3   8
ENDBRANCH   1   3
BRANCH   1  11
ATOM     11  C   UNL     1       1.564  -6.180  -1.779  1.00  0.00     0.006 C 
ATOM     12  C   UNL     1       1.862  -4.713  -1.465  1.00  0.00     0.004 C 
ENDBRANCH   1  11
TORSDOF 4
ENDMDL
MODEL 6
REMARK VINA RESULT:    -4.142      2.678      3.923
REMARK INTER + INTRA:          -5.093
REMARK INTER:                  -4.998
REMARK INTRA:                  -0.095
REMARK UNBOUND:                -0.103
REMARK SMILES CC[C@@H](C)[C@@H]([NH3+])C(=O)[O-]
REMARK SMILES IDX 3 1 4 2 5 3 6 4 7 8 8 9 9 10 2 11 1 12
REMARK H PARENT 6 5 6 6 6 7
REMARK Flexibility Score: inf
ROOT
ATOM      1  C   UNL     1       2.146  -7.888  -0.711  1.00  0.00     0.050 C 
ATOM      2  C   UNL     1       0.717  -8.113  -0.183  1.00  0.00     0.014 C 
ENDROOT
BRANCH   1   3
ATOM      3  C   UNL     1       2.621  -6.406  -0.565  1.00  0.00     0.230 C 
BRANCH   3   4
ATOM      4  N   UNL     1       4.072  -6.313  -0.352  1.00  0.00    -0.350 N 
ATOM      5  H   UNL     1       4.341  -5.323  -0.143  1.00  0.00     0.345 HD
ATOM      6  H   UNL     1       4.387  -6.929   0.432  1.00  0.00     0.345 HD
ATOM      7  H   UNL     1       4.571  -6.607  -1.223  1.00  0.00     0.345 HD
ENDBRANCH   3   4
BRANCH   3   8
ATOM      8  C   UNL     1       2.200  -5.542  -1.731  1.00  0.00     0.099 C 
ATOM      9  O   UNL     1       1.463  -4.540  -1.539  1.00  0.00    -0.544 OA
ATOM     10  O   UNL     1       2.599  -5.855  -3.025  1.00  0.00    -0.544 OA
ENDBRANCH   3   8
ENDBRANCH   1   3
BRANCH   1  11
ATOM     11  C   UNL     1       3.107  -8.903  -0.041  1.00  0.00     0.006 C 
ATOM     12  C   UNL     1       2.728  -9.236   1.403  1.00  0.00     0.004 C 
ENDBRANCH   1  11
TORSDOF 4
ENDMDL
MODEL 7
REMARK VINA RESULT:    -4.135      7.601      8.279
REMARK INTER + INTRA:          -5.084
REMARK INTER:                  -4.989
REMARK INTRA:                  -0.095
REMARK UNBOUND:                -0.103
REMARK SMILES CC[C@@H](C)[C@@H]([NH3+])C(=O)[O-]
REMARK SMILES IDX 3 1 4 2 5 3 6 4 7 8 8 9 9 10 2 11 1 12
REMARK H PARENT 6 5 6 6 6 7
REMARK Flexibility Score: inf
ROOT
ATOM      1  C   UNL     1      -4.610  -5.831   2.677  1.00  0.00     0.050 C 
ATOM      2  C   UNL     1      -3.636  -4.753   3.190  1.00  0.00     0.014 C 
ENDROOT
BRANCH   1   3
ATOM      3  C   UNL     1      -3.877  -7.062   2.052  1.00  0.00     0.230 C 
BRANCH   3   4
ATOM      4  N   UNL     1      -2.713  -7.473   2.851  1.00  0.00    -0.350 N 
ATOM      5  H   UNL     1      -2.493  -8.480   2.672  1.00  0.00     0.345 HD
ATOM      6  H   UNL     1      -1.872  -6.892   2.635  1.00  0.00     0.345 HD
ATOM      7  H   UNL     1      -2.935  -7.365   3.868  1.00  0.00     0.345 HD
ENDBRANCH   3   4
BRANCH   3   8
ATOM      8  C   UNL     1      -4.802  -8.235   1.821  1.00  0.00     0.099 C 
ATOM      9  O   UNL     1      -4.592  -9.328   2.410  1.00  0.00    -0.544 OA
ATOM     10  O   UNL     1      -5.874  -8.129   0.944  1.00  0.00    -0.544 OA
ENDBRANCH   3   8
ENDBRANCH   1   3
BRANCH   1  11
ATOM     11  C   UNL     1      -5.590  -6.220   3.812  1.00  0.00     0.006 C 
ATOM     12  C   UNL     1      -5.368  -5.432   5.104  1.00  0.00     0.004 C 
ENDBRANCH   1  11
TORSDOF 4
ENDMDL
MODEL 8
REMARK VINA RESULT:    -4.112      8.439      9.168
REMARK INTER + INTRA:          -5.056
REMARK INTER:                  -4.978
REMARK INTRA:                  -0.078
REMARK UNBOUND:                -0.103
REMARK SMILES CC[C@@H](C)[C@@H]([NH3+])C(=O)[O-]
REMARK SMILES IDX 3 1 4 2 5 3 6 4 7 8 8 9 9 10 2 11 1 12
REMARK H PARENT 6 5 6 6 6 7
REMARK Flexibility Score: inf
ROOT
ATOM      1  C   UNL     1      -5.567  -8.429   1.954  1.00  0.00     0.050 C 
ATOM      2  C   UNL     1      -5.727  -7.073   2.667  1.00  0.00     0.014 C 
ENDROOT
BRANCH   1   3
ATOM      3  C   UNL     1      -6.092  -8.406   0.482  1.00  0.00     0.230 C 
BRANCH   3   4
ATOM      4  N   UNL     1      -5.005  -8.577  -0.492  1.00  0.00    -0.350 N 
ATOM      5  H   UNL     1      -5.300  -9.239  -1.247  1.00  0.00     0.345 HD
ATOM      6  H   UNL     1      -4.725  -7.667  -0.922  1.00  0.00     0.345 HD
ATOM      7  H   UNL     1      -4.169  -8.985  -0.012  1.00  0.00     0.345 HD
ENDBRANCH   3   4
BRANCH   3   8
ATOM      8  C   UNL     1      -7.186  -9.420   0.239  1.00  0.00     0.099 C 
ATOM      9  O   UNL     1      -8.348  -9.210   0.675  1.00  0.00    -0.544 OA
ATOM     10  O   UNL     1      -6.919 -10.601  -0.444  1.00  0.00    -0.544 OA
ENDBRANCH   3   8
ENDBRANCH   1   3
BRANCH   1  11
ATOM     11  C   UNL     1      -4.094  -8.897   2.066  1.00  0.00     0.006 C 
ATOM     12  C   UNL     1      -3.131  -7.782   2.478  1.00  0.00     0.004 C 
ENDBRANCH   1  11
TORSDOF 4
ENDMDL
MODEL 9
REMARK VINA RESULT:    -4.002      7.593      8.188
REMARK INTER + INTRA:          -4.924
REMARK INTER:                  -5.001
REMARK INTRA:                   0.076
REMARK UNBOUND:                -0.103
REMARK SMILES CC[C@@H](C)[C@@H]([NH3+])C(=O)[O-]
REMARK SMILES IDX 3 1 4 2 5 3 6 4 7 8 8 9 9 10 2 11 1 12
REMARK H PARENT 6 5 6 6 6 7
REMARK Flexibility Score: inf
ROOT
ATOM      1  C   UNL     1      -3.907  -6.613   2.322  1.00  0.00     0.050 C 
ATOM      2  C   UNL     1      -2.724  -7.543   1.992  1.00  0.00     0.014 C 
ENDROOT
BRANCH   1   3
ATOM      3  C   UNL     1      -5.272  -7.371   2.400  1.00  0.00     0.230 C 
BRANCH   3   4
ATOM      4  N   UNL     1      -6.402  -6.506   2.032  1.00  0.00    -0.350 N 
ATOM      5  H   UNL     1      -6.376  -6.300   1.007  1.00  0.00     0.345 HD
ATOM      6  H   UNL     1      -7.319  -6.947   2.272  1.00  0.00     0.345 HD
ATOM      7  H   UNL     1      -6.328  -5.599   2.547  1.00  0.00     0.345 HD
ENDBRANCH   3   4
BRANCH   3   8
ATOM      8  C   UNL     1      -5.282  -8.637   1.575  1.00  0.00     0.099 C 
ATOM      9  O   UNL     1      -4.980  -9.738   2.107  1.00  0.00    -0.544 OA
ATOM     10  O   UNL     1      -5.600  -8.599   0.223  1.00  0.00    -0.544 OA
ENDBRANCH   3   8
ENDBRANCH   1   3
BRANCH   1  11
ATOM     11  C   UNL     1      -3.585  -5.807   3.606  1.00  0.00     0.006 C 
ATOM     12  C   UNL     1      -3.925  -4.320   3.492  1.00  0.00     0.004 C 
ENDBRANCH   1  11
TORSDOF 4
ENDMDL
