MODEL 1
REMARK VINA RESULT:    -2.887      0.000      0.000
REMARK INTER + INTRA:          -2.887
REMARK INTER:                  -2.887
REMARK INTRA:                   0.000
REMARK UNBOUND:                 0.000
REMARK SMILES CC(=O)[O-]
REMARK SMILES IDX 1 1 2 2 3 3 4 4
REMARK H PARENT
REMARK Flexibility Score: inf
ROOT
ATOM      1  C   UNL     1       1.088   0.688   4.743  1.00  0.00     0.063 C 
ATOM      2  C   UNL     1       0.213   1.828   4.347  1.00  0.00     0.038 C 
ATOM      3  O   UNL     1      -0.884   2.016   4.935  1.00  0.00    -0.550 OA
ATOM      4  O   UNL     1       0.581   2.655   3.293  1.00  0.00    -0.550 OA
ENDROOT
TORSDOF 0
ENDMDL
MODEL 2
REMARK VINA RESULT:    -2.812      0.208      1.633
REMARK INTER + INTRA:          -2.812
REMARK INTER:                  -2.812
REMARK INTRA:                   0.000
REMARK UNBOUND:                 0.000
REMARK SMILES CC(=O)[O-]
REMARK SMILES IDX 1 1 2 2 3 3 4 4
REMARK H PARENT
REMARK Flexibility Score: inf
ROOT
ATOM      1  C   UNL     1       1.355   0.945   4.704  1.00  0.00     0.063 C 
ATOM      2  C   UNL     1       0.323   1.917   4.246  1.00  0.00     0.038 C 
ATOM      3  O   UNL     1       0.570   2.698   3.290  1.00  0.00    -0.550 OA
ATOM      4  O   UNL     1      -0.897   2.001   4.907  1.00  0.00    -0.550 OA
ENDROOT
TORSDOF 0
ENDMDL
MODEL 3
REMARK VINA RESULT:    -2.711      1.998      2.594
REMARK INTER + INTRA:          -2.711
REMARK INTER:                  -2.711
REMARK INTRA:                   0.000
REMARK UNBOUND:                 0.000
REMARK SMILES CC(=O)[O-]
REMARK SMILES IDX 1 1 2 2 3 3 4 4
REMARK H PARENT
REMARK Flexibility Score: inf
ROOT
ATOM      1  C   UNL     1      -2.288   0.987   5.623  1.00  0.00     0.063 C 
ATOM      2  C   UNL     1      -0.844   1.209   5.328  1.00  0.00     0.038 C 
ATOM      3  O   UNL     1      -0.484   2.205   4.647  1.00  0.00    -0.550 OA
ATOM      4  O   UNL     1       0.105   0.290   5.759  1.00  0.00    -0.550 OA
ENDROOT
TORSDOF 0
ENDMDL
MODEL 4
REMARK VINA RESULT:    -2.690      2.072      2.450
REMARK INTER + INTRA:          -2.690
REMARK INTER:                  -2.690
REMARK INTRA:                   0.000
REMARK UNBOUND:                 0.000
REMARK SMILES CC(=O)[O-]
REMARK SMILES IDX 1 1 2 2 3 3 4 4
REMARK H PARENT
REMARK Flexibility Score: inf
ROOT
ATOM      1  C   UNL     1      -2.435   0.856   5.570  1.00  0.00     0.063 C 
ATOM      2  C   UNL     1      -0.973   1.076   5.376  1.00  0.00     0.038 C 
ATOM      3  O   UNL     1      -0.142   0.273   5.874  1.00  0.00    -0.550 OA
ATOM      4  O   UNL     1      -0.523   2.197   4.689  1.00  0.00    -0.550 OA
ENDROOT
TORSDOF 0
ENDMDL
MODEL 5
REMARK VINA RESULT:    -2.621      2.975      3.433
REMARK INTER + INTRA:          -2.621
REMARK INTER:                  -2.621
REMARK INTRA:                   0.000
REMARK UNBOUND:                 0.000
REMARK SMILES CC(=O)[O-]
REMARK SMILES IDX 1 1 2 2 3 3 4 4
REMARK H PARENT
REMARK Flexibility Score: inf
ROOT
ATOM      1  C   UNL     1       1.732   3.456   7.269  1.00  0.00     0.063 C 
ATOM      2  C   UNL     1       0.857   2.283   6.986  1.00  0.00     0.038 C 
ATOM      3  O   UNL     1       0.085   2.296   5.992  1.00  0.00    -0.550 OA
ATOM      4  O   UNL     1       0.852   1.193   7.849  1.00  0.00    -0.550 OA
ENDROOT
TORSDOF 0
ENDMDL
MODEL 6
REMARK VINA RESULT:    -2.559      2.393      2.758
REMARK INTER + INTRA:          -2.559
REMARK INTER:                  -2.559
REMARK INTRA:                   0.000
REMARK UNBOUND:                 0.000
REMARK SMILES CC(=O)[O-]
REMARK SMILES IDX 1 1 2 2 3 3 4 4
REMARK H PARENT
REMARK Flexibility Score: inf
ROOT
ATOM      1  C   UNL     1       0.352  -0.207   6.440  1.00  0.00     0.063 C 
ATOM      2  C   UNL     1       0.431   1.241   6.786  1.00  0.00     0.038 C 
ATOM      3  O   UNL     1       0.958   1.603   7.869  1.00  0.00    -0.550 OA
ATOM      4  O   UNL     1      -0.124   2.191   5.937  1.00  0.00    -0.550 OA
ENDROOT
TORSDOF 0
ENDMDL
MODEL 7
REMARK VINA RESULT:    -2.556      2.329      2.839
REMARK INTER + INTRA:          -2.556
REMARK INTER:                  -2.556
REMARK INTRA:                   0.000
REMARK UNBOUND:                 0.000
REMARK SMILES CC(=O)[O-]
REMARK SMILES IDX 1 1 2 2 3 3 4 4
REMARK H PARENT
REMARK Flexibility Score: inf
ROOT
ATOM      1  C   UNL     1       0.368  -0.099   6.296  1.00  0.00     0.063 C 
ATOM      2  C   UNL     1       0.337   1.341   6.681  1.00  0.00     0.038 C 
ATOM      3  O   UNL     1      -0.239   2.180   5.940  1.00  0.00    -0.550 OA
ATOM      4  O   UNL     1       0.988   1.769   7.831  1.00  0.00    -0.550 OA
ENDROOT
TORSDOF 0
ENDMDL
MODEL 8
REMARK VINA RESULT:    -2.547      2.849      3.375
REMARK INTER + INTRA:          -2.547
REMARK INTER:                  -2.547
REMARK INTRA:                   0.000
REMARK UNBOUND:                 0.000
REMARK SMILES CC(=O)[O-]
REMARK SMILES IDX 1 1 2 2 3 3 4 4
REMARK H PARENT
REMARK Flexibility Score: inf
ROOT
ATOM      1  C   UNL     1      -1.527   1.808   7.291  1.00  0.00     0.063 C 
ATOM      2  C   UNL     1      -0.085   1.935   6.935  1.00  0.00     0.038 C 
ATOM      3  O   UNL     1       0.250   2.303   5.779  1.00  0.00    -0.550 OA
ATOM      4  O   UNL     1       0.893   1.599   7.863  1.00  0.00    -0.550 OA
ENDROOT
TORSDOF 0
ENDMDL
MODEL 9
REMARK VINA RESULT:    -2.468     12.979     13.307
REMARK INTER + INTRA:          -2.468
REMARK INTER:                  -2.468
REMARK INTRA:                   0.000
REMARK UNBOUND:                 0.000
REMARK SMILES CC(=O)[O-]
REMARK SMILES IDX 1 1 2 2 3 3 4 4
REMARK H PARENT
REMARK Flexibility Score: inf
ROOT
ATOM      1  C   UNL     1      10.379  -7.499   8.585  1.00  0.00     0.063 C 
ATOM      2  C   UNL     1       8.938  -7.130   8.691  1.00  0.00     0.038 C 
ATOM      3  O   UNL     1       8.125  -7.500   7.804  1.00  0.00    -0.550 OA
ATOM      4  O   UNL     1       8.499  -6.331   9.740  1.00  0.00    -0.550 OA
ENDROOT
TORSDOF 0
ENDMDL
