MODEL 1
REMARK VINA RESULT:    -4.010      0.000      0.000
REMARK INTER + INTRA:          -5.234
REMARK INTER:                  -5.182
REMARK INTRA:                  -0.053
REMARK UNBOUND:                -0.053
REMARK SMILES CCCCCCC=O
REMARK SMILES IDX 4 1 3 2 2 3 1 4 5 5 6 6 7 7 8 8
REMARK H PARENT
REMARK Flexibility Score: inf
ROOT
ATOM      1  C   UNL     1      25.524  57.817  -9.015  1.00  0.00     0.000 C 
ENDROOT
BRANCH   1   2
ATOM      2  C   UNL     1      26.705  58.252  -9.890  1.00  0.00    -0.000 C 
BRANCH   2   3
ATOM      3  C   UNL     1      26.986  59.750  -9.730  1.00  0.00    -0.003 C 
ATOM      4  C   UNL     1      28.140  60.194 -10.625  1.00  0.00     0.004 C 
ENDBRANCH   2   3
ENDBRANCH   1   2
BRANCH   1   5
ATOM      5  C   UNL     1      25.517  56.297  -8.814  1.00  0.00     0.008 C 
BRANCH   5   6
ATOM      6  C   UNL     1      24.103  55.729  -8.962  1.00  0.00     0.072 C 
BRANCH   6   7
ATOM      7  C   UNL     1      23.656  55.099  -7.678  1.00  0.00     0.224 C 
ATOM      8  O   UNL     1      22.562  54.563  -7.598  1.00  0.00    -0.303 OA
ENDBRANCH   6   7
ENDBRANCH   5   6
ENDBRANCH   1   5
TORSDOF 5
ENDMDL
MODEL 2
REMARK VINA RESULT:    -3.948      2.938      5.289
REMARK INTER + INTRA:          -5.155
REMARK INTER:                  -4.989
REMARK INTRA:                  -0.166
REMARK UNBOUND:                -0.053
REMARK SMILES CCCCCCC=O
REMARK SMILES IDX 4 1 3 2 2 3 1 4 5 5 6 6 7 7 8 8
REMARK H PARENT
REMARK Flexibility Score: inf
ROOT
ATOM      1  C   UNL     1      25.841  56.563  -9.046  1.00  0.00     0.000 C 
ENDROOT
BRANCH   1   2
ATOM      2  C   UNL     1      25.110  55.500  -8.219  1.00  0.00    -0.000 C 
BRANCH   2   3
ATOM      3  C   UNL     1      23.610  55.492  -8.533  1.00  0.00    -0.003 C 
ATOM      4  C   UNL     1      22.826  54.730  -7.468  1.00  0.00     0.004 C 
ENDBRANCH   2   3
ENDBRANCH   1   2
BRANCH   1   5
ATOM      5  C   UNL     1      25.145  57.925  -8.931  1.00  0.00     0.008 C 
BRANCH   5   6
ATOM      6  C   UNL     1      26.068  59.055  -9.394  1.00  0.00     0.072 C 
BRANCH   6   7
ATOM      7  C   UNL     1      27.104  58.527 -10.340  1.00  0.00     0.224 C 
ATOM      8  O   UNL     1      27.965  59.266 -10.791  1.00  0.00    -0.303 OA
ENDBRANCH   6   7
ENDBRANCH   5   6
ENDBRANCH   1   5
TORSDOF 5
ENDMDL
MODEL 3
REMARK VINA RESULT:    -3.790      1.012      1.584
REMARK INTER + INTRA:          -4.951
REMARK INTER:                  -4.883
REMARK INTRA:                  -0.068
REMARK UNBOUND:                -0.053
REMARK SMILES CCCCCCC=O
REMARK SMILES IDX 4 1 3 2 2 3 1 4 5 5 6 6 7 7 8 8
REMARK H PARENT
REMARK Flexibility Score: inf
ROOT
ATOM      1  C   UNL     1      25.517  56.241  -8.757  1.00  0.00     0.000 C 
ENDROOT
BRANCH   1   2
ATOM      2  C   UNL     1      25.419  57.752  -9.001  1.00  0.00    -0.000 C 
BRANCH   2   3
ATOM      3  C   UNL     1      26.595  58.250  -9.849  1.00  0.00    -0.003 C 
ATOM      4  C   UNL     1      26.798  59.753  -9.683  1.00  0.00     0.004 C 
ENDBRANCH   2   3
ENDBRANCH   1   2
BRANCH   1   5
ATOM      5  C   UNL     1      24.602  55.809  -7.605  1.00  0.00     0.008 C 
BRANCH   5   6
ATOM      6  C   UNL     1      23.447  54.943  -8.117  1.00  0.00     0.072 C 
BRANCH   6   7
ATOM      7  C   UNL     1      22.522  54.590  -6.993  1.00  0.00     0.224 C 
ATOM      8  O   UNL     1      22.929  54.559  -5.842  1.00  0.00    -0.303 OA
ENDBRANCH   6   7
ENDBRANCH   5   6
ENDBRANCH   1   5
TORSDOF 5
ENDMDL
MODEL 4
REMARK VINA RESULT:    -3.485      1.584      2.693
REMARK INTER + INTRA:          -4.556
REMARK INTER:                  -4.409
REMARK INTRA:                  -0.147
REMARK UNBOUND:                -0.053
REMARK SMILES CCCCCCC=O
REMARK SMILES IDX 4 1 3 2 2 3 1 4 5 5 6 6 7 7 8 8
REMARK H PARENT
REMARK Flexibility Score: inf
ROOT
ATOM      1  C   UNL     1      26.999  59.889  -9.735  1.00  0.00     0.000 C 
ENDROOT
BRANCH   1   2
ATOM      2  C   UNL     1      28.195  60.359 -10.571  1.00  0.00    -0.000 C 
BRANCH   2   3
ATOM      3  C   UNL     1      29.398  59.427 -10.384  1.00  0.00    -0.003 C 
ATOM      4  C   UNL     1      30.009  59.039 -11.727  1.00  0.00     0.004 C 
ENDBRANCH   2   3
ENDBRANCH   1   2
BRANCH   1   5
ATOM      5  C   UNL     1      26.751  58.387  -9.923  1.00  0.00     0.008 C 
BRANCH   5   6
ATOM      6  C   UNL     1      25.563  57.917  -9.079  1.00  0.00     0.072 C 
BRANCH   6   7
ATOM      7  C   UNL     1      25.506  56.420  -9.048  1.00  0.00     0.224 C 
ATOM      8  O   UNL     1      25.510  55.822  -7.983  1.00  0.00    -0.303 OA
ENDBRANCH   6   7
ENDBRANCH   5   6
ENDBRANCH   1   5
TORSDOF 5
ENDMDL
MODEL 5
REMARK VINA RESULT:    -3.482     17.132     18.319
REMARK INTER + INTRA:          -4.553
REMARK INTER:                  -4.327
REMARK INTRA:                  -0.226
REMARK UNBOUND:                -0.053
REMARK SMILES CCCCCCC=O
REMARK SMILES IDX 4 1 3 2 2 3 1 4 5 5 6 6 7 7 8 8
REMARK H PARENT
REMARK Flexibility Score: inf
ROOT
ATOM      1  C   UNL     1      17.829  44.618  -0.029  1.00  0.00     0.000 C 
ENDROOT
BRANCH   1   2
ATOM      2  C   UNL     1      17.162  44.014   1.212  1.00  0.00    -0.000 C 
BRANCH   2   3
ATOM      3  C   UNL     1      15.718  44.508   1.356  1.00  0.00    -0.003 C 
ATOM      4  C   UNL     1      15.320  45.401   0.184  1.00  0.00     0.004 C 
ENDBRANCH   2   3
ENDBRANCH   1   2
BRANCH   1   5
ATOM      5  C   UNL     1      19.357  44.531   0.070  1.00  0.00     0.008 C 
BRANCH   5   6
ATOM      6  C   UNL     1      19.788  43.941   1.415  1.00  0.00     0.072 C 
BRANCH   6   7
ATOM      7  C   UNL     1      20.727  42.793   1.205  1.00  0.00     0.224 C 
ATOM      8  O   UNL     1      20.892  42.324   0.090  1.00  0.00    -0.303 OA
ENDBRANCH   6   7
ENDBRANCH   5   6
ENDBRANCH   1   5
TORSDOF 5
ENDMDL
MODEL 6
REMARK VINA RESULT:    -3.389     16.352     17.612
REMARK INTER + INTRA:          -4.432
REMARK INTER:                  -4.241
REMARK INTRA:                  -0.191
REMARK UNBOUND:                -0.053
REMARK SMILES CCCCCCC=O
REMARK SMILES IDX 4 1 3 2 2 3 1 4 5 5 6 6 7 7 8 8
REMARK H PARENT
REMARK Flexibility Score: inf
ROOT
ATOM      1  C   UNL     1      19.183  44.817  -0.000  1.00  0.00     0.000 C 
ENDROOT
BRANCH   1   2
ATOM      2  C   UNL     1      18.562  44.022   1.154  1.00  0.00    -0.000 C 
BRANCH   2   3
ATOM      3  C   UNL     1      19.435  42.819   1.526  1.00  0.00    -0.003 C 
ATOM      4  C   UNL     1      20.595  42.655   0.548  1.00  0.00     0.004 C 
ENDBRANCH   2   3
ENDBRANCH   1   2
BRANCH   1   5
ATOM      5  C   UNL     1      18.125  45.664  -0.718  1.00  0.00     0.008 C 
BRANCH   5   6
ATOM      6  C   UNL     1      16.713  45.162  -0.403  1.00  0.00     0.072 C 
BRANCH   6   7
ATOM      7  C   UNL     1      15.722  45.760  -1.355  1.00  0.00     0.224 C 
ATOM      8  O   UNL     1      14.641  46.161  -0.952  1.00  0.00    -0.303 OA
ENDBRANCH   6   7
ENDBRANCH   5   6
ENDBRANCH   1   5
TORSDOF 5
ENDMDL
MODEL 7
REMARK VINA RESULT:    -3.327     16.419     17.939
REMARK INTER + INTRA:          -4.352
REMARK INTER:                  -4.065
REMARK INTRA:                  -0.287
REMARK UNBOUND:                -0.053
REMARK SMILES CCCCCCC=O
REMARK SMILES IDX 4 1 3 2 2 3 1 4 5 5 6 6 7 7 8 8
REMARK H PARENT
REMARK Flexibility Score: inf
ROOT
ATOM      1  C   UNL     1      17.098  43.848   0.750  1.00  0.00     0.000 C 
ENDROOT
BRANCH   1   2
ATOM      2  C   UNL     1      18.294  43.822   1.709  1.00  0.00    -0.000 C 
BRANCH   2   3
ATOM      3  C   UNL     1      19.559  44.353   1.026  1.00  0.00    -0.003 C 
ATOM      4  C   UNL     1      19.219  45.111  -0.254  1.00  0.00     0.004 C 
ENDBRANCH   2   3
ENDBRANCH   1   2
BRANCH   1   5
ATOM      5  C   UNL     1      15.871  44.483   1.415  1.00  0.00     0.008 C 
BRANCH   5   6
ATOM      6  C   UNL     1      15.098  45.357   0.423  1.00  0.00     0.072 C 
BRANCH   6   7
ATOM      7  C   UNL     1      15.581  45.112  -0.974  1.00  0.00     0.224 C 
ATOM      8  O   UNL     1      15.774  46.047  -1.735  1.00  0.00    -0.303 OA
ENDBRANCH   6   7
ENDBRANCH   5   6
ENDBRANCH   1   5
TORSDOF 5
ENDMDL
MODEL 8
REMARK VINA RESULT:    -3.294     16.827     18.749
REMARK INTER + INTRA:          -4.309
REMARK INTER:                  -3.976
REMARK INTRA:                  -0.333
REMARK UNBOUND:                -0.053
REMARK SMILES CCCCCCC=O
REMARK SMILES IDX 4 1 3 2 2 3 1 4 5 5 6 6 7 7 8 8
REMARK H PARENT
REMARK Flexibility Score: inf
ROOT
ATOM      1  C   UNL     1      18.097  42.401   0.721  1.00  0.00     0.000 C 
ENDROOT
BRANCH   1   2
ATOM      2  C   UNL     1      16.601  42.457   1.051  1.00  0.00    -0.000 C 
BRANCH   2   3
ATOM      3  C   UNL     1      15.928  43.643   0.352  1.00  0.00    -0.003 C 
ATOM      4  C   UNL     1      15.529  44.722   1.355  1.00  0.00     0.004 C 
ENDBRANCH   2   3
ENDBRANCH   1   2
BRANCH   1   5
ATOM      5  C   UNL     1      18.938  42.952   1.879  1.00  0.00     0.008 C 
BRANCH   5   6
ATOM      6  C   UNL     1      19.607  44.274   1.492  1.00  0.00     0.072 C 
BRANCH   6   7
ATOM      7  C   UNL     1      19.450  44.527   0.023  1.00  0.00     0.224 C 
ATOM      8  O   UNL     1      19.201  45.650  -0.389  1.00  0.00    -0.303 OA
ENDBRANCH   6   7
ENDBRANCH   5   6
ENDBRANCH   1   5
TORSDOF 5
ENDMDL
MODEL 9
REMARK VINA RESULT:    -3.238     17.217     18.609
REMARK INTER + INTRA:          -4.237
REMARK INTER:                  -3.840
REMARK INTRA:                  -0.397
REMARK UNBOUND:                -0.053
REMARK SMILES CCCCCCC=O
REMARK SMILES IDX 4 1 3 2 2 3 1 4 5 5 6 6 7 7 8 8
REMARK H PARENT
REMARK Flexibility Score: inf
ROOT
ATOM      1  C   UNL     1      17.554  44.770  -0.021  1.00  0.00     0.000 C 
ENDROOT
BRANCH   1   2
ATOM      2  C   UNL     1      19.085  44.699  -0.070  1.00  0.00    -0.000 C 
BRANCH   2   3
ATOM      3  C   UNL     1      19.647  44.064   1.207  1.00  0.00    -0.003 C 
ATOM      4  C   UNL     1      20.537  42.868   0.882  1.00  0.00     0.004 C 
ENDBRANCH   2   3
ENDBRANCH   1   2
BRANCH   1   5
ATOM      5  C   UNL     1      17.012  44.106   1.250  1.00  0.00     0.008 C 
BRANCH   5   6
ATOM      6  C   UNL     1      16.067  42.951   0.907  1.00  0.00     0.072 C 
BRANCH   6   7
ATOM      7  C   UNL     1      16.813  41.652   0.897  1.00  0.00     0.224 C 
ATOM      8  O   UNL     1      17.416  41.291  -0.102  1.00  0.00    -0.303 OA
ENDBRANCH   6   7
ENDBRANCH   5   6
ENDBRANCH   1   5
TORSDOF 5
ENDMDL
