MODEL 1
REMARK VINA RESULT:    -1.985      0.000      0.000
REMARK INTER + INTRA:          -3.139
REMARK INTER:                  -2.565
REMARK INTRA:                  -0.574
REMARK UNBOUND:                -0.574
REMARK SMILES CCCCCCC(C)=O
REMARK SMILES IDX 4 1 3 2 2 3 1 4 5 5 6 6 7 7 9 8 8 9
REMARK H PARENT
REMARK Flexibility Score: inf
ROOT
ATOM      1  C   UNL     1     132.779 144.635 139.520  1.00  0.00     0.000 C 
ENDROOT
BRANCH   1   2
ATOM      2  C   UNL     1     133.404 143.808 138.382  1.00  0.00    -0.000 C 
BRANCH   2   3
ATOM      3  C   UNL     1     132.394 143.164 137.415  1.00  0.00    -0.003 C 
ATOM      4  C   UNL     1     131.181 142.569 138.127  1.00  0.00     0.004 C 
ENDBRANCH   2   3
ENDBRANCH   1   2
BRANCH   1   5
ATOM      5  C   UNL     1     132.724 146.140 139.206  1.00  0.00     0.008 C 
BRANCH   5   6
ATOM      6  C   UNL     1     131.298 146.706 139.277  1.00  0.00     0.075 C 
BRANCH   6   7
ATOM      7  C   UNL     1     130.459 146.281 138.099  1.00  0.00     0.129 C 
ATOM      8  O   UNL     1     130.934 146.298 136.974  1.00  0.00    -0.300 OA
ATOM      9  C   UNL     1     129.029 145.878 138.294  1.00  0.00     0.087 C 
ENDBRANCH   6   7
ENDBRANCH   5   6
ENDBRANCH   1   5
TORSDOF 5
ENDMDL
MODEL 2
REMARK VINA RESULT:    -1.970      1.984      3.248
REMARK INTER + INTRA:          -3.120
REMARK INTER:                  -2.525
REMARK INTRA:                  -0.596
REMARK UNBOUND:                -0.574
REMARK SMILES CCCCCCC(C)=O
REMARK SMILES IDX 4 1 3 2 2 3 1 4 5 5 6 6 7 7 9 8 8 9
REMARK H PARENT
REMARK Flexibility Score: inf
ROOT
ATOM      1  C   UNL     1     130.462 146.127 137.950  1.00  0.00     0.000 C 
ENDROOT
BRANCH   1   2
ATOM      2  C   UNL     1     131.782 146.246 138.732  1.00  0.00    -0.000 C 
BRANCH   2   3
ATOM      3  C   UNL     1     132.543 144.922 138.929  1.00  0.00    -0.003 C 
ATOM      4  C   UNL     1     132.315 143.927 137.793  1.00  0.00     0.004 C 
ENDBRANCH   2   3
ENDBRANCH   1   2
BRANCH   1   5
ATOM      5  C   UNL     1     129.221 146.181 138.857  1.00  0.00     0.008 C 
BRANCH   5   6
ATOM      6  C   UNL     1     128.313 144.953 138.689  1.00  0.00     0.075 C 
BRANCH   6   7
ATOM      7  C   UNL     1     128.914 143.714 139.300  1.00  0.00     0.129 C 
ATOM      8  O   UNL     1     129.443 143.771 140.400  1.00  0.00    -0.300 OA
ATOM      9  C   UNL     1     128.904 142.418 138.548  1.00  0.00     0.087 C 
ENDBRANCH   6   7
ENDBRANCH   5   6
ENDBRANCH   1   5
TORSDOF 5
ENDMDL
MODEL 3
REMARK VINA RESULT:    -1.952      1.891      3.384
REMARK INTER + INTRA:          -3.097
REMARK INTER:                  -2.690
REMARK INTRA:                  -0.408
REMARK UNBOUND:                -0.574
REMARK SMILES CCCCCCC(C)=O
REMARK SMILES IDX 4 1 3 2 2 3 1 4 5 5 6 6 7 7 9 8 8 9
REMARK H PARENT
REMARK Flexibility Score: inf
ROOT
ATOM      1  C   UNL     1     132.632 145.710 139.234  1.00  0.00     0.000 C 
ENDROOT
BRANCH   1   2
ATOM      2  C   UNL     1     133.200 147.064 139.695  1.00  0.00    -0.000 C 
BRANCH   2   3
ATOM      3  C   UNL     1     132.143 148.125 140.052  1.00  0.00    -0.003 C 
ATOM      4  C   UNL     1     131.590 147.966 141.466  1.00  0.00     0.004 C 
ENDBRANCH   2   3
ENDBRANCH   1   2
BRANCH   1   5
ATOM      5  C   UNL     1     131.459 145.855 138.251  1.00  0.00     0.008 C 
BRANCH   5   6
ATOM      6  C   UNL     1     130.160 145.233 138.786  1.00  0.00     0.075 C 
BRANCH   6   7
ATOM      7  C   UNL     1     128.970 146.132 138.573  1.00  0.00     0.129 C 
ATOM      8  O   UNL     1     128.703 146.536 137.452  1.00  0.00    -0.300 OA
ATOM      9  C   UNL     1     128.133 146.569 139.738  1.00  0.00     0.087 C 
ENDBRANCH   6   7
ENDBRANCH   5   6
ENDBRANCH   1   5
TORSDOF 5
ENDMDL
MODEL 4
REMARK VINA RESULT:    -1.911      2.076      3.489
REMARK INTER + INTRA:          -3.044
REMARK INTER:                  -2.499
REMARK INTRA:                  -0.545
REMARK UNBOUND:                -0.574
REMARK SMILES CCCCCCC(C)=O
REMARK SMILES IDX 4 1 3 2 2 3 1 4 5 5 6 6 7 7 9 8 8 9
REMARK H PARENT
REMARK Flexibility Score: inf
ROOT
ATOM      1  C   UNL     1     132.065 143.804 137.734  1.00  0.00     0.000 C 
ENDROOT
BRANCH   1   2
ATOM      2  C   UNL     1     132.460 144.786 138.852  1.00  0.00    -0.000 C 
BRANCH   2   3
ATOM      3  C   UNL     1     131.833 146.187 138.738  1.00  0.00    -0.003 C 
ATOM      4  C   UNL     1     130.866 146.316 137.563  1.00  0.00     0.004 C 
ENDBRANCH   2   3
ENDBRANCH   1   2
BRANCH   1   5
ATOM      5  C   UNL     1     131.597 142.441 138.272  1.00  0.00     0.008 C 
BRANCH   5   6
ATOM      6  C   UNL     1     130.510 142.574 139.350  1.00  0.00     0.075 C 
BRANCH   6   7
ATOM      7  C   UNL     1     129.142 142.785 138.755  1.00  0.00     0.129 C 
ATOM      8  O   UNL     1     128.661 141.940 138.017  1.00  0.00    -0.300 OA
ATOM      9  C   UNL     1     128.384 144.049 139.030  1.00  0.00     0.087 C 
ENDBRANCH   6   7
ENDBRANCH   5   6
ENDBRANCH   1   5
TORSDOF 5
ENDMDL
MODEL 5
REMARK VINA RESULT:    -1.902      2.218      3.312
REMARK INTER + INTRA:          -3.032
REMARK INTER:                  -2.488
REMARK INTRA:                  -0.544
REMARK UNBOUND:                -0.574
REMARK SMILES CCCCCCC(C)=O
REMARK SMILES IDX 4 1 3 2 2 3 1 4 5 5 6 6 7 7 9 8 8 9
REMARK H PARENT
REMARK Flexibility Score: inf
ROOT
ATOM      1  C   UNL     1     131.305 146.226 138.228  1.00  0.00     0.000 C 
ENDROOT
BRANCH   1   2
ATOM      2  C   UNL     1     131.231 144.700 138.423  1.00  0.00    -0.000 C 
BRANCH   2   3
ATOM      3  C   UNL     1     132.208 143.886 137.555  1.00  0.00    -0.003 C 
ATOM      4  C   UNL     1     133.474 143.477 138.303  1.00  0.00     0.004 C 
ENDBRANCH   2   3
ENDBRANCH   1   2
BRANCH   1   5
ATOM      5  C   UNL     1     131.643 146.979 139.525  1.00  0.00     0.008 C 
BRANCH   5   6
ATOM      6  C   UNL     1     133.140 147.304 139.645  1.00  0.00     0.075 C 
BRANCH   6   7
ATOM      7  C   UNL     1     133.857 146.350 140.564  1.00  0.00     0.129 C 
ATOM      8  O   UNL     1     135.062 146.183 140.450  1.00  0.00    -0.300 OA
ATOM      9  C   UNL     1     133.094 145.569 141.591  1.00  0.00     0.087 C 
ENDBRANCH   6   7
ENDBRANCH   5   6
ENDBRANCH   1   5
TORSDOF 5
ENDMDL
MODEL 6
REMARK VINA RESULT:    -1.898      1.570      2.682
REMARK INTER + INTRA:          -3.027
REMARK INTER:                  -2.452
REMARK INTRA:                  -0.575
REMARK UNBOUND:                -0.574
REMARK SMILES CCCCCCC(C)=O
REMARK SMILES IDX 4 1 3 2 2 3 1 4 5 5 6 6 7 7 9 8 8 9
REMARK H PARENT
REMARK Flexibility Score: inf
ROOT
ATOM      1  C   UNL     1     131.145 143.876 138.784  1.00  0.00     0.000 C 
ENDROOT
BRANCH   1   2
ATOM      2  C   UNL     1     132.228 143.646 137.715  1.00  0.00    -0.000 C 
BRANCH   2   3
ATOM      3  C   UNL     1     133.672 143.613 138.247  1.00  0.00    -0.003 C 
ATOM      4  C   UNL     1     133.746 143.586 139.773  1.00  0.00     0.004 C 
ENDBRANCH   2   3
ENDBRANCH   1   2
BRANCH   1   5
ATOM      5  C   UNL     1     130.305 145.137 138.524  1.00  0.00     0.008 C 
BRANCH   5   6
ATOM      6  C   UNL     1     131.170 146.375 138.244  1.00  0.00     0.075 C 
BRANCH   6   7
ATOM      7  C   UNL     1     131.702 146.995 139.509  1.00  0.00     0.129 C 
ATOM      8  O   UNL     1     130.931 147.333 140.394  1.00  0.00    -0.300 OA
ATOM      9  C   UNL     1     133.172 147.240 139.672  1.00  0.00     0.087 C 
ENDBRANCH   6   7
ENDBRANCH   5   6
ENDBRANCH   1   5
TORSDOF 5
ENDMDL
MODEL 7
REMARK VINA RESULT:    -1.895      2.372      3.432
REMARK INTER + INTRA:          -3.023
REMARK INTER:                  -2.478
REMARK INTRA:                  -0.545
REMARK UNBOUND:                -0.574
REMARK SMILES CCCCCCC(C)=O
REMARK SMILES IDX 4 1 3 2 2 3 1 4 5 5 6 6 7 7 9 8 8 9
REMARK H PARENT
REMARK Flexibility Score: inf
ROOT
ATOM      1  C   UNL     1     131.696 145.128 138.305  1.00  0.00     0.000 C 
ENDROOT
BRANCH   1   2
ATOM      2  C   UNL     1     130.975 146.287 137.593  1.00  0.00    -0.000 C 
BRANCH   2   3
ATOM      3  C   UNL     1     129.457 146.358 137.838  1.00  0.00    -0.003 C 
ATOM      4  C   UNL     1     128.959 145.296 138.817  1.00  0.00     0.004 C 
ENDBRANCH   2   3
ENDBRANCH   1   2
BRANCH   1   5
ATOM      5  C   UNL     1     132.739 145.609 139.327  1.00  0.00     0.008 C 
BRANCH   5   6
ATOM      6  C   UNL     1     132.647 147.118 139.599  1.00  0.00     0.075 C 
BRANCH   6   7
ATOM      7  C   UNL     1     132.113 147.416 140.976  1.00  0.00     0.129 C 
ATOM      8  O   UNL     1     132.860 147.375 141.942  1.00  0.00    -0.300 OA
ATOM      9  C   UNL     1     130.659 147.720 141.175  1.00  0.00     0.087 C 
ENDBRANCH   6   7
ENDBRANCH   5   6
ENDBRANCH   1   5
TORSDOF 5
ENDMDL
MODEL 8
REMARK VINA RESULT:    -1.859      1.846      3.726
REMARK INTER + INTRA:          -2.977
REMARK INTER:                  -2.532
REMARK INTRA:                  -0.445
REMARK UNBOUND:                -0.574
REMARK SMILES CCCCCCC(C)=O
REMARK SMILES IDX 4 1 3 2 2 3 1 4 5 5 6 6 7 7 9 8 8 9
REMARK H PARENT
REMARK Flexibility Score: inf
ROOT
ATOM      1  C   UNL     1     132.091 146.006 138.844  1.00  0.00     0.000 C 
ENDROOT
BRANCH   1   2
ATOM      2  C   UNL     1     130.820 146.201 137.998  1.00  0.00    -0.000 C 
BRANCH   2   3
ATOM      3  C   UNL     1     129.502 146.185 138.793  1.00  0.00    -0.003 C 
ATOM      4  C   UNL     1     128.264 146.215 137.898  1.00  0.00     0.004 C 
ENDBRANCH   2   3
ENDBRANCH   1   2
BRANCH   1   5
ATOM      5  C   UNL     1     132.647 144.574 138.768  1.00  0.00     0.008 C 
BRANCH   5   6
ATOM      6  C   UNL     1     132.095 143.790 137.567  1.00  0.00     0.075 C 
BRANCH   6   7
ATOM      7  C   UNL     1     131.452 142.493 137.982  1.00  0.00     0.129 C 
ATOM      8  O   UNL     1     132.050 141.439 137.830  1.00  0.00    -0.300 OA
ATOM      9  C   UNL     1     130.062 142.483 138.544  1.00  0.00     0.087 C 
ENDBRANCH   6   7
ENDBRANCH   5   6
ENDBRANCH   1   5
TORSDOF 5
ENDMDL
MODEL 9
REMARK VINA RESULT:    -1.852     10.145     11.443
REMARK INTER + INTRA:          -2.968
REMARK INTER:                  -2.435
REMARK INTRA:                  -0.533
REMARK UNBOUND:                -0.574
REMARK SMILES CCCCCCC(C)=O
REMARK SMILES IDX 4 1 3 2 2 3 1 4 5 5 6 6 7 7 9 8 8 9
REMARK H PARENT
REMARK Flexibility Score: inf
ROOT
ATOM      1  C   UNL     1     143.260 143.601 139.758  1.00  0.00     0.000 C 
ENDROOT
BRANCH   1   2
ATOM      2  C   UNL     1     142.394 143.130 138.577  1.00  0.00    -0.000 C 
BRANCH   2   3
ATOM      3  C   UNL     1     141.147 143.989 138.301  1.00  0.00    -0.003 C 
ATOM      4  C   UNL     1     141.028 144.418 136.840  1.00  0.00     0.004 C 
ENDBRANCH   2   3
ENDBRANCH   1   2
BRANCH   1   5
ATOM      5  C   UNL     1     143.274 145.130 139.919  1.00  0.00     0.008 C 
BRANCH   5   6
ATOM      6  C   UNL     1     144.244 145.817 138.946  1.00  0.00     0.075 C 
BRANCH   6   7
ATOM      7  C   UNL     1     143.558 146.856 138.098  1.00  0.00     0.129 C 
ATOM      8  O   UNL     1     143.943 147.064 136.957  1.00  0.00    -0.300 OA
ATOM      9  C   UNL     1     142.431 147.669 138.660  1.00  0.00     0.087 C 
ENDBRANCH   6   7
ENDBRANCH   5   6
ENDBRANCH   1   5
TORSDOF 5
ENDMDL
