MODEL 1
REMARK VINA RESULT:    -3.441      0.000      0.000
REMARK INTER + INTRA:          -4.954
REMARK INTER:                  -4.648
REMARK INTRA:                  -0.306
REMARK UNBOUND:                -0.306
REMARK SMILES CCCCCCC=CC(=O)[O-]
REMARK SMILES IDX 5 1 6 2 7 3 8 4 9 5 10 6 11 7 4 8 3 9 2 10 1 11
REMARK H PARENT
REMARK Flexibility Score: inf
ROOT
ATOM      1  C   UNL     1      -4.325  -3.125  33.074  1.00  0.00     0.004 C 
ENDROOT
BRANCH   1   2
ATOM      2  C   UNL     1      -3.780  -4.484  32.612  1.00  0.00     0.027 C 
BRANCH   2   3
ATOM      3  C   UNL     1      -2.418  -4.750  33.188  1.00  0.00    -0.025 C 
ATOM      4  C   UNL     1      -1.500  -5.596  32.691  1.00  0.00     0.020 C 
BRANCH   4   5
ATOM      5  C   UNL     1      -1.623  -6.404  31.459  1.00  0.00     0.064 C 
ATOM      6  O   UNL     1      -1.007  -6.033  30.426  1.00  0.00    -0.545 OA
ATOM      7  O   UNL     1      -2.414  -7.543  31.393  1.00  0.00    -0.545 OA
ENDBRANCH   4   5
ENDBRANCH   2   3
ENDBRANCH   1   2
BRANCH   1   8
ATOM      8  C   UNL     1      -3.196  -2.097  33.204  1.00  0.00     0.000 C 
BRANCH   8   9
ATOM      9  C   UNL     1      -3.686  -0.826  33.909  1.00  0.00    -0.000 C 
BRANCH   9  10
ATOM     10  C   UNL     1      -2.533  -0.113  34.623  1.00  0.00    -0.003 C 
ATOM     11  C   UNL     1      -2.993   0.488  35.949  1.00  0.00     0.004 C 
ENDBRANCH   9  10
ENDBRANCH   8   9
ENDBRANCH   1   8
TORSDOF 6
ENDMDL
MODEL 2
REMARK VINA RESULT:    -3.377      2.930      4.295
REMARK INTER + INTRA:          -4.868
REMARK INTER:                  -4.292
REMARK INTRA:                  -0.576
REMARK UNBOUND:                -0.306
REMARK SMILES CCCCCCC=CC(=O)[O-]
REMARK SMILES IDX 5 1 6 2 7 3 8 4 9 5 10 6 11 7 4 8 3 9 2 10 1 11
REMARK H PARENT
REMARK Flexibility Score: inf
ROOT
ATOM      1  C   UNL     1      -1.737  -5.548  30.836  1.00  0.00     0.004 C 
ENDROOT
BRANCH   1   2
ATOM      2  C   UNL     1      -2.426  -6.837  30.367  1.00  0.00     0.027 C 
BRANCH   2   3
ATOM      3  C   UNL     1      -3.898  -6.811  30.671  1.00  0.00    -0.025 C 
ATOM      4  C   UNL     1      -4.736  -7.861  30.617  1.00  0.00     0.020 C 
BRANCH   4   5
ATOM      5  C   UNL     1      -4.378  -9.257  30.291  1.00  0.00     0.064 C 
ATOM      6  O   UNL     1      -4.749  -9.738  29.189  1.00  0.00    -0.545 OA
ATOM      7  O   UNL     1      -3.669 -10.067  31.169  1.00  0.00    -0.545 OA
ENDBRANCH   4   5
ENDBRANCH   2   3
ENDBRANCH   1   2
BRANCH   1   8
ATOM      8  C   UNL     1      -1.169  -5.712  32.249  1.00  0.00     0.000 C 
BRANCH   8   9
ATOM      9  C   UNL     1      -2.116  -5.114  33.297  1.00  0.00    -0.000 C 
BRANCH   9  10
ATOM     10  C   UNL     1      -2.758  -3.821  32.785  1.00  0.00    -0.003 C 
ATOM     11  C   UNL     1      -4.275  -3.852  32.958  1.00  0.00     0.004 C 
ENDBRANCH   9  10
ENDBRANCH   8   9
ENDBRANCH   1   8
TORSDOF 6
ENDMDL
MODEL 3
REMARK VINA RESULT:    -3.366      1.263      1.954
REMARK INTER + INTRA:          -4.854
REMARK INTER:                  -4.447
REMARK INTRA:                  -0.406
REMARK UNBOUND:                -0.306
REMARK SMILES CCCCCCC=CC(=O)[O-]
REMARK SMILES IDX 5 1 6 2 7 3 8 4 9 5 10 6 11 7 4 8 3 9 2 10 1 11
REMARK H PARENT
REMARK Flexibility Score: inf
ROOT
ATOM      1  C   UNL     1      -2.723  -3.892  32.406  1.00  0.00     0.004 C 
ENDROOT
BRANCH   1   2
ATOM      2  C   UNL     1      -2.089  -5.162  32.990  1.00  0.00     0.027 C 
BRANCH   2   3
ATOM      3  C   UNL     1      -1.126  -5.788  32.021  1.00  0.00    -0.025 C 
ATOM      4  C   UNL     1      -1.416  -6.746  31.124  1.00  0.00     0.020 C 
BRANCH   4   5
ATOM      5  C   UNL     1      -2.743  -7.349  30.878  1.00  0.00     0.064 C 
ATOM      6  O   UNL     1      -3.634  -6.654  30.324  1.00  0.00    -0.545 OA
ATOM      7  O   UNL     1      -3.051  -8.648  31.260  1.00  0.00    -0.545 OA
ENDBRANCH   4   5
ENDBRANCH   2   3
ENDBRANCH   1   2
BRANCH   1   8
ATOM      8  C   UNL     1      -4.173  -3.735  32.876  1.00  0.00     0.000 C 
BRANCH   8   9
ATOM      9  C   UNL     1      -4.384  -2.384  33.570  1.00  0.00    -0.000 C 
BRANCH   9  10
ATOM     10  C   UNL     1      -3.392  -1.338  33.051  1.00  0.00    -0.003 C 
ATOM     11  C   UNL     1      -2.790  -0.532  34.200  1.00  0.00     0.004 C 
ENDBRANCH   9  10
ENDBRANCH   8   9
ENDBRANCH   1   8
TORSDOF 6
ENDMDL
MODEL 4
REMARK VINA RESULT:    -3.325      3.092      6.447
REMARK INTER + INTRA:          -4.798
REMARK INTER:                  -4.401
REMARK INTRA:                  -0.397
REMARK UNBOUND:                -0.306
REMARK SMILES CCCCCCC=CC(=O)[O-]
REMARK SMILES IDX 5 1 6 2 7 3 8 4 9 5 10 6 11 7 4 8 3 9 2 10 1 11
REMARK H PARENT
REMARK Flexibility Score: inf
ROOT
ATOM      1  C   UNL     1      -2.698  -6.584  30.200  1.00  0.00     0.004 C 
ENDROOT
BRANCH   1   2
ATOM      2  C   UNL     1      -1.641  -5.581  30.683  1.00  0.00     0.027 C 
BRANCH   2   3
ATOM      3  C   UNL     1      -1.357  -5.750  32.149  1.00  0.00    -0.025 C 
ATOM      4  C   UNL     1      -1.976  -5.109  33.154  1.00  0.00     0.020 C 
BRANCH   4   5
ATOM      5  C   UNL     1      -3.086  -4.141  33.029  1.00  0.00     0.064 C 
ATOM      6  O   UNL     1      -2.832  -2.911  33.104  1.00  0.00    -0.545 OA
ATOM      7  O   UNL     1      -4.405  -4.542  32.859  1.00  0.00    -0.545 OA
ENDBRANCH   4   5
ENDBRANCH   2   3
ENDBRANCH   1   2
BRANCH   1   8
ATOM      8  C   UNL     1      -2.786  -7.786  31.145  1.00  0.00     0.000 C 
BRANCH   8   9
ATOM      9  C   UNL     1      -3.750  -8.847  30.600  1.00  0.00    -0.000 C 
BRANCH   9  10
ATOM     10  C   UNL     1      -4.314  -8.430  29.238  1.00  0.00    -0.003 C 
ATOM     11  C   UNL     1      -4.247  -9.581  28.237  1.00  0.00     0.004 C 
ENDBRANCH   9  10
ENDBRANCH   8   9
ENDBRANCH   1   8
TORSDOF 6
ENDMDL
MODEL 5
REMARK VINA RESULT:    -3.294     11.786     12.629
REMARK INTER + INTRA:          -4.756
REMARK INTER:                  -3.992
REMARK INTRA:                  -0.764
REMARK UNBOUND:                -0.306
REMARK SMILES CCCCCCC=CC(=O)[O-]
REMARK SMILES IDX 5 1 6 2 7 3 8 4 9 5 10 6 11 7 4 8 3 9 2 10 1 11
REMARK H PARENT
REMARK Flexibility Score: inf
ROOT
ATOM      1  C   UNL     1      -9.813   5.420  36.345  1.00  0.00     0.004 C 
ENDROOT
BRANCH   1   2
ATOM      2  C   UNL     1     -10.498   5.732  35.006  1.00  0.00     0.027 C 
BRANCH   2   3
ATOM      3  C   UNL     1     -10.152   4.706  33.964  1.00  0.00    -0.025 C 
ATOM      4  C   UNL     1     -10.936   4.318  32.943  1.00  0.00     0.020 C 
BRANCH   4   5
ATOM      5  C   UNL     1     -12.275   4.848  32.612  1.00  0.00     0.064 C 
ATOM      6  O   UNL     1     -12.367   5.803  31.798  1.00  0.00    -0.545 OA
ATOM      7  O   UNL     1     -13.435   4.347  33.188  1.00  0.00    -0.545 OA
ENDBRANCH   4   5
ENDBRANCH   2   3
ENDBRANCH   1   2
BRANCH   1   8
ATOM      8  C   UNL     1      -9.612   3.911  36.521  1.00  0.00     0.000 C 
BRANCH   8   9
ATOM      9  C   UNL     1     -10.646   3.327  37.491  1.00  0.00    -0.000 C 
BRANCH   9  10
ATOM     10  C   UNL     1     -11.674   2.468  36.747  1.00  0.00    -0.003 C 
ATOM     11  C   UNL     1     -13.004   3.204  36.601  1.00  0.00     0.004 C 
ENDBRANCH   9  10
ENDBRANCH   8   9
ENDBRANCH   1   8
TORSDOF 6
ENDMDL
MODEL 6
REMARK VINA RESULT:    -3.272      3.173      5.934
REMARK INTER + INTRA:          -4.726
REMARK INTER:                  -4.221
REMARK INTRA:                  -0.505
REMARK UNBOUND:                -0.306
REMARK SMILES CCCCCCC=CC(=O)[O-]
REMARK SMILES IDX 5 1 6 2 7 3 8 4 9 5 10 6 11 7 4 8 3 9 2 10 1 11
REMARK H PARENT
REMARK Flexibility Score: inf
ROOT
ATOM      1  C   UNL     1      -1.848  -5.386  32.960  1.00  0.00     0.004 C 
ENDROOT
BRANCH   1   2
ATOM      2  C   UNL     1      -2.342  -4.012  32.485  1.00  0.00     0.027 C 
BRANCH   2   3
ATOM      3  C   UNL     1      -3.707  -3.703  33.036  1.00  0.00    -0.025 C 
ATOM      4  C   UNL     1      -4.181  -2.482  33.335  1.00  0.00     0.020 C 
BRANCH   4   5
ATOM      5  C   UNL     1      -3.479  -1.194  33.147  1.00  0.00     0.064 C 
ATOM      6  O   UNL     1      -3.674  -0.545  32.087  1.00  0.00    -0.545 OA
ATOM      7  O   UNL     1      -2.592  -0.688  34.088  1.00  0.00    -0.545 OA
ENDBRANCH   4   5
ENDBRANCH   2   3
ENDBRANCH   1   2
BRANCH   1   8
ATOM      8  C   UNL     1      -0.942  -6.036  31.909  1.00  0.00     0.000 C 
BRANCH   8   9
ATOM      9  C   UNL     1      -1.750  -6.485  30.686  1.00  0.00    -0.000 C 
BRANCH   9  10
ATOM     10  C   UNL     1      -2.745  -7.589  31.058  1.00  0.00    -0.003 C 
ATOM     11  C   UNL     1      -4.165  -7.214  30.640  1.00  0.00     0.004 C 
ENDBRANCH   9  10
ENDBRANCH   8   9
ENDBRANCH   1   8
TORSDOF 6
ENDMDL
MODEL 7
REMARK VINA RESULT:    -3.259     12.736     14.332
REMARK INTER + INTRA:          -4.708
REMARK INTER:                  -3.788
REMARK INTRA:                  -0.920
REMARK UNBOUND:                -0.306
REMARK SMILES CCCCCCC=CC(=O)[O-]
REMARK SMILES IDX 5 1 6 2 7 3 8 4 9 5 10 6 11 7 4 8 3 9 2 10 1 11
REMARK H PARENT
REMARK Flexibility Score: inf
ROOT
ATOM      1  C   UNL     1     -10.913   7.957  27.726  1.00  0.00     0.004 C 
ENDROOT
BRANCH   1   2
ATOM      2  C   UNL     1     -11.962   7.903  28.846  1.00  0.00     0.027 C 
BRANCH   2   3
ATOM      3  C   UNL     1     -12.822   6.675  28.730  1.00  0.00    -0.025 C 
ATOM      4  C   UNL     1     -12.809   5.619  29.561  1.00  0.00     0.020 C 
BRANCH   4   5
ATOM      5  C   UNL     1     -11.983   5.465  30.777  1.00  0.00     0.064 C 
ATOM      6  O   UNL     1     -12.448   5.851  31.881  1.00  0.00    -0.545 OA
ATOM      7  O   UNL     1     -10.700   4.934  30.741  1.00  0.00    -0.545 OA
ENDBRANCH   4   5
ENDBRANCH   2   3
ENDBRANCH   1   2
BRANCH   1   8
ATOM      8  C   UNL     1      -9.497   7.815  28.294  1.00  0.00     0.000 C 
BRANCH   8   9
ATOM      9  C   UNL     1      -8.962   6.392  28.093  1.00  0.00    -0.000 C 
BRANCH   9  10
ATOM     10  C   UNL     1      -9.652   5.707  26.909  1.00  0.00    -0.003 C 
ATOM     11  C   UNL     1     -10.129   4.306  27.285  1.00  0.00     0.004 C 
ENDBRANCH   9  10
ENDBRANCH   8   9
ENDBRANCH   1   8
TORSDOF 6
ENDMDL
MODEL 8
REMARK VINA RESULT:    -3.250      2.607      3.332
REMARK INTER + INTRA:          -4.696
REMARK INTER:                  -3.940
REMARK INTRA:                  -0.756
REMARK UNBOUND:                -0.306
REMARK SMILES CCCCCCC=CC(=O)[O-]
REMARK SMILES IDX 5 1 6 2 7 3 8 4 9 5 10 6 11 7 4 8 3 9 2 10 1 11
REMARK H PARENT
REMARK Flexibility Score: inf
ROOT
ATOM      1  C   UNL     1      -2.723  -3.973  32.985  1.00  0.00     0.004 C 
ENDROOT
BRANCH   1   2
ATOM      2  C   UNL     1      -2.062  -5.347  33.169  1.00  0.00     0.027 C 
BRANCH   2   3
ATOM      3  C   UNL     1      -1.209  -5.706  31.985  1.00  0.00    -0.025 C 
ATOM      4  C   UNL     1      -1.550  -6.540  30.988  1.00  0.00     0.020 C 
BRANCH   4   5
ATOM      5  C   UNL     1      -2.842  -7.240  30.829  1.00  0.00     0.064 C 
ATOM      6  O   UNL     1      -2.948  -8.423  31.245  1.00  0.00    -0.545 OA
ATOM      7  O   UNL     1      -3.936  -6.648  30.213  1.00  0.00    -0.545 OA
ENDBRANCH   4   5
ENDBRANCH   2   3
ENDBRANCH   1   2
BRANCH   1   8
ATOM      8  C   UNL     1      -4.210  -4.121  32.644  1.00  0.00     0.000 C 
BRANCH   8   9
ATOM      9  C   UNL     1      -4.587  -3.257  31.434  1.00  0.00    -0.000 C 
BRANCH   9  10
ATOM     10  C   UNL     1      -3.404  -3.113  30.471  1.00  0.00    -0.003 C 
ATOM     11  C   UNL     1      -3.488  -1.806  29.686  1.00  0.00     0.004 C 
ENDBRANCH   9  10
ENDBRANCH   8   9
ENDBRANCH   1   8
TORSDOF 6
ENDMDL
MODEL 9
REMARK VINA RESULT:    -3.198     11.466     12.386
REMARK INTER + INTRA:          -4.626
REMARK INTER:                  -3.876
REMARK INTRA:                  -0.751
REMARK UNBOUND:                -0.306
REMARK SMILES CCCCCCC=CC(=O)[O-]
REMARK SMILES IDX 5 1 6 2 7 3 8 4 9 5 10 6 11 7 4 8 3 9 2 10 1 11
REMARK H PARENT
REMARK Flexibility Score: inf
ROOT
ATOM      1  C   UNL     1      -9.874   4.442  33.917  1.00  0.00     0.004 C 
ENDROOT
BRANCH   1   2
ATOM      2  C   UNL     1     -10.685   4.580  32.621  1.00  0.00     0.027 C 
BRANCH   2   3
ATOM      3  C   UNL     1     -12.068   5.103  32.895  1.00  0.00    -0.025 C 
ATOM      4  C   UNL     1     -13.188   4.368  32.987  1.00  0.00     0.020 C 
BRANCH   4   5
ATOM      5  C   UNL     1     -13.287   2.897  32.882  1.00  0.00     0.064 C 
ATOM      6  O   UNL     1     -13.026   2.196  33.894  1.00  0.00    -0.545 OA
ATOM      7  O   UNL     1     -13.632   2.258  31.698  1.00  0.00    -0.545 OA
ENDBRANCH   4   5
ENDBRANCH   2   3
ENDBRANCH   1   2
BRANCH   1   8
ATOM      8  C   UNL     1     -10.279   5.514  34.935  1.00  0.00     0.000 C 
BRANCH   8   9
ATOM      9  C   UNL     1     -10.146   4.990  36.370  1.00  0.00    -0.000 C 
BRANCH   9  10
ATOM     10  C   UNL     1     -10.732   3.580  36.497  1.00  0.00    -0.003 C 
ATOM     11  C   UNL     1     -12.149   3.621  37.065  1.00  0.00     0.004 C 
ENDBRANCH   9  10
ENDBRANCH   8   9
ENDBRANCH   1   8
TORSDOF 6
ENDMDL
