MODEL 1
REMARK VINA RESULT:    -3.958      0.000      0.000
REMARK INTER + INTRA:          -8.258
REMARK INTER:                  -7.428
REMARK INTRA:                  -0.830
REMARK UNBOUND:                -0.830
REMARK SMILES O=C([O-])CCCCCCCCCCCCCCC(=O)[O-]
REMARK SMILES IDX 10 1 9 2 8 3 7 4 6 5 5 6 4 7 2 8 1 9 3 10 11 11 12 12 13 13
REMARK SMILES IDX 14 14 15 15 16 16 17 17 18 18 19 19 20 20
REMARK H PARENT
REMARK Flexibility Score: inf
ROOT
ATOM      1  C   UNL     1      -0.513   9.625   8.424  1.00  0.00     0.000 C 
ENDROOT
BRANCH   1   2
ATOM      2  C   UNL     1       0.752   9.011   9.051  1.00  0.00     0.000 C 
BRANCH   2   3
ATOM      3  C   UNL     1       1.906  10.021   9.176  1.00  0.00     0.000 C 
BRANCH   3   4
ATOM      4  C   UNL     1       3.280   9.398   8.874  1.00  0.00     0.000 C 
BRANCH   4   5
ATOM      5  C   UNL     1       3.292   8.368   7.728  1.00  0.00     0.000 C 
BRANCH   5   6
ATOM      6  C   UNL     1       4.697   7.825   7.393  1.00  0.00     0.006 C 
BRANCH   6   7
ATOM      7  C   UNL     1       5.073   8.052   5.923  1.00  0.00     0.053 C 
BRANCH   7   8
ATOM      8  C   UNL     1       6.266   8.949   5.820  1.00  0.00     0.041 C 
ATOM      9  O   UNL     1       6.840   9.116   4.712  1.00  0.00    -0.550 OA
ATOM     10  O   UNL     1       6.714   9.640   6.939  1.00  0.00    -0.550 OA
ENDBRANCH   7   8
ENDBRANCH   6   7
ENDBRANCH   5   6
ENDBRANCH   4   5
ENDBRANCH   3   4
ENDBRANCH   2   3
ENDBRANCH   1   2
BRANCH   1  11
ATOM     11  C   UNL     1      -1.780   9.542   9.295  1.00  0.00     0.000 C 
BRANCH  11  12
ATOM     12  C   UNL     1      -3.030   8.991   8.582  1.00  0.00     0.000 C 
BRANCH  12  13
ATOM     13  C   UNL     1      -3.656   9.977   7.573  1.00  0.00     0.000 C 
BRANCH  13  14
ATOM     14  C   UNL     1      -2.892  10.019   6.241  1.00  0.00     0.000 C 
BRANCH  14  15
ATOM     15  C   UNL     1      -3.713   9.374   5.114  1.00  0.00     0.000 C 
BRANCH  15  16
ATOM     16  C   UNL     1      -2.922   8.304   4.346  1.00  0.00     0.006 C 
BRANCH  16  17
ATOM     17  C   UNL     1      -2.161   7.350   5.275  1.00  0.00     0.053 C 
BRANCH  17  18
ATOM     18  C   UNL     1      -3.011   6.169   5.621  1.00  0.00     0.041 C 
ATOM     19  O   UNL     1      -3.392   5.989   6.808  1.00  0.00    -0.550 OA
ATOM     20  O   UNL     1      -3.342   5.239   4.644  1.00  0.00    -0.550 OA
ENDBRANCH  17  18
ENDBRANCH  16  17
ENDBRANCH  15  16
ENDBRANCH  14  15
ENDBRANCH  13  14
ENDBRANCH  12  13
ENDBRANCH  11  12
ENDBRANCH   1  11
TORSDOF 15
ENDMDL
MODEL 2
REMARK VINA RESULT:    -3.913     13.149     15.052
REMARK INTER + INTRA:          -8.174
REMARK INTER:                  -7.596
REMARK INTRA:                  -0.579
REMARK UNBOUND:                -0.830
REMARK SMILES O=C([O-])CCCCCCCCCCCCCCC(=O)[O-]
REMARK SMILES IDX 10 1 9 2 8 3 7 4 6 5 5 6 4 7 2 8 1 9 3 10 11 11 12 12 13 13
REMARK SMILES IDX 14 14 15 15 16 16 17 17 18 18 19 19 20 20
REMARK H PARENT
REMARK Flexibility Score: inf
ROOT
ATOM      1  C   UNL     1       5.915  -6.347   6.680  1.00  0.00     0.000 C 
ENDROOT
BRANCH   1   2
ATOM      2  C   UNL     1       6.817  -5.768   7.785  1.00  0.00     0.000 C 
BRANCH   2   3
ATOM      3  C   UNL     1       7.979  -4.928   7.227  1.00  0.00     0.000 C 
BRANCH   3   4
ATOM      4  C   UNL     1       9.044  -4.603   8.288  1.00  0.00     0.000 C 
BRANCH   4   5
ATOM      5  C   UNL     1       8.490  -4.226   9.676  1.00  0.00     0.000 C 
BRANCH   5   6
ATOM      6  C   UNL     1       8.817  -2.780  10.106  1.00  0.00     0.006 C 
BRANCH   6   7
ATOM      7  C   UNL     1       8.456  -1.755   9.024  1.00  0.00     0.053 C 
BRANCH   7   8
ATOM      8  C   UNL     1       8.518  -0.367   9.576  1.00  0.00     0.041 C 
ATOM      9  O   UNL     1       9.621   0.123   9.937  1.00  0.00    -0.550 OA
ATOM     10  O   UNL     1       7.366   0.407   9.645  1.00  0.00    -0.550 OA
ENDBRANCH   7   8
ENDBRANCH   6   7
ENDBRANCH   5   6
ENDBRANCH   4   5
ENDBRANCH   3   4
ENDBRANCH   2   3
ENDBRANCH   1   2
BRANCH   1  11
ATOM     11  C   UNL     1       6.114  -7.847   6.393  1.00  0.00     0.000 C 
BRANCH  11  12
ATOM     12  C   UNL     1       5.209  -8.795   7.203  1.00  0.00     0.000 C 
BRANCH  12  13
ATOM     13  C   UNL     1       4.933  -8.313   8.644  1.00  0.00     0.000 C 
BRANCH  13  14
ATOM     14  C   UNL     1       3.433  -8.154   8.933  1.00  0.00     0.000 C 
BRANCH  14  15
ATOM     15  C   UNL     1       3.070  -6.680   9.167  1.00  0.00     0.000 C 
BRANCH  15  16
ATOM     16  C   UNL     1       3.008  -5.872   7.862  1.00  0.00     0.006 C 
BRANCH  16  17
ATOM     17  C   UNL     1       1.880  -4.831   7.863  1.00  0.00     0.053 C 
BRANCH  17  18
ATOM     18  C   UNL     1       0.614  -5.433   7.342  1.00  0.00     0.041 C 
ATOM     19  O   UNL     1       0.451  -6.681   7.362  1.00  0.00    -0.550 OA
ATOM     20  O   UNL     1      -0.366  -4.619   6.788  1.00  0.00    -0.550 OA
ENDBRANCH  17  18
ENDBRANCH  16  17
ENDBRANCH  15  16
ENDBRANCH  14  15
ENDBRANCH  13  14
ENDBRANCH  12  13
ENDBRANCH  11  12
ENDBRANCH   1  11
TORSDOF 15
ENDMDL
MODEL 3
REMARK VINA RESULT:    -3.841      1.273      8.008
REMARK INTER + INTRA:          -8.040
REMARK INTER:                  -7.432
REMARK INTRA:                  -0.608
REMARK UNBOUND:                -0.830
REMARK SMILES O=C([O-])CCCCCCCCCCCCCCC(=O)[O-]
REMARK SMILES IDX 10 1 9 2 8 3 7 4 6 5 5 6 4 7 2 8 1 9 3 10 11 11 12 12 13 13
REMARK SMILES IDX 14 14 15 15 16 16 17 17 18 18 19 19 20 20
REMARK H PARENT
REMARK Flexibility Score: inf
ROOT
ATOM      1  C   UNL     1       0.033   9.886   8.803  1.00  0.00     0.000 C 
ENDROOT
BRANCH   1   2
ATOM      2  C   UNL     1      -1.211   9.429   9.586  1.00  0.00     0.000 C 
BRANCH   2   3
ATOM      3  C   UNL     1      -2.503  10.114   9.107  1.00  0.00     0.000 C 
BRANCH   3   4
ATOM      4  C   UNL     1      -2.757   9.922   7.602  1.00  0.00     0.000 C 
BRANCH   4   5
ATOM      5  C   UNL     1      -2.986   8.464   7.158  1.00  0.00     0.000 C 
BRANCH   5   6
ATOM      6  C   UNL     1      -2.006   7.983   6.067  1.00  0.00     0.006 C 
BRANCH   6   7
ATOM      7  C   UNL     1      -2.721   7.238   4.932  1.00  0.00     0.053 C 
BRANCH   7   8
ATOM      8  C   UNL     1      -2.851   5.785   5.261  1.00  0.00     0.041 C 
ATOM      9  O   UNL     1      -2.328   4.916   4.514  1.00  0.00    -0.550 OA
ATOM     10  O   UNL     1      -3.508   5.391   6.420  1.00  0.00    -0.550 OA
ENDBRANCH   7   8
ENDBRANCH   6   7
ENDBRANCH   5   6
ENDBRANCH   4   5
ENDBRANCH   3   4
ENDBRANCH   2   3
ENDBRANCH   1   2
BRANCH   1  11
ATOM     11  C   UNL     1       1.373   9.337   9.327  1.00  0.00     0.000 C 
BRANCH  11  12
ATOM     12  C   UNL     1       2.444   9.083   8.249  1.00  0.00     0.000 C 
BRANCH  12  13
ATOM     13  C   UNL     1       3.655   8.269   8.753  1.00  0.00     0.000 C 
BRANCH  13  14
ATOM     14  C   UNL     1       4.504   9.049   9.768  1.00  0.00     0.000 C 
BRANCH  14  15
ATOM     15  C   UNL     1       5.988   8.670   9.652  1.00  0.00     0.000 C 
BRANCH  15  16
ATOM     16  C   UNL     1       6.367   8.192   8.241  1.00  0.00     0.006 C 
BRANCH  16  17
ATOM     17  C   UNL     1       6.423   9.338   7.223  1.00  0.00     0.053 C 
BRANCH  17  18
ATOM     18  C   UNL     1       6.145   8.826   5.845  1.00  0.00     0.041 C 
ATOM     19  O   UNL     1       6.763   9.303   4.857  1.00  0.00    -0.550 OA
ATOM     20  O   UNL     1       5.169   7.858   5.646  1.00  0.00    -0.550 OA
ENDBRANCH  17  18
ENDBRANCH  16  17
ENDBRANCH  15  16
ENDBRANCH  14  15
ENDBRANCH  13  14
ENDBRANCH  12  13
ENDBRANCH  11  12
ENDBRANCH   1  11
TORSDOF 15
ENDMDL
MODEL 4
REMARK VINA RESULT:    -3.383      2.997      9.665
REMARK INTER + INTRA:          -7.179
REMARK INTER:                  -6.528
REMARK INTRA:                  -0.650
REMARK UNBOUND:                -0.830
REMARK SMILES O=C([O-])CCCCCCCCCCCCCCC(=O)[O-]
REMARK SMILES IDX 10 1 9 2 8 3 7 4 6 5 5 6 4 7 2 8 1 9 3 10 11 11 12 12 13 13
REMARK SMILES IDX 14 14 15 15 16 16 17 17 18 18 19 19 20 20
REMARK H PARENT
REMARK Flexibility Score: inf
ROOT
ATOM      1  C   UNL     1      -1.856   8.980   7.762  1.00  0.00     0.000 C 
ENDROOT
BRANCH   1   2
ATOM      2  C   UNL     1      -3.085   9.402   8.588  1.00  0.00     0.000 C 
BRANCH   2   3
ATOM      3  C   UNL     1      -3.500   8.342   9.623  1.00  0.00     0.000 C 
BRANCH   3   4
ATOM      4  C   UNL     1      -4.163   7.110   8.984  1.00  0.00     0.000 C 
BRANCH   4   5
ATOM      5  C   UNL     1      -5.657   6.926   9.315  1.00  0.00     0.000 C 
BRANCH   5   6
ATOM      6  C   UNL     1      -6.298   8.148  10.004  1.00  0.00     0.006 C 
BRANCH   6   7
ATOM      7  C   UNL     1      -7.792   8.281   9.681  1.00  0.00     0.053 C 
BRANCH   7   8
ATOM      8  C   UNL     1      -8.055   9.548   8.932  1.00  0.00     0.041 C 
ATOM      9  O   UNL     1      -7.124  10.120   8.306  1.00  0.00    -0.550 OA
ATOM     10  O   UNL     1      -9.341  10.072   8.881  1.00  0.00    -0.550 OA
ENDBRANCH   7   8
ENDBRANCH   6   7
ENDBRANCH   5   6
ENDBRANCH   4   5
ENDBRANCH   3   4
ENDBRANCH   2   3
ENDBRANCH   1   2
BRANCH   1  11
ATOM     11  C   UNL     1      -0.572   9.782   8.043  1.00  0.00     0.000 C 
BRANCH  11  12
ATOM     12  C   UNL     1       0.662   8.936   8.408  1.00  0.00     0.000 C 
BRANCH  12  13
ATOM     13  C   UNL     1       2.007   9.635   8.112  1.00  0.00     0.000 C 
BRANCH  13  14
ATOM     14  C   UNL     1       3.202   8.675   8.212  1.00  0.00     0.000 C 
BRANCH  14  15
ATOM     15  C   UNL     1       4.327   9.283   9.063  1.00  0.00     0.000 C 
BRANCH  15  16
ATOM     16  C   UNL     1       5.688   9.254   8.350  1.00  0.00     0.006 C 
BRANCH  16  17
ATOM     17  C   UNL     1       5.641   8.501   7.015  1.00  0.00     0.053 C 
BRANCH  17  18
ATOM     18  C   UNL     1       6.493   9.188   5.996  1.00  0.00     0.041 C 
ATOM     19  O   UNL     1       6.387   8.891   4.777  1.00  0.00    -0.550 OA
ATOM     20  O   UNL     1       7.439  10.123   6.397  1.00  0.00    -0.550 OA
ENDBRANCH  17  18
ENDBRANCH  16  17
ENDBRANCH  15  16
ENDBRANCH  14  15
ENDBRANCH  13  14
ENDBRANCH  12  13
ENDBRANCH  11  12
ENDBRANCH   1  11
TORSDOF 15
ENDMDL
MODEL 5
REMARK VINA RESULT:    -3.032     13.814     17.028
REMARK INTER + INTRA:          -6.520
REMARK INTER:                  -5.393
REMARK INTRA:                  -1.127
REMARK UNBOUND:                -0.830
REMARK SMILES O=C([O-])CCCCCCCCCCCCCCC(=O)[O-]
REMARK SMILES IDX 10 1 9 2 8 3 7 4 6 5 5 6 4 7 2 8 1 9 3 10 11 11 12 12 13 13
REMARK SMILES IDX 14 14 15 15 16 16 17 17 18 18 19 19 20 20
REMARK H PARENT
REMARK Flexibility Score: inf
ROOT
ATOM      1  C   UNL     1       6.549  -7.377   5.657  1.00  0.00     0.000 C 
ENDROOT
BRANCH   1   2
ATOM      2  C   UNL     1       6.019  -8.819   5.547  1.00  0.00     0.000 C 
BRANCH   2   3
ATOM      3  C   UNL     1       5.720  -9.450   6.918  1.00  0.00     0.000 C 
BRANCH   3   4
ATOM      4  C   UNL     1       4.215  -9.520   7.227  1.00  0.00     0.000 C 
BRANCH   4   5
ATOM      5  C   UNL     1       3.844  -9.338   8.712  1.00  0.00     0.000 C 
BRANCH   5   6
ATOM      6  C   UNL     1       3.172  -7.984   9.025  1.00  0.00     0.006 C 
BRANCH   6   7
ATOM      7  C   UNL     1       2.502  -7.367   7.791  1.00  0.00     0.053 C 
BRANCH   7   8
ATOM      8  C   UNL     1       2.372  -5.886   7.951  1.00  0.00     0.041 C 
ATOM      9  O   UNL     1       3.251  -5.236   8.574  1.00  0.00    -0.550 OA
ATOM     10  O   UNL     1       1.304  -5.215   7.367  1.00  0.00    -0.550 OA
ENDBRANCH   7   8
ENDBRANCH   6   7
ENDBRANCH   5   6
ENDBRANCH   4   5
ENDBRANCH   3   4
ENDBRANCH   2   3
ENDBRANCH   1   2
BRANCH   1  11
ATOM     11  C   UNL     1       5.889  -6.521   6.754  1.00  0.00     0.000 C 
BRANCH  11  12
ATOM     12  C   UNL     1       6.672  -5.257   7.158  1.00  0.00     0.000 C 
BRANCH  12  13
ATOM     13  C   UNL     1       7.816  -5.527   8.159  1.00  0.00     0.000 C 
BRANCH  13  14
ATOM     14  C   UNL     1       8.802  -4.353   8.254  1.00  0.00     0.000 C 
BRANCH  14  15
ATOM     15  C   UNL     1       9.281  -4.151   9.699  1.00  0.00     0.000 C 
BRANCH  15  16
ATOM     16  C   UNL     1       9.273  -2.674  10.124  1.00  0.00     0.006 C 
BRANCH  16  17
ATOM     17  C   UNL     1       8.207  -1.853   9.387  1.00  0.00     0.053 C 
BRANCH  17  18
ATOM     18  C   UNL     1       8.343  -0.401   9.721  1.00  0.00     0.041 C 
ATOM     19  O   UNL     1       7.337   0.356   9.676  1.00  0.00    -0.550 OA
ATOM     20  O   UNL     1       9.588   0.127  10.035  1.00  0.00    -0.550 OA
ENDBRANCH  17  18
ENDBRANCH  16  17
ENDBRANCH  15  16
ENDBRANCH  14  15
ENDBRANCH  13  14
ENDBRANCH  12  13
ENDBRANCH  11  12
ENDBRANCH   1  11
TORSDOF 15
ENDMDL
MODEL 6
REMARK VINA RESULT:    -2.895      2.950      5.153
REMARK INTER + INTRA:          -6.264
REMARK INTER:                  -4.766
REMARK INTRA:                  -1.498
REMARK UNBOUND:                -0.830
REMARK SMILES O=C([O-])CCCCCCCCCCCCCCC(=O)[O-]
REMARK SMILES IDX 10 1 9 2 8 3 7 4 6 5 5 6 4 7 2 8 1 9 3 10 11 11 12 12 13 13
REMARK SMILES IDX 14 14 15 15 16 16 17 17 18 18 19 19 20 20
REMARK H PARENT
REMARK Flexibility Score: inf
ROOT
ATOM      1  C   UNL     1      -2.584   7.825   5.011  1.00  0.00     0.000 C 
ENDROOT
BRANCH   1   2
ATOM      2  C   UNL     1      -1.813   8.461   6.183  1.00  0.00     0.000 C 
BRANCH   2   3
ATOM      3  C   UNL     1      -2.612   9.570   6.890  1.00  0.00     0.000 C 
BRANCH   3   4
ATOM      4  C   UNL     1      -1.892  10.125   8.132  1.00  0.00     0.000 C 
BRANCH   4   5
ATOM      5  C   UNL     1      -1.060   9.094   8.920  1.00  0.00     0.000 C 
BRANCH   5   6
ATOM      6  C   UNL     1       0.338   9.603   9.329  1.00  0.00     0.006 C 
BRANCH   6   7
ATOM      7  C   UNL     1       1.375   9.417   8.213  1.00  0.00     0.053 C 
BRANCH   7   8
ATOM      8  C   UNL     1       2.598   8.739   8.743  1.00  0.00     0.041 C 
ATOM      9  O   UNL     1       2.933   8.886   9.948  1.00  0.00    -0.550 OA
ATOM     10  O   UNL     1       3.341   7.902   7.919  1.00  0.00    -0.550 OA
ENDBRANCH   7   8
ENDBRANCH   6   7
ENDBRANCH   5   6
ENDBRANCH   4   5
ENDBRANCH   3   4
ENDBRANCH   2   3
ENDBRANCH   1   2
BRANCH   1  11
ATOM     11  C   UNL     1      -2.327   6.321   4.800  1.00  0.00     0.000 C 
BRANCH  11  12
ATOM     12  C   UNL     1      -3.412   5.386   5.366  1.00  0.00     0.000 C 
BRANCH  12  13
ATOM     13  C   UNL     1      -3.413   5.294   6.907  1.00  0.00     0.000 C 
BRANCH  13  14
ATOM     14  C   UNL     1      -4.234   6.416   7.561  1.00  0.00     0.000 C 
BRANCH  14  15
ATOM     15  C   UNL     1      -3.688   6.757   8.956  1.00  0.00     0.000 C 
BRANCH  15  16
ATOM     16  C   UNL     1      -4.751   7.387   9.869  1.00  0.00     0.006 C 
BRANCH  16  17
ATOM     17  C   UNL     1      -5.311   8.700   9.307  1.00  0.00     0.053 C 
BRANCH  17  18
ATOM     18  C   UNL     1      -6.806   8.689   9.347  1.00  0.00     0.041 C 
ATOM     19  O   UNL     1      -7.451   9.762   9.207  1.00  0.00    -0.550 OA
ATOM     20  O   UNL     1      -7.487   7.503   9.589  1.00  0.00    -0.550 OA
ENDBRANCH  17  18
ENDBRANCH  16  17
ENDBRANCH  15  16
ENDBRANCH  14  15
ENDBRANCH  13  14
ENDBRANCH  12  13
ENDBRANCH  11  12
ENDBRANCH   1  11
TORSDOF 15
ENDMDL
MODEL 7
REMARK VINA RESULT:    -2.861      3.076      4.201
REMARK INTER + INTRA:          -6.200
REMARK INTER:                  -5.866
REMARK INTRA:                  -0.334
REMARK UNBOUND:                -0.830
REMARK SMILES O=C([O-])CCCCCCCCCCCCCCC(=O)[O-]
REMARK SMILES IDX 10 1 9 2 8 3 7 4 6 5 5 6 4 7 2 8 1 9 3 10 11 11 12 12 13 13
REMARK SMILES IDX 14 14 15 15 16 16 17 17 18 18 19 19 20 20
REMARK H PARENT
REMARK Flexibility Score: inf
ROOT
ATOM      1  C   UNL     1      -1.694   8.987   7.623  1.00  0.00     0.000 C 
ENDROOT
BRANCH   1   2
ATOM      2  C   UNL     1      -0.400   9.681   8.088  1.00  0.00     0.000 C 
BRANCH   2   3
ATOM      3  C   UNL     1       0.116   9.140   9.433  1.00  0.00     0.000 C 
BRANCH   3   4
ATOM      4  C   UNL     1       1.396   9.848   9.910  1.00  0.00     0.000 C 
BRANCH   4   5
ATOM      5  C   UNL     1       2.689   9.022   9.769  1.00  0.00     0.000 C 
BRANCH   5   6
ATOM      6  C   UNL     1       3.312   9.074   8.358  1.00  0.00     0.006 C 
BRANCH   6   7
ATOM      7  C   UNL     1       4.846   9.059   8.399  1.00  0.00     0.053 C 
BRANCH   7   8
ATOM      8  C   UNL     1       5.395   8.372   7.189  1.00  0.00     0.041 C 
ATOM      9  O   UNL     1       4.845   7.328   6.748  1.00  0.00    -0.550 OA
ATOM     10  O   UNL     1       6.484   8.912   6.517  1.00  0.00    -0.550 OA
ENDBRANCH   7   8
ENDBRANCH   6   7
ENDBRANCH   5   6
ENDBRANCH   4   5
ENDBRANCH   3   4
ENDBRANCH   2   3
ENDBRANCH   1   2
BRANCH   1  11
ATOM     11  C   UNL     1      -2.997   9.725   7.984  1.00  0.00     0.000 C 
BRANCH  11  12
ATOM     12  C   UNL     1      -3.252   9.900   9.493  1.00  0.00     0.000 C 
BRANCH  12  13
ATOM     13  C   UNL     1      -4.240   8.870  10.082  1.00  0.00     0.000 C 
BRANCH  13  14
ATOM     14  C   UNL     1      -4.768   7.891   9.022  1.00  0.00     0.000 C 
BRANCH  14  15
ATOM     15  C   UNL     1      -5.770   6.902   9.636  1.00  0.00     0.000 C 
BRANCH  15  16
ATOM     16  C   UNL     1      -7.213   7.432   9.615  1.00  0.00     0.006 C 
BRANCH  16  17
ATOM     17  C   UNL     1      -7.309   8.902  10.043  1.00  0.00     0.053 C 
BRANCH  17  18
ATOM     18  C   UNL     1      -7.896   9.729   8.943  1.00  0.00     0.041 C 
ATOM     19  O   UNL     1      -9.091  10.118   9.012  1.00  0.00    -0.550 OA
ATOM     20  O   UNL     1      -7.138  10.028   7.818  1.00  0.00    -0.550 OA
ENDBRANCH  17  18
ENDBRANCH  16  17
ENDBRANCH  15  16
ENDBRANCH  14  15
ENDBRANCH  13  14
ENDBRANCH  12  13
ENDBRANCH  11  12
ENDBRANCH   1  11
TORSDOF 15
ENDMDL
MODEL 8
REMARK VINA RESULT:    -2.424      3.066      9.240
REMARK INTER + INTRA:          -5.379
REMARK INTER:                  -4.793
REMARK INTRA:                  -0.586
REMARK UNBOUND:                -0.830
REMARK SMILES O=C([O-])CCCCCCCCCCCCCCC(=O)[O-]
REMARK SMILES IDX 10 1 9 2 8 3 7 4 6 5 5 6 4 7 2 8 1 9 3 10 11 11 12 12 13 13
REMARK SMILES IDX 14 14 15 15 16 16 17 17 18 18 19 19 20 20
REMARK H PARENT
REMARK Flexibility Score: inf
ROOT
ATOM      1  C   UNL     1      -2.718   9.013   7.011  1.00  0.00     0.000 C 
ENDROOT
BRANCH   1   2
ATOM      2  C   UNL     1      -3.613   9.485   8.171  1.00  0.00     0.000 C 
BRANCH   2   3
ATOM      3  C   UNL     1      -3.694   8.462   9.318  1.00  0.00     0.000 C 
BRANCH   3   4
ATOM      4  C   UNL     1      -4.319   7.126   8.883  1.00  0.00     0.000 C 
BRANCH   4   5
ATOM      5  C   UNL     1      -5.739   6.863   9.422  1.00  0.00     0.000 C 
BRANCH   5   6
ATOM      6  C   UNL     1      -6.401   8.100  10.064  1.00  0.00     0.006 C 
BRANCH   6   7
ATOM      7  C   UNL     1      -7.876   8.243   9.666  1.00  0.00     0.053 C 
BRANCH   7   8
ATOM      8  C   UNL     1      -8.091   9.506   8.896  1.00  0.00     0.041 C 
ATOM      9  O   UNL     1      -7.123  10.071   8.322  1.00  0.00    -0.550 OA
ATOM     10  O   UNL     1      -9.370  10.034   8.768  1.00  0.00    -0.550 OA
ENDBRANCH   7   8
ENDBRANCH   6   7
ENDBRANCH   5   6
ENDBRANCH   4   5
ENDBRANCH   3   4
ENDBRANCH   2   3
ENDBRANCH   1   2
BRANCH   1  11
ATOM     11  C   UNL     1      -1.276   8.643   7.407  1.00  0.00     0.000 C 
BRANCH  11  12
ATOM     12  C   UNL     1      -0.552   9.681   8.285  1.00  0.00     0.000 C 
BRANCH  12  13
ATOM     13  C   UNL     1       0.598   9.089   9.130  1.00  0.00     0.000 C 
BRANCH  13  14
ATOM     14  C   UNL     1       1.686  10.125   9.448  1.00  0.00     0.000 C 
BRANCH  14  15
ATOM     15  C   UNL     1       2.926   9.909   8.569  1.00  0.00     0.000 C 
BRANCH  15  16
ATOM     16  C   UNL     1       2.822   8.646   7.700  1.00  0.00     0.006 C 
BRANCH  16  17
ATOM     17  C   UNL     1       4.178   7.960   7.487  1.00  0.00     0.053 C 
BRANCH  17  18
ATOM     18  C   UNL     1       5.239   8.641   8.292  1.00  0.00     0.041 C 
ATOM     19  O   UNL     1       5.351   8.402   9.523  1.00  0.00    -0.550 OA
ATOM     20  O   UNL     1       6.074   9.576   7.694  1.00  0.00    -0.550 OA
ENDBRANCH  17  18
ENDBRANCH  16  17
ENDBRANCH  15  16
ENDBRANCH  14  15
ENDBRANCH  13  14
ENDBRANCH  12  13
ENDBRANCH  11  12
ENDBRANCH   1  11
TORSDOF 15
ENDMDL
