MODEL 1
REMARK VINA RESULT:    -3.256      0.000      0.000
REMARK INTER + INTRA:          -5.337
REMARK INTER:                  -4.398
REMARK INTRA:                  -0.939
REMARK UNBOUND:                -0.939
REMARK SMILES O=C[C@H](O)[C@@H](O)[C@H](O)CO
REMARK SMILES IDX 7 1 9 2 10 3 5 5 3 6 2 7 1 8 4 9 6 11 8 13
REMARK H PARENT 10 4 4 10 6 12 8 14
REMARK Flexibility Score: inf
ROOT
ATOM      1  C   UNL     1      18.319   8.359  12.338  1.00  0.00     0.171 C 
ENDROOT
BRANCH   1   2
ATOM      2  C   UNL     1      17.032   7.875  11.638  1.00  0.00     0.190 C 
BRANCH   2   3
ATOM      3  O   UNL     1      15.975   8.779  11.826  1.00  0.00    -0.394 OA
ATOM      4  H   UNL     1      15.252   8.512  11.201  1.00  0.00     0.210 HD
ENDBRANCH   2   3
ENDBRANCH   1   2
BRANCH   1   5
ATOM      5  C   UNL     1      18.253   8.288  13.893  1.00  0.00     0.181 C 
BRANCH   5   6
ATOM      6  C   UNL     1      19.645   8.359  14.570  1.00  0.00     0.209 C 
BRANCH   6   7
ATOM      7  C   UNL     1      19.894   9.734  15.131  1.00  0.00     0.258 C 
ATOM      8  O   UNL     1      20.043  10.688  14.383  1.00  0.00    -0.300 OA
ENDBRANCH   6   7
BRANCH   6   9
ATOM      9  O   UNL     1      20.649   8.038  13.641  1.00  0.00    -0.383 OA
ATOM     10  H   UNL     1      21.216   7.339  14.061  1.00  0.00     0.211 HD
ENDBRANCH   6   9
ENDBRANCH   5   6
BRANCH   5  11
ATOM     11  O   UNL     1      17.410   9.302  14.387  1.00  0.00    -0.387 OA
ATOM     12  H   UNL     1      17.006   8.974  15.232  1.00  0.00     0.211 HD
ENDBRANCH   5  11
ENDBRANCH   1   5
BRANCH   1  13
ATOM     13  O   UNL     1      18.636   9.662  11.917  1.00  0.00    -0.388 OA
ATOM     14  H   UNL     1      19.569   9.653  11.579  1.00  0.00     0.211 HD
ENDBRANCH   1  13
TORSDOF 8
ENDMDL
MODEL 2
REMARK VINA RESULT:    -3.021     15.951     17.015
REMARK INTER + INTRA:          -5.020
REMARK INTER:                  -4.081
REMARK INTRA:                  -0.939
REMARK UNBOUND:                -0.939
REMARK SMILES O=C[C@H](O)[C@@H](O)[C@H](O)CO
REMARK SMILES IDX 7 1 9 2 10 3 5 5 3 6 2 7 1 8 4 9 6 11 8 13
REMARK H PARENT 10 4 4 10 6 12 8 14
REMARK Flexibility Score: inf
ROOT
ATOM      1  C   UNL     1       9.463  17.958  24.928  1.00  0.00     0.171 C 
ENDROOT
BRANCH   1   2
ATOM      2  C   UNL     1       9.114  16.911  26.005  1.00  0.00     0.190 C 
BRANCH   2   3
ATOM      3  O   UNL     1       9.925  17.054  27.142  1.00  0.00    -0.394 OA
ATOM      4  H   UNL     1       9.889  18.010  27.403  1.00  0.00     0.210 HD
ENDBRANCH   2   3
ENDBRANCH   1   2
BRANCH   1   5
ATOM      5  C   UNL     1      10.764  17.634  24.134  1.00  0.00     0.181 C 
BRANCH   5   6
ATOM      6  C   UNL     1      11.028  18.613  22.962  1.00  0.00     0.209 C 
BRANCH   6   7
ATOM      7  C   UNL     1      12.125  19.582  23.315  1.00  0.00     0.258 C 
ATOM      8  O   UNL     1      11.915  20.491  24.103  1.00  0.00    -0.300 OA
ENDBRANCH   6   7
BRANCH   6   9
ATOM      9  O   UNL     1       9.854  19.320  22.652  1.00  0.00    -0.383 OA
ATOM     10  H   UNL     1       9.603  19.831  23.466  1.00  0.00     0.211 HD
ENDBRANCH   6   9
ENDBRANCH   5   6
BRANCH   5  11
ATOM     11  O   UNL     1      11.866  17.601  25.009  1.00  0.00    -0.387 OA
ATOM     12  H   UNL     1      11.844  16.733  25.492  1.00  0.00     0.211 HD
ENDBRANCH   5  11
ENDBRANCH   1   5
BRANCH   1  13
ATOM     13  O   UNL     1       9.543  19.236  25.507  1.00  0.00    -0.388 OA
ATOM     14  H   UNL     1      10.042  19.822  24.880  1.00  0.00     0.211 HD
ENDBRANCH   1  13
TORSDOF 8
ENDMDL
MODEL 3
REMARK VINA RESULT:    -2.972     15.809     16.979
REMARK INTER + INTRA:          -4.954
REMARK INTER:                  -4.030
REMARK INTRA:                  -0.924
REMARK UNBOUND:                -0.939
REMARK SMILES O=C[C@H](O)[C@@H](O)[C@H](O)CO
REMARK SMILES IDX 7 1 9 2 10 3 5 5 3 6 2 7 1 8 4 9 6 11 8 13
REMARK H PARENT 10 4 4 10 6 12 8 14
REMARK Flexibility Score: inf
ROOT
ATOM      1  C   UNL     1      11.116  19.794  23.493  1.00  0.00     0.171 C 
ENDROOT
BRANCH   1   2
ATOM      2  C   UNL     1      11.069  18.266  23.703  1.00  0.00     0.190 C 
BRANCH   2   3
ATOM      3  O   UNL     1      11.851  17.875  24.802  1.00  0.00    -0.394 OA
ATOM      4  H   UNL     1      11.920  18.662  25.402  1.00  0.00     0.210 HD
ENDBRANCH   2   3
ENDBRANCH   1   2
BRANCH   1   5
ATOM      5  C   UNL     1      12.281  20.265  22.572  1.00  0.00     0.181 C 
BRANCH   5   6
ATOM      6  C   UNL     1      12.250  21.785  22.273  1.00  0.00     0.209 C 
BRANCH   6   7
ATOM      7  C   UNL     1      13.325  22.501  23.047  1.00  0.00     0.258 C 
ATOM      8  O   UNL     1      13.293  22.528  24.267  1.00  0.00    -0.300 OA
ENDBRANCH   6   7
BRANCH   6   9
ATOM      9  O   UNL     1      10.993  22.316  22.608  1.00  0.00    -0.383 OA
ATOM     10  H   UNL     1      10.779  23.001  21.921  1.00  0.00     0.211 HD
ENDBRANCH   6   9
ENDBRANCH   5   6
BRANCH   5  11
ATOM     11  O   UNL     1      13.519  19.896  23.133  1.00  0.00    -0.387 OA
ATOM     12  H   UNL     1      13.360  19.119  23.731  1.00  0.00     0.211 HD
ENDBRANCH   5  11
ENDBRANCH   1   5
BRANCH   1  13
ATOM     13  O   UNL     1      11.172  20.450  24.735  1.00  0.00    -0.388 OA
ATOM     14  H   UNL     1      10.476  20.051  25.319  1.00  0.00     0.211 HD
ENDBRANCH   1  13
TORSDOF 8
ENDMDL
MODEL 4
REMARK VINA RESULT:    -2.958     14.645     15.923
REMARK INTER + INTRA:          -4.935
REMARK INTER:                  -4.729
REMARK INTRA:                  -0.206
REMARK UNBOUND:                -0.939
REMARK SMILES O=C[C@H](O)[C@@H](O)[C@H](O)CO
REMARK SMILES IDX 7 1 9 2 10 3 5 5 3 6 2 7 1 8 4 9 6 11 8 13
REMARK H PARENT 10 4 4 10 6 12 8 14
REMARK Flexibility Score: inf
ROOT
ATOM      1  C   UNL     1      11.544  19.582  23.379  1.00  0.00     0.171 C 
ENDROOT
BRANCH   1   2
ATOM      2  C   UNL     1      11.124  18.151  23.773  1.00  0.00     0.190 C 
BRANCH   2   3
ATOM      3  O   UNL     1      11.793  17.720  24.929  1.00  0.00    -0.394 OA
ATOM      4  H   UNL     1      12.104  16.794  24.755  1.00  0.00     0.210 HD
ENDBRANCH   2   3
ENDBRANCH   1   2
BRANCH   1   5
ATOM      5  C   UNL     1      12.947  19.662  22.708  1.00  0.00     0.181 C 
BRANCH   5   6
ATOM      6  C   UNL     1      12.885  19.955  21.188  1.00  0.00     0.209 C 
BRANCH   6   7
ATOM      7  C   UNL     1      11.622  20.699  20.841  1.00  0.00     0.258 C 
ATOM      8  O   UNL     1      11.644  21.908  20.674  1.00  0.00    -0.300 OA
ENDBRANCH   6   7
BRANCH   6   9
ATOM      9  O   UNL     1      12.939  18.753  20.463  1.00  0.00    -0.383 OA
ATOM     10  H   UNL     1      13.695  18.837  19.824  1.00  0.00     0.211 HD
ENDBRANCH   6   9
ENDBRANCH   5   6
BRANCH   5  11
ATOM     11  O   UNL     1      13.741  20.622  23.365  1.00  0.00    -0.387 OA
ATOM     12  H   UNL     1      13.819  20.350  24.317  1.00  0.00     0.211 HD
ENDBRANCH   5  11
ENDBRANCH   1   5
BRANCH   1  13
ATOM     13  O   UNL     1      11.483  20.428  24.500  1.00  0.00    -0.388 OA
ATOM     14  H   UNL     1      11.310  19.862  25.297  1.00  0.00     0.211 HD
ENDBRANCH   1  13
TORSDOF 8
ENDMDL
MODEL 5
REMARK VINA RESULT:    -2.881     16.052     17.326
REMARK INTER + INTRA:          -4.831
REMARK INTER:                  -4.430
REMARK INTRA:                  -0.401
REMARK UNBOUND:                -0.939
REMARK SMILES O=C[C@H](O)[C@@H](O)[C@H](O)CO
REMARK SMILES IDX 7 1 9 2 10 3 5 5 3 6 2 7 1 8 4 9 6 11 8 13
REMARK H PARENT 10 4 4 10 6 12 8 14
REMARK Flexibility Score: inf
ROOT
ATOM      1  C   UNL     1      11.372  20.441  23.542  1.00  0.00     0.171 C 
ENDROOT
BRANCH   1   2
ATOM      2  C   UNL     1      11.431  18.907  23.392  1.00  0.00     0.190 C 
BRANCH   2   3
ATOM      3  O   UNL     1      11.938  18.297  24.550  1.00  0.00    -0.394 OA
ATOM      4  H   UNL     1      11.157  18.003  25.087  1.00  0.00     0.210 HD
ENDBRANCH   2   3
ENDBRANCH   1   2
BRANCH   1   5
ATOM      5  C   UNL     1      12.621  21.177  22.975  1.00  0.00     0.181 C 
BRANCH   5   6
ATOM      6  C   UNL     1      12.806  22.605  23.549  1.00  0.00     0.209 C 
BRANCH   6   7
ATOM      7  C   UNL     1      13.157  23.577  22.454  1.00  0.00     0.258 C 
ATOM      8  O   UNL     1      14.217  24.183  22.483  1.00  0.00    -0.300 OA
ENDBRANCH   6   7
BRANCH   6   9
ATOM      9  O   UNL     1      13.818  22.604  24.523  1.00  0.00    -0.383 OA
ATOM     10  H   UNL     1      14.624  23.003  24.100  1.00  0.00     0.211 HD
ENDBRANCH   6   9
ENDBRANCH   5   6
BRANCH   5  11
ATOM     11  O   UNL     1      13.777  20.403  23.192  1.00  0.00    -0.387 OA
ATOM     12  H   UNL     1      14.562  20.950  22.925  1.00  0.00     0.211 HD
ENDBRANCH   5  11
ENDBRANCH   1   5
BRANCH   1  13
ATOM     13  O   UNL     1      11.165  20.785  24.889  1.00  0.00    -0.388 OA
ATOM     14  H   UNL     1      10.186  20.863  25.036  1.00  0.00     0.211 HD
ENDBRANCH   1  13
TORSDOF 8
ENDMDL
MODEL 6
REMARK VINA RESULT:    -2.855     15.900     17.125
REMARK INTER + INTRA:          -4.795
REMARK INTER:                  -4.104
REMARK INTRA:                  -0.691
REMARK UNBOUND:                -0.939
REMARK SMILES O=C[C@H](O)[C@@H](O)[C@H](O)CO
REMARK SMILES IDX 7 1 9 2 10 3 5 5 3 6 2 7 1 8 4 9 6 11 8 13
REMARK H PARENT 10 4 4 10 6 12 8 14
REMARK Flexibility Score: inf
ROOT
ATOM      1  C   UNL     1      12.741  21.045  22.769  1.00  0.00     0.171 C 
ENDROOT
BRANCH   1   2
ATOM      2  C   UNL     1      13.113  22.486  23.173  1.00  0.00     0.190 C 
BRANCH   2   3
ATOM      3  O   UNL     1      13.771  22.518  24.413  1.00  0.00    -0.394 OA
ATOM      4  H   UNL     1      13.694  23.445  24.756  1.00  0.00     0.210 HD
ENDBRANCH   2   3
ENDBRANCH   1   2
BRANCH   1   5
ATOM      5  C   UNL     1      11.435  20.522  23.436  1.00  0.00     0.181 C 
BRANCH   5   6
ATOM      6  C   UNL     1      11.285  18.981  23.369  1.00  0.00     0.209 C 
BRANCH   6   7
ATOM      7  C   UNL     1       9.834  18.584  23.435  1.00  0.00     0.258 C 
ATOM      8  O   UNL     1       9.167  18.845  24.424  1.00  0.00    -0.300 OA
ENDBRANCH   6   7
BRANCH   6   9
ATOM      9  O   UNL     1      11.988  18.383  24.429  1.00  0.00    -0.383 OA
ATOM     10  H   UNL     1      11.325  17.863  24.955  1.00  0.00     0.211 HD
ENDBRANCH   6   9
ENDBRANCH   5   6
BRANCH   5  11
ATOM     11  O   UNL     1      11.362  20.969  24.769  1.00  0.00    -0.387 OA
ATOM     12  H   UNL     1      12.270  21.269  25.037  1.00  0.00     0.211 HD
ENDBRANCH   5  11
ENDBRANCH   1   5
BRANCH   1  13
ATOM     13  O   UNL     1      13.814  20.177  23.038  1.00  0.00    -0.388 OA
ATOM     14  H   UNL     1      13.800  19.456  22.355  1.00  0.00     0.211 HD
ENDBRANCH   1  13
TORSDOF 8
ENDMDL
MODEL 7
REMARK VINA RESULT:    -2.826     15.104     16.007
REMARK INTER + INTRA:          -4.756
REMARK INTER:                  -3.841
REMARK INTRA:                  -0.915
REMARK UNBOUND:                -0.939
REMARK SMILES O=C[C@H](O)[C@@H](O)[C@H](O)CO
REMARK SMILES IDX 7 1 9 2 10 3 5 5 3 6 2 7 1 8 4 9 6 11 8 13
REMARK H PARENT 10 4 4 10 6 12 8 14
REMARK Flexibility Score: inf
ROOT
ATOM      1  C   UNL     1      10.551  17.506  24.492  1.00  0.00     0.171 C 
ENDROOT
BRANCH   1   2
ATOM      2  C   UNL     1      10.148  16.019  24.405  1.00  0.00     0.190 C 
BRANCH   2   3
ATOM      3  O   UNL     1      11.217  15.223  23.965  1.00  0.00    -0.394 OA
ATOM      4  H   UNL     1      10.830  14.508  23.396  1.00  0.00     0.210 HD
ENDBRANCH   2   3
ENDBRANCH   1   2
BRANCH   1   5
ATOM      5  C   UNL     1      10.423  18.272  23.142  1.00  0.00     0.181 C 
BRANCH   5   6
ATOM      6  C   UNL     1      10.716  19.788  23.266  1.00  0.00     0.209 C 
BRANCH   6   7
ATOM      7  C   UNL     1      12.028  20.132  22.611  1.00  0.00     0.258 C 
ATOM      8  O   UNL     1      13.083  19.840  23.152  1.00  0.00    -0.300 OA
ENDBRANCH   6   7
BRANCH   6   9
ATOM      9  O   UNL     1      10.752  20.162  24.620  1.00  0.00    -0.383 OA
ATOM     10  H   UNL     1       9.811  20.188  24.936  1.00  0.00     0.211 HD
ENDBRANCH   6   9
ENDBRANCH   5   6
BRANCH   5  11
ATOM     11  O   UNL     1      11.259  17.684  22.173  1.00  0.00    -0.387 OA
ATOM     12  H   UNL     1      11.782  18.411  21.744  1.00  0.00     0.211 HD
ENDBRANCH   5  11
ENDBRANCH   1   5
BRANCH   1  13
ATOM     13  O   UNL     1      11.855  17.622  25.004  1.00  0.00    -0.388 OA
ATOM     14  H   UNL     1      12.200  18.519  24.755  1.00  0.00     0.211 HD
ENDBRANCH   1  13
TORSDOF 8
ENDMDL
MODEL 8
REMARK VINA RESULT:    -2.784     13.673     15.062
REMARK INTER + INTRA:          -4.699
REMARK INTER:                  -4.001
REMARK INTRA:                  -0.698
REMARK UNBOUND:                -0.939
REMARK SMILES O=C[C@H](O)[C@@H](O)[C@H](O)CO
REMARK SMILES IDX 7 1 9 2 10 3 5 5 3 6 2 7 1 8 4 9 6 11 8 13
REMARK H PARENT 10 4 4 10 6 12 8 14
REMARK Flexibility Score: inf
ROOT
ATOM      1  C   UNL     1      11.908  20.593  21.620  1.00  0.00     0.171 C 
ENDROOT
BRANCH   1   2
ATOM      2  C   UNL     1      13.009  21.195  22.516  1.00  0.00     0.190 C 
BRANCH   2   3
ATOM      3  O   UNL     1      14.017  20.256  22.791  1.00  0.00    -0.394 OA
ATOM      4  H   UNL     1      14.050  19.634  22.020  1.00  0.00     0.210 HD
ENDBRANCH   2   3
ENDBRANCH   1   2
BRANCH   1   5
ATOM      5  C   UNL     1      12.042  19.056  21.407  1.00  0.00     0.181 C 
BRANCH   5   6
ATOM      6  C   UNL     1      10.694  18.360  21.089  1.00  0.00     0.209 C 
BRANCH   6   7
ATOM      7  C   UNL     1      10.918  17.112  20.277  1.00  0.00     0.258 C 
ATOM      8  O   UNL     1      11.484  16.149  20.770  1.00  0.00    -0.300 OA
ENDBRANCH   6   7
BRANCH   6   9
ATOM      9  O   UNL     1       9.854  19.238  20.383  1.00  0.00    -0.383 OA
ATOM     10  H   UNL     1      10.420  19.696  19.707  1.00  0.00     0.211 HD
ENDBRANCH   6   9
ENDBRANCH   5   6
BRANCH   5  11
ATOM     11  O   UNL     1      12.986  18.789  20.397  1.00  0.00    -0.387 OA
ATOM     12  H   UNL     1      13.786  18.390  20.829  1.00  0.00     0.211 HD
ENDBRANCH   5  11
ENDBRANCH   1   5
BRANCH   1  13
ATOM     13  O   UNL     1      11.873  21.262  20.384  1.00  0.00    -0.388 OA
ATOM     14  H   UNL     1      12.735  21.091  19.923  1.00  0.00     0.211 HD
ENDBRANCH   1  13
TORSDOF 8
ENDMDL
