MODEL 1
REMARK VINA RESULT:    -3.851      0.000      0.000
REMARK INTER + INTRA:          -4.107
REMARK INTER:                  -4.751
REMARK INTRA:                   0.644
REMARK UNBOUND:                 0.644
REMARK SMILES C=C1[C@@H]2CC[C@H]3[C@@H]2C(C)(C)CCC[C@@]13C
REMARK SMILES IDX 14 1 6 2 7 3 3 4 2 5 1 6 4 7 5 8 15 9 8 10 9 11 10 12 11 13
REMARK SMILES IDX 13 15 12 16
REMARK H PARENT
REMARK Flexibility Score: 80.00
ROOT
ATOM      1  C   UNL     1      14.809   5.681  18.392  1.00  0.00    -0.008 C 
ATOM      2  C   UNL     1      14.632   6.293  16.947  1.00  0.00     0.003 C 
ATOM      3  C   UNL     1      13.270   5.754  16.460  1.00  0.00     0.006 C 
ATOM      4  C   UNL     1      13.626   4.299  16.763  1.00  0.00     0.019 C 
ATOM      5  C   UNL     1      14.079   4.376  18.194  1.00  0.00    -0.068 C 
ATOM      6  C   UNL     1      13.931   3.405  19.103  1.00  0.00     0.009 C 
ATOM      7  C   UNL     1      14.904   4.124  15.906  1.00  0.00     0.008 C 
ATOM      8  C   UNL     1      15.546   5.533  15.946  1.00  0.00     0.005 C 
ATOM      9  C   UNL     1      16.292   5.426  18.779  1.00  0.00     0.016 C 
ENDROOT
BRANCH   3  10
ATOM     10  C   UNL     1      11.922   6.373  17.031  1.00  0.00    -0.032 C 
ATOM     11  C   UNL     1      10.875   5.272  17.338  1.00  0.00     0.011 C 
ATOM     12  C   UNL     1      11.299   7.264  15.919  1.00  0.00     0.011 C 
BRANCH  10  13
ATOM     13  C   UNL     1      12.101   7.314  18.257  1.00  0.00     0.007 CG0
ATOM     14  G   UNL     1      12.663   6.663  19.518  1.00  0.00     0.000 G0
ENDBRANCH  10  13
ENDBRANCH   3  10
BRANCH   1  15
ATOM     15  C   UNL     1      14.188   6.570  19.501  1.00  0.00     0.011 C 
BRANCH  15  16
ATOM     16  C   UNL     1      12.664   6.654  19.515  1.00  0.00     0.001 CG0
ATOM     17  G   UNL     1      12.105   7.305  18.253  1.00  0.00     0.000 G0
ENDBRANCH  15  16
ENDBRANCH   1  15
TORSDOF 0
ENDMDL
MODEL 2
REMARK VINA RESULT:    -3.773      1.289      2.852
REMARK INTER + INTRA:          -4.011
REMARK INTER:                  -4.638
REMARK INTRA:                   0.627
REMARK UNBOUND:                 0.644
REMARK SMILES C=C1[C@@H]2CC[C@H]3[C@@H]2C(C)(C)CCC[C@@]13C
REMARK SMILES IDX 14 1 6 2 7 3 3 4 2 5 1 6 4 7 5 8 15 9 8 10 9 11 10 12 11 13
REMARK SMILES IDX 13 15 12 16
REMARK H PARENT
REMARK Flexibility Score: 80.00
ROOT
ATOM      1  C   UNL     1      13.689   6.114  17.246  1.00  0.00    -0.008 C 
ATOM      2  C   UNL     1      12.638   7.281  17.077  1.00  0.00     0.003 C 
ATOM      3  C   UNL     1      11.661   7.098  18.259  1.00  0.00     0.006 C 
ATOM      4  C   UNL     1      11.401   5.625  17.943  1.00  0.00     0.019 C 
ATOM      5  C   UNL     1      12.795   5.068  17.862  1.00  0.00    -0.068 C 
ATOM      6  C   UNL     1      13.147   3.822  18.201  1.00  0.00     0.009 C 
ATOM      7  C   UNL     1      10.881   5.723  16.488  1.00  0.00     0.008 C 
ATOM      8  C   UNL     1      11.660   6.936  15.920  1.00  0.00     0.005 C 
ATOM      9  C   UNL     1      14.274   5.609  15.897  1.00  0.00     0.016 C 
ENDROOT
BRANCH   3  10
ATOM     10  C   UNL     1      12.100   7.527  19.724  1.00  0.00    -0.032 C 
ATOM     11  C   UNL     1      11.637   6.492  20.782  1.00  0.00     0.011 C 
ATOM     12  C   UNL     1      11.370   8.855  20.070  1.00  0.00     0.011 C 
BRANCH  10  13
ATOM     13  C   UNL     1      13.615   7.838  19.891  1.00  0.00     0.007 CG0
ATOM     14  G   UNL     1      14.565   6.667  19.648  1.00  0.00     0.000 G0
ENDBRANCH  10  13
ENDBRANCH   3  10
BRANCH   1  15
ATOM     15  C   UNL     1      14.886   6.510  18.150  1.00  0.00     0.011 C 
BRANCH  15  16
ATOM     16  C   UNL     1      14.574   6.680  19.634  1.00  0.00     0.001 CG0
ATOM     17  G   UNL     1      13.608   7.832  19.897  1.00  0.00     0.000 G0
ENDBRANCH  15  16
ENDBRANCH   1  15
TORSDOF 0
ENDMDL
MODEL 3
REMARK VINA RESULT:    -3.610      1.554      3.824
REMARK INTER + INTRA:          -3.810
REMARK INTER:                  -4.445
REMARK INTRA:                   0.635
REMARK UNBOUND:                 0.644
REMARK SMILES C=C1[C@@H]2CC[C@H]3[C@@H]2C(C)(C)CCC[C@@]13C
REMARK SMILES IDX 14 1 6 2 7 3 3 4 2 5 1 6 4 7 5 8 15 9 8 10 9 11 10 12 11 13
REMARK SMILES IDX 13 15 12 16
REMARK H PARENT
REMARK Flexibility Score: 80.00
ROOT
ATOM      1  C   UNL     1      12.895   7.242  18.451  1.00  0.00    -0.008 C 
ATOM      2  C   UNL     1      12.355   5.763  18.573  1.00  0.00     0.003 C 
ATOM      3  C   UNL     1      13.027   5.006  17.408  1.00  0.00     0.006 C 
ATOM      4  C   UNL     1      12.579   6.023  16.358  1.00  0.00     0.019 C 
ATOM      5  C   UNL     1      13.054   7.320  16.953  1.00  0.00    -0.068 C 
ATOM      6  C   UNL     1      13.461   8.385  16.252  1.00  0.00     0.009 C 
ATOM      7  C   UNL     1      11.044   5.987  16.550  1.00  0.00     0.008 C 
ATOM      8  C   UNL     1      10.887   5.702  18.065  1.00  0.00     0.005 C 
ATOM      9  C   UNL     1      11.885   8.313  18.949  1.00  0.00     0.016 C 
ENDROOT
BRANCH   3  10
ATOM     10  C   UNL     1      14.559   4.596  17.508  1.00  0.00    -0.032 C 
ATOM     11  C   UNL     1      15.300   4.830  16.167  1.00  0.00     0.011 C 
ATOM     12  C   UNL     1      14.625   3.066  17.777  1.00  0.00     0.011 C 
BRANCH  10  13
ATOM     13  C   UNL     1      15.338   5.252  18.684  1.00  0.00     0.007 CG0
ATOM     14  G   UNL     1      15.471   6.771  18.628  1.00  0.00     0.000 G0
ENDBRANCH  10  13
ENDBRANCH   3  10
BRANCH   1  15
ATOM     15  C   UNL     1      14.222   7.463  19.222  1.00  0.00     0.011 C 
BRANCH  15  16
ATOM     16  C   UNL     1      15.453   6.772  18.644  1.00  0.00     0.001 CG0
ATOM     17  G   UNL     1      15.334   5.250  18.673  1.00  0.00     0.000 G0
ENDBRANCH  15  16
ENDBRANCH   1  15
TORSDOF 0
ENDMDL
MODEL 4
REMARK VINA RESULT:    -3.586      1.735      4.138
REMARK INTER + INTRA:          -3.781
REMARK INTER:                  -4.421
REMARK INTRA:                   0.641
REMARK UNBOUND:                 0.644
REMARK SMILES C=C1[C@@H]2CC[C@H]3[C@@H]2C(C)(C)CCC[C@@]13C
REMARK SMILES IDX 14 1 6 2 7 3 3 4 2 5 1 6 4 7 5 8 15 9 8 10 9 11 10 12 11 13
REMARK SMILES IDX 13 15 12 16
REMARK H PARENT
REMARK Flexibility Score: 80.00
ROOT
ATOM      1  C   UNL     1      13.206   7.961  17.087  1.00  0.00    -0.008 C 
ATOM      2  C   UNL     1      13.412   7.766  18.641  1.00  0.00     0.003 C 
ATOM      3  C   UNL     1      12.450   6.619  19.019  1.00  0.00     0.006 C 
ATOM      4  C   UNL     1      11.239   7.287  18.368  1.00  0.00     0.019 C 
ATOM      5  C   UNL     1      11.749   7.585  16.985  1.00  0.00    -0.068 C 
ATOM      6  C   UNL     1      11.002   7.598  15.875  1.00  0.00     0.009 C 
ATOM      7  C   UNL     1      11.205   8.637  19.125  1.00  0.00     0.008 C 
ATOM      8  C   UNL     1      12.702   8.917  19.407  1.00  0.00     0.005 C 
ATOM      9  C   UNL     1      13.428   9.425  16.613  1.00  0.00     0.016 C 
ENDROOT
BRANCH   3  10
ATOM     10  C   UNL     1      12.820   5.119  18.648  1.00  0.00    -0.032 C 
ATOM     11  C   UNL     1      11.585   4.340  18.126  1.00  0.00     0.011 C 
ATOM     12  C   UNL     1      13.263   4.401  19.954  1.00  0.00     0.011 C 
BRANCH  10  13
ATOM     13  C   UNL     1      14.019   4.962  17.668  1.00  0.00     0.007 CG0
ATOM     14  G   UNL     1      13.819   5.552  16.274  1.00  0.00     0.000 G0
ENDBRANCH  10  13
ENDBRANCH   3  10
BRANCH   1  15
ATOM     15  C   UNL     1      14.135   7.054  16.240  1.00  0.00     0.011 C 
BRANCH  15  16
ATOM     16  C   UNL     1      13.820   5.561  16.270  1.00  0.00     0.001 CG0
ATOM     17  G   UNL     1      14.003   4.956  17.660  1.00  0.00     0.000 G0
ENDBRANCH  15  16
ENDBRANCH   1  15
TORSDOF 0
ENDMDL
MODEL 5
REMARK VINA RESULT:    -3.524      1.486      3.243
REMARK INTER + INTRA:          -3.704
REMARK INTER:                  -4.339
REMARK INTRA:                   0.635
REMARK UNBOUND:                 0.644
REMARK SMILES C=C1[C@@H]2CC[C@H]3[C@@H]2C(C)(C)CCC[C@@]13C
REMARK SMILES IDX 14 1 6 2 7 3 3 4 2 5 1 6 4 7 5 8 15 9 8 10 9 11 10 12 11 13
REMARK SMILES IDX 13 15 12 16
REMARK H PARENT
REMARK Flexibility Score: 80.00
ROOT
ATOM      1  C   UNL     1      14.525   4.131  17.969  1.00  0.00    -0.008 C 
ATOM      2  C   UNL     1      13.087   4.152  18.623  1.00  0.00     0.003 C 
ATOM      3  C   UNL     1      12.795   5.648  18.872  1.00  0.00     0.006 C 
ATOM      4  C   UNL     1      14.108   5.881  19.620  1.00  0.00     0.019 C 
ATOM      5  C   UNL     1      15.123   5.332  18.656  1.00  0.00    -0.068 C 
ATOM      6  C   UNL     1      16.372   5.790  18.510  1.00  0.00     0.009 C 
ATOM      7  C   UNL     1      13.983   4.844  20.764  1.00  0.00     0.008 C 
ATOM      8  C   UNL     1      13.184   3.692  20.104  1.00  0.00     0.005 C 
ATOM      9  C   UNL     1      15.337   2.849  18.303  1.00  0.00     0.016 C 
ENDROOT
BRANCH   3  10
ATOM     10  C   UNL     1      12.401   6.591  17.656  1.00  0.00    -0.032 C 
ATOM     11  C   UNL     1      13.103   7.970  17.754  1.00  0.00     0.011 C 
ATOM     12  C   UNL     1      10.875   6.876  17.750  1.00  0.00     0.011 C 
BRANCH  10  13
ATOM     13  C   UNL     1      12.615   5.969  16.246  1.00  0.00     0.007 CG0
ATOM     14  G   UNL     1      14.057   5.623  15.884  1.00  0.00     0.000 G0
ENDBRANCH  10  13
ENDBRANCH   3  10
BRANCH   1  15
ATOM     15  C   UNL     1      14.483   4.264  16.424  1.00  0.00     0.011 C 
BRANCH  15  16
ATOM     16  C   UNL     1      14.047   5.621  15.882  1.00  0.00     0.001 CG0
ATOM     17  G   UNL     1      12.611   5.967  16.267  1.00  0.00     0.000 G0
ENDBRANCH  15  16
ENDBRANCH   1  15
TORSDOF 0
ENDMDL
MODEL 6
REMARK VINA RESULT:    -3.512      1.634      3.553
REMARK INTER + INTRA:          -3.688
REMARK INTER:                  -4.326
REMARK INTRA:                   0.637
REMARK UNBOUND:                 0.644
REMARK SMILES C=C1[C@@H]2CC[C@H]3[C@@H]2C(C)(C)CCC[C@@]13C
REMARK SMILES IDX 14 1 6 2 7 3 3 4 2 5 1 6 4 7 5 8 15 9 8 10 9 11 10 12 11 13
REMARK SMILES IDX 13 15 12 16
REMARK H PARENT
REMARK Flexibility Score: 80.00
ROOT
ATOM      1  C   UNL     1      13.648   6.486  17.830  1.00  0.00    -0.008 C 
ATOM      2  C   UNL     1      12.399   6.906  18.701  1.00  0.00     0.003 C 
ATOM      3  C   UNL     1      12.057   5.645  19.523  1.00  0.00     0.006 C 
ATOM      4  C   UNL     1      12.010   4.736  18.294  1.00  0.00     0.019 C 
ATOM      5  C   UNL     1      13.331   5.025  17.638  1.00  0.00    -0.068 C 
ATOM      6  C   UNL     1      14.048   4.143  16.930  1.00  0.00     0.009 C 
ATOM      7  C   UNL     1      10.931   5.448  17.443  1.00  0.00     0.008 C 
ATOM      8  C   UNL     1      11.130   6.941  17.804  1.00  0.00     0.005 C 
ATOM      9  C   UNL     1      13.721   7.215  16.460  1.00  0.00     0.016 C 
ENDROOT
BRANCH   3  10
ATOM     10  C   UNL     1      12.956   5.243  20.769  1.00  0.00    -0.032 C 
ATOM     11  C   UNL     1      13.212   3.714  20.818  1.00  0.00     0.011 C 
ATOM     12  C   UNL     1      12.163   5.590  22.061  1.00  0.00     0.011 C 
BRANCH  10  13
ATOM     13  C   UNL     1      14.296   6.024  20.890  1.00  0.00     0.007 CG0
ATOM     14  G   UNL     1      15.293   5.815  19.753  1.00  0.00     0.000 G0
ENDBRANCH  10  13
ENDBRANCH   3  10
BRANCH   1  15
ATOM     15  C   UNL     1      14.996   6.732  18.557  1.00  0.00     0.011 C 
BRANCH  15  16
ATOM     16  C   UNL     1      15.288   5.825  19.749  1.00  0.00     0.001 CG0
ATOM     17  G   UNL     1      14.288   6.020  20.887  1.00  0.00     0.000 G0
ENDBRANCH  15  16
ENDBRANCH   1  15
TORSDOF 0
ENDMDL
MODEL 7
REMARK VINA RESULT:    -3.483      1.602      3.708
REMARK INTER + INTRA:          -3.653
REMARK INTER:                  -4.297
REMARK INTRA:                   0.645
REMARK UNBOUND:                 0.644
REMARK SMILES C=C1[C@@H]2CC[C@H]3[C@@H]2C(C)(C)CCC[C@@]13C
REMARK SMILES IDX 14 1 6 2 7 3 3 4 2 5 1 6 4 7 5 8 15 9 8 10 9 11 10 12 11 13
REMARK SMILES IDX 13 15 12 16
REMARK H PARENT
REMARK Flexibility Score: 80.00
ROOT
ATOM      1  C   UNL     1      12.982   6.673  18.577  1.00  0.00    -0.008 C 
ATOM      2  C   UNL     1      14.250   5.995  19.230  1.00  0.00     0.003 C 
ATOM      3  C   UNL     1      14.518   4.749  18.360  1.00  0.00     0.006 C 
ATOM      4  C   UNL     1      13.083   4.235  18.481  1.00  0.00     0.019 C 
ATOM      5  C   UNL     1      12.281   5.437  18.070  1.00  0.00    -0.068 C 
ATOM      6  C   UNL     1      11.101   5.397  17.439  1.00  0.00     0.009 C 
ATOM      7  C   UNL     1      12.942   4.117  20.019  1.00  0.00     0.008 C 
ATOM      8  C   UNL     1      13.834   5.271  20.541  1.00  0.00     0.005 C 
ATOM      9  C   UNL     1      12.088   7.428  19.599  1.00  0.00     0.016 C 
ENDROOT
BRANCH   3  10
ATOM     10  C   UNL     1      15.180   4.911  16.925  1.00  0.00    -0.032 C 
ATOM     11  C   UNL     1      14.498   3.996  15.876  1.00  0.00     0.011 C 
ATOM     12  C   UNL     1      16.655   4.430  17.024  1.00  0.00     0.011 C 
BRANCH  10  13
ATOM     13  C   UNL     1      15.262   6.374  16.402  1.00  0.00     0.007 CG0
ATOM     14  G   UNL     1      13.925   7.074  16.173  1.00  0.00     0.000 G0
ENDBRANCH  10  13
ENDBRANCH   3  10
BRANCH   1  15
ATOM     15  C   UNL     1      13.349   7.676  17.452  1.00  0.00     0.011 C 
BRANCH  15  16
ATOM     16  C   UNL     1      13.918   7.067  16.173  1.00  0.00     0.001 CG0
ATOM     17  G   UNL     1      15.266   6.388  16.402  1.00  0.00     0.000 G0
ENDBRANCH  15  16
ENDBRANCH   1  15
TORSDOF 0
ENDMDL
MODEL 8
REMARK VINA RESULT:    -3.459      1.496      3.347
REMARK INTER + INTRA:          -3.624
REMARK INTER:                  -4.248
REMARK INTRA:                   0.624
REMARK UNBOUND:                 0.644
REMARK SMILES C=C1[C@@H]2CC[C@H]3[C@@H]2C(C)(C)CCC[C@@]13C
REMARK SMILES IDX 14 1 6 2 7 3 3 4 2 5 1 6 4 7 5 8 15 9 8 10 9 11 10 12 11 13
REMARK SMILES IDX 13 15 12 16
REMARK H PARENT
REMARK Flexibility Score: 80.00
ROOT
ATOM      1  C   UNL     1      13.058   5.512  18.001  1.00  0.00    -0.008 C 
ATOM      2  C   UNL     1      14.505   4.903  18.177  1.00  0.00     0.003 C 
ATOM      3  C   UNL     1      15.414   5.803  17.312  1.00  0.00     0.006 C 
ATOM      4  C   UNL     1      14.540   5.655  16.066  1.00  0.00     0.019 C 
ATOM      5  C   UNL     1      13.180   6.024  16.588  1.00  0.00    -0.068 C 
ATOM      6  C   UNL     1      12.219   6.626  15.876  1.00  0.00     0.009 C 
ATOM      7  C   UNL     1      14.541   4.117  15.887  1.00  0.00     0.008 C 
ATOM      8  C   UNL     1      14.623   3.596  17.344  1.00  0.00     0.005 C 
ATOM      9  C   UNL     1      11.925   4.454  18.104  1.00  0.00     0.016 C 
ENDROOT
BRANCH   3  10
ATOM     10  C   UNL     1      15.817   7.251  17.827  1.00  0.00    -0.032 C 
ATOM     11  C   UNL     1      15.773   8.295  16.683  1.00  0.00     0.011 C 
ATOM     12  C   UNL     1      17.296   7.192  18.302  1.00  0.00     0.011 C 
BRANCH  10  13
ATOM     13  C   UNL     1      15.012   7.756  19.059  1.00  0.00     0.007 CG0
ATOM     14  G   UNL     1      13.512   7.938  18.845  1.00  0.00     0.000 G0
ENDBRANCH  10  13
ENDBRANCH   3  10
BRANCH   1  15
ATOM     15  C   UNL     1      12.746   6.627  19.034  1.00  0.00     0.011 C 
BRANCH  15  16
ATOM     16  C   UNL     1      13.507   7.937  18.852  1.00  0.00     0.001 CG0
ATOM     17  G   UNL     1      15.009   7.773  19.068  1.00  0.00     0.000 G0
ENDBRANCH  15  16
ENDBRANCH   1  15
TORSDOF 0
ENDMDL
MODEL 9
REMARK VINA RESULT:    -3.364      1.392      2.170
REMARK INTER + INTRA:          -3.506
REMARK INTER:                  -4.142
REMARK INTRA:                   0.635
REMARK UNBOUND:                 0.644
REMARK SMILES C=C1[C@@H]2CC[C@H]3[C@@H]2C(C)(C)CCC[C@@]13C
REMARK SMILES IDX 14 1 6 2 7 3 3 4 2 5 1 6 4 7 5 8 15 9 8 10 9 11 10 12 11 13
REMARK SMILES IDX 13 15 12 16
REMARK H PARENT
REMARK Flexibility Score: 80.00
ROOT
ATOM      1  C   UNL     1      13.403   5.544  18.694  1.00  0.00    -0.008 C 
ATOM      2  C   UNL     1      14.686   5.971  17.878  1.00  0.00     0.003 C 
ATOM      3  C   UNL     1      14.131   6.680  16.624  1.00  0.00     0.006 C 
ATOM      4  C   UNL     1      13.201   5.523  16.261  1.00  0.00     0.019 C 
ATOM      5  C   UNL     1      12.455   5.302  17.547  1.00  0.00    -0.068 C 
ATOM      6  C   UNL     1      11.189   4.876  17.640  1.00  0.00     0.009 C 
ATOM      7  C   UNL     1      14.214   4.359  16.134  1.00  0.00     0.008 C 
ATOM      8  C   UNL     1      15.297   4.724  17.180  1.00  0.00     0.005 C 
ATOM      9  C   UNL     1      13.601   4.244  19.523  1.00  0.00     0.016 C 
ENDROOT
BRANCH   3  10
ATOM     10  C   UNL     1      13.551   8.155  16.739  1.00  0.00    -0.032 C 
ATOM     11  C   UNL     1      12.254   8.322  15.906  1.00  0.00     0.011 C 
ATOM     12  C   UNL     1      14.593   9.126  16.115  1.00  0.00     0.011 C 
BRANCH  10  13
ATOM     13  C   UNL     1      13.337   8.664  18.193  1.00  0.00     0.007 CG0
ATOM     14  G   UNL     1      12.312   7.894  19.023  1.00  0.00     0.000 G0
ENDBRANCH  10  13
ENDBRANCH   3  10
BRANCH   1  15
ATOM     15  C   UNL     1      12.918   6.647  19.671  1.00  0.00     0.011 C 
BRANCH  15  16
ATOM     16  C   UNL     1      12.316   7.892  19.026  1.00  0.00     0.001 CG0
ATOM     17  G   UNL     1      13.331   8.660  18.184  1.00  0.00     0.000 G0
ENDBRANCH  15  16
ENDBRANCH   1  15
TORSDOF 0
ENDMDL
