MODEL 1
REMARK VINA RESULT:    -4.202      0.000      0.000
REMARK INTER + INTRA:          -6.279
REMARK INTER:                  -5.307
REMARK INTRA:                  -0.972
REMARK UNBOUND:                -0.972
REMARK SMILES O=C(C=Cc1ccc(O)cc1)c1ccc(O)cc1O
REMARK SMILES IDX 4 1 3 2 5 3 6 4 7 5 8 6 11 7 10 8 9 9 2 11 1 12 12 13 18 14
REMARK SMILES IDX 13 15 17 16 14 17 15 18 19 19 16 21
REMARK H PARENT 9 10 19 20 16 22
REMARK Flexibility Score: inf
ROOT
ATOM      1  C   UNL     1       7.750   2.680   4.957  1.00  0.00     0.012 C 
ATOM      2  C   UNL     1       8.067   1.377   5.015  1.00  0.00     0.053 C 
ENDROOT
BRANCH   1   3
ATOM      3  C   UNL     1       6.565   3.299   5.591  1.00  0.00    -0.025 A 
ATOM      4  C   UNL     1       6.744   4.166   6.678  1.00  0.00     0.012 A 
ATOM      5  C   UNL     1       5.643   4.797   7.267  1.00  0.00     0.047 A 
ATOM      6  C   UNL     1       4.354   4.583   6.760  1.00  0.00     0.115 A 
ATOM      7  C   UNL     1       5.273   3.110   5.067  1.00  0.00     0.012 A 
ATOM      8  C   UNL     1       4.174   3.743   5.657  1.00  0.00     0.047 A 
BRANCH   6   9
ATOM      9  O   UNL     1       3.251   5.205   7.339  1.00  0.00    -0.508 OA
ATOM     10  H   UNL     1       3.156   5.287   8.344  1.00  0.00     0.293 HD
ENDBRANCH   6   9
ENDBRANCH   1   3
BRANCH   2  11
ATOM     11  C   UNL     1       7.398   0.374   5.873  1.00  0.00     0.189 C 
ATOM     12  O   UNL     1       6.348  -0.195   5.465  1.00  0.00    -0.289 OA
BRANCH  11  13
ATOM     13  C   UNL     1       7.881   0.097   7.247  1.00  0.00     0.064 A 
ATOM     14  C   UNL     1       8.875  -0.875   7.506  1.00  0.00     0.130 A 
ATOM     15  C   UNL     1       7.321   0.802   8.327  1.00  0.00     0.020 A 
ATOM     16  C   UNL     1       9.311  -1.096   8.822  1.00  0.00     0.093 A 
ATOM     17  C   UNL     1       7.759   0.570   9.634  1.00  0.00     0.047 A 
ATOM     18  C   UNL     1       8.755  -0.374   9.885  1.00  0.00     0.119 A 
BRANCH  14  19
ATOM     19  O   UNL     1       9.412  -1.636   6.468  1.00  0.00    -0.507 OA
ATOM     20  H   UNL     1       9.278  -1.383   5.496  1.00  0.00     0.293 HD
ENDBRANCH  14  19
BRANCH  18  21
ATOM     21  O   UNL     1       9.184  -0.591  11.192  1.00  0.00    -0.508 OA
ATOM     22  H   UNL     1       8.869  -1.391  11.727  1.00  0.00     0.293 HD
ENDBRANCH  18  21
ENDBRANCH  11  13
ENDBRANCH   2  11
TORSDOF 6
ENDMDL
MODEL 2
REMARK VINA RESULT:    -4.073     10.774     12.060
REMARK INTER + INTRA:          -6.117
REMARK INTER:                  -5.153
REMARK INTRA:                  -0.964
REMARK UNBOUND:                -0.972
REMARK SMILES O=C(C=Cc1ccc(O)cc1)c1ccc(O)cc1O
REMARK SMILES IDX 4 1 3 2 5 3 6 4 7 5 8 6 11 7 10 8 9 9 2 11 1 12 12 13 18 14
REMARK SMILES IDX 13 15 17 16 14 17 15 18 19 19 16 21
REMARK H PARENT 9 10 19 20 16 22
REMARK Flexibility Score: inf
ROOT
ATOM      1  C   UNL     1       1.562  13.063   9.437  1.00  0.00     0.012 C 
ATOM      2  C   UNL     1       2.470  13.434   8.521  1.00  0.00     0.053 C 
ENDROOT
BRANCH   1   3
ATOM      3  C   UNL     1       1.547  11.764  10.146  1.00  0.00    -0.025 A 
ATOM      4  C   UNL     1       2.018  11.699  11.465  1.00  0.00     0.012 A 
ATOM      5  C   UNL     1       1.975  10.493  12.171  1.00  0.00     0.047 A 
ATOM      6  C   UNL     1       1.440   9.344  11.572  1.00  0.00     0.115 A 
ATOM      7  C   UNL     1       0.984  10.616   9.559  1.00  0.00     0.012 A 
ATOM      8  C   UNL     1       0.941   9.412  10.267  1.00  0.00     0.047 A 
BRANCH   6   9
ATOM      9  O   UNL     1       1.393   8.137  12.266  1.00  0.00    -0.508 OA
ATOM     10  H   UNL     1       0.512   7.719  12.543  1.00  0.00     0.293 HD
ENDBRANCH   6   9
ENDBRANCH   1   3
BRANCH   2  11
ATOM     11  C   UNL     1       3.711  12.695   8.202  1.00  0.00     0.189 C 
ATOM     12  O   UNL     1       3.663  11.695   7.433  1.00  0.00    -0.289 OA
BRANCH  11  13
ATOM     13  C   UNL     1       4.999  13.046   8.849  1.00  0.00     0.064 A 
ATOM     14  C   UNL     1       6.240  12.637   8.310  1.00  0.00     0.130 A 
ATOM     15  C   UNL     1       4.987  13.786  10.045  1.00  0.00     0.020 A 
ATOM     16  C   UNL     1       7.435  13.002   8.951  1.00  0.00     0.093 A 
ATOM     17  C   UNL     1       6.182  14.139  10.677  1.00  0.00     0.047 A 
ATOM     18  C   UNL     1       7.407  13.752  10.132  1.00  0.00     0.119 A 
BRANCH  14  19
ATOM     19  O   UNL     1       6.291  11.852   7.158  1.00  0.00    -0.507 OA
ATOM     20  H   UNL     1       6.278  12.263   6.232  1.00  0.00     0.293 HD
ENDBRANCH  14  19
BRANCH  18  21
ATOM     21  O   UNL     1       8.590  14.116  10.771  1.00  0.00    -0.508 OA
ATOM     22  H   UNL     1       8.854  13.716  11.664  1.00  0.00     0.293 HD
ENDBRANCH  18  21
ENDBRANCH  11  13
ENDBRANCH   2  11
TORSDOF 6
ENDMDL
MODEL 3
REMARK VINA RESULT:    -4.007      2.334      5.158
REMARK INTER + INTRA:          -6.033
REMARK INTER:                  -4.759
REMARK INTRA:                  -1.273
REMARK UNBOUND:                -0.972
REMARK SMILES O=C(C=Cc1ccc(O)cc1)c1ccc(O)cc1O
REMARK SMILES IDX 4 1 3 2 5 3 6 4 7 5 8 6 11 7 10 8 9 9 2 11 1 12 12 13 18 14
REMARK SMILES IDX 13 15 17 16 14 17 15 18 19 19 16 21
REMARK H PARENT 9 10 19 20 16 22
REMARK Flexibility Score: inf
ROOT
ATOM      1  C   UNL     1       8.654   1.224   5.559  1.00  0.00     0.012 C 
ATOM      2  C   UNL     1       8.493   2.168   4.619  1.00  0.00     0.053 C 
ENDROOT
BRANCH   1   3
ATOM      3  C   UNL     1       7.570   0.650   6.387  1.00  0.00    -0.025 A 
ATOM      4  C   UNL     1       7.354   1.156   7.677  1.00  0.00     0.012 A 
ATOM      5  C   UNL     1       6.310   0.660   8.463  1.00  0.00     0.047 A 
ATOM      6  C   UNL     1       5.457  -0.331   7.959  1.00  0.00     0.115 A 
ATOM      7  C   UNL     1       6.694  -0.324   5.874  1.00  0.00     0.012 A 
ATOM      8  C   UNL     1       5.650  -0.817   6.662  1.00  0.00     0.047 A 
BRANCH   6   9
ATOM      9  O   UNL     1       4.414  -0.833   8.734  1.00  0.00    -0.508 OA
ATOM     10  H   UNL     1       3.695  -1.426   8.335  1.00  0.00     0.293 HD
ENDBRANCH   6   9
ENDBRANCH   1   3
BRANCH   2  11
ATOM     11  C   UNL     1       7.190   2.659   4.118  1.00  0.00     0.189 C 
ATOM     12  O   UNL     1       6.949   2.636   2.879  1.00  0.00    -0.289 OA
BRANCH  11  13
ATOM     13  C   UNL     1       6.199   3.273   5.035  1.00  0.00     0.064 A 
ATOM     14  C   UNL     1       4.837   2.896   5.021  1.00  0.00     0.130 A 
ATOM     15  C   UNL     1       6.620   4.275   5.928  1.00  0.00     0.020 A 
ATOM     16  C   UNL     1       3.937   3.496   5.916  1.00  0.00     0.093 A 
ATOM     17  C   UNL     1       5.714   4.870   6.810  1.00  0.00     0.047 A 
ATOM     18  C   UNL     1       4.373   4.480   6.810  1.00  0.00     0.119 A 
BRANCH  14  19
ATOM     19  O   UNL     1       4.371   1.949   4.110  1.00  0.00    -0.507 OA
ATOM     20  H   UNL     1       3.895   1.107   4.413  1.00  0.00     0.293 HD
ENDBRANCH  14  19
BRANCH  18  21
ATOM     21  O   UNL     1       3.483   5.079   7.698  1.00  0.00    -0.508 OA
ATOM     22  H   UNL     1       3.345   6.082   7.714  1.00  0.00     0.293 HD
ENDBRANCH  18  21
ENDBRANCH  11  13
ENDBRANCH   2  11
TORSDOF 6
ENDMDL
MODEL 4
REMARK VINA RESULT:    -3.999      2.551      6.583
REMARK INTER + INTRA:          -6.022
REMARK INTER:                  -5.090
REMARK INTRA:                  -0.932
REMARK UNBOUND:                -0.972
REMARK SMILES O=C(C=Cc1ccc(O)cc1)c1ccc(O)cc1O
REMARK SMILES IDX 4 1 3 2 5 3 6 4 7 5 8 6 11 7 10 8 9 9 2 11 1 12 12 13 18 14
REMARK SMILES IDX 13 15 17 16 14 17 15 18 19 19 16 21
REMARK H PARENT 9 10 19 20 16 22
REMARK Flexibility Score: inf
ROOT
ATOM      1  C   UNL     1       7.279   2.326   6.212  1.00  0.00     0.012 C 
ATOM      2  C   UNL     1       6.958   3.595   5.915  1.00  0.00     0.053 C 
ENDROOT
BRANCH   1   3
ATOM      3  C   UNL     1       6.598   1.487   7.223  1.00  0.00    -0.025 A 
ATOM      4  C   UNL     1       5.356   0.915   6.913  1.00  0.00     0.012 A 
ATOM      5  C   UNL     1       4.712   0.084   7.835  1.00  0.00     0.047 A 
ATOM      6  C   UNL     1       5.315  -0.201   9.067  1.00  0.00     0.115 A 
ATOM      7  C   UNL     1       7.213   1.175   8.449  1.00  0.00     0.012 A 
ATOM      8  C   UNL     1       6.568   0.343   9.368  1.00  0.00     0.047 A 
BRANCH   6   9
ATOM      9  O   UNL     1       4.683  -1.027   9.993  1.00  0.00    -0.508 OA
ATOM     10  H   UNL     1       4.403  -0.685  10.905  1.00  0.00     0.293 HD
ENDBRANCH   6   9
ENDBRANCH   1   3
BRANCH   2  11
ATOM     11  C   UNL     1       5.756   4.307   6.405  1.00  0.00     0.189 C 
ATOM     12  O   UNL     1       5.826   4.997   7.460  1.00  0.00    -0.289 OA
BRANCH  11  13
ATOM     13  C   UNL     1       4.443   4.145   5.735  1.00  0.00     0.064 A 
ATOM     14  C   UNL     1       3.225   4.285   6.438  1.00  0.00     0.130 A 
ATOM     15  C   UNL     1       4.407   3.819   4.367  1.00  0.00     0.020 A 
ATOM     16  C   UNL     1       2.005   4.134   5.760  1.00  0.00     0.093 A 
ATOM     17  C   UNL     1       3.187   3.666   3.703  1.00  0.00     0.047 A 
ATOM     18  C   UNL     1       1.985   3.826   4.395  1.00  0.00     0.119 A 
BRANCH  14  19
ATOM     19  O   UNL     1       3.221   4.549   7.807  1.00  0.00    -0.507 OA
ATOM     20  H   UNL     1       3.472   3.841   8.488  1.00  0.00     0.293 HD
ENDBRANCH  14  19
BRANCH  18  21
ATOM     21  O   UNL     1       0.777   3.674   3.718  1.00  0.00    -0.508 OA
ATOM     22  H   UNL     1       0.148   4.455   3.576  1.00  0.00     0.293 HD
ENDBRANCH  18  21
ENDBRANCH  11  13
ENDBRANCH   2  11
TORSDOF 6
ENDMDL
MODEL 5
REMARK VINA RESULT:    -3.993      2.337      2.813
REMARK INTER + INTRA:          -6.016
REMARK INTER:                  -4.983
REMARK INTRA:                  -1.033
REMARK UNBOUND:                -0.972
REMARK SMILES O=C(C=Cc1ccc(O)cc1)c1ccc(O)cc1O
REMARK SMILES IDX 4 1 3 2 5 3 6 4 7 5 8 6 11 7 10 8 9 9 2 11 1 12 12 13 18 14
REMARK SMILES IDX 13 15 17 16 14 17 15 18 19 19 16 21
REMARK H PARENT 9 10 19 20 16 22
REMARK Flexibility Score: inf
ROOT
ATOM      1  C   UNL     1       4.595   0.798   6.094  1.00  0.00     0.012 C 
ATOM      2  C   UNL     1       4.291  -0.160   6.983  1.00  0.00     0.053 C 
ENDROOT
BRANCH   1   3
ATOM      3  C   UNL     1       5.108   2.144   6.432  1.00  0.00    -0.025 A 
ATOM      4  C   UNL     1       6.481   2.404   6.313  1.00  0.00     0.012 A 
ATOM      5  C   UNL     1       6.985   3.679   6.586  1.00  0.00     0.047 A 
ATOM      6  C   UNL     1       6.117   4.714   6.958  1.00  0.00     0.115 A 
ATOM      7  C   UNL     1       4.238   3.194   6.778  1.00  0.00     0.012 A 
ATOM      8  C   UNL     1       4.744   4.468   7.048  1.00  0.00     0.047 A 
BRANCH   6   9
ATOM      9  O   UNL     1       6.608   5.989   7.233  1.00  0.00    -0.508 OA
ATOM     10  H   UNL     1       6.821   6.282   8.179  1.00  0.00     0.293 HD
ENDBRANCH   6   9
ENDBRANCH   1   3
BRANCH   2  11
ATOM     11  C   UNL     1       4.593  -0.107   8.431  1.00  0.00     0.189 C 
ATOM     12  O   UNL     1       3.716   0.308   9.236  1.00  0.00    -0.289 OA
BRANCH  11  13
ATOM     13  C   UNL     1       5.945  -0.439   8.943  1.00  0.00     0.064 A 
ATOM     14  C   UNL     1       6.375  -1.776   9.103  1.00  0.00     0.130 A 
ATOM     15  C   UNL     1       6.818   0.605   9.302  1.00  0.00     0.020 A 
ATOM     16  C   UNL     1       7.668  -2.042   9.581  1.00  0.00     0.093 A 
ATOM     17  C   UNL     1       8.100   0.328   9.782  1.00  0.00     0.047 A 
ATOM     18  C   UNL     1       8.530  -0.993   9.919  1.00  0.00     0.119 A 
BRANCH  14  19
ATOM     19  O   UNL     1       5.518  -2.837   8.814  1.00  0.00    -0.507 OA
ATOM     20  H   UNL     1       5.513  -3.685   9.368  1.00  0.00     0.293 HD
ENDBRANCH  14  19
BRANCH  18  21
ATOM     21  O   UNL     1       9.813  -1.253  10.395  1.00  0.00    -0.508 OA
ATOM     22  H   UNL     1       9.981  -1.945  11.116  1.00  0.00     0.293 HD
ENDBRANCH  18  21
ENDBRANCH  11  13
ENDBRANCH   2  11
TORSDOF 6
ENDMDL
MODEL 6
REMARK VINA RESULT:    -3.961      2.357      6.397
REMARK INTER + INTRA:          -5.975
REMARK INTER:                  -5.061
REMARK INTRA:                  -0.914
REMARK UNBOUND:                -0.972
REMARK SMILES O=C(C=Cc1ccc(O)cc1)c1ccc(O)cc1O
REMARK SMILES IDX 4 1 3 2 5 3 6 4 7 5 8 6 11 7 10 8 9 9 2 11 1 12 12 13 18 14
REMARK SMILES IDX 13 15 17 16 14 17 15 18 19 19 16 21
REMARK H PARENT 9 10 19 20 16 22
REMARK Flexibility Score: inf
ROOT
ATOM      1  C   UNL     1       6.625   4.183   7.133  1.00  0.00     0.012 C 
ATOM      2  C   UNL     1       5.408   4.719   6.956  1.00  0.00     0.053 C 
ENDROOT
BRANCH   1   3
ATOM      3  C   UNL     1       6.989   2.778   6.849  1.00  0.00    -0.025 A 
ATOM      4  C   UNL     1       7.559   2.455   5.609  1.00  0.00     0.012 A 
ATOM      5  C   UNL     1       7.950   1.141   5.332  1.00  0.00     0.047 A 
ATOM      6  C   UNL     1       7.796   0.141   6.302  1.00  0.00     0.115 A 
ATOM      7  C   UNL     1       6.864   1.777   7.829  1.00  0.00     0.012 A 
ATOM      8  C   UNL     1       7.257   0.464   7.551  1.00  0.00     0.047 A 
BRANCH   6   9
ATOM      9  O   UNL     1       8.182  -1.171   6.037  1.00  0.00    -0.508 OA
ATOM     10  H   UNL     1       8.081  -1.577   5.114  1.00  0.00     0.293 HD
ENDBRANCH   6   9
ENDBRANCH   1   3
BRANCH   2  11
ATOM     11  C   UNL     1       4.275   4.055   6.274  1.00  0.00     0.189 C 
ATOM     12  O   UNL     1       4.252   3.998   5.014  1.00  0.00    -0.289 OA
BRANCH  11  13
ATOM     13  C   UNL     1       3.113   3.542   7.041  1.00  0.00     0.064 A 
ATOM     14  C   UNL     1       2.102   4.403   7.526  1.00  0.00     0.130 A 
ATOM     15  C   UNL     1       3.025   2.165   7.314  1.00  0.00     0.020 A 
ATOM     16  C   UNL     1       1.015   3.872   8.238  1.00  0.00     0.093 A 
ATOM     17  C   UNL     1       1.941   1.648   8.028  1.00  0.00     0.047 A 
ATOM     18  C   UNL     1       0.933   2.497   8.488  1.00  0.00     0.119 A 
BRANCH  14  19
ATOM     19  O   UNL     1       2.185   5.780   7.327  1.00  0.00    -0.507 OA
ATOM     20  H   UNL     1       2.209   6.184   6.397  1.00  0.00     0.293 HD
ENDBRANCH  14  19
BRANCH  18  21
ATOM     21  O   UNL     1      -0.144   1.966   9.194  1.00  0.00    -0.508 OA
ATOM     22  H   UNL     1      -0.935   1.548   8.719  1.00  0.00     0.293 HD
ENDBRANCH  18  21
ENDBRANCH  11  13
ENDBRANCH   2  11
TORSDOF 6
ENDMDL
MODEL 7
REMARK VINA RESULT:    -3.952      3.716      6.142
REMARK INTER + INTRA:          -5.963
REMARK INTER:                  -4.941
REMARK INTRA:                  -1.022
REMARK UNBOUND:                -0.972
REMARK SMILES O=C(C=Cc1ccc(O)cc1)c1ccc(O)cc1O
REMARK SMILES IDX 4 1 3 2 5 3 6 4 7 5 8 6 11 7 10 8 9 9 2 11 1 12 12 13 18 14
REMARK SMILES IDX 13 15 17 16 14 17 15 18 19 19 16 21
REMARK H PARENT 9 10 19 20 16 22
REMARK Flexibility Score: inf
ROOT
ATOM      1  C   UNL     1       1.202   3.787   5.141  1.00  0.00     0.012 C 
ATOM      2  C   UNL     1       2.072   3.482   6.116  1.00  0.00     0.053 C 
ENDROOT
BRANCH   1   3
ATOM      3  C   UNL     1       1.222   5.028   4.336  1.00  0.00    -0.025 A 
ATOM      4  C   UNL     1       0.616   6.185   4.848  1.00  0.00     0.012 A 
ATOM      5  C   UNL     1       0.657   7.382   4.126  1.00  0.00     0.047 A 
ATOM      6  C   UNL     1       1.325   7.440   2.895  1.00  0.00     0.115 A 
ATOM      7  C   UNL     1       1.915   5.098   3.115  1.00  0.00     0.012 A 
ATOM      8  C   UNL     1       1.956   6.297   2.395  1.00  0.00     0.047 A 
BRANCH   6   9
ATOM      9  O   UNL     1       1.372   8.626   2.167  1.00  0.00    -0.508 OA
ATOM     10  H   UNL     1       2.147   8.839   1.550  1.00  0.00     0.293 HD
ENDBRANCH   6   9
ENDBRANCH   1   3
BRANCH   2  11
ATOM     11  C   UNL     1       3.305   4.240   6.427  1.00  0.00     0.189 C 
ATOM     12  O   UNL     1       3.231   5.302   7.104  1.00  0.00    -0.289 OA
BRANCH  11  13
ATOM     13  C   UNL     1       4.617   3.829   5.870  1.00  0.00     0.064 A 
ATOM     14  C   UNL     1       5.835   4.188   6.490  1.00  0.00     0.130 A 
ATOM     15  C   UNL     1       4.653   3.081   4.679  1.00  0.00     0.020 A 
ATOM     16  C   UNL     1       7.053   3.767   5.934  1.00  0.00     0.093 A 
ATOM     17  C   UNL     1       5.871   2.673   4.131  1.00  0.00     0.047 A 
ATOM     18  C   UNL     1       7.073   3.009   4.757  1.00  0.00     0.119 A 
BRANCH  14  19
ATOM     19  O   UNL     1       5.842   4.978   7.639  1.00  0.00    -0.507 OA
ATOM     20  H   UNL     1       6.392   5.827   7.699  1.00  0.00     0.293 HD
ENDBRANCH  14  19
BRANCH  18  21
ATOM     21  O   UNL     1       8.279   2.591   4.201  1.00  0.00    -0.508 OA
ATOM     22  H   UNL     1       8.455   2.656   3.206  1.00  0.00     0.293 HD
ENDBRANCH  18  21
ENDBRANCH  11  13
ENDBRANCH   2  11
TORSDOF 6
ENDMDL
MODEL 8
REMARK VINA RESULT:    -3.937      2.936      6.186
REMARK INTER + INTRA:          -5.945
REMARK INTER:                  -4.819
REMARK INTRA:                  -1.126
REMARK UNBOUND:                -0.972
REMARK SMILES O=C(C=Cc1ccc(O)cc1)c1ccc(O)cc1O
REMARK SMILES IDX 4 1 3 2 5 3 6 4 7 5 8 6 11 7 10 8 9 9 2 11 1 12 12 13 18 14
REMARK SMILES IDX 13 15 17 16 14 17 15 18 19 19 16 21
REMARK H PARENT 9 10 19 20 16 22
REMARK Flexibility Score: inf
ROOT
ATOM      1  C   UNL     1       7.196   0.061   9.138  1.00  0.00     0.012 C 
ATOM      2  C   UNL     1       7.369   0.939   8.138  1.00  0.00     0.053 C 
ENDROOT
BRANCH   1   3
ATOM      3  C   UNL     1       5.959  -0.709   9.394  1.00  0.00    -0.025 A 
ATOM      4  C   UNL     1       5.903  -2.059   9.020  1.00  0.00     0.012 A 
ATOM      5  C   UNL     1       4.761  -2.820   9.290  1.00  0.00     0.047 A 
ATOM      6  C   UNL     1       3.672  -2.243   9.957  1.00  0.00     0.115 A 
ATOM      7  C   UNL     1       4.875  -0.142  10.090  1.00  0.00     0.012 A 
ATOM      8  C   UNL     1       3.735  -0.905  10.359  1.00  0.00     0.047 A 
BRANCH   6   9
ATOM      9  O   UNL     1       2.529  -2.991  10.230  1.00  0.00    -0.508 OA
ATOM     10  H   UNL     1       2.098  -2.984  11.147  1.00  0.00     0.293 HD
ENDBRANCH   6   9
ENDBRANCH   1   3
BRANCH   2  11
ATOM     11  C   UNL     1       6.428   1.148   7.015  1.00  0.00     0.189 C 
ATOM     12  O   UNL     1       6.503   0.411   5.993  1.00  0.00    -0.289 OA
BRANCH  11  13
ATOM     13  C   UNL     1       5.462   2.274   7.024  1.00  0.00     0.064 A 
ATOM     14  C   UNL     1       4.066   2.058   7.018  1.00  0.00     0.130 A 
ATOM     15  C   UNL     1       5.947   3.594   7.015  1.00  0.00     0.020 A 
ATOM     16  C   UNL     1       3.189   3.154   7.039  1.00  0.00     0.093 A 
ATOM     17  C   UNL     1       5.066   4.677   7.030  1.00  0.00     0.047 A 
ATOM     18  C   UNL     1       3.687   4.462   7.046  1.00  0.00     0.119 A 
BRANCH  14  19
ATOM     19  O   UNL     1       3.546   0.764   6.967  1.00  0.00    -0.507 OA
ATOM     20  H   UNL     1       3.908   0.070   6.324  1.00  0.00     0.293 HD
ENDBRANCH  14  19
BRANCH  18  21
ATOM     21  O   UNL     1       2.820   5.552   7.065  1.00  0.00    -0.508 OA
ATOM     22  H   UNL     1       2.169   5.725   6.309  1.00  0.00     0.293 HD
ENDBRANCH  18  21
ENDBRANCH  11  13
ENDBRANCH   2  11
TORSDOF 6
ENDMDL
MODEL 9
REMARK VINA RESULT:    -3.920      2.570      7.266
REMARK INTER + INTRA:          -5.924
REMARK INTER:                  -4.943
REMARK INTRA:                  -0.981
REMARK UNBOUND:                -0.972
REMARK SMILES O=C(C=Cc1ccc(O)cc1)c1ccc(O)cc1O
REMARK SMILES IDX 4 1 3 2 5 3 6 4 7 5 8 6 11 7 10 8 9 9 2 11 1 12 12 13 18 14
REMARK SMILES IDX 13 15 17 16 14 17 15 18 19 19 16 21
REMARK H PARENT 9 10 19 20 16 22
REMARK Flexibility Score: inf
ROOT
ATOM      1  C   UNL     1       5.848   4.440   7.144  1.00  0.00     0.012 C 
ATOM      2  C   UNL     1       4.527   4.569   6.942  1.00  0.00     0.053 C 
ENDROOT
BRANCH   1   3
ATOM      3  C   UNL     1       6.675   3.305   6.681  1.00  0.00    -0.025 A 
ATOM      4  C   UNL     1       6.741   2.142   7.462  1.00  0.00     0.012 A 
ATOM      5  C   UNL     1       7.481   1.039   7.025  1.00  0.00     0.047 A 
ATOM      6  C   UNL     1       8.148   1.082   5.793  1.00  0.00     0.115 A 
ATOM      7  C   UNL     1       7.321   3.332   5.432  1.00  0.00     0.012 A 
ATOM      8  C   UNL     1       8.061   2.228   4.997  1.00  0.00     0.047 A 
BRANCH   6   9
ATOM      9  O   UNL     1       8.890  -0.010   5.349  1.00  0.00    -0.508 OA
ATOM     10  H   UNL     1       8.611  -0.961   5.560  1.00  0.00     0.293 HD
ENDBRANCH   6   9
ENDBRANCH   1   3
BRANCH   2  11
ATOM     11  C   UNL     1       3.710   3.702   6.064  1.00  0.00     0.189 C 
ATOM     12  O   UNL     1       3.306   2.586   6.492  1.00  0.00    -0.289 OA
BRANCH  11  13
ATOM     13  C   UNL     1       3.442   4.075   4.654  1.00  0.00     0.064 A 
ATOM     14  C   UNL     1       2.155   4.463   4.218  1.00  0.00     0.130 A 
ATOM     15  C   UNL     1       4.490   4.020   3.718  1.00  0.00     0.020 A 
ATOM     16  C   UNL     1       1.949   4.820   2.876  1.00  0.00     0.093 A 
ATOM     17  C   UNL     1       4.273   4.372   2.383  1.00  0.00     0.047 A 
ATOM     18  C   UNL     1       3.006   4.776   1.960  1.00  0.00     0.119 A 
BRANCH  14  19
ATOM     19  O   UNL     1       1.077   4.474   5.104  1.00  0.00    -0.507 OA
ATOM     20  H   UNL     1       1.197   4.284   6.092  1.00  0.00     0.293 HD
ENDBRANCH  14  19
BRANCH  18  21
ATOM     21  O   UNL     1       2.807   5.127   0.627  1.00  0.00    -0.508 OA
ATOM     22  H   UNL     1       2.434   6.033   0.368  1.00  0.00     0.293 HD
ENDBRANCH  18  21
ENDBRANCH  11  13
ENDBRANCH   2  11
TORSDOF 6
ENDMDL
