MODEL 1
REMARK VINA RESULT:    -4.374      0.000      0.000
REMARK INTER + INTRA:          -7.103
REMARK INTER:                  -6.676
REMARK INTRA:                  -0.427
REMARK UNBOUND:                -0.427
REMARK SMILES O=C([O-])CCCCCCCCC(=O)[O-]
REMARK SMILES IDX 7 1 6 2 5 3 4 4 2 5 1 6 3 7 8 8 9 9 10 10 11 11 12 12 13 13
REMARK SMILES IDX 14 14
REMARK H PARENT
REMARK Flexibility Score: inf
ROOT
ATOM      1  C   UNL     1       6.767 -19.563  25.993  1.00  0.00     0.000 C 
ENDROOT
BRANCH   1   2
ATOM      2  C   UNL     1       7.066 -18.191  25.370  1.00  0.00     0.000 C 
BRANCH   2   3
ATOM      3  C   UNL     1       8.527 -17.753  25.574  1.00  0.00     0.006 C 
BRANCH   3   4
ATOM      4  C   UNL     1       8.654 -16.237  25.779  1.00  0.00     0.053 C 
BRANCH   4   5
ATOM      5  C   UNL     1       8.955 -15.527  24.495  1.00  0.00     0.041 C 
ATOM      6  O   UNL     1       8.016 -15.107  23.769  1.00  0.00    -0.550 OA
ATOM      7  O   UNL     1      10.272 -15.299  24.118  1.00  0.00    -0.550 OA
ENDBRANCH   4   5
ENDBRANCH   3   4
ENDBRANCH   2   3
ENDBRANCH   1   2
BRANCH   1   8
ATOM      8  C   UNL     1       6.920 -20.714  24.987  1.00  0.00     0.000 C 
BRANCH   8   9
ATOM      9  C   UNL     1       6.385 -20.312  23.608  1.00  0.00     0.000 C 
BRANCH   9  10
ATOM     10  C   UNL     1       7.443 -20.542  22.518  1.00  0.00     0.006 C 
BRANCH  10  11
ATOM     11  C   UNL     1       6.881 -21.311  21.315  1.00  0.00     0.053 C 
BRANCH  11  12
ATOM     12  C   UNL     1       7.876 -22.284  20.762  1.00  0.00     0.041 C 
ATOM     13  O   UNL     1       8.256 -22.189  19.564  1.00  0.00    -0.550 OA
ATOM     14  O   UNL     1       8.358 -23.315  21.556  1.00  0.00    -0.550 OA
ENDBRANCH  11  12
ENDBRANCH  10  11
ENDBRANCH   9  10
ENDBRANCH   8   9
ENDBRANCH   1   8
TORSDOF 9
ENDMDL
MODEL 2
REMARK VINA RESULT:    -4.345      1.618      2.176
REMARK INTER + INTRA:          -7.058
REMARK INTER:                  -6.507
REMARK INTRA:                  -0.551
REMARK UNBOUND:                -0.427
REMARK SMILES O=C([O-])CCCCCCCCC(=O)[O-]
REMARK SMILES IDX 7 1 6 2 5 3 4 4 2 5 1 6 3 7 8 8 9 9 10 10 11 11 12 12 13 13
REMARK SMILES IDX 14 14
REMARK H PARENT
REMARK Flexibility Score: inf
ROOT
ATOM      1  C   UNL     1       7.615 -18.547  22.105  1.00  0.00     0.000 C 
ENDROOT
BRANCH   1   2
ATOM      2  C   UNL     1       7.879 -17.041  21.956  1.00  0.00     0.000 C 
BRANCH   2   3
ATOM      3  C   UNL     1       7.078 -16.195  22.962  1.00  0.00     0.006 C 
BRANCH   3   4
ATOM      4  C   UNL     1       7.879 -14.989  23.471  1.00  0.00     0.053 C 
BRANCH   4   5
ATOM      5  C   UNL     1       8.991 -15.407  24.384  1.00  0.00     0.041 C 
ATOM      6  O   UNL     1       8.732 -15.875  25.524  1.00  0.00    -0.550 OA
ATOM      7  O   UNL     1      10.311 -15.310  23.962  1.00  0.00    -0.550 OA
ENDBRANCH   4   5
ENDBRANCH   3   4
ENDBRANCH   2   3
ENDBRANCH   1   2
BRANCH   1   8
ATOM      8  C   UNL     1       7.194 -18.934  23.532  1.00  0.00     0.000 C 
BRANCH   8   9
ATOM      9  C   UNL     1       6.620 -20.355  23.568  1.00  0.00     0.000 C 
BRANCH   9  10
ATOM     10  C   UNL     1       6.914 -21.101  22.258  1.00  0.00     0.006 C 
BRANCH  10  11
ATOM     11  C   UNL     1       7.961 -22.208  22.442  1.00  0.00     0.053 C 
BRANCH  11  12
ATOM     12  C   UNL     1       8.624 -22.568  21.148  1.00  0.00     0.041 C 
ATOM     13  O   UNL     1       8.073 -22.279  20.052  1.00  0.00    -0.550 OA
ATOM     14  O   UNL     1       9.832 -23.252  21.152  1.00  0.00    -0.550 OA
ENDBRANCH  11  12
ENDBRANCH  10  11
ENDBRANCH   9  10
ENDBRANCH   8   9
ENDBRANCH   1   8
TORSDOF 9
ENDMDL
MODEL 3
REMARK VINA RESULT:    -4.327      1.731      6.387
REMARK INTER + INTRA:          -7.031
REMARK INTER:                  -6.509
REMARK INTRA:                  -0.522
REMARK UNBOUND:                -0.427
REMARK SMILES O=C([O-])CCCCCCCCC(=O)[O-]
REMARK SMILES IDX 7 1 6 2 5 3 4 4 2 5 1 6 3 7 8 8 9 9 10 10 11 11 12 12 13 13
REMARK SMILES IDX 14 14
REMARK H PARENT
REMARK Flexibility Score: inf
ROOT
ATOM      1  C   UNL     1       6.678 -20.492  23.634  1.00  0.00     0.000 C 
ENDROOT
BRANCH   1   2
ATOM      2  C   UNL     1       7.912 -21.052  22.911  1.00  0.00     0.000 C 
BRANCH   2   3
ATOM      3  C   UNL     1       7.547 -21.869  21.659  1.00  0.00     0.006 C 
BRANCH   3   4
ATOM      4  C   UNL     1       8.466 -23.084  21.472  1.00  0.00     0.053 C 
BRANCH   4   5
ATOM      5  C   UNL     1       9.899 -22.677  21.318  1.00  0.00     0.041 C 
ATOM      6  O   UNL     1      10.255 -21.975  20.335  1.00  0.00    -0.550 OA
ATOM      7  O   UNL     1      10.834 -23.044  22.277  1.00  0.00    -0.550 OA
ENDBRANCH   4   5
ENDBRANCH   3   4
ENDBRANCH   2   3
ENDBRANCH   1   2
BRANCH   1   8
ATOM      8  C   UNL     1       6.757 -18.973  23.849  1.00  0.00     0.000 C 
BRANCH   8   9
ATOM      9  C   UNL     1       8.101 -18.419  23.362  1.00  0.00     0.000 C 
BRANCH   9  10
ATOM     10  C   UNL     1       7.912 -17.087  22.621  1.00  0.00     0.006 C 
BRANCH  10  11
ATOM     11  C   UNL     1       7.590 -15.931  23.577  1.00  0.00     0.053 C 
BRANCH  11  12
ATOM     12  C   UNL     1       8.722 -15.653  24.517  1.00  0.00     0.041 C 
ATOM     13  O   UNL     1       9.788 -15.136  24.088  1.00  0.00    -0.550 OA
ATOM     14  O   UNL     1       8.615 -15.994  25.858  1.00  0.00    -0.550 OA
ENDBRANCH  11  12
ENDBRANCH  10  11
ENDBRANCH   9  10
ENDBRANCH   8   9
ENDBRANCH   1   8
TORSDOF 9
ENDMDL
MODEL 4
REMARK VINA RESULT:    -4.309      1.676      2.438
REMARK INTER + INTRA:          -7.004
REMARK INTER:                  -6.603
REMARK INTRA:                  -0.401
REMARK UNBOUND:                -0.427
REMARK SMILES O=C([O-])CCCCCCCCC(=O)[O-]
REMARK SMILES IDX 7 1 6 2 5 3 4 4 2 5 1 6 3 7 8 8 9 9 10 10 11 11 12 12 13 13
REMARK SMILES IDX 14 14
REMARK H PARENT
REMARK Flexibility Score: inf
ROOT
ATOM      1  C   UNL     1       6.838 -19.753  23.710  1.00  0.00     0.000 C 
ENDROOT
BRANCH   1   2
ATOM      2  C   UNL     1       7.625 -18.528  23.223  1.00  0.00     0.000 C 
BRANCH   2   3
ATOM      3  C   UNL     1       7.035 -17.201  23.735  1.00  0.00     0.006 C 
BRANCH   3   4
ATOM      4  C   UNL     1       7.895 -15.994  23.338  1.00  0.00     0.053 C 
BRANCH   4   5
ATOM      5  C   UNL     1       8.919 -15.674  24.384  1.00  0.00     0.041 C 
ATOM      6  O   UNL     1       9.967 -15.048  24.073  1.00  0.00    -0.550 OA
ATOM      7  O   UNL     1       8.700 -16.038  25.706  1.00  0.00    -0.550 OA
ENDBRANCH   4   5
ENDBRANCH   3   4
ENDBRANCH   2   3
ENDBRANCH   1   2
BRANCH   1   8
ATOM      8  C   UNL     1       7.333 -21.063  23.078  1.00  0.00     0.000 C 
BRANCH   8   9
ATOM      9  C   UNL     1       7.034 -21.094  21.574  1.00  0.00     0.000 C 
BRANCH   9  10
ATOM     10  C   UNL     1       7.765 -22.259  20.891  1.00  0.00     0.006 C 
BRANCH  10  11
ATOM     11  C   UNL     1       8.731 -22.977  21.842  1.00  0.00     0.053 C 
BRANCH  11  12
ATOM     12  C   UNL     1      10.162 -22.712  21.488  1.00  0.00     0.041 C 
ATOM     13  O   UNL     1      11.087 -23.114  22.243  1.00  0.00    -0.550 OA
ATOM     14  O   UNL     1      10.474 -21.992  20.343  1.00  0.00    -0.550 OA
ENDBRANCH  11  12
ENDBRANCH  10  11
ENDBRANCH   9  10
ENDBRANCH   8   9
ENDBRANCH   1   8
TORSDOF 9
ENDMDL
MODEL 5
REMARK VINA RESULT:    -4.276      0.748      6.154
REMARK INTER + INTRA:          -6.953
REMARK INTER:                  -6.348
REMARK INTRA:                  -0.606
REMARK UNBOUND:                -0.427
REMARK SMILES O=C([O-])CCCCCCCCC(=O)[O-]
REMARK SMILES IDX 7 1 6 2 5 3 4 4 2 5 1 6 3 7 8 8 9 9 10 10 11 11 12 12 13 13
REMARK SMILES IDX 14 14
REMARK H PARENT
REMARK Flexibility Score: inf
ROOT
ATOM      1  C   UNL     1       6.820 -20.913  24.867  1.00  0.00     0.000 C 
ENDROOT
BRANCH   1   2
ATOM      2  C   UNL     1       6.406 -20.256  23.542  1.00  0.00     0.000 C 
BRANCH   2   3
ATOM      3  C   UNL     1       7.405 -20.534  22.404  1.00  0.00     0.006 C 
BRANCH   3   4
ATOM      4  C   UNL     1       6.827 -21.483  21.346  1.00  0.00     0.053 C 
BRANCH   4   5
ATOM      5  C   UNL     1       7.895 -22.314  20.704  1.00  0.00     0.041 C 
ATOM      6  O   UNL     1       8.370 -21.981  19.586  1.00  0.00    -0.550 OA
ATOM      7  O   UNL     1       8.390 -23.436  21.356  1.00  0.00    -0.550 OA
ENDBRANCH   4   5
ENDBRANCH   3   4
ENDBRANCH   2   3
ENDBRANCH   1   2
BRANCH   1   8
ATOM      8  C   UNL     1       6.825 -19.922  26.042  1.00  0.00     0.000 C 
BRANCH   8   9
ATOM      9  C   UNL     1       6.885 -18.475  25.539  1.00  0.00     0.000 C 
BRANCH   9  10
ATOM     10  C   UNL     1       8.321 -17.934  25.587  1.00  0.00     0.006 C 
BRANCH  10  11
ATOM     11  C   UNL     1       8.771 -17.359  24.237  1.00  0.00     0.053 C 
BRANCH  11  12
ATOM     12  C   UNL     1       8.316 -15.944  24.055  1.00  0.00     0.041 C 
ATOM     13  O   UNL     1       8.912 -15.006  24.648  1.00  0.00    -0.550 OA
ATOM     14  O   UNL     1       7.214 -15.664  23.259  1.00  0.00    -0.550 OA
ENDBRANCH  11  12
ENDBRANCH  10  11
ENDBRANCH   9  10
ENDBRANCH   8   9
ENDBRANCH   1   8
TORSDOF 9
ENDMDL
MODEL 6
REMARK VINA RESULT:    -4.243      1.135      6.352
REMARK INTER + INTRA:          -6.903
REMARK INTER:                  -6.220
REMARK INTRA:                  -0.683
REMARK UNBOUND:                -0.427
REMARK SMILES O=C([O-])CCCCCCCCC(=O)[O-]
REMARK SMILES IDX 7 1 6 2 5 3 4 4 2 5 1 6 3 7 8 8 9 9 10 10 11 11 12 12 13 13
REMARK SMILES IDX 14 14
REMARK H PARENT
REMARK Flexibility Score: inf
ROOT
ATOM      1  C   UNL     1       7.678 -18.589  22.912  1.00  0.00     0.000 C 
ENDROOT
BRANCH   1   2
ATOM      2  C   UNL     1       8.105 -19.933  23.521  1.00  0.00     0.000 C 
BRANCH   2   3
ATOM      3  C   UNL     1       7.173 -21.090  23.119  1.00  0.00     0.006 C 
BRANCH   3   4
ATOM      4  C   UNL     1       6.991 -21.185  21.598  1.00  0.00     0.053 C 
BRANCH   4   5
ATOM      5  C   UNL     1       7.967 -22.138  20.980  1.00  0.00     0.041 C 
ATOM      6  O   UNL     1       8.384 -21.946  19.807  1.00  0.00    -0.550 OA
ATOM      7  O   UNL     1       8.443 -23.219  21.712  1.00  0.00    -0.550 OA
ENDBRANCH   4   5
ENDBRANCH   3   4
ENDBRANCH   2   3
ENDBRANCH   1   2
BRANCH   1   8
ATOM      8  C   UNL     1       7.096 -17.626  23.959  1.00  0.00     0.000 C 
BRANCH   8   9
ATOM      9  C   UNL     1       7.669 -17.916  25.351  1.00  0.00     0.000 C 
BRANCH   9  10
ATOM     10  C   UNL     1       8.499 -16.730  25.863  1.00  0.00     0.006 C 
BRANCH  10  11
ATOM     11  C   UNL     1       9.995 -16.893  25.561  1.00  0.00     0.053 C 
BRANCH  11  12
ATOM     12  C   UNL     1      10.428 -16.037  24.410  1.00  0.00     0.041 C 
ATOM     13  O   UNL     1       9.701 -15.084  24.022  1.00  0.00    -0.550 OA
ATOM     14  O   UNL     1      11.615 -16.312  23.746  1.00  0.00    -0.550 OA
ENDBRANCH  11  12
ENDBRANCH  10  11
ENDBRANCH   9  10
ENDBRANCH   8   9
ENDBRANCH   1   8
TORSDOF 9
ENDMDL
MODEL 7
REMARK VINA RESULT:    -4.236      1.991      6.263
REMARK INTER + INTRA:          -6.893
REMARK INTER:                  -6.289
REMARK INTRA:                  -0.603
REMARK UNBOUND:                -0.427
REMARK SMILES O=C([O-])CCCCCCCCC(=O)[O-]
REMARK SMILES IDX 7 1 6 2 5 3 4 4 2 5 1 6 3 7 8 8 9 9 10 10 11 11 12 12 13 13
REMARK SMILES IDX 14 14
REMARK H PARENT
REMARK Flexibility Score: inf
ROOT
ATOM      1  C   UNL     1       7.130 -20.767  21.471  1.00  0.00     0.000 C 
ENDROOT
BRANCH   1   2
ATOM      2  C   UNL     1       7.382 -22.156  20.864  1.00  0.00     0.000 C 
BRANCH   2   3
ATOM      3  C   UNL     1       8.308 -23.024  21.735  1.00  0.00     0.006 C 
BRANCH   3   4
ATOM      4  C   UNL     1       9.747 -23.051  21.202  1.00  0.00     0.053 C 
BRANCH   4   5
ATOM      5  C   UNL     1      10.708 -22.433  22.170  1.00  0.00     0.041 C 
ATOM      6  O   UNL     1      11.577 -23.145  22.741  1.00  0.00    -0.550 OA
ATOM      7  O   UNL     1      10.666 -21.067  22.417  1.00  0.00    -0.550 OA
ENDBRANCH   4   5
ENDBRANCH   3   4
ENDBRANCH   2   3
ENDBRANCH   1   2
BRANCH   1   8
ATOM      8  C   UNL     1       6.815 -20.827  22.973  1.00  0.00     0.000 C 
BRANCH   8   9
ATOM      9  C   UNL     1       7.677 -19.829  23.755  1.00  0.00     0.000 C 
BRANCH   9  10
ATOM     10  C   UNL     1       7.653 -18.444  23.093  1.00  0.00     0.006 C 
BRANCH  10  11
ATOM     11  C   UNL     1       7.331 -17.326  24.095  1.00  0.00     0.053 C 
BRANCH  11  12
ATOM     12  C   UNL     1       7.695 -15.976  23.559  1.00  0.00     0.041 C 
ATOM     13  O   UNL     1       7.242 -15.593  22.447  1.00  0.00    -0.550 OA
ATOM     14  O   UNL     1       8.558 -15.154  24.270  1.00  0.00    -0.550 OA
ENDBRANCH  11  12
ENDBRANCH  10  11
ENDBRANCH   9  10
ENDBRANCH   8   9
ENDBRANCH   1   8
TORSDOF 9
ENDMDL
MODEL 8
REMARK VINA RESULT:    -4.192      2.794      3.836
REMARK INTER + INTRA:          -6.825
REMARK INTER:                  -6.102
REMARK INTRA:                  -0.723
REMARK UNBOUND:                -0.427
REMARK SMILES O=C([O-])CCCCCCCCC(=O)[O-]
REMARK SMILES IDX 7 1 6 2 5 3 4 4 2 5 1 6 3 7 8 8 9 9 10 10 11 11 12 12 13 13
REMARK SMILES IDX 14 14
REMARK H PARENT
REMARK Flexibility Score: inf
ROOT
ATOM      1  C   UNL     1       7.976 -16.964  20.959  1.00  0.00     0.000 C 
ENDROOT
BRANCH   1   2
ATOM      2  C   UNL     1       7.103 -15.720  21.181  1.00  0.00     0.000 C 
BRANCH   2   3
ATOM      3  C   UNL     1       7.123 -15.233  22.640  1.00  0.00     0.006 C 
BRANCH   3   4
ATOM      4  C   UNL     1       7.677 -16.296  23.598  1.00  0.00     0.053 C 
BRANCH   4   5
ATOM      5  C   UNL     1       8.732 -15.733  24.501  1.00  0.00     0.041 C 
ATOM      6  O   UNL     1       9.682 -15.060  24.021  1.00  0.00    -0.550 OA
ATOM      7  O   UNL     1       8.646 -15.924  25.874  1.00  0.00    -0.550 OA
ENDBRANCH   4   5
ENDBRANCH   3   4
ENDBRANCH   2   3
ENDBRANCH   1   2
BRANCH   1   8
ATOM      8  C   UNL     1       7.457 -17.855  19.819  1.00  0.00     0.000 C 
BRANCH   8   9
ATOM      9  C   UNL     1       7.525 -19.337  20.207  1.00  0.00     0.000 C 
BRANCH   9  10
ATOM     10  C   UNL     1       8.022 -19.507  21.650  1.00  0.00     0.006 C 
BRANCH  10  11
ATOM     11  C   UNL     1       7.134 -20.459  22.462  1.00  0.00     0.053 C 
BRANCH  11  12
ATOM     12  C   UNL     1       7.344 -20.294  23.936  1.00  0.00     0.041 C 
ATOM     13  O   UNL     1       8.286 -19.576  24.365  1.00  0.00    -0.550 OA
ATOM     14  O   UNL     1       6.522 -20.959  24.835  1.00  0.00    -0.550 OA
ENDBRANCH  11  12
ENDBRANCH  10  11
ENDBRANCH   9  10
ENDBRANCH   8   9
ENDBRANCH   1   8
TORSDOF 9
ENDMDL
MODEL 9
REMARK VINA RESULT:    -4.164      2.625      3.831
REMARK INTER + INTRA:          -6.783
REMARK INTER:                  -6.098
REMARK INTRA:                  -0.685
REMARK UNBOUND:                -0.427
REMARK SMILES O=C([O-])CCCCCCCCC(=O)[O-]
REMARK SMILES IDX 7 1 6 2 5 3 4 4 2 5 1 6 3 7 8 8 9 9 10 10 11 11 12 12 13 13
REMARK SMILES IDX 14 14
REMARK H PARENT
REMARK Flexibility Score: inf
ROOT
ATOM      1  C   UNL     1       7.192 -20.740  21.455  1.00  0.00     0.000 C 
ENDROOT
BRANCH   1   2
ATOM      2  C   UNL     1       6.748 -20.839  22.922  1.00  0.00     0.000 C 
BRANCH   2   3
ATOM      3  C   UNL     1       7.582 -19.944  23.856  1.00  0.00     0.006 C 
BRANCH   3   4
ATOM      4  C   UNL     1       7.952 -18.608  23.199  1.00  0.00     0.053 C 
BRANCH   4   5
ATOM      5  C   UNL     1       7.409 -17.442  23.968  1.00  0.00     0.041 C 
ATOM      6  O   UNL     1       7.476 -17.428  25.226  1.00  0.00    -0.550 OA
ATOM      7  O   UNL     1       6.861 -16.359  23.295  1.00  0.00    -0.550 OA
ENDBRANCH   4   5
ENDBRANCH   3   4
ENDBRANCH   2   3
ENDBRANCH   1   2
BRANCH   1   8
ATOM      8  C   UNL     1       7.449 -22.116  20.821  1.00  0.00     0.000 C 
BRANCH   8   9
ATOM      9  C   UNL     1       8.274 -23.006  21.758  1.00  0.00     0.000 C 
BRANCH   9  10
ATOM     10  C   UNL     1       9.760 -22.983  21.372  1.00  0.00     0.006 C 
BRANCH  10  11
ATOM     11  C   UNL     1      10.566 -21.992  22.223  1.00  0.00     0.053 C 
BRANCH  11  12
ATOM     12  C   UNL     1      11.979 -21.864  21.741  1.00  0.00     0.041 C 
ATOM     13  O   UNL     1      12.222 -21.797  20.506  1.00  0.00    -0.550 OA
ATOM     14  O   UNL     1      13.027 -21.852  22.650  1.00  0.00    -0.550 OA
ENDBRANCH  11  12
ENDBRANCH  10  11
ENDBRANCH   9  10
ENDBRANCH   8   9
ENDBRANCH   1   8
TORSDOF 9
ENDMDL
