MODEL 1
REMARK VINA RESULT:    -2.941      0.000      0.000
REMARK INTER + INTRA:          -3.199
REMARK INTER:                  -3.199
REMARK INTRA:                   0.000
REMARK UNBOUND:                 0.000
REMARK SMILES [NH3+]CC(=O)[O-]
REMARK SMILES IDX 2 1 1 2 3 6 4 7 5 8
REMARK H PARENT 1 3 1 4 1 5
REMARK Flexibility Score: inf
ROOT
ATOM      1  C   UNL     1      19.265  -6.281  16.587  1.00  0.00     0.312 C 
ENDROOT
BRANCH   1   2
ATOM      2  N   UNL     1      19.362  -7.209  17.711  1.00  0.00    -0.353 N 
ATOM      3  H   UNL     1      20.027  -7.983  17.482  1.00  0.00     0.344 HD
ATOM      4  H   UNL     1      19.719  -6.694  18.549  1.00  0.00     0.344 HD
ATOM      5  H   UNL     1      18.420  -7.604  17.933  1.00  0.00     0.344 HD
ENDBRANCH   1   2
BRANCH   1   6
ATOM      6  C   UNL     1      19.668  -4.901  17.003  1.00  0.00     0.096 C 
ATOM      7  O   UNL     1      20.886  -4.613  17.145  1.00  0.00    -0.544 OA
ATOM      8  O   UNL     1      18.699  -3.947  17.285  1.00  0.00    -0.544 OA
ENDBRANCH   1   6
TORSDOF 2
ENDMDL
MODEL 2
REMARK VINA RESULT:    -2.933      3.400      3.400
REMARK INTER + INTRA:          -3.191
REMARK INTER:                  -3.191
REMARK INTRA:                   0.000
REMARK UNBOUND:                 0.000
REMARK SMILES [NH3+]CC(=O)[O-]
REMARK SMILES IDX 2 1 1 2 3 6 4 7 5 8
REMARK H PARENT 1 3 1 4 1 5
REMARK Flexibility Score: inf
ROOT
ATOM      1  C   UNL     1      21.329  -5.822  14.929  1.00  0.00     0.312 C 
ENDROOT
BRANCH   1   2
ATOM      2  N   UNL     1      22.535  -5.485  14.177  1.00  0.00    -0.353 N 
ATOM      3  H   UNL     1      22.916  -4.567  14.501  1.00  0.00     0.344 HD
ATOM      4  H   UNL     1      23.255  -6.226  14.336  1.00  0.00     0.344 HD
ATOM      5  H   UNL     1      22.319  -5.438  13.154  1.00  0.00     0.344 HD
ENDBRANCH   1   2
BRANCH   1   6
ATOM      6  C   UNL     1      20.193  -4.930  14.533  1.00  0.00     0.096 C 
ATOM      7  O   UNL     1      20.416  -3.868  13.895  1.00  0.00    -0.544 OA
ATOM      8  O   UNL     1      18.895  -5.247  14.912  1.00  0.00    -0.544 OA
ENDBRANCH   1   6
TORSDOF 2
ENDMDL
MODEL 3
REMARK VINA RESULT:    -2.917      3.146      3.274
REMARK INTER + INTRA:          -3.172
REMARK INTER:                  -3.172
REMARK INTRA:                   0.000
REMARK UNBOUND:                 0.000
REMARK SMILES [NH3+]CC(=O)[O-]
REMARK SMILES IDX 2 1 1 2 3 6 4 7 5 8
REMARK H PARENT 1 3 1 4 1 5
REMARK Flexibility Score: inf
ROOT
ATOM      1  C   UNL     1      20.324  -3.866  14.223  1.00  0.00     0.312 C 
ENDROOT
BRANCH   1   2
ATOM      2  N   UNL     1      21.345  -4.889  14.012  1.00  0.00    -0.353 N 
ATOM      3  H   UNL     1      21.486  -5.050  12.988  1.00  0.00     0.344 HD
ATOM      4  H   UNL     1      22.246  -4.565  14.431  1.00  0.00     0.344 HD
ATOM      5  H   UNL     1      21.059  -5.783  14.475  1.00  0.00     0.344 HD
ENDBRANCH   1   2
BRANCH   1   6
ATOM      6  C   UNL     1      19.128  -4.447  14.910  1.00  0.00     0.096 C 
ATOM      7  O   UNL     1      19.051  -5.689  15.104  1.00  0.00    -0.544 OA
ATOM      8  O   UNL     1      18.075  -3.624  15.291  1.00  0.00    -0.544 OA
ENDBRANCH   1   6
TORSDOF 2
ENDMDL
MODEL 4
REMARK VINA RESULT:    -2.895      2.164      2.551
REMARK INTER + INTRA:          -3.149
REMARK INTER:                  -3.149
REMARK INTRA:                   0.000
REMARK UNBOUND:                 0.000
REMARK SMILES [NH3+]CC(=O)[O-]
REMARK SMILES IDX 2 1 1 2 3 6 4 7 5 8
REMARK H PARENT 1 3 1 4 1 5
REMARK Flexibility Score: inf
ROOT
ATOM      1  C   UNL     1      19.113  -4.247  17.029  1.00  0.00     0.312 C 
ENDROOT
BRANCH   1   2
ATOM      2  N   UNL     1      19.469  -5.535  17.621  1.00  0.00    -0.353 N 
ATOM      3  H   UNL     1      20.341  -5.906  17.178  1.00  0.00     0.344 HD
ATOM      4  H   UNL     1      19.638  -5.405  18.645  1.00  0.00     0.344 HD
ATOM      5  H   UNL     1      18.687  -6.217  17.491  1.00  0.00     0.344 HD
ENDBRANCH   1   2
BRANCH   1   6
ATOM      6  C   UNL     1      18.661  -4.424  15.612  1.00  0.00     0.096 C 
ATOM      7  O   UNL     1      18.021  -3.507  15.034  1.00  0.00    -0.544 OA
ATOM      8  O   UNL     1      18.902  -5.620  14.949  1.00  0.00    -0.544 OA
ENDBRANCH   1   6
TORSDOF 2
ENDMDL
MODEL 5
REMARK VINA RESULT:    -2.871      2.894      3.289
REMARK INTER + INTRA:          -3.123
REMARK INTER:                  -3.123
REMARK INTRA:                   0.000
REMARK UNBOUND:                 0.000
REMARK SMILES [NH3+]CC(=O)[O-]
REMARK SMILES IDX 2 1 1 2 3 6 4 7 5 8
REMARK H PARENT 1 3 1 4 1 5
REMARK Flexibility Score: inf
ROOT
ATOM      1  C   UNL     1      20.491  -3.473  15.195  1.00  0.00     0.312 C 
ENDROOT
BRANCH   1   2
ATOM      2  N   UNL     1      20.616  -4.087  13.874  1.00  0.00    -0.353 N 
ATOM      3  H   UNL     1      19.689  -4.090  13.390  1.00  0.00     0.344 HD
ATOM      4  H   UNL     1      21.295  -3.533  13.303  1.00  0.00     0.344 HD
ATOM      5  H   UNL     1      20.972  -5.066  13.966  1.00  0.00     0.344 HD
ENDBRANCH   1   2
BRANCH   1   6
ATOM      6  C   UNL     1      19.111  -3.669  15.740  1.00  0.00     0.096 C 
ATOM      7  O   UNL     1      18.126  -3.741  14.957  1.00  0.00    -0.544 OA
ATOM      8  O   UNL     1      18.905  -3.721  17.112  1.00  0.00    -0.544 OA
ENDBRANCH   1   6
TORSDOF 2
ENDMDL
MODEL 6
REMARK VINA RESULT:    -2.819      5.988      6.354
REMARK INTER + INTRA:          -3.066
REMARK INTER:                  -3.066
REMARK INTRA:                   0.000
REMARK UNBOUND:                 0.000
REMARK SMILES [NH3+]CC(=O)[O-]
REMARK SMILES IDX 2 1 1 2 3 6 4 7 5 8
REMARK H PARENT 1 3 1 4 1 5
REMARK Flexibility Score: inf
ROOT
ATOM      1  C   UNL     1      14.447  -7.663  14.223  1.00  0.00     0.312 C 
ENDROOT
BRANCH   1   2
ATOM      2  N   UNL     1      14.399  -6.453  13.406  1.00  0.00    -0.353 N 
ATOM      3  H   UNL     1      15.330  -6.280  12.963  1.00  0.00     0.344 HD
ATOM      4  H   UNL     1      13.683  -6.577  12.653  1.00  0.00     0.344 HD
ATOM      5  H   UNL     1      14.129  -5.632  13.996  1.00  0.00     0.344 HD
ENDBRANCH   1   2
BRANCH   1   6
ATOM      6  C   UNL     1      15.737  -8.394  14.008  1.00  0.00     0.096 C 
ATOM      7  O   UNL     1      15.852  -9.204  13.051  1.00  0.00    -0.544 OA
ATOM      8  O   UNL     1      16.792  -8.219  14.894  1.00  0.00    -0.544 OA
ENDBRANCH   1   6
TORSDOF 2
ENDMDL
MODEL 7
REMARK VINA RESULT:    -2.811      2.850      2.913
REMARK INTER + INTRA:          -3.058
REMARK INTER:                  -3.058
REMARK INTRA:                   0.000
REMARK UNBOUND:                 0.000
REMARK SMILES [NH3+]CC(=O)[O-]
REMARK SMILES IDX 2 1 1 2 3 6 4 7 5 8
REMARK H PARENT 1 3 1 4 1 5
REMARK Flexibility Score: inf
ROOT
ATOM      1  C   UNL     1      20.465  -4.229  14.192  1.00  0.00     0.312 C 
ENDROOT
BRANCH   1   2
ATOM      2  N   UNL     1      20.189  -5.664  14.152  1.00  0.00    -0.353 N 
ATOM      3  H   UNL     1      19.984  -6.017  15.115  1.00  0.00     0.344 HD
ATOM      4  H   UNL     1      19.355  -5.834  13.544  1.00  0.00     0.344 HD
ATOM      5  H   UNL     1      21.009  -6.176  13.754  1.00  0.00     0.344 HD
ENDBRANCH   1   2
BRANCH   1   6
ATOM      6  C   UNL     1      19.571  -3.546  15.181  1.00  0.00     0.096 C 
ATOM      7  O   UNL     1      20.036  -2.663  15.949  1.00  0.00    -0.544 OA
ATOM      8  O   UNL     1      18.238  -3.920  15.288  1.00  0.00    -0.544 OA
ENDBRANCH   1   6
TORSDOF 2
ENDMDL
MODEL 8
REMARK VINA RESULT:    -2.799      2.120      2.385
REMARK INTER + INTRA:          -3.045
REMARK INTER:                  -3.045
REMARK INTRA:                   0.000
REMARK UNBOUND:                 0.000
REMARK SMILES [NH3+]CC(=O)[O-]
REMARK SMILES IDX 2 1 1 2 3 6 4 7 5 8
REMARK H PARENT 1 3 1 4 1 5
REMARK Flexibility Score: inf
ROOT
ATOM      1  C   UNL     1      18.903  -3.993  17.003  1.00  0.00     0.312 C 
ENDROOT
BRANCH   1   2
ATOM      2  N   UNL     1      19.341  -5.294  17.505  1.00  0.00    -0.353 N 
ATOM      3  H   UNL     1      19.039  -6.052  16.851  1.00  0.00     0.344 HD
ATOM      4  H   UNL     1      20.385  -5.301  17.572  1.00  0.00     0.344 HD
ATOM      5  H   UNL     1      18.940  -5.465  18.456  1.00  0.00     0.344 HD
ENDBRANCH   1   2
BRANCH   1   6
ATOM      6  C   UNL     1      19.766  -3.550  15.862  1.00  0.00     0.096 C 
ATOM      7  O   UNL     1      19.493  -3.910  14.687  1.00  0.00    -0.544 OA
ATOM      8  O   UNL     1      20.897  -2.781  16.102  1.00  0.00    -0.544 OA
ENDBRANCH   1   6
TORSDOF 2
ENDMDL
MODEL 9
REMARK VINA RESULT:    -2.780      1.970      2.058
REMARK INTER + INTRA:          -3.023
REMARK INTER:                  -3.023
REMARK INTRA:                   0.000
REMARK UNBOUND:                 0.000
REMARK SMILES [NH3+]CC(=O)[O-]
REMARK SMILES IDX 2 1 1 2 3 6 4 7 5 8
REMARK H PARENT 1 3 1 4 1 5
REMARK Flexibility Score: inf
ROOT
ATOM      1  C   UNL     1      21.326  -5.509  16.855  1.00  0.00     0.312 C 
ENDROOT
BRANCH   1   2
ATOM      2  N   UNL     1      22.044  -6.763  17.068  1.00  0.00    -0.353 N 
ATOM      3  H   UNL     1      21.568  -7.541  16.557  1.00  0.00     0.344 HD
ATOM      4  H   UNL     1      23.020  -6.665  16.704  1.00  0.00     0.344 HD
ATOM      5  H   UNL     1      22.086  -6.984  18.090  1.00  0.00     0.344 HD
ENDBRANCH   1   2
BRANCH   1   6
ATOM      6  C   UNL     1      19.864  -5.684  17.127  1.00  0.00     0.096 C 
ATOM      7  O   UNL     1      19.359  -6.837  17.149  1.00  0.00    -0.544 OA
ATOM      8  O   UNL     1      19.051  -4.572  17.306  1.00  0.00    -0.544 OA
ENDBRANCH   1   6
TORSDOF 2
ENDMDL
