MODEL 1
REMARK VINA RESULT:    -4.523      0.000      0.000
REMARK INTER + INTRA:          -7.583
REMARK INTER:                  -6.903
REMARK INTRA:                  -0.680
REMARK UNBOUND:                -0.680
REMARK SMILES CCCCCCCCCCC(=O)[O-]
REMARK SMILES IDX 7 1 8 2 9 3 10 4 11 5 12 6 13 7 6 8 5 9 4 10 3 11 2 12 1 13
REMARK H PARENT
REMARK Flexibility Score: inf
ROOT
ATOM      1  C   UNL     1     128.017 142.004 141.570  1.00  0.00     0.000 C 
ENDROOT
BRANCH   1   2
ATOM      2  C   UNL     1     127.888 143.143 140.547  1.00  0.00     0.000 C 
BRANCH   2   3
ATOM      3  C   UNL     1     126.424 143.449 140.179  1.00  0.00     0.006 C 
BRANCH   3   4
ATOM      4  C   UNL     1     126.134 144.935 139.914  1.00  0.00     0.053 C 
BRANCH   4   5
ATOM      5  C   UNL     1     125.948 145.221 138.456  1.00  0.00     0.041 C 
ATOM      6  O   UNL     1     125.750 146.401 138.062  1.00  0.00    -0.550 OA
ATOM      7  O   UNL     1     125.958 144.181 137.535  1.00  0.00    -0.550 OA
ENDBRANCH   4   5
ENDBRANCH   3   4
ENDBRANCH   2   3
ENDBRANCH   1   2
BRANCH   1   8
ATOM      8  C   UNL     1     129.466 141.866 142.057  1.00  0.00     0.000 C 
BRANCH   8   9
ATOM      9  C   UNL     1     130.217 140.705 141.383  1.00  0.00    -0.000 C 
BRANCH   9  10
ATOM     10  C   UNL     1     131.470 141.151 140.601  1.00  0.00    -0.000 C 
BRANCH  10  11
ATOM     11  C   UNL     1     131.147 141.494 139.136  1.00  0.00    -0.000 C 
BRANCH  11  12
ATOM     12  C   UNL     1     130.130 140.526 138.512  1.00  0.00    -0.003 C 
ATOM     13  C   UNL     1     130.782 139.499 137.588  1.00  0.00     0.004 C 
ENDBRANCH  11  12
ENDBRANCH  10  11
ENDBRANCH   9  10
ENDBRANCH   8   9
ENDBRANCH   1   8
TORSDOF 9
ENDMDL
MODEL 2
REMARK VINA RESULT:    -4.252      9.998     12.410
REMARK INTER + INTRA:          -7.169
REMARK INTER:                  -5.921
REMARK INTRA:                  -1.248
REMARK UNBOUND:                -0.680
REMARK SMILES CCCCCCCCCCC(=O)[O-]
REMARK SMILES IDX 7 1 8 2 9 3 10 4 11 5 12 6 13 7 6 8 5 9 4 10 3 11 2 12 1 13
REMARK H PARENT
REMARK Flexibility Score: inf
ROOT
ATOM      1  C   UNL     1     138.763 136.489 141.756  1.00  0.00     0.000 C 
ENDROOT
BRANCH   1   2
ATOM      2  C   UNL     1     138.531 137.185 140.406  1.00  0.00     0.000 C 
BRANCH   2   3
ATOM      3  C   UNL     1     137.558 136.411 139.497  1.00  0.00     0.006 C 
BRANCH   3   4
ATOM      4  C   UNL     1     136.577 135.499 140.250  1.00  0.00     0.053 C 
BRANCH   4   5
ATOM      5  C   UNL     1     135.152 135.791 139.896  1.00  0.00     0.041 C 
ATOM      6  O   UNL     1     134.299 134.864 139.884  1.00  0.00    -0.550 OA
ATOM      7  O   UNL     1     134.770 137.080 139.546  1.00  0.00    -0.550 OA
ENDBRANCH   4   5
ENDBRANCH   3   4
ENDBRANCH   2   3
ENDBRANCH   1   2
BRANCH   1   8
ATOM      8  C   UNL     1     140.236 136.089 141.920  1.00  0.00     0.000 C 
BRANCH   8   9
ATOM      9  C   UNL     1     140.621 134.862 141.076  1.00  0.00    -0.000 C 
BRANCH   9  10
ATOM     10  C   UNL     1     139.645 133.677 141.226  1.00  0.00    -0.000 C 
BRANCH  10  11
ATOM     11  C   UNL     1     139.346 132.997 139.878  1.00  0.00    -0.000 C 
BRANCH  11  12
ATOM     12  C   UNL     1     140.313 133.437 138.767  1.00  0.00    -0.003 C 
ATOM     13  C   UNL     1     139.590 133.901 137.504  1.00  0.00     0.004 C 
ENDBRANCH  11  12
ENDBRANCH  10  11
ENDBRANCH   9  10
ENDBRANCH   8   9
ENDBRANCH   1   8
TORSDOF 9
ENDMDL
MODEL 3
REMARK VINA RESULT:    -4.236      1.521      1.955
REMARK INTER + INTRA:          -7.144
REMARK INTER:                  -6.155
REMARK INTRA:                  -0.989
REMARK UNBOUND:                -0.680
REMARK SMILES CCCCCCCCCCC(=O)[O-]
REMARK SMILES IDX 7 1 8 2 9 3 10 4 11 5 12 6 13 7 6 8 5 9 4 10 3 11 2 12 1 13
REMARK H PARENT
REMARK Flexibility Score: inf
ROOT
ATOM      1  C   UNL     1     128.623 142.698 141.106  1.00  0.00     0.000 C 
ENDROOT
BRANCH   1   2
ATOM      2  C   UNL     1     127.362 142.773 140.231  1.00  0.00     0.000 C 
BRANCH   2   3
ATOM      3  C   UNL     1     127.686 142.838 138.727  1.00  0.00     0.006 C 
BRANCH   3   4
ATOM      4  C   UNL     1     126.609 142.223 137.819  1.00  0.00     0.053 C 
BRANCH   4   5
ATOM      5  C   UNL     1     126.035 143.227 136.868  1.00  0.00     0.041 C 
ATOM      6  O   UNL     1     125.803 142.905 135.672  1.00  0.00    -0.550 OA
ATOM      7  O   UNL     1     125.787 144.527 137.290  1.00  0.00    -0.550 OA
ENDBRANCH   4   5
ENDBRANCH   3   4
ENDBRANCH   2   3
ENDBRANCH   1   2
BRANCH   1   8
ATOM      8  C   UNL     1     129.215 141.282 141.096  1.00  0.00     0.000 C 
BRANCH   8   9
ATOM      9  C   UNL     1     130.750 141.274 141.190  1.00  0.00    -0.000 C 
BRANCH   9  10
ATOM     10  C   UNL     1     131.433 140.476 140.060  1.00  0.00    -0.000 C 
BRANCH  10  11
ATOM     11  C   UNL     1     130.980 140.942 138.665  1.00  0.00    -0.000 C 
BRANCH  11  12
ATOM     12  C   UNL     1     130.625 139.770 137.737  1.00  0.00    -0.003 C 
ATOM     13  C   UNL     1     129.170 139.325 137.879  1.00  0.00     0.004 C 
ENDBRANCH  11  12
ENDBRANCH  10  11
ENDBRANCH   9  10
ENDBRANCH   8   9
ENDBRANCH   1   8
TORSDOF 9
ENDMDL
MODEL 4
REMARK VINA RESULT:    -4.221      0.929      1.604
REMARK INTER + INTRA:          -7.122
REMARK INTER:                  -6.157
REMARK INTRA:                  -0.965
REMARK UNBOUND:                -0.680
REMARK SMILES CCCCCCCCCCC(=O)[O-]
REMARK SMILES IDX 7 1 8 2 9 3 10 4 11 5 12 6 13 7 6 8 5 9 4 10 3 11 2 12 1 13
REMARK H PARENT
REMARK Flexibility Score: inf
ROOT
ATOM      1  C   UNL     1     129.495 142.267 141.730  1.00  0.00     0.000 C 
ENDROOT
BRANCH   1   2
ATOM      2  C   UNL     1     128.145 141.876 141.111  1.00  0.00     0.000 C 
BRANCH   2   3
ATOM      3  C   UNL     1     127.785 142.727 139.879  1.00  0.00     0.006 C 
BRANCH   3   4
ATOM      4  C   UNL     1     126.486 143.535 140.024  1.00  0.00     0.053 C 
BRANCH   4   5
ATOM      5  C   UNL     1     126.142 144.277 138.771  1.00  0.00     0.041 C 
ATOM      6  O   UNL     1     126.100 143.671 137.667  1.00  0.00    -0.550 OA
ATOM      7  O   UNL     1     125.901 145.645 138.814  1.00  0.00    -0.550 OA
ENDBRANCH   4   5
ENDBRANCH   3   4
ENDBRANCH   2   3
ENDBRANCH   1   2
BRANCH   1   8
ATOM      8  C   UNL     1     130.464 141.077 141.729  1.00  0.00     0.000 C 
BRANCH   8   9
ATOM      9  C   UNL     1     131.699 141.309 140.842  1.00  0.00    -0.000 C 
BRANCH   9  10
ATOM     10  C   UNL     1     131.731 140.419 139.582  1.00  0.00    -0.000 C 
BRANCH  10  11
ATOM     11  C   UNL     1     130.735 140.894 138.509  1.00  0.00    -0.000 C 
BRANCH  11  12
ATOM     12  C   UNL     1     129.763 139.788 138.074  1.00  0.00    -0.003 C 
ATOM     13  C   UNL     1     129.715 138.621 139.060  1.00  0.00     0.004 C 
ENDBRANCH  11  12
ENDBRANCH  10  11
ENDBRANCH   9  10
ENDBRANCH   8   9
ENDBRANCH   1   8
TORSDOF 9
ENDMDL
MODEL 5
REMARK VINA RESULT:    -4.215      2.811      5.060
REMARK INTER + INTRA:          -7.112
REMARK INTER:                  -6.188
REMARK INTRA:                  -0.923
REMARK UNBOUND:                -0.680
REMARK SMILES CCCCCCCCCCC(=O)[O-]
REMARK SMILES IDX 7 1 8 2 9 3 10 4 11 5 12 6 13 7 6 8 5 9 4 10 3 11 2 12 1 13
REMARK H PARENT
REMARK Flexibility Score: inf
ROOT
ATOM      1  C   UNL     1     128.643 141.768 142.038  1.00  0.00     0.000 C 
ENDROOT
BRANCH   1   2
ATOM      2  C   UNL     1     129.851 142.394 141.325  1.00  0.00     0.000 C 
BRANCH   2   3
ATOM      3  C   UNL     1     130.691 141.357 140.556  1.00  0.00     0.006 C 
BRANCH   3   4
ATOM      4  C   UNL     1     130.573 141.453 139.027  1.00  0.00     0.053 C 
BRANCH   4   5
ATOM      5  C   UNL     1     129.982 140.214 138.429  1.00  0.00     0.041 C 
ATOM      6  O   UNL     1     130.568 139.626 137.481  1.00  0.00    -0.550 OA
ATOM      7  O   UNL     1     128.768 139.726 138.895  1.00  0.00    -0.550 OA
ENDBRANCH   4   5
ENDBRANCH   3   4
ENDBRANCH   2   3
ENDBRANCH   1   2
BRANCH   1   8
ATOM      8  C   UNL     1     127.347 142.036 141.260  1.00  0.00     0.000 C 
BRANCH   8   9
ATOM      9  C   UNL     1     127.300 143.442 140.640  1.00  0.00    -0.000 C 
BRANCH   9  10
ATOM     10  C   UNL     1     126.485 143.514 139.332  1.00  0.00    -0.000 C 
BRANCH  10  11
ATOM     11  C   UNL     1     127.138 142.707 138.196  1.00  0.00    -0.000 C 
BRANCH  11  12
ATOM     12  C   UNL     1     126.105 142.025 137.285  1.00  0.00    -0.003 C 
ATOM     13  C   UNL     1     125.731 142.880 136.075  1.00  0.00     0.004 C 
ENDBRANCH  11  12
ENDBRANCH  10  11
ENDBRANCH   9  10
ENDBRANCH   8   9
ENDBRANCH   1   8
TORSDOF 9
ENDMDL
MODEL 6
REMARK VINA RESULT:    -4.183      3.677      6.197
REMARK INTER + INTRA:          -7.063
REMARK INTER:                  -6.379
REMARK INTRA:                  -0.684
REMARK UNBOUND:                -0.680
REMARK SMILES CCCCCCCCCCC(=O)[O-]
REMARK SMILES IDX 7 1 8 2 9 3 10 4 11 5 12 6 13 7 6 8 5 9 4 10 3 11 2 12 1 13
REMARK H PARENT
REMARK Flexibility Score: inf
ROOT
ATOM      1  C   UNL     1     131.483 141.304 140.547  1.00  0.00     0.000 C 
ENDROOT
BRANCH   1   2
ATOM      2  C   UNL     1     131.386 141.297 139.014  1.00  0.00     0.000 C 
BRANCH   2   3
ATOM      3  C   UNL     1     130.243 140.404 138.495  1.00  0.00     0.006 C 
BRANCH   3   4
ATOM      4  C   UNL     1     130.660 139.417 137.394  1.00  0.00     0.053 C 
BRANCH   4   5
ATOM      5  C   UNL     1     131.354 138.213 137.951  1.00  0.00     0.041 C 
ATOM      6  O   UNL     1     131.084 137.807 139.113  1.00  0.00    -0.550 OA
ATOM      7  O   UNL     1     132.324 137.557 137.203  1.00  0.00    -0.550 OA
ENDBRANCH   4   5
ENDBRANCH   3   4
ENDBRANCH   2   3
ENDBRANCH   1   2
BRANCH   1   8
ATOM      8  C   UNL     1     130.119 141.003 141.184  1.00  0.00     0.000 C 
BRANCH   8   9
ATOM      9  C   UNL     1     129.387 142.269 141.660  1.00  0.00    -0.000 C 
BRANCH   9  10
ATOM     10  C   UNL     1     127.889 142.292 141.292  1.00  0.00    -0.000 C 
BRANCH  10  11
ATOM     11  C   UNL     1     127.633 142.992 139.945  1.00  0.00    -0.000 C 
BRANCH  11  12
ATOM     12  C   UNL     1     126.193 143.510 139.812  1.00  0.00    -0.003 C 
ATOM     13  C   UNL     1     126.126 145.018 139.579  1.00  0.00     0.004 C 
ENDBRANCH  11  12
ENDBRANCH  10  11
ENDBRANCH   9  10
ENDBRANCH   8   9
ENDBRANCH   1   8
TORSDOF 9
ENDMDL
MODEL 7
REMARK VINA RESULT:    -4.180      3.239      6.115
REMARK INTER + INTRA:          -7.059
REMARK INTER:                  -6.516
REMARK INTRA:                  -0.542
REMARK UNBOUND:                -0.680
REMARK SMILES CCCCCCCCCCC(=O)[O-]
REMARK SMILES IDX 7 1 8 2 9 3 10 4 11 5 12 6 13 7 6 8 5 9 4 10 3 11 2 12 1 13
REMARK H PARENT
REMARK Flexibility Score: inf
ROOT
ATOM      1  C   UNL     1     129.343 141.101 140.856  1.00  0.00     0.000 C 
ENDROOT
BRANCH   1   2
ATOM      2  C   UNL     1     130.739 141.677 141.134  1.00  0.00     0.000 C 
BRANCH   2   3
ATOM      3  C   UNL     1     131.815 141.112 140.187  1.00  0.00     0.006 C 
BRANCH   3   4
ATOM      4  C   UNL     1     131.343 140.913 138.739  1.00  0.00     0.053 C 
BRANCH   4   5
ATOM      5  C   UNL     1     131.329 139.468 138.345  1.00  0.00     0.041 C 
ATOM      6  O   UNL     1     131.973 138.621 139.020  1.00  0.00    -0.550 OA
ATOM      7  O   UNL     1     130.635 139.060 137.213  1.00  0.00    -0.550 OA
ENDBRANCH   4   5
ENDBRANCH   3   4
ENDBRANCH   2   3
ENDBRANCH   1   2
BRANCH   1   8
ATOM      8  C   UNL     1     128.357 142.214 140.474  1.00  0.00     0.000 C 
BRANCH   8   9
ATOM      9  C   UNL     1     127.940 142.164 138.995  1.00  0.00    -0.000 C 
BRANCH   9  10
ATOM     10  C   UNL     1     126.781 143.122 138.647  1.00  0.00    -0.000 C 
BRANCH  10  11
ATOM     11  C   UNL     1     126.061 143.642 139.904  1.00  0.00    -0.000 C 
BRANCH  11  12
ATOM     12  C   UNL     1     125.944 145.174 139.926  1.00  0.00    -0.003 C 
ATOM     13  C   UNL     1     125.928 145.786 138.526  1.00  0.00     0.004 C 
ENDBRANCH  11  12
ENDBRANCH  10  11
ENDBRANCH   9  10
ENDBRANCH   8   9
ENDBRANCH   1   8
TORSDOF 9
ENDMDL
MODEL 8
REMARK VINA RESULT:    -4.173      9.329     11.615
REMARK INTER + INTRA:          -7.049
REMARK INTER:                  -6.021
REMARK INTRA:                  -1.027
REMARK UNBOUND:                -0.680
REMARK SMILES CCCCCCCCCCC(=O)[O-]
REMARK SMILES IDX 7 1 8 2 9 3 10 4 11 5 12 6 13 7 6 8 5 9 4 10 3 11 2 12 1 13
REMARK H PARENT
REMARK Flexibility Score: inf
ROOT
ATOM      1  C   UNL     1     138.120 136.721 139.196  1.00  0.00     0.000 C 
ENDROOT
BRANCH   1   2
ATOM      2  C   UNL     1     137.723 136.367 140.637  1.00  0.00     0.000 C 
BRANCH   2   3
ATOM      3  C   UNL     1     136.630 137.296 141.199  1.00  0.00     0.006 C 
BRANCH   3   4
ATOM      4  C   UNL     1     136.978 138.792 141.138  1.00  0.00     0.053 C 
BRANCH   4   5
ATOM      5  C   UNL     1     135.911 139.590 140.455  1.00  0.00     0.041 C 
ATOM      6  O   UNL     1     135.379 140.569 141.043  1.00  0.00    -0.550 OA
ATOM      7  O   UNL     1     135.479 139.233 139.184  1.00  0.00    -0.550 OA
ENDBRANCH   4   5
ENDBRANCH   3   4
ENDBRANCH   2   3
ENDBRANCH   1   2
BRANCH   1   8
ATOM      8  C   UNL     1     139.624 136.505 138.973  1.00  0.00     0.000 C 
BRANCH   8   9
ATOM      9  C   UNL     1     140.358 136.047 140.244  1.00  0.00    -0.000 C 
BRANCH   9  10
ATOM     10  C   UNL     1     141.091 134.699 140.082  1.00  0.00    -0.000 C 
BRANCH  10  11
ATOM     11  C   UNL     1     140.410 133.790 139.042  1.00  0.00    -0.000 C 
BRANCH  11  12
ATOM     12  C   UNL     1     139.330 132.890 139.661  1.00  0.00    -0.003 C 
ATOM     13  C   UNL     1     137.985 133.001 138.945  1.00  0.00     0.004 C 
ENDBRANCH  11  12
ENDBRANCH  10  11
ENDBRANCH   9  10
ENDBRANCH   8   9
ENDBRANCH   1   8
TORSDOF 9
ENDMDL
MODEL 9
REMARK VINA RESULT:    -4.148      9.181     11.242
REMARK INTER + INTRA:          -7.010
REMARK INTER:                  -6.503
REMARK INTRA:                  -0.507
REMARK UNBOUND:                -0.680
REMARK SMILES CCCCCCCCCCC(=O)[O-]
REMARK SMILES IDX 7 1 8 2 9 3 10 4 11 5 12 6 13 7 6 8 5 9 4 10 3 11 2 12 1 13
REMARK H PARENT
REMARK Flexibility Score: inf
ROOT
ATOM      1  C   UNL     1     137.718 137.343 139.748  1.00  0.00     0.000 C 
ENDROOT
BRANCH   1   2
ATOM      2  C   UNL     1     137.342 138.062 141.053  1.00  0.00     0.000 C 
BRANCH   2   3
ATOM      3  C   UNL     1     136.284 139.162 140.843  1.00  0.00     0.006 C 
BRANCH   3   4
ATOM      4  C   UNL     1     135.991 140.006 142.093  1.00  0.00     0.053 C 
BRANCH   4   5
ATOM      5  C   UNL     1     136.211 141.467 141.849  1.00  0.00     0.041 C 
ATOM      6  O   UNL     1     135.250 142.276 141.939  1.00  0.00    -0.550 OA
ATOM      7  O   UNL     1     137.470 141.932 141.489  1.00  0.00    -0.550 OA
ENDBRANCH   4   5
ENDBRANCH   3   4
ENDBRANCH   2   3
ENDBRANCH   1   2
BRANCH   1   8
ATOM      8  C   UNL     1     139.135 136.760 139.832  1.00  0.00     0.000 C 
BRANCH   8   9
ATOM      9  C   UNL     1     139.413 136.051 141.169  1.00  0.00    -0.000 C 
BRANCH   9  10
ATOM     10  C   UNL     1     140.025 134.644 141.006  1.00  0.00    -0.000 C 
BRANCH  10  11
ATOM     11  C   UNL     1     140.859 134.520 139.718  1.00  0.00    -0.000 C 
BRANCH  11  12
ATOM     12  C   UNL     1     140.433 133.324 138.852  1.00  0.00    -0.003 C 
ATOM     13  C   UNL     1     139.658 133.745 137.604  1.00  0.00     0.004 C 
ENDBRANCH  11  12
ENDBRANCH  10  11
ENDBRANCH   9  10
ENDBRANCH   8   9
ENDBRANCH   1   8
TORSDOF 9
ENDMDL
