MODEL 1
REMARK VINA RESULT:    -5.425      0.000      0.000
REMARK INTER + INTRA:          -6.134
REMARK INTER:                  -5.901
REMARK INTRA:                  -0.233
REMARK UNBOUND:                -0.233
REMARK SMILES CC1(C)CC[C@@]2(C(=O)[O-])CC[C@]3(C)C(=CC[C@@H]4[C@@]5(C)CC[C@H](O)C(C)(C)[C@H]5CC[C@]43C)[C@H]2C1
REMARK SMILES IDX 6 1 5 2 10 3 32 4 4 5 11 6 14 7 33 8 2 9 12 10 15 11 1 12
REMARK SMILES IDX 3 13 13 14 30 15 16 16 17 17 29 18 31 19 18 20 28 21 27 22
REMARK SMILES IDX 20 23 19 24 24 25 21 26 22 27 25 28 26 29 7 30 8 31 9 32
REMARK SMILES IDX 23 33
REMARK H PARENT 23 34
REMARK Flexibility Score: inf
ROOT
ATOM      1  C   UNL     1      -3.252  18.823  61.430  1.00  0.00     0.017 C 
ATOM      2  C   UNL     1      -4.424  18.830  62.496  1.00  0.00     0.014 C 
ATOM      3  C   UNL     1      -1.912  18.492  62.145  1.00  0.00     0.014 C 
ATOM      4  C   UNL     1      -3.518  17.801  60.257  1.00  0.00     0.028 C 
ATOM      5  C   UNL     1      -5.483  17.747  62.269  1.00  0.00     0.007 C 
ATOM      6  C   UNL     1      -1.844  17.033  62.600  1.00  0.00     0.013 C 
ATOM      7  C   UNL     1      -3.137  16.320  60.558  1.00  0.00    -0.064 C 
ATOM      8  C   UNL     1      -4.978  18.014  59.750  1.00  0.00     0.015 C 
ATOM      9  C   UNL     1      -6.082  17.783  60.837  1.00  0.00    -0.035 C 
ATOM     10  C   UNL     1      -1.899  16.014  61.421  1.00  0.00    -0.006 C 
ATOM     11  C   UNL     1      -3.603  15.333  59.748  1.00  0.00    -0.027 C 
ATOM     12  C   UNL     1      -6.810  16.443  60.568  1.00  0.00     0.011 C 
ATOM     13  C   UNL     1      -7.123  18.920  60.746  1.00  0.00     0.011 C 
ATOM     14  C   UNL     1      -0.650  16.292  60.503  1.00  0.00     0.017 C 
ATOM     15  C   UNL     1      -1.925  14.495  61.988  1.00  0.00    -0.020 C 
ATOM     16  C   UNL     1      -3.457  13.861  60.036  1.00  0.00     0.032 C 
ATOM     17  C   UNL     1      -2.170  13.481  60.809  1.00  0.00     0.006 C 
ATOM     18  C   UNL     1      -0.579  14.147  62.711  1.00  0.00     0.008 C 
ATOM     19  C   UNL     1      -3.092  14.343  63.023  1.00  0.00     0.012 C 
ATOM     20  C   UNL     1      -2.028  11.904  61.131  1.00  0.00    -0.025 C 
ATOM     21  C   UNL     1      -0.059  12.710  62.544  1.00  0.00     0.005 C 
ATOM     22  C   UNL     1      -1.174  11.635  62.449  1.00  0.00     0.003 C 
ATOM     23  C   UNL     1      -1.295  11.256  59.913  1.00  0.00     0.010 C 
ATOM     24  C   UNL     1      -3.433  11.231  61.256  1.00  0.00     0.012 C 
ATOM     25  C   UNL     1      -0.626  10.139  62.634  1.00  0.00    -0.006 C 
ATOM     26  C   UNL     1      -0.893   9.792  60.096  1.00  0.00     0.033 C 
ATOM     27  C   UNL     1       0.012   9.613  61.313  1.00  0.00     0.120 C 
ATOM     28  C   UNL     1       0.470  10.077  63.739  1.00  0.00     0.014 C 
ATOM     29  C   UNL     1      -1.761   9.179  63.126  1.00  0.00     0.014 C 
ENDROOT
BRANCH   1  30
ATOM     30  C   UNL     1      -3.086  20.220  60.816  1.00  0.00     0.048 C 
ATOM     31  O   UNL     1      -2.064  20.480  60.129  1.00  0.00    -0.550 OA
ATOM     32  O   UNL     1      -4.073  21.192  60.915  1.00  0.00    -0.550 OA
ENDBRANCH   1  30
BRANCH  27  33
ATOM     33  O   UNL     1       0.335   8.244  61.428  1.00  0.00    -0.393 OA
ATOM     34  H   UNL     1       0.847   7.983  60.621  1.00  0.00     0.210 HD
ENDBRANCH  27  33
TORSDOF 2
ENDMDL
MODEL 2
REMARK VINA RESULT:    -5.208     12.855     14.761
REMARK INTER + INTRA:          -5.898
REMARK INTER:                  -5.777
REMARK INTRA:                  -0.121
REMARK UNBOUND:                -0.233
REMARK SMILES CC1(C)CC[C@@]2(C(=O)[O-])CC[C@]3(C)C(=CC[C@@H]4[C@@]5(C)CC[C@H](O)C(C)(C)[C@H]5CC[C@]43C)[C@H]2C1
REMARK SMILES IDX 6 1 5 2 10 3 32 4 4 5 11 6 14 7 33 8 2 9 12 10 15 11 1 12
REMARK SMILES IDX 3 13 13 14 30 15 16 16 17 17 29 18 31 19 18 20 28 21 27 22
REMARK SMILES IDX 20 23 19 24 24 25 21 26 22 27 25 28 26 29 7 30 8 31 9 32
REMARK SMILES IDX 23 33
REMARK H PARENT 23 34
REMARK Flexibility Score: inf
ROOT
ATOM      1  C   UNL     1      -2.173  14.662  74.710  1.00  0.00     0.017 C 
ATOM      2  C   UNL     1      -2.191  15.695  73.509  1.00  0.00     0.014 C 
ATOM      3  C   UNL     1      -1.894  13.237  74.154  1.00  0.00     0.014 C 
ATOM      4  C   UNL     1      -1.107  15.043  75.810  1.00  0.00     0.028 C 
ATOM      5  C   UNL     1      -1.078  16.747  73.572  1.00  0.00     0.007 C 
ATOM      6  C   UNL     1      -0.453  13.077  73.667  1.00  0.00     0.013 C 
ATOM      7  C   UNL     1       0.354  14.590  75.514  1.00  0.00    -0.064 C 
ATOM      8  C   UNL     1      -1.273  16.558  76.141  1.00  0.00     0.015 C 
ATOM      9  C   UNL     1      -1.054  17.516  74.921  1.00  0.00    -0.035 C 
ATOM     10  C   UNL     1       0.606  13.249  74.799  1.00  0.00    -0.006 C 
ATOM     11  C   UNL     1       1.378  15.126  76.231  1.00  0.00    -0.027 C 
ATOM     12  C   UNL     1       0.310  18.237  75.058  1.00  0.00     0.011 C 
ATOM     13  C   UNL     1      -2.165  18.589  74.918  1.00  0.00     0.011 C 
ATOM     14  C   UNL     1       0.331  12.129  75.872  1.00  0.00     0.017 C 
ATOM     15  C   UNL     1       2.105  13.168  74.188  1.00  0.00    -0.020 C 
ATOM     16  C   UNL     1       2.836  14.909  75.918  1.00  0.00     0.032 C 
ATOM     17  C   UNL     1       3.162  13.529  75.297  1.00  0.00     0.006 C 
ATOM     18  C   UNL     1       2.400  11.736  73.625  1.00  0.00     0.008 C 
ATOM     19  C   UNL     1       2.248  14.197  73.014  1.00  0.00     0.012 C 
ATOM     20  C   UNL     1       4.724  13.310  74.947  1.00  0.00    -0.025 C 
ATOM     21  C   UNL     1       3.831  11.204  73.810  1.00  0.00     0.005 C 
ATOM     22  C   UNL     1       4.931  12.295  73.737  1.00  0.00     0.003 C 
ATOM     23  C   UNL     1       5.396  12.714  76.225  1.00  0.00     0.010 C 
ATOM     24  C   UNL     1       5.422  14.671  74.631  1.00  0.00     0.012 C 
ATOM     25  C   UNL     1       6.408  11.691  73.574  1.00  0.00    -0.006 C 
ATOM     26  C   UNL     1       6.845  12.256  76.049  1.00  0.00     0.033 C 
ATOM     27  C   UNL     1       6.965  11.205  74.947  1.00  0.00     0.120 C 
ATOM     28  C   UNL     1       6.411  10.467  72.611  1.00  0.00     0.014 C 
ATOM     29  C   UNL     1       7.375  12.733  72.918  1.00  0.00     0.014 C 
ENDROOT
BRANCH   1  30
ATOM     30  C   UNL     1      -3.552  14.607  75.381  1.00  0.00     0.048 C 
ATOM     31  O   UNL     1      -3.956  13.526  75.887  1.00  0.00    -0.550 OA
ATOM     32  O   UNL     1      -4.345  15.737  75.534  1.00  0.00    -0.550 OA
ENDBRANCH   1  30
BRANCH  27  33
ATOM     33  O   UNL     1       8.321  10.836  74.831  1.00  0.00    -0.393 OA
ATOM     34  H   UNL     1       8.817  11.259  75.577  1.00  0.00     0.210 HD
ENDBRANCH  27  33
TORSDOF 2
ENDMDL
MODEL 3
REMARK VINA RESULT:    -5.193      2.112      9.280
REMARK INTER + INTRA:          -5.881
REMARK INTER:                  -6.150
REMARK INTRA:                   0.269
REMARK UNBOUND:                -0.233
REMARK SMILES CC1(C)CC[C@@]2(C(=O)[O-])CC[C@]3(C)C(=CC[C@@H]4[C@@]5(C)CC[C@H](O)C(C)(C)[C@H]5CC[C@]43C)[C@H]2C1
REMARK SMILES IDX 6 1 5 2 10 3 32 4 4 5 11 6 14 7 33 8 2 9 12 10 15 11 1 12
REMARK SMILES IDX 3 13 13 14 30 15 16 16 17 17 29 18 31 19 18 20 28 21 27 22
REMARK SMILES IDX 20 23 19 24 24 25 21 26 22 27 25 28 26 29 7 30 8 31 9 32
REMARK SMILES IDX 23 33
REMARK H PARENT 23 34
REMARK Flexibility Score: inf
ROOT
ATOM      1  C   UNL     1      -0.920   6.952  62.693  1.00  0.00     0.017 C 
ATOM      2  C   UNL     1      -1.913   6.740  63.909  1.00  0.00     0.014 C 
ATOM      3  C   UNL     1      -1.743   7.272  61.412  1.00  0.00     0.014 C 
ATOM      4  C   UNL     1       0.131   8.097  62.972  1.00  0.00     0.028 C 
ATOM      5  C   UNL     1      -1.764   7.777  65.027  1.00  0.00     0.007 C 
ATOM      6  C   UNL     1      -2.377   8.663  61.462  1.00  0.00     0.013 C 
ATOM      7  C   UNL     1      -0.370   9.548  62.705  1.00  0.00    -0.064 C 
ATOM      8  C   UNL     1       0.738   7.861  64.390  1.00  0.00     0.015 C 
ATOM      9  C   UNL     1      -0.308   7.885  65.555  1.00  0.00    -0.035 C 
ATOM     10  C   UNL     1      -1.330   9.818  61.532  1.00  0.00    -0.006 C 
ATOM     11  C   UNL     1       0.336  10.599  63.199  1.00  0.00    -0.027 C 
ATOM     12  C   UNL     1      -0.167   9.202  66.359  1.00  0.00     0.011 C 
ATOM     13  C   UNL     1      -0.022   6.707  66.513  1.00  0.00     0.011 C 
ATOM     14  C   UNL     1      -0.454   9.733  60.226  1.00  0.00     0.017 C 
ATOM     15  C   UNL     1      -2.077  11.248  61.685  1.00  0.00    -0.020 C 
ATOM     16  C   UNL     1      -0.138  12.030  63.165  1.00  0.00     0.032 C 
ATOM     17  C   UNL     1      -1.020  12.386  61.943  1.00  0.00     0.006 C 
ATOM     18  C   UNL     1      -2.909  11.583  60.401  1.00  0.00     0.008 C 
ATOM     19  C   UNL     1      -3.058  11.198  62.907  1.00  0.00     0.012 C 
ATOM     20  C   UNL     1      -1.541  13.915  61.923  1.00  0.00    -0.025 C 
ATOM     21  C   UNL     1      -2.949  13.059  59.970  1.00  0.00     0.005 C 
ATOM     22  C   UNL     1      -2.926  14.068  61.149  1.00  0.00     0.003 C 
ATOM     23  C   UNL     1      -0.453  14.755  61.179  1.00  0.00     0.010 C 
ATOM     24  C   UNL     1      -1.671  14.481  63.373  1.00  0.00     0.012 C 
ATOM     25  C   UNL     1      -3.323  15.559  60.712  1.00  0.00    -0.006 C 
ATOM     26  C   UNL     1      -0.836  16.206  60.885  1.00  0.00     0.033 C 
ATOM     27  C   UNL     1      -2.113  16.285  60.050  1.00  0.00     0.120 C 
ATOM     28  C   UNL     1      -4.485  15.548  59.675  1.00  0.00     0.014 C 
ATOM     29  C   UNL     1      -3.867  16.378  61.930  1.00  0.00     0.014 C 
ENDROOT
BRANCH   1  30
ATOM     30  C   UNL     1      -0.150   5.657  62.406  1.00  0.00     0.048 C 
ATOM     31  O   UNL     1      -0.673   4.770  61.680  1.00  0.00    -0.550 OA
ATOM     32  O   UNL     1       1.152   5.459  62.845  1.00  0.00    -0.550 OA
ENDBRANCH   1  30
BRANCH  27  33
ATOM     33  O   UNL     1      -2.412  17.645  59.825  1.00  0.00    -0.393 OA
ATOM     34  H   UNL     1      -2.839  18.004  60.645  1.00  0.00     0.210 HD
ENDBRANCH  27  33
TORSDOF 2
ENDMDL
MODEL 4
REMARK VINA RESULT:    -5.133     13.494     15.645
REMARK INTER + INTRA:          -5.816
REMARK INTER:                  -5.716
REMARK INTRA:                  -0.100
REMARK UNBOUND:                -0.233
REMARK SMILES CC1(C)CC[C@@]2(C(=O)[O-])CC[C@]3(C)C(=CC[C@@H]4[C@@]5(C)CC[C@H](O)C(C)(C)[C@H]5CC[C@]43C)[C@H]2C1
REMARK SMILES IDX 6 1 5 2 10 3 32 4 4 5 11 6 14 7 33 8 2 9 12 10 15 11 1 12
REMARK SMILES IDX 3 13 13 14 30 15 16 16 17 17 29 18 31 19 18 20 28 21 27 22
REMARK SMILES IDX 20 23 19 24 24 25 21 26 22 27 25 28 26 29 7 30 8 31 9 32
REMARK SMILES IDX 23 33
REMARK H PARENT 23 34
REMARK Flexibility Score: inf
ROOT
ATOM      1  C   UNL     1       5.531  14.235  73.627  1.00  0.00     0.017 C 
ATOM      2  C   UNL     1       6.138  13.460  72.385  1.00  0.00     0.014 C 
ATOM      3  C   UNL     1       4.156  14.843  73.228  1.00  0.00     0.014 C 
ATOM      4  C   UNL     1       5.375  13.304  74.893  1.00  0.00     0.028 C 
ATOM      5  C   UNL     1       6.297  11.952  72.605  1.00  0.00     0.007 C 
ATOM      6  C   UNL     1       3.079  13.772  73.050  1.00  0.00     0.013 C 
ATOM      7  C   UNL     1       4.090  12.423  74.924  1.00  0.00    -0.064 C 
ATOM      8  C   UNL     1       6.712  12.525  75.089  1.00  0.00     0.015 C 
ATOM      9  C   UNL     1       7.115  11.614  73.881  1.00  0.00    -0.035 C 
ATOM     10  C   UNL     1       2.770  12.981  74.359  1.00  0.00    -0.006 C 
ATOM     11  C   UNL     1       4.015  11.384  75.797  1.00  0.00    -0.027 C 
ATOM     12  C   UNL     1       6.878  10.127  74.244  1.00  0.00     0.011 C 
ATOM     13  C   UNL     1       8.620  11.802  73.589  1.00  0.00     0.011 C 
ATOM     14  C   UNL     1       2.249  14.020  75.422  1.00  0.00     0.017 C 
ATOM     15  C   UNL     1       1.697  11.801  74.067  1.00  0.00    -0.020 C 
ATOM     16  C   UNL     1       2.912  10.356  75.798  1.00  0.00     0.032 C 
ATOM     17  C   UNL     1       1.533  10.892  75.342  1.00  0.00     0.006 C 
ATOM     18  C   UNL     1       0.307  12.400  73.664  1.00  0.00     0.008 C 
ATOM     19  C   UNL     1       2.209  10.910  72.885  1.00  0.00     0.012 C 
ATOM     20  C   UNL     1       0.359   9.781  75.326  1.00  0.00    -0.025 C 
ATOM     21  C   UNL     1      -0.938  11.650  74.166  1.00  0.00     0.005 C 
ATOM     22  C   UNL     1      -0.765  10.111  74.247  1.00  0.00     0.003 C 
ATOM     23  C   UNL     1      -0.288   9.786  76.748  1.00  0.00     0.010 C 
ATOM     24  C   UNL     1       0.944   8.354  75.073  1.00  0.00     0.012 C 
ATOM     25  C   UNL     1      -2.154   9.328  74.422  1.00  0.00    -0.006 C 
ATOM     26  C   UNL     1      -1.549   8.932  76.894  1.00  0.00     0.033 C 
ATOM     27  C   UNL     1      -2.630   9.365  75.906  1.00  0.00     0.120 C 
ATOM     28  C   UNL     1      -3.275   9.975  73.556  1.00  0.00     0.014 C 
ATOM     29  C   UNL     1      -2.039   7.853  73.910  1.00  0.00     0.014 C 
ENDROOT
BRANCH   1  30
ATOM     30  C   UNL     1       6.436  15.413  74.010  1.00  0.00     0.048 C 
ATOM     31  O   UNL     1       5.921  16.477  74.446  1.00  0.00    -0.550 OA
ATOM     32  O   UNL     1       7.821  15.322  73.979  1.00  0.00    -0.550 OA
ENDBRANCH   1  30
BRANCH  27  33
ATOM     33  O   UNL     1      -3.756   8.534  76.088  1.00  0.00    -0.393 OA
ATOM     34  H   UNL     1      -4.568   9.088  75.962  1.00  0.00     0.210 HD
ENDBRANCH  27  33
TORSDOF 2
ENDMDL
MODEL 5
REMARK VINA RESULT:    -5.125     13.572     17.064
REMARK INTER + INTRA:          -5.808
REMARK INTER:                  -5.580
REMARK INTRA:                  -0.228
REMARK UNBOUND:                -0.233
REMARK SMILES CC1(C)CC[C@@]2(C(=O)[O-])CC[C@]3(C)C(=CC[C@@H]4[C@@]5(C)CC[C@H](O)C(C)(C)[C@H]5CC[C@]43C)[C@H]2C1
REMARK SMILES IDX 6 1 5 2 10 3 32 4 4 5 11 6 14 7 33 8 2 9 12 10 15 11 1 12
REMARK SMILES IDX 3 13 13 14 30 15 16 16 17 17 29 18 31 19 18 20 28 21 27 22
REMARK SMILES IDX 20 23 19 24 24 25 21 26 22 27 25 28 26 29 7 30 8 31 9 32
REMARK SMILES IDX 23 33
REMARK H PARENT 23 34
REMARK Flexibility Score: inf
ROOT
ATOM      1  C   UNL     1       6.041   9.167  74.067  1.00  0.00     0.017 C 
ATOM      2  C   UNL     1       5.392   8.831  72.661  1.00  0.00     0.014 C 
ATOM      3  C   UNL     1       7.159  10.231  73.873  1.00  0.00     0.014 C 
ATOM      4  C   UNL     1       4.972   9.675  75.112  1.00  0.00     0.028 C 
ATOM      5  C   UNL     1       3.913   9.214  72.547  1.00  0.00     0.007 C 
ATOM      6  C   UNL     1       6.593  11.609  73.524  1.00  0.00     0.013 C 
ATOM      7  C   UNL     1       4.607  11.186  75.017  1.00  0.00    -0.064 C 
ATOM      8  C   UNL     1       3.756   8.699  75.073  1.00  0.00     0.015 C 
ATOM      9  C   UNL     1       3.046   8.603  73.680  1.00  0.00    -0.035 C 
ATOM     10  C   UNL     1       5.695  12.211  74.648  1.00  0.00    -0.006 C 
ATOM     11  C   UNL     1       3.495  11.645  75.652  1.00  0.00    -0.027 C 
ATOM     12  C   UNL     1       1.692   9.354  73.730  1.00  0.00     0.011 C 
ATOM     13  C   UNL     1       2.759   7.119  73.363  1.00  0.00     0.011 C 
ATOM     14  C   UNL     1       6.595  12.369  75.932  1.00  0.00     0.017 C 
ATOM     15  C   UNL     1       5.052  13.619  74.164  1.00  0.00    -0.020 C 
ATOM     16  C   UNL     1       2.938  13.036  75.487  1.00  0.00     0.032 C 
ATOM     17  C   UNL     1       4.004  14.128  75.222  1.00  0.00     0.006 C 
ATOM     18  C   UNL     1       6.168  14.701  73.966  1.00  0.00     0.008 C 
ATOM     19  C   UNL     1       4.317  13.415  72.796  1.00  0.00     0.012 C 
ATOM     20  C   UNL     1       3.399  15.614  75.028  1.00  0.00    -0.025 C 
ATOM     21  C   UNL     1       5.806  16.144  74.356  1.00  0.00     0.005 C 
ATOM     22  C   UNL     1       4.323  16.521  74.099  1.00  0.00     0.003 C 
ATOM     23  C   UNL     1       3.321  16.261  76.448  1.00  0.00     0.010 C 
ATOM     24  C   UNL     1       1.949  15.555  74.450  1.00  0.00     0.012 C 
ATOM     25  C   UNL     1       4.052  18.100  74.171  1.00  0.00    -0.006 C 
ATOM     26  C   UNL     1       2.947  17.744  76.470  1.00  0.00     0.033 C 
ATOM     27  C   UNL     1       3.930  18.577  75.650  1.00  0.00     0.120 C 
ATOM     28  C   UNL     1       5.217  18.899  73.518  1.00  0.00     0.014 C 
ATOM     29  C   UNL     1       2.776  18.491  73.352  1.00  0.00     0.014 C 
ENDROOT
BRANCH   1  30
ATOM     30  C   UNL     1       6.721   7.920  74.647  1.00  0.00     0.048 C 
ATOM     31  O   UNL     1       7.525   8.040  75.610  1.00  0.00    -0.550 OA
ATOM     32  O   UNL     1       6.415   6.639  74.207  1.00  0.00    -0.550 OA
ENDBRANCH   1  30
BRANCH  27  33
ATOM     33  O   UNL     1       3.521  19.926  75.705  1.00  0.00    -0.393 OA
ATOM     34  H   UNL     1       4.168  20.462  75.179  1.00  0.00     0.210 HD
ENDBRANCH  27  33
TORSDOF 2
ENDMDL
MODEL 6
REMARK VINA RESULT:    -5.121     13.020     16.439
REMARK INTER + INTRA:          -5.803
REMARK INTER:                  -5.571
REMARK INTRA:                  -0.232
REMARK UNBOUND:                -0.233
REMARK SMILES CC1(C)CC[C@@]2(C(=O)[O-])CC[C@]3(C)C(=CC[C@@H]4[C@@]5(C)CC[C@H](O)C(C)(C)[C@H]5CC[C@]43C)[C@H]2C1
REMARK SMILES IDX 6 1 5 2 10 3 32 4 4 5 11 6 14 7 33 8 2 9 12 10 15 11 1 12
REMARK SMILES IDX 3 13 13 14 30 15 16 16 17 17 29 18 31 19 18 20 28 21 27 22
REMARK SMILES IDX 20 23 19 24 24 25 21 26 22 27 25 28 26 29 7 30 8 31 9 32
REMARK SMILES IDX 23 33
REMARK H PARENT 23 34
REMARK Flexibility Score: inf
ROOT
ATOM      1  C   UNL     1       4.437  13.026  74.678  1.00  0.00     0.017 C 
ATOM      2  C   UNL     1       4.151  12.644  73.166  1.00  0.00     0.014 C 
ATOM      3  C   UNL     1       5.030  14.462  74.739  1.00  0.00     0.014 C 
ATOM      4  C   UNL     1       3.142  12.925  75.574  1.00  0.00     0.028 C 
ATOM      5  C   UNL     1       2.670  12.418  72.848  1.00  0.00     0.007 C 
ATOM      6  C   UNL     1       3.991  15.533  74.404  1.00  0.00     0.013 C 
ATOM      7  C   UNL     1       2.198  14.165  75.531  1.00  0.00    -0.064 C 
ATOM      8  C   UNL     1       2.450  11.560  75.274  1.00  0.00     0.015 C 
ATOM      9  C   UNL     1       2.007  11.371  73.784  1.00  0.00    -0.035 C 
ATOM     10  C   UNL     1       2.801  15.577  75.412  1.00  0.00    -0.006 C 
ATOM     11  C   UNL     1       0.931  14.056  76.013  1.00  0.00    -0.027 C 
ATOM     12  C   UNL     1       0.468  11.507  73.672  1.00  0.00     0.011 C 
ATOM     13  C   UNL     1       2.397   9.950  73.320  1.00  0.00     0.011 C 
ATOM     14  C   UNL     1       3.401  15.912  76.829  1.00  0.00     0.017 C 
ATOM     15  C   UNL     1       1.695  16.662  74.935  1.00  0.00    -0.020 C 
ATOM     16  C   UNL     1      -0.126  15.119  75.862  1.00  0.00     0.032 C 
ATOM     17  C   UNL     1       0.416  16.569  75.847  1.00  0.00     0.006 C 
ATOM     18  C   UNL     1       2.280  18.115  74.992  1.00  0.00     0.008 C 
ATOM     19  C   UNL     1       1.272  16.361  73.456  1.00  0.00     0.012 C 
ATOM     20  C   UNL     1      -0.721  17.703  75.666  1.00  0.00    -0.025 C 
ATOM     21  C   UNL     1       1.312  19.230  75.422  1.00  0.00     0.005 C 
ATOM     22  C   UNL     1      -0.154  19.015  74.962  1.00  0.00     0.003 C 
ATOM     23  C   UNL     1      -1.222  18.076  77.098  1.00  0.00     0.010 C 
ATOM     24  C   UNL     1      -1.941  17.147  74.863  1.00  0.00     0.012 C 
ATOM     25  C   UNL     1      -1.059  20.332  75.102  1.00  0.00    -0.006 C 
ATOM     26  C   UNL     1      -2.174  19.270  77.166  1.00  0.00     0.033 C 
ATOM     27  C   UNL     1      -1.536  20.525  76.573  1.00  0.00     0.120 C 
ATOM     28  C   UNL     1      -0.260  21.606  74.700  1.00  0.00     0.014 C 
ATOM     29  C   UNL     1      -2.279  20.285  74.122  1.00  0.00     0.014 C 
ENDROOT
BRANCH   1  30
ATOM     30  C   UNL     1       5.500  12.089  75.268  1.00  0.00     0.048 C 
ATOM     31  O   UNL     1       6.047  12.381  76.364  1.00  0.00    -0.550 OA
ATOM     32  O   UNL     1       5.821  10.872  74.680  1.00  0.00    -0.550 OA
ENDBRANCH   1  30
BRANCH  27  33
ATOM     33  O   UNL     1      -2.468  21.580  76.659  1.00  0.00    -0.393 OA
ATOM     34  H   UNL     1      -3.265  21.328  76.128  1.00  0.00     0.210 HD
ENDBRANCH  27  33
TORSDOF 2
ENDMDL
MODEL 7
REMARK VINA RESULT:    -5.048     13.218     15.014
REMARK INTER + INTRA:          -5.724
REMARK INTER:                  -5.487
REMARK INTRA:                  -0.236
REMARK UNBOUND:                -0.233
REMARK SMILES CC1(C)CC[C@@]2(C(=O)[O-])CC[C@]3(C)C(=CC[C@@H]4[C@@]5(C)CC[C@H](O)C(C)(C)[C@H]5CC[C@]43C)[C@H]2C1
REMARK SMILES IDX 6 1 5 2 10 3 32 4 4 5 11 6 14 7 33 8 2 9 12 10 15 11 1 12
REMARK SMILES IDX 3 13 13 14 30 15 16 16 17 17 29 18 31 19 18 20 28 21 27 22
REMARK SMILES IDX 20 23 19 24 24 25 21 26 22 27 25 28 26 29 7 30 8 31 9 32
REMARK SMILES IDX 23 33
REMARK H PARENT 23 34
REMARK Flexibility Score: inf
ROOT
ATOM      1  C   UNL     1       1.514  18.533  75.255  1.00  0.00     0.017 C 
ATOM      2  C   UNL     1       0.908  18.679  73.798  1.00  0.00     0.014 C 
ATOM      3  C   UNL     1       0.966  17.233  75.908  1.00  0.00     0.014 C 
ATOM      4  C   UNL     1       3.093  18.522  75.247  1.00  0.00     0.028 C 
ATOM      5  C   UNL     1       1.952  18.617  72.678  1.00  0.00     0.007 C 
ATOM      6  C   UNL     1       1.549  15.972  75.268  1.00  0.00     0.013 C 
ATOM      7  C   UNL     1       3.753  17.147  74.929  1.00  0.00    -0.064 C 
ATOM      8  C   UNL     1       3.581  19.708  74.359  1.00  0.00     0.015 C 
ATOM      9  C   UNL     1       3.101  19.643  72.869  1.00  0.00    -0.035 C 
ATOM     10  C   UNL     1       3.095  15.851  75.437  1.00  0.00    -0.006 C 
ATOM     11  C   UNL     1       5.071  17.100  74.598  1.00  0.00    -0.027 C 
ATOM     12  C   UNL     1       4.284  19.241  71.954  1.00  0.00     0.011 C 
ATOM     13  C   UNL     1       2.615  21.043  72.435  1.00  0.00     0.011 C 
ATOM     14  C   UNL     1       3.394  15.791  76.982  1.00  0.00     0.017 C 
ATOM     15  C   UNL     1       3.649  14.548  74.647  1.00  0.00    -0.020 C 
ATOM     16  C   UNL     1       5.775  15.866  74.096  1.00  0.00     0.032 C 
ATOM     17  C   UNL     1       5.224  14.535  74.662  1.00  0.00     0.006 C 
ATOM     18  C   UNL     1       3.105  13.230  75.296  1.00  0.00     0.008 C 
ATOM     19  C   UNL     1       3.169  14.596  73.156  1.00  0.00     0.012 C 
ATOM     20  C   UNL     1       5.970  13.214  74.105  1.00  0.00    -0.025 C 
ATOM     21  C   UNL     1       4.064  12.028  75.324  1.00  0.00     0.005 C 
ATOM     22  C   UNL     1       5.013  11.941  74.100  1.00  0.00     0.003 C 
ATOM     23  C   UNL     1       7.174  12.937  75.061  1.00  0.00     0.010 C 
ATOM     24  C   UNL     1       6.544  13.460  72.673  1.00  0.00     0.012 C 
ATOM     25  C   UNL     1       5.741  10.518  73.966  1.00  0.00    -0.006 C 
ATOM     26  C   UNL     1       7.908  11.617  74.820  1.00  0.00     0.033 C 
ATOM     27  C   UNL     1       6.961  10.425  74.933  1.00  0.00     0.120 C 
ATOM     28  C   UNL     1       4.770   9.355  74.327  1.00  0.00     0.014 C 
ATOM     29  C   UNL     1       6.179  10.245  72.488  1.00  0.00     0.014 C 
ENDROOT
BRANCH   1  30
ATOM     30  C   UNL     1       1.049  19.697  76.141  1.00  0.00     0.048 C 
ATOM     31  O   UNL     1       1.336  19.698  77.367  1.00  0.00    -0.550 OA
ATOM     32  O   UNL     1       0.396  20.806  75.620  1.00  0.00    -0.550 OA
ENDBRANCH   1  30
BRANCH  27  33
ATOM     33  O   UNL     1       7.698   9.247  74.690  1.00  0.00    -0.393 OA
ATOM     34  H   UNL     1       8.241   9.389  73.874  1.00  0.00     0.210 HD
ENDBRANCH  27  33
TORSDOF 2
ENDMDL
MODEL 8
REMARK VINA RESULT:    -4.969     13.154     15.054
REMARK INTER + INTRA:          -5.638
REMARK INTER:                  -5.417
REMARK INTRA:                  -0.221
REMARK UNBOUND:                -0.233
REMARK SMILES CC1(C)CC[C@@]2(C(=O)[O-])CC[C@]3(C)C(=CC[C@@H]4[C@@]5(C)CC[C@H](O)C(C)(C)[C@H]5CC[C@]43C)[C@H]2C1
REMARK SMILES IDX 6 1 5 2 10 3 32 4 4 5 11 6 14 7 33 8 2 9 12 10 15 11 1 12
REMARK SMILES IDX 3 13 13 14 30 15 16 16 17 17 29 18 31 19 18 20 28 21 27 22
REMARK SMILES IDX 20 23 19 24 24 25 21 26 22 27 25 28 26 29 7 30 8 31 9 32
REMARK SMILES IDX 23 33
REMARK H PARENT 23 34
REMARK Flexibility Score: inf
ROOT
ATOM      1  C   UNL     1       2.924  15.641  74.796  1.00  0.00     0.017 C 
ATOM      2  C   UNL     1       3.714  15.360  73.451  1.00  0.00     0.014 C 
ATOM      3  C   UNL     1       1.450  16.001  74.458  1.00  0.00     0.014 C 
ATOM      4  C   UNL     1       2.978  14.413  75.788  1.00  0.00     0.028 C 
ATOM      5  C   UNL     1       4.224  13.922  73.314  1.00  0.00     0.007 C 
ATOM      6  C   UNL     1       0.660  14.793  73.952  1.00  0.00     0.013 C 
ATOM      7  C   UNL     1       1.938  13.285  75.515  1.00  0.00    -0.064 C 
ATOM      8  C   UNL     1       4.459  13.934  75.886  1.00  0.00     0.015 C 
ATOM      9  C   UNL     1       5.082  13.470  74.526  1.00  0.00    -0.035 C 
ATOM     10  C   UNL     1       0.532  13.652  75.007  1.00  0.00    -0.006 C 
ATOM     11  C   UNL     1       2.101  12.070  76.105  1.00  0.00    -0.027 C 
ATOM     12  C   UNL     1       5.201  11.926  74.503  1.00  0.00     0.011 C 
ATOM     13  C   UNL     1       6.503  14.062  74.396  1.00  0.00     0.011 C 
ATOM     14  C   UNL     1      -0.235  14.246  76.248  1.00  0.00     0.017 C 
ATOM     15  C   UNL     1      -0.227  12.371  74.365  1.00  0.00    -0.020 C 
ATOM     16  C   UNL     1       1.274  10.853  75.780  1.00  0.00     0.032 C 
ATOM     17  C   UNL     1      -0.187  11.158  75.368  1.00  0.00     0.006 C 
ATOM     18  C   UNL     1      -1.714  12.720  74.019  1.00  0.00     0.008 C 
ATOM     19  C   UNL     1       0.497  11.944  73.042  1.00  0.00     0.012 C 
ATOM     20  C   UNL     1      -1.062   9.851  75.003  1.00  0.00    -0.025 C 
ATOM     21  C   UNL     1      -2.752  11.606  74.236  1.00  0.00     0.005 C 
ATOM     22  C   UNL     1      -2.219  10.176  73.957  1.00  0.00     0.003 C 
ATOM     23  C   UNL     1      -1.711   9.353  76.334  1.00  0.00     0.010 C 
ATOM     24  C   UNL     1      -0.152   8.704  74.457  1.00  0.00     0.012 C 
ATOM     25  C   UNL     1      -3.385   9.080  73.839  1.00  0.00    -0.006 C 
ATOM     26  C   UNL     1      -2.734   8.227  76.181  1.00  0.00     0.033 C 
ATOM     27  C   UNL     1      -3.875   8.636  75.251  1.00  0.00     0.120 C 
ATOM     28  C   UNL     1      -4.616   9.651  73.076  1.00  0.00     0.014 C 
ATOM     29  C   UNL     1      -2.916   7.846  72.998  1.00  0.00     0.014 C 
ENDROOT
BRANCH   1  30
ATOM     30  C   UNL     1       3.518  16.860  75.514  1.00  0.00     0.048 C 
ATOM     31  O   UNL     1       4.472  17.490  74.985  1.00  0.00    -0.550 OA
ATOM     32  O   UNL     1       2.982  17.356  76.695  1.00  0.00    -0.550 OA
ENDBRANCH   1  30
BRANCH  27  33
ATOM     33  O   UNL     1      -4.773   7.553  75.147  1.00  0.00    -0.393 OA
ATOM     34  H   UNL     1      -4.827   7.292  74.193  1.00  0.00     0.210 HD
ENDBRANCH  27  33
TORSDOF 2
ENDMDL
MODEL 9
REMARK VINA RESULT:    -4.964     13.125     16.609
REMARK INTER + INTRA:          -5.631
REMARK INTER:                  -5.403
REMARK INTRA:                  -0.229
REMARK UNBOUND:                -0.233
REMARK SMILES CC1(C)CC[C@@]2(C(=O)[O-])CC[C@]3(C)C(=CC[C@@H]4[C@@]5(C)CC[C@H](O)C(C)(C)[C@H]5CC[C@]43C)[C@H]2C1
REMARK SMILES IDX 6 1 5 2 10 3 32 4 4 5 11 6 14 7 33 8 2 9 12 10 15 11 1 12
REMARK SMILES IDX 3 13 13 14 30 15 16 16 17 17 29 18 31 19 18 20 28 21 27 22
REMARK SMILES IDX 20 23 19 24 24 25 21 26 22 27 25 28 26 29 7 30 8 31 9 32
REMARK SMILES IDX 23 33
REMARK H PARENT 23 34
REMARK Flexibility Score: inf
ROOT
ATOM      1  C   UNL     1       4.851  11.375  74.238  1.00  0.00     0.017 C 
ATOM      2  C   UNL     1       5.922  11.510  75.398  1.00  0.00     0.014 C 
ATOM      3  C   UNL     1       3.435  11.225  74.865  1.00  0.00     0.014 C 
ATOM      4  C   UNL     1       4.887  12.602  73.246  1.00  0.00     0.028 C 
ATOM      5  C   UNL     1       6.654  12.855  75.420  1.00  0.00     0.007 C 
ATOM      6  C   UNL     1       2.946  12.524  75.507  1.00  0.00     0.013 C 
ATOM      7  C   UNL     1       4.098  13.864  73.709  1.00  0.00    -0.064 C 
ATOM      8  C   UNL     1       6.374  12.863  72.852  1.00  0.00     0.015 C 
ATOM      9  C   UNL     1       7.313  13.203  74.058  1.00  0.00    -0.035 C 
ATOM     10  C   UNL     1       2.781  13.694  74.488  1.00  0.00    -0.006 C 
ATOM     11  C   UNL     1       4.318  15.053  73.089  1.00  0.00    -0.027 C 
ATOM     12  C   UNL     1       7.659  14.713  74.044  1.00  0.00     0.011 C 
ATOM     13  C   UNL     1       8.630  12.409  73.909  1.00  0.00     0.011 C 
ATOM     14  C   UNL     1       1.706  13.243  73.428  1.00  0.00     0.017 C 
ATOM     15  C   UNL     1       2.359  15.057  75.257  1.00  0.00    -0.020 C 
ATOM     16  C   UNL     1       3.758  16.371  73.561  1.00  0.00     0.032 C 
ATOM     17  C   UNL     1       2.378  16.272  74.256  1.00  0.00     0.006 C 
ATOM     18  C   UNL     1       0.934  14.921  75.893  1.00  0.00     0.008 C 
ATOM     19  C   UNL     1       3.384  15.347  76.407  1.00  0.00     0.012 C 
ATOM     20  C   UNL     1       1.792  17.685  74.776  1.00  0.00    -0.025 C 
ATOM     21  C   UNL     1       0.048  16.178  75.877  1.00  0.00     0.005 C 
ATOM     22  C   UNL     1       0.829  17.509  76.033  1.00  0.00     0.003 C 
ATOM     23  C   UNL     1       0.974  18.299  73.596  1.00  0.00     0.010 C 
ATOM     24  C   UNL     1       2.950  18.676  75.121  1.00  0.00     0.012 C 
ATOM     25  C   UNL     1      -0.117  18.760  76.370  1.00  0.00    -0.006 C 
ATOM     26  C   UNL     1       0.177  19.558  73.939  1.00  0.00     0.033 C 
ATOM     27  C   UNL     1      -0.805  19.300  75.079  1.00  0.00     0.120 C 
ATOM     28  C   UNL     1      -1.245  18.357  77.366  1.00  0.00     0.014 C 
ATOM     29  C   UNL     1       0.683  19.895  77.092  1.00  0.00     0.014 C 
ENDROOT
BRANCH   1  30
ATOM     30  C   UNL     1       5.107  10.097  73.427  1.00  0.00     0.048 C 
ATOM     31  O   UNL     1       6.132   9.405  73.664  1.00  0.00    -0.550 OA
ATOM     32  O   UNL     1       4.197   9.621  72.492  1.00  0.00    -0.550 OA
ENDBRANCH   1  30
BRANCH  27  33
ATOM     33  O   UNL     1      -1.497  20.499  75.350  1.00  0.00    -0.393 OA
ATOM     34  H   UNL     1      -0.855  21.138  75.751  1.00  0.00     0.210 HD
ENDBRANCH  27  33
TORSDOF 2
ENDMDL
