MODEL 1
REMARK VINA RESULT:    -4.700      0.000      0.000
REMARK INTER + INTRA:          -5.306
REMARK INTER:                  -5.112
REMARK INTRA:                  -0.194
REMARK UNBOUND:                -0.194
REMARK SMILES CC(C)(C)[C@@H]1C=C[C@@H](O)CC1
REMARK SMILES IDX 5 1 11 2 10 3 8 4 7 5 6 6 2 7 1 8 3 9 4 10 9 11
REMARK H PARENT 9 12
REMARK Flexibility Score: inf
ROOT
ATOM      1  C   UNL     1       1.751  45.882  48.835  1.00  0.00     0.017 C 
ATOM      2  C   UNL     1       0.915  46.820  47.910  1.00  0.00     0.011 C 
ATOM      3  C   UNL     1       1.682  48.060  47.374  1.00  0.00     0.037 C 
ATOM      4  C   UNL     1       3.194  48.029  47.655  1.00  0.00     0.137 C 
ATOM      5  C   UNL     1       3.423  47.685  49.102  1.00  0.00     0.000 C 
ATOM      6  C   UNL     1       2.723  46.697  49.673  1.00  0.00    -0.025 C 
ENDROOT
BRANCH   1   7
ATOM      7  C   UNL     1       0.888  44.867  49.677  1.00  0.00    -0.032 C 
ATOM      8  C   UNL     1      -0.143  44.159  48.767  1.00  0.00     0.011 C 
ATOM      9  C   UNL     1       1.806  43.772  50.274  1.00  0.00     0.011 C 
ATOM     10  C   UNL     1       0.127  45.559  50.834  1.00  0.00     0.011 C 
ENDBRANCH   1   7
BRANCH   4  11
ATOM     11  O   UNL     1       3.809  47.078  46.827  1.00  0.00    -0.389 OA
ATOM     12  H   UNL     1       4.477  47.567  46.278  1.00  0.00     0.211 HD
ENDBRANCH   4  11
TORSDOF 2
ENDMDL
MODEL 2
REMARK VINA RESULT:    -4.574      2.342      4.247
REMARK INTER + INTRA:          -5.170
REMARK INTER:                  -4.974
REMARK INTRA:                  -0.195
REMARK UNBOUND:                -0.194
REMARK SMILES CC(C)(C)[C@@H]1C=C[C@@H](O)CC1
REMARK SMILES IDX 5 1 11 2 10 3 8 4 7 5 6 6 2 7 1 8 3 9 4 10 9 11
REMARK H PARENT 9 12
REMARK Flexibility Score: inf
ROOT
ATOM      1  C   UNL     1       1.255  46.119  49.439  1.00  0.00     0.017 C 
ATOM      2  C   UNL     1      -0.166  45.570  49.103  1.00  0.00     0.011 C 
ATOM      3  C   UNL     1      -0.602  44.335  49.938  1.00  0.00     0.037 C 
ATOM      4  C   UNL     1       0.338  44.009  51.109  1.00  0.00     0.137 C 
ATOM      5  C   UNL     1       1.761  44.004  50.618  1.00  0.00     0.000 C 
ATOM      6  C   UNL     1       2.189  44.976  49.804  1.00  0.00    -0.025 C 
ENDROOT
BRANCH   1   7
ATOM      7  C   UNL     1       1.847  47.096  48.353  1.00  0.00    -0.032 C 
ATOM      8  C   UNL     1       2.795  48.122  49.016  1.00  0.00     0.011 C 
ATOM      9  C   UNL     1       2.681  46.291  47.326  1.00  0.00     0.011 C 
ATOM     10  C   UNL     1       0.742  47.869  47.593  1.00  0.00     0.011 C 
ENDBRANCH   1   7
BRANCH   4  11
ATOM     11  O   UNL     1       0.179  44.965  52.125  1.00  0.00    -0.389 OA
ATOM     12  H   UNL     1      -0.766  45.266  52.088  1.00  0.00     0.211 HD
ENDBRANCH   4  11
TORSDOF 2
ENDMDL
MODEL 3
REMARK VINA RESULT:    -4.431      2.440      4.656
REMARK INTER + INTRA:          -5.013
REMARK INTER:                  -4.813
REMARK INTRA:                  -0.200
REMARK UNBOUND:                -0.194
REMARK SMILES CC(C)(C)[C@@H]1C=C[C@@H](O)CC1
REMARK SMILES IDX 5 1 11 2 10 3 8 4 7 5 6 6 2 7 1 8 3 9 4 10 9 11
REMARK H PARENT 9 12
REMARK Flexibility Score: inf
ROOT
ATOM      1  C   UNL     1       0.859  45.354  49.649  1.00  0.00     0.017 C 
ATOM      2  C   UNL     1       0.260  45.856  51.000  1.00  0.00     0.011 C 
ATOM      3  C   UNL     1      -0.817  44.924  51.622  1.00  0.00     0.037 C 
ATOM      4  C   UNL     1      -0.940  43.559  50.925  1.00  0.00     0.137 C 
ATOM      5  C   UNL     1      -1.027  43.767  49.437  1.00  0.00     0.000 C 
ATOM      6  C   UNL     1      -0.206  44.636  48.835  1.00  0.00    -0.025 C 
ENDROOT
BRANCH   1   7
ATOM      7  C   UNL     1       1.638  46.457  48.837  1.00  0.00    -0.032 C 
ATOM      8  C   UNL     1       2.280  45.837  47.575  1.00  0.00     0.011 C 
ATOM      9  C   UNL     1       0.651  47.552  48.363  1.00  0.00     0.011 C 
ATOM     10  C   UNL     1       2.753  47.128  49.676  1.00  0.00     0.011 C 
ENDBRANCH   1   7
BRANCH   4  11
ATOM     11  O   UNL     1       0.174  42.765  51.240  1.00  0.00    -0.389 OA
ATOM     12  H   UNL     1       0.977  43.332  51.102  1.00  0.00     0.211 HD
ENDBRANCH   4  11
TORSDOF 2
ENDMDL
MODEL 4
REMARK VINA RESULT:    -4.429      1.343      1.961
REMARK INTER + INTRA:          -5.011
REMARK INTER:                  -4.810
REMARK INTRA:                  -0.201
REMARK UNBOUND:                -0.194
REMARK SMILES CC(C)(C)[C@@H]1C=C[C@@H](O)CC1
REMARK SMILES IDX 5 1 11 2 10 3 8 4 7 5 6 6 2 7 1 8 3 9 4 10 9 11
REMARK H PARENT 9 12
REMARK Flexibility Score: inf
ROOT
ATOM      1  C   UNL     1       0.739  45.793  49.435  1.00  0.00     0.017 C 
ATOM      2  C   UNL     1       1.842  46.626  50.160  1.00  0.00     0.011 C 
ATOM      3  C   UNL     1       2.965  47.167  49.233  1.00  0.00     0.037 C 
ATOM      4  C   UNL     1       2.676  46.991  47.733  1.00  0.00     0.137 C 
ATOM      5  C   UNL     1       2.233  45.576  47.476  1.00  0.00     0.000 C 
ATOM      6  C   UNL     1       1.347  44.995  48.293  1.00  0.00    -0.025 C 
ENDROOT
BRANCH   1   7
ATOM      7  C   UNL     1      -0.161  44.931  50.400  1.00  0.00    -0.032 C 
ATOM      8  C   UNL     1      -1.125  44.043  49.580  1.00  0.00     0.011 C 
ATOM      9  C   UNL     1       0.733  43.988  51.243  1.00  0.00     0.011 C 
ATOM     10  C   UNL     1      -0.999  45.807  51.363  1.00  0.00     0.011 C 
ENDBRANCH   1   7
BRANCH   4  11
ATOM     11  O   UNL     1       1.677  47.893  47.334  1.00  0.00    -0.389 OA
ATOM     12  H   UNL     1       1.145  48.106  48.145  1.00  0.00     0.211 HD
ENDBRANCH   4  11
TORSDOF 2
ENDMDL
MODEL 5
REMARK VINA RESULT:    -4.295      2.334      4.459
REMARK INTER + INTRA:          -4.866
REMARK INTER:                  -4.667
REMARK INTRA:                  -0.198
REMARK UNBOUND:                -0.194
REMARK SMILES CC(C)(C)[C@@H]1C=C[C@@H](O)CC1
REMARK SMILES IDX 5 1 11 2 10 3 8 4 7 5 6 6 2 7 1 8 3 9 4 10 9 11
REMARK H PARENT 9 12
REMARK Flexibility Score: inf
ROOT
ATOM      1  C   UNL     1       0.920  45.952  49.208  1.00  0.00     0.017 C 
ATOM      2  C   UNL     1       1.867  45.096  50.106  1.00  0.00     0.011 C 
ATOM      3  C   UNL     1       1.142  44.189  51.138  1.00  0.00     0.037 C 
ATOM      4  C   UNL     1      -0.381  44.113  50.942  1.00  0.00     0.137 C 
ATOM      5  C   UNL     1      -0.932  45.505  50.785  1.00  0.00     0.000 C 
ATOM      6  C   UNL     1      -0.305  46.386  49.997  1.00  0.00    -0.025 C 
ENDROOT
BRANCH   1   7
ATOM      7  C   UNL     1       1.638  47.136  48.454  1.00  0.00    -0.032 C 
ATOM      8  C   UNL     1       2.336  48.070  49.469  1.00  0.00     0.011 C 
ATOM      9  C   UNL     1       2.733  46.570  47.517  1.00  0.00     0.011 C 
ATOM     10  C   UNL     1       0.653  47.979  47.609  1.00  0.00     0.011 C 
ENDBRANCH   1   7
BRANCH   4  11
ATOM     11  O   UNL     1      -0.675  43.345  49.805  1.00  0.00    -0.389 OA
ATOM     12  H   UNL     1      -1.555  42.917  49.969  1.00  0.00     0.211 HD
ENDBRANCH   4  11
TORSDOF 2
ENDMDL
MODEL 6
REMARK VINA RESULT:    -4.086      1.363      2.265
REMARK INTER + INTRA:          -4.639
REMARK INTER:                  -4.443
REMARK INTRA:                  -0.196
REMARK UNBOUND:                -0.194
REMARK SMILES CC(C)(C)[C@@H]1C=C[C@@H](O)CC1
REMARK SMILES IDX 5 1 11 2 10 3 8 4 7 5 6 6 2 7 1 8 3 9 4 10 9 11
REMARK H PARENT 9 12
REMARK Flexibility Score: inf
ROOT
ATOM      1  C   UNL     1       0.947  45.825  49.492  1.00  0.00     0.017 C 
ATOM      2  C   UNL     1       1.685  44.979  48.408  1.00  0.00     0.011 C 
ATOM      3  C   UNL     1       2.475  45.811  47.360  1.00  0.00     0.037 C 
ATOM      4  C   UNL     1       2.588  47.305  47.703  1.00  0.00     0.137 C 
ATOM      5  C   UNL     1       1.228  47.833  48.075  1.00  0.00     0.000 C 
ATOM      6  C   UNL     1       0.437  47.124  48.890  1.00  0.00    -0.025 C 
ENDROOT
BRANCH   1   7
ATOM      7  C   UNL     1      -0.150  45.029  50.298  1.00  0.00    -0.032 C 
ATOM      8  C   UNL     1       0.512  44.196  51.420  1.00  0.00     0.011 C 
ATOM      9  C   UNL     1      -1.125  46.023  50.974  1.00  0.00     0.011 C 
ATOM     10  C   UNL     1      -0.966  44.073  49.394  1.00  0.00     0.011 C 
ENDBRANCH   1   7
BRANCH   4  11
ATOM     11  O   UNL     1       3.484  47.480  48.769  1.00  0.00    -0.389 OA
ATOM     12  H   UNL     1       4.380  47.211  48.436  1.00  0.00     0.211 HD
ENDBRANCH   4  11
TORSDOF 2
ENDMDL
MODEL 7
REMARK VINA RESULT:    -3.762      1.841      4.175
REMARK INTER + INTRA:          -4.286
REMARK INTER:                  -4.085
REMARK INTRA:                  -0.201
REMARK UNBOUND:                -0.194
REMARK SMILES CC(C)(C)[C@@H]1C=C[C@@H](O)CC1
REMARK SMILES IDX 5 1 11 2 10 3 8 4 7 5 6 6 2 7 1 8 3 9 4 10 9 11
REMARK H PARENT 9 12
REMARK Flexibility Score: inf
ROOT
ATOM      1  C   UNL     1       2.088  45.915  48.668  1.00  0.00     0.017 C 
ATOM      2  C   UNL     1       2.453  45.329  50.067  1.00  0.00     0.011 C 
ATOM      3  C   UNL     1       1.855  43.926  50.362  1.00  0.00     0.037 C 
ATOM      4  C   UNL     1       1.202  43.255  49.142  1.00  0.00     0.137 C 
ATOM      5  C   UNL     1       0.281  44.237  48.469  1.00  0.00     0.000 C 
ATOM      6  C   UNL     1       0.679  45.500  48.274  1.00  0.00    -0.025 C 
ENDROOT
BRANCH   1   7
ATOM      7  C   UNL     1       2.354  47.462  48.524  1.00  0.00    -0.032 C 
ATOM      8  C   UNL     1       1.229  48.123  47.694  1.00  0.00     0.011 C 
ATOM      9  C   UNL     1       2.347  48.125  49.923  1.00  0.00     0.011 C 
ATOM     10  C   UNL     1       3.710  47.765  47.841  1.00  0.00     0.011 C 
ENDBRANCH   1   7
BRANCH   4  11
ATOM     11  O   UNL     1       2.196  42.831  48.247  1.00  0.00    -0.389 OA
ATOM     12  H   UNL     1       3.058  43.189  48.586  1.00  0.00     0.211 HD
ENDBRANCH   4  11
TORSDOF 2
ENDMDL
MODEL 8
REMARK VINA RESULT:    -3.635      2.125      4.090
REMARK INTER + INTRA:          -4.148
REMARK INTER:                  -3.955
REMARK INTRA:                  -0.193
REMARK UNBOUND:                -0.194
REMARK SMILES CC(C)(C)[C@@H]1C=C[C@@H](O)CC1
REMARK SMILES IDX 5 1 11 2 10 3 8 4 7 5 6 6 2 7 1 8 3 9 4 10 9 11
REMARK H PARENT 9 12
REMARK Flexibility Score: inf
ROOT
ATOM      1  C   UNL     1       0.510  45.886  49.083  1.00  0.00     0.017 C 
ATOM      2  C   UNL     1       1.884  46.200  49.751  1.00  0.00     0.011 C 
ATOM      3  C   UNL     1       2.354  45.155  50.800  1.00  0.00     0.037 C 
ATOM      4  C   UNL     1       1.502  43.875  50.831  1.00  0.00     0.137 C 
ATOM      5  C   UNL     1       0.045  44.249  50.879  1.00  0.00     0.000 C 
ATOM      6  C   UNL     1      -0.422  45.218  50.083  1.00  0.00    -0.025 C 
ENDROOT
BRANCH   1   7
ATOM      7  C   UNL     1      -0.141  47.110  48.334  1.00  0.00    -0.032 C 
ATOM      8  C   UNL     1       0.949  47.935  47.612  1.00  0.00     0.011 C 
ATOM      9  C   UNL     1      -1.124  46.597  47.253  1.00  0.00     0.011 C 
ATOM     10  C   UNL     1      -0.910  48.048  49.295  1.00  0.00     0.011 C 
ENDBRANCH   1   7
BRANCH   4  11
ATOM     11  O   UNL     1       1.768  43.102  49.690  1.00  0.00    -0.389 OA
ATOM     12  H   UNL     1       1.356  42.212  49.846  1.00  0.00     0.211 HD
ENDBRANCH   4  11
TORSDOF 2
ENDMDL
