MODEL 1
REMARK VINA RESULT:    -2.771      0.000      0.000
REMARK INTER + INTRA:          -4.372
REMARK INTER:                  -4.228
REMARK INTRA:                  -0.143
REMARK UNBOUND:                -0.143
REMARK SMILES CC1=CCC[C@@H](C)C(=O)C[C@@H](C(C)C)C(=O)C1
REMARK SMILES IDX 8 1 9 2 6 3 7 4 5 5 4 6 3 7 2 8 1 9 10 11 11 12 15 13 16 14
REMARK SMILES IDX 17 15 12 17 13 18 14 19
REMARK H PARENT
REMARK Flexibility Score: 70.00
ROOT
ATOM      1  C   UNL     1      22.238  42.623  91.012  1.00  0.00     0.136 C 
ATOM      2  O   UNL     1      23.124  42.784  91.838  1.00  0.00    -0.299 OA
ENDROOT
BRANCH   1   3
ATOM      3  C   UNL     1      22.548  42.884  89.549  1.00  0.00     0.053 C 
ATOM      4  C   UNL     1      21.399  43.643  88.874  1.00  0.00     0.016 C 
BRANCH   3   5
ATOM      5  C   UNL     1      22.870  41.581  88.795  1.00  0.00     0.015 C 
BRANCH   5   6
ATOM      6  C   UNL     1      21.615  40.958  88.156  1.00  0.00     0.028 C 
BRANCH   6   7
ATOM      7  C   UNL     1      21.509  39.495  88.501  1.00  0.00    -0.028 C 
ATOM      8  C   UNL     1      20.622  38.976  89.381  1.00  0.00    -0.070 CG0
ATOM      9  C   UNL     1      20.603  37.480  89.567  1.00  0.00     0.039 C 
ATOM     10  G   UNL     1      19.662  39.834  90.192  1.00  0.00     0.000 G0
ENDBRANCH   6   7
ENDBRANCH   5   6
ENDBRANCH   3   5
ENDBRANCH   1   3
BRANCH   1  11
ATOM     11  C   UNL     1      20.866  42.199  91.491  1.00  0.00     0.087 C 
BRANCH  11  12
ATOM     12  C   UNL     1      20.910  40.874  92.298  1.00  0.00     0.066 C 
BRANCH  12  13
ATOM     13  C   UNL     1      20.005  39.819  91.678  1.00  0.00     0.140 C 
ATOM     14  O   UNL     1      19.578  38.902  92.365  1.00  0.00    -0.299 OA
BRANCH  13  15
ATOM     15  C   UNL     1      19.685  39.836  90.202  1.00  0.00     0.106 CG0
ATOM     16  G   UNL     1      20.626  38.951  89.399  1.00  0.00     0.000 G0
ENDBRANCH  13  15
ENDBRANCH  12  13
BRANCH  12  17
ATOM     17  C   UNL     1      20.576  41.058  93.815  1.00  0.00    -0.006 C 
ATOM     18  C   UNL     1      20.156  42.489  94.196  1.00  0.00     0.008 C 
ATOM     19  C   UNL     1      21.740  40.599  94.709  1.00  0.00     0.008 C 
ENDBRANCH  12  17
ENDBRANCH  11  12
ENDBRANCH   1  11
TORSDOF 1
ENDMDL
MODEL 2
REMARK VINA RESULT:    -2.716      1.870      4.552
REMARK INTER + INTRA:          -4.289
REMARK INTER:                  -4.327
REMARK INTRA:                   0.038
REMARK UNBOUND:                -0.143
REMARK SMILES CC1=CCC[C@@H](C)C(=O)C[C@@H](C(C)C)C(=O)C1
REMARK SMILES IDX 8 1 9 2 6 3 7 4 5 5 4 6 3 7 2 8 1 9 10 11 11 12 15 13 16 14
REMARK SMILES IDX 17 15 12 17 13 18 14 19
REMARK H PARENT
REMARK Flexibility Score: 70.00
ROOT
ATOM      1  C   UNL     1      22.070  43.176  92.601  1.00  0.00     0.136 C 
ATOM      2  O   UNL     1      22.206  44.152  91.877  1.00  0.00    -0.299 OA
ENDROOT
BRANCH   1   3
ATOM      3  C   UNL     1      21.916  43.392  94.096  1.00  0.00     0.053 C 
ATOM      4  C   UNL     1      23.001  42.636  94.871  1.00  0.00     0.016 C 
BRANCH   3   5
ATOM      5  C   UNL     1      20.509  43.000  94.584  1.00  0.00     0.015 C 
BRANCH   5   6
ATOM      6  C   UNL     1      20.488  41.596  95.215  1.00  0.00     0.028 C 
BRANCH   6   7
ATOM      7  C   UNL     1      19.226  40.861  94.842  1.00  0.00    -0.028 C 
ATOM      8  C   UNL     1      19.110  40.021  93.787  1.00  0.00    -0.070 CG0
ATOM      9  C   UNL     1      17.794  39.314  93.588  1.00  0.00     0.039 C 
ATOM     10  G   UNL     1      20.238  39.775  92.797  1.00  0.00     0.000 G0
ENDBRANCH   6   7
ENDBRANCH   5   6
ENDBRANCH   3   5
ENDBRANCH   1   3
BRANCH   1  11
ATOM     11  C   UNL     1      22.091  41.799  91.975  1.00  0.00     0.087 C 
BRANCH  11  12
ATOM     12  C   UNL     1      20.910  41.584  90.989  1.00  0.00     0.066 C 
BRANCH  12  13
ATOM     13  C   UNL     1      19.999  40.457  91.455  1.00  0.00     0.140 C 
ATOM     14  O   UNL     1      19.018  40.154  90.792  1.00  0.00    -0.299 OA
BRANCH  13  15
ATOM     15  C   UNL     1      20.238  39.755  92.770  1.00  0.00     0.106 CG0
ATOM     16  G   UNL     1      19.125  40.016  93.773  1.00  0.00     0.000 G0
ENDBRANCH  13  15
ENDBRANCH  12  13
BRANCH  12  17
ATOM     17  C   UNL     1      21.368  41.343  89.514  1.00  0.00    -0.006 C 
ATOM     18  C   UNL     1      22.525  40.336  89.372  1.00  0.00     0.008 C 
ATOM     19  C   UNL     1      21.733  42.661  88.812  1.00  0.00     0.008 C 
ENDBRANCH  12  17
ENDBRANCH  11  12
ENDBRANCH   1  11
TORSDOF 1
ENDMDL
MODEL 3
REMARK VINA RESULT:    -2.696      1.763      2.438
REMARK INTER + INTRA:          -4.258
REMARK INTER:                  -3.893
REMARK INTRA:                  -0.365
REMARK UNBOUND:                -0.143
REMARK SMILES CC1=CCC[C@@H](C)C(=O)C[C@@H](C(C)C)C(=O)C1
REMARK SMILES IDX 8 1 9 2 6 3 7 4 5 5 4 6 3 7 2 8 1 9 10 11 11 12 15 13 16 14
REMARK SMILES IDX 17 15 12 17 13 18 14 19
REMARK H PARENT
REMARK Flexibility Score: 70.00
ROOT
ATOM      1  C   UNL     1      21.036  41.970  89.935  1.00  0.00     0.136 C 
ATOM      2  O   UNL     1      20.958  42.922  89.171  1.00  0.00    -0.299 OA
ENDROOT
BRANCH   1   3
ATOM      3  C   UNL     1      21.718  40.703  89.454  1.00  0.00     0.053 C 
ATOM      4  C   UNL     1      22.971  41.033  88.634  1.00  0.00     0.016 C 
BRANCH   3   5
ATOM      5  C   UNL     1      20.753  39.807  88.656  1.00  0.00     0.015 C 
BRANCH   5   6
ATOM      6  C   UNL     1      20.442  38.492  89.393  1.00  0.00     0.028 C 
BRANCH   6   7
ATOM      7  C   UNL     1      19.000  38.451  89.828  1.00  0.00    -0.028 C 
ATOM      8  C   UNL     1      18.580  38.582  91.108  1.00  0.00    -0.070 CG0
ATOM      9  C   UNL     1      17.095  38.581  91.368  1.00  0.00     0.039 C 
ATOM     10  G   UNL     1      19.536  38.714  92.283  1.00  0.00     0.000 G0
ENDBRANCH   6   7
ENDBRANCH   5   6
ENDBRANCH   3   5
ENDBRANCH   1   3
BRANCH   1  11
ATOM     11  C   UNL     1      20.422  42.093  91.313  1.00  0.00     0.087 C 
BRANCH  11  12
ATOM     12  C   UNL     1      20.895  40.963  92.268  1.00  0.00     0.066 C 
BRANCH  12  13
ATOM     13  C   UNL     1      19.722  40.119  92.748  1.00  0.00     0.140 C 
ATOM     14  O   UNL     1      18.942  40.574  93.572  1.00  0.00    -0.299 OA
BRANCH  13  15
ATOM     15  C   UNL     1      19.547  38.692  92.286  1.00  0.00     0.106 CG0
ATOM     16  G   UNL     1      18.572  38.580  91.124  1.00  0.00     0.000 G0
ENDBRANCH  13  15
ENDBRANCH  12  13
BRANCH  12  17
ATOM     17  C   UNL     1      21.728  41.484  93.484  1.00  0.00    -0.006 C 
ATOM     18  C   UNL     1      21.857  43.017  93.545  1.00  0.00     0.008 C 
ATOM     19  C   UNL     1      23.122  40.839  93.531  1.00  0.00     0.008 C 
ENDBRANCH  12  17
ENDBRANCH  11  12
ENDBRANCH   1  11
TORSDOF 1
ENDMDL
MODEL 4
REMARK VINA RESULT:    -2.664      2.651      4.864
REMARK INTER + INTRA:          -4.209
REMARK INTER:                  -4.052
REMARK INTRA:                  -0.157
REMARK UNBOUND:                -0.143
REMARK SMILES CC1=CCC[C@@H](C)C(=O)C[C@@H](C(C)C)C(=O)C1
REMARK SMILES IDX 8 1 9 2 6 3 7 4 5 5 4 6 3 7 2 8 1 9 10 11 11 12 15 13 16 14
REMARK SMILES IDX 17 15 12 17 13 18 14 19
REMARK H PARENT
REMARK Flexibility Score: 70.00
ROOT
ATOM      1  C   UNL     1      19.712  40.909  93.750  1.00  0.00     0.136 C 
ATOM      2  O   UNL     1      19.909  42.109  93.624  1.00  0.00    -0.299 OA
ENDROOT
BRANCH   1   3
ATOM      3  C   UNL     1      18.808  40.431  94.871  1.00  0.00     0.053 C 
ATOM      4  C   UNL     1      19.471  39.299  95.663  1.00  0.00     0.016 C 
BRANCH   3   5
ATOM      5  C   UNL     1      17.426  40.004  94.343  1.00  0.00     0.015 C 
BRANCH   5   6
ATOM      6  C   UNL     1      17.360  38.493  94.058  1.00  0.00     0.028 C 
BRANCH   6   7
ATOM      7  C   UNL     1      16.705  38.228  92.727  1.00  0.00    -0.028 C 
ATOM      8  C   UNL     1      17.370  37.893  91.597  1.00  0.00    -0.070 CG0
ATOM      9  C   UNL     1      16.560  37.599  90.360  1.00  0.00     0.039 C 
ATOM     10  G   UNL     1      18.888  37.818  91.522  1.00  0.00     0.000 G0
ENDBRANCH   6   7
ENDBRANCH   5   6
ENDBRANCH   3   5
ENDBRANCH   1   3
BRANCH   1  11
ATOM     11  C   UNL     1      20.403  39.956  92.799  1.00  0.00     0.087 C 
BRANCH  11  12
ATOM     12  C   UNL     1      19.987  40.196  91.322  1.00  0.00     0.066 C 
BRANCH  12  13
ATOM     13  C   UNL     1      19.495  38.911  90.672  1.00  0.00     0.140 C 
ATOM     14  O   UNL     1      19.526  38.793  89.455  1.00  0.00    -0.299 OA
BRANCH  13  15
ATOM     15  C   UNL     1      18.888  37.802  91.498  1.00  0.00     0.106 CG0
ATOM     16  G   UNL     1      17.373  37.908  91.580  1.00  0.00     0.000 G0
ENDBRANCH  13  15
ENDBRANCH  12  13
BRANCH  12  17
ATOM     17  C   UNL     1      21.113  40.850  90.457  1.00  0.00    -0.006 C 
ATOM     18  C   UNL     1      22.541  40.481  90.901  1.00  0.00     0.008 C 
ATOM     19  C   UNL     1      20.963  42.379  90.397  1.00  0.00     0.008 C 
ENDBRANCH  12  17
ENDBRANCH  11  12
ENDBRANCH   1  11
TORSDOF 1
ENDMDL
MODEL 5
REMARK VINA RESULT:    -2.659      2.248      3.826
REMARK INTER + INTRA:          -4.201
REMARK INTER:                  -3.927
REMARK INTRA:                  -0.274
REMARK UNBOUND:                -0.143
REMARK SMILES CC1=CCC[C@@H](C)C(=O)C[C@@H](C(C)C)C(=O)C1
REMARK SMILES IDX 8 1 9 2 6 3 7 4 5 5 4 6 3 7 2 8 1 9 10 11 11 12 15 13 16 14
REMARK SMILES IDX 17 15 12 17 13 18 14 19
REMARK H PARENT
REMARK Flexibility Score: 70.00
ROOT
ATOM      1  C   UNL     1      20.814  42.621  94.244  1.00  0.00     0.136 C 
ATOM      2  O   UNL     1      20.512  43.270  95.235  1.00  0.00    -0.299 OA
ENDROOT
BRANCH   1   3
ATOM      3  C   UNL     1      22.277  42.524  93.853  1.00  0.00     0.053 C 
ATOM      4  C   UNL     1      23.100  41.871  94.969  1.00  0.00     0.016 C 
BRANCH   3   5
ATOM      5  C   UNL     1      22.854  43.900  93.471  1.00  0.00     0.015 C 
BRANCH   5   6
ATOM      6  C   UNL     1      22.420  44.337  92.061  1.00  0.00     0.028 C 
BRANCH   6   7
ATOM      7  C   UNL     1      22.898  43.354  91.025  1.00  0.00    -0.028 C 
ATOM      8  C   UNL     1      22.091  42.526  90.321  1.00  0.00    -0.070 CG0
ATOM      9  C   UNL     1      22.722  41.645  89.274  1.00  0.00     0.039 C 
ATOM     10  G   UNL     1      20.590  42.441  90.552  1.00  0.00     0.000 G0
ENDBRANCH   6   7
ENDBRANCH   5   6
ENDBRANCH   3   5
ENDBRANCH   1   3
BRANCH   1  11
ATOM     11  C   UNL     1      19.711  41.969  93.438  1.00  0.00     0.087 C 
BRANCH  11  12
ATOM     12  C   UNL     1      20.230  40.779  92.586  1.00  0.00     0.066 C 
BRANCH  12  13
ATOM     13  C   UNL     1      20.163  41.095  91.099  1.00  0.00     0.140 C 
ATOM     14  O   UNL     1      19.818  40.228  90.308  1.00  0.00    -0.299 OA
BRANCH  13  15
ATOM     15  C   UNL     1      20.593  42.441  90.567  1.00  0.00     0.106 CG0
ATOM     16  G   UNL     1      22.090  42.503  90.303  1.00  0.00     0.000 G0
ENDBRANCH  13  15
ENDBRANCH  12  13
BRANCH  12  17
ATOM     17  C   UNL     1      19.503  39.430  92.893  1.00  0.00    -0.006 C 
ATOM     18  C   UNL     1      18.042  39.594  93.350  1.00  0.00     0.008 C 
ATOM     19  C   UNL     1      20.281  38.590  93.919  1.00  0.00     0.008 C 
ENDBRANCH  12  17
ENDBRANCH  11  12
ENDBRANCH   1  11
TORSDOF 1
ENDMDL
MODEL 6
REMARK VINA RESULT:    -2.642      2.475      4.623
REMARK INTER + INTRA:          -4.175
REMARK INTER:                  -4.039
REMARK INTRA:                  -0.137
REMARK UNBOUND:                -0.143
REMARK SMILES CC1=CCC[C@@H](C)C(=O)C[C@@H](C(C)C)C(=O)C1
REMARK SMILES IDX 8 1 9 2 6 3 7 4 5 5 4 6 3 7 2 8 1 9 10 11 11 12 15 13 16 14
REMARK SMILES IDX 17 15 12 17 13 18 14 19
REMARK H PARENT
REMARK Flexibility Score: 70.00
ROOT
ATOM      1  C   UNL     1      20.924  40.788  90.455  1.00  0.00     0.136 C 
ATOM      2  O   UNL     1      20.935  40.351  89.313  1.00  0.00    -0.299 OA
ENDROOT
BRANCH   1   3
ATOM      3  C   UNL     1      20.902  42.291  90.661  1.00  0.00     0.053 C 
ATOM      4  C   UNL     1      21.438  43.021  89.423  1.00  0.00     0.016 C 
BRANCH   3   5
ATOM      5  C   UNL     1      21.679  42.703  91.926  1.00  0.00     0.015 C 
BRANCH   5   6
ATOM      6  C   UNL     1      20.765  43.357  92.977  1.00  0.00     0.028 C 
BRANCH   6   7
ATOM      7  C   UNL     1      21.197  42.980  94.370  1.00  0.00    -0.028 C 
ATOM      8  C   UNL     1      20.650  41.979  95.100  1.00  0.00    -0.070 CG0
ATOM      9  C   UNL     1      21.240  41.689  96.456  1.00  0.00     0.039 C 
ATOM     10  G   UNL     1      19.467  41.154  94.616  1.00  0.00     0.000 G0
ENDBRANCH   6   7
ENDBRANCH   5   6
ENDBRANCH   3   5
ENDBRANCH   1   3
BRANCH   1  11
ATOM     11  C   UNL     1      20.963  39.808  91.608  1.00  0.00     0.087 C 
BRANCH  11  12
ATOM     12  C   UNL     1      19.621  39.767  92.389  1.00  0.00     0.066 C 
BRANCH  12  13
ATOM     13  C   UNL     1      19.849  39.909  93.887  1.00  0.00     0.140 C 
ATOM     14  O   UNL     1      20.306  38.971  94.525  1.00  0.00    -0.299 OA
BRANCH  13  15
ATOM     15  C   UNL     1      19.444  41.165  94.622  1.00  0.00     0.106 CG0
ATOM     16  G   UNL     1      20.646  41.973  95.086  1.00  0.00     0.000 G0
ENDBRANCH  13  15
ENDBRANCH  12  13
BRANCH  12  17
ATOM     17  C   UNL     1      18.763  38.496  92.084  1.00  0.00    -0.006 C 
ATOM     18  C   UNL     1      19.405  37.535  91.066  1.00  0.00     0.008 C 
ATOM     19  C   UNL     1      17.343  38.869  91.628  1.00  0.00     0.008 C 
ENDBRANCH  12  17
ENDBRANCH  11  12
ENDBRANCH   1  11
TORSDOF 1
ENDMDL
MODEL 7
REMARK VINA RESULT:    -2.621      2.554      5.917
REMARK INTER + INTRA:          -4.143
REMARK INTER:                  -3.853
REMARK INTRA:                  -0.291
REMARK UNBOUND:                -0.143
REMARK SMILES CC1=CCC[C@@H](C)C(=O)C[C@@H](C(C)C)C(=O)C1
REMARK SMILES IDX 8 1 9 2 6 3 7 4 5 5 4 6 3 7 2 8 1 9 10 11 11 12 15 13 16 14
REMARK SMILES IDX 17 15 12 17 13 18 14 19
REMARK H PARENT
REMARK Flexibility Score: 70.00
ROOT
ATOM      1  C   UNL     1      16.937  38.658  92.600  1.00  0.00     0.136 C 
ATOM      2  O   UNL     1      15.729  38.474  92.562  1.00  0.00    -0.299 OA
ENDROOT
BRANCH   1   3
ATOM      3  C   UNL     1      17.640  38.618  93.944  1.00  0.00     0.053 C 
ATOM      4  C   UNL     1      16.885  37.717  94.928  1.00  0.00     0.016 C 
BRANCH   3   5
ATOM      5  C   UNL     1      17.836  40.031  94.524  1.00  0.00     0.015 C 
BRANCH   5   6
ATOM      6  C   UNL     1      19.316  40.330  94.826  1.00  0.00     0.028 C 
BRANCH   6   7
ATOM      7  C   UNL     1      19.793  41.520  94.035  1.00  0.00    -0.028 C 
ATOM      8  C   UNL     1      20.502  41.443  92.884  1.00  0.00    -0.070 CG0
ATOM      9  C   UNL     1      20.849  42.730  92.180  1.00  0.00     0.039 C 
ATOM     10  G   UNL     1      20.968  40.124  92.286  1.00  0.00     0.000 G0
ENDBRANCH   6   7
ENDBRANCH   5   6
ENDBRANCH   3   5
ENDBRANCH   1   3
BRANCH   1  11
ATOM     11  C   UNL     1      17.668  38.947  91.306  1.00  0.00     0.087 C 
BRANCH  11  12
ATOM     12  C   UNL     1      19.147  38.476  91.351  1.00  0.00     0.066 C 
BRANCH  12  13
ATOM     13  C   UNL     1      20.105  39.642  91.148  1.00  0.00     0.140 C 
ATOM     14  O   UNL     1      20.217  40.153  90.043  1.00  0.00    -0.299 OA
BRANCH  13  15
ATOM     15  C   UNL     1      20.986  40.131  92.273  1.00  0.00     0.106 CG0
ATOM     16  G   UNL     1      20.482  41.434  92.874  1.00  0.00     0.000 G0
ENDBRANCH  13  15
ENDBRANCH  12  13
BRANCH  12  17
ATOM     17  C   UNL     1      19.465  37.326  90.340  1.00  0.00    -0.006 C 
ATOM     18  C   UNL     1      18.319  37.020  89.357  1.00  0.00     0.008 C 
ATOM     19  C   UNL     1      19.890  36.038  91.065  1.00  0.00     0.008 C 
ENDBRANCH  12  17
ENDBRANCH  11  12
ENDBRANCH   1  11
TORSDOF 1
ENDMDL
MODEL 8
REMARK VINA RESULT:    -2.597      1.987      4.758
REMARK INTER + INTRA:          -4.107
REMARK INTER:                  -3.694
REMARK INTRA:                  -0.413
REMARK UNBOUND:                -0.143
REMARK SMILES CC1=CCC[C@@H](C)C(=O)C[C@@H](C(C)C)C(=O)C1
REMARK SMILES IDX 8 1 9 2 6 3 7 4 5 5 4 6 3 7 2 8 1 9 10 11 11 12 15 13 16 14
REMARK SMILES IDX 17 15 12 17 13 18 14 19
REMARK H PARENT
REMARK Flexibility Score: 70.00
ROOT
ATOM      1  C   UNL     1      19.307  39.667  90.754  1.00  0.00     0.136 C 
ATOM      2  O   UNL     1      18.187  39.529  91.224  1.00  0.00    -0.299 OA
ENDROOT
BRANCH   1   3
ATOM      3  C   UNL     1      20.032  38.444  90.223  1.00  0.00     0.053 C 
ATOM      4  C   UNL     1      19.358  37.919  88.949  1.00  0.00     0.016 C 
BRANCH   3   5
ATOM      5  C   UNL     1      20.137  37.339  91.290  1.00  0.00     0.015 C 
BRANCH   5   6
ATOM      6  C   UNL     1      21.419  37.469  92.132  1.00  0.00     0.028 C 
BRANCH   6   7
ATOM      7  C   UNL     1      21.137  38.181  93.429  1.00  0.00    -0.028 C 
ATOM      8  C   UNL     1      21.664  39.379  93.778  1.00  0.00    -0.070 CG0
ATOM      9  C   UNL     1      21.230  39.987  95.087  1.00  0.00     0.039 C 
ATOM     10  G   UNL     1      22.676  40.120  92.917  1.00  0.00     0.000 G0
ENDBRANCH   6   7
ENDBRANCH   5   6
ENDBRANCH   3   5
ENDBRANCH   1   3
BRANCH   1  11
ATOM     11  C   UNL     1      19.929  41.047  90.751  1.00  0.00     0.087 C 
BRANCH  11  12
ATOM     12  C   UNL     1      21.481  40.991  90.727  1.00  0.00     0.066 C 
BRANCH  12  13
ATOM     13  C   UNL     1      22.064  41.245  92.110  1.00  0.00     0.140 C 
ATOM     14  O   UNL     1      22.101  42.383  92.556  1.00  0.00    -0.299 OA
BRANCH  13  15
ATOM     15  C   UNL     1      22.676  40.124  92.916  1.00  0.00     0.106 CG0
ATOM     16  G   UNL     1      21.643  39.392  93.761  1.00  0.00     0.000 G0
ENDBRANCH  13  15
ENDBRANCH  12  13
BRANCH  12  17
ATOM     17  C   UNL     1      22.122  41.957  89.678  1.00  0.00    -0.006 C 
ATOM     18  C   UNL     1      21.221  43.141  89.282  1.00  0.00     0.008 C 
ATOM     19  C   UNL     1      22.577  41.201  88.419  1.00  0.00     0.008 C 
ENDBRANCH  12  17
ENDBRANCH  11  12
ENDBRANCH   1  11
TORSDOF 1
ENDMDL
MODEL 9
REMARK VINA RESULT:    -2.553      2.073      5.385
REMARK INTER + INTRA:          -4.040
REMARK INTER:                  -3.862
REMARK INTRA:                  -0.178
REMARK UNBOUND:                -0.143
REMARK SMILES CC1=CCC[C@@H](C)C(=O)C[C@@H](C(C)C)C(=O)C1
REMARK SMILES IDX 8 1 9 2 6 3 7 4 5 5 4 6 3 7 2 8 1 9 10 11 11 12 15 13 16 14
REMARK SMILES IDX 17 15 12 17 13 18 14 19
REMARK H PARENT
REMARK Flexibility Score: 70.00
ROOT
ATOM      1  C   UNL     1      19.494  39.478  91.195  1.00  0.00     0.136 C 
ATOM      2  O   UNL     1      18.841  38.769  90.443  1.00  0.00    -0.299 OA
ENDROOT
BRANCH   1   3
ATOM      3  C   UNL     1      19.799  38.973  92.593  1.00  0.00     0.053 C 
ATOM      4  C   UNL     1      20.334  37.536  92.550  1.00  0.00     0.016 C 
BRANCH   3   5
ATOM      5  C   UNL     1      18.571  39.080  93.516  1.00  0.00     0.015 C 
BRANCH   5   6
ATOM      6  C   UNL     1      18.431  40.484  94.130  1.00  0.00     0.028 C 
BRANCH   6   7
ATOM      7  C   UNL     1      19.705  40.895  94.820  1.00  0.00    -0.028 C 
ATOM      8  C   UNL     1      20.539  41.867  94.379  1.00  0.00    -0.070 CG0
ATOM      9  C   UNL     1      21.743  42.201  95.221  1.00  0.00     0.039 C 
ATOM     10  G   UNL     1      20.318  42.617  93.074  1.00  0.00     0.000 G0
ENDBRANCH   6   7
ENDBRANCH   5   6
ENDBRANCH   3   5
ENDBRANCH   1   3
BRANCH   1  11
ATOM     11  C   UNL     1      19.941  40.839  90.705  1.00  0.00     0.087 C 
BRANCH  11  12
ATOM     12  C   UNL     1      21.398  41.167  91.134  1.00  0.00     0.066 C 
BRANCH  12  13
ATOM     13  C   UNL     1      21.440  42.365  92.072  1.00  0.00     0.140 C 
ATOM     14  O   UNL     1      22.414  43.104  92.073  1.00  0.00    -0.299 OA
BRANCH  13  15
ATOM     15  C   UNL     1      20.332  42.616  93.067  1.00  0.00     0.106 CG0
ATOM     16  G   UNL     1      20.548  41.864  94.371  1.00  0.00     0.000 G0
ENDBRANCH  13  15
ENDBRANCH  12  13
BRANCH  12  17
ATOM     17  C   UNL     1      22.368  41.383  89.927  1.00  0.00    -0.006 C 
ATOM     18  C   UNL     1      21.781  42.250  88.797  1.00  0.00     0.008 C 
ATOM     19  C   UNL     1      22.865  40.045  89.356  1.00  0.00     0.008 C 
ENDBRANCH  12  17
ENDBRANCH  11  12
ENDBRANCH   1  11
TORSDOF 1
ENDMDL
