MODEL 1
REMARK VINA RESULT:    26.781      0.000      0.000
REMARK INTER + INTRA:          32.715
REMARK INTER:                  33.044
REMARK INTRA:                  -0.329
REMARK UNBOUND:                -0.329
REMARK SMILES Oc1cc(O)c2cc(O)c(-c3cc(O)c(O)c(O)c3)[o+]c2c1
REMARK SMILES IDX 10 1 20 2 21 3 22 4 2 5 3 6 4 7 6 8 7 9 8 10 11 11 12 12
REMARK SMILES IDX 13 13 19 14 15 15 17 16 14 17 16 19 18 21 9 23 1 25 5 27
REMARK H PARENT 14 18 16 20 18 22 9 24 1 26 5 28
REMARK Flexibility Score: inf
ROOT
ATOM      1  C   UNL     1     -22.916  28.550  -7.258  1.00  0.00     0.402 A 
ATOM      2  O   UNL     1     -22.596  29.809  -7.545  1.00  0.00    -0.202 OA
ATOM      3  C   UNL     1     -23.448  30.673  -8.085  1.00  0.00     0.368 A 
ATOM      4  C   UNL     1     -23.019  31.977  -8.348  1.00  0.00     0.162 A 
ATOM      5  C   UNL     1     -23.897  32.908  -8.914  1.00  0.00     0.128 A 
ATOM      6  C   UNL     1     -25.207  32.532  -9.218  1.00  0.00     0.093 A 
ATOM      7  C   UNL     1     -25.661  31.232  -8.964  1.00  0.00     0.136 A 
ATOM      8  C   UNL     1     -24.774  30.282  -8.393  1.00  0.00     0.125 A 
ATOM      9  C   UNL     1     -25.138  28.954  -8.117  1.00  0.00     0.078 A 
ATOM     10  C   UNL     1     -24.207  28.075  -7.557  1.00  0.00     0.223 A 
ENDROOT
BRANCH   1  11
ATOM     11  C   UNL     1     -21.880  27.685  -6.647  1.00  0.00     0.091 A 
ATOM     12  C   UNL     1     -20.852  27.117  -7.418  1.00  0.00     0.068 A 
ATOM     13  C   UNL     1     -19.895  26.281  -6.825  1.00  0.00     0.162 A 
ATOM     14  C   UNL     1     -21.959  27.377  -5.280  1.00  0.00     0.068 A 
ATOM     15  C   UNL     1     -19.970  25.997  -5.451  1.00  0.00     0.200 A 
ATOM     16  C   UNL     1     -21.004  26.543  -4.681  1.00  0.00     0.162 A 
BRANCH  13  17
ATOM     17  O   UNL     1     -18.875  25.727  -7.597  1.00  0.00    -0.504 OA
ATOM     18  H   UNL     1     -18.991  24.839  -8.072  1.00  0.00     0.293 HD
ENDBRANCH  13  17
BRANCH  15  19
ATOM     19  O   UNL     1     -19.027  25.172  -4.837  1.00  0.00    -0.502 OA
ATOM     20  H   UNL     1     -18.916  25.137  -3.831  1.00  0.00     0.293 HD
ENDBRANCH  15  19
BRANCH  16  21
ATOM     21  O   UNL     1     -21.078  26.253  -3.320  1.00  0.00    -0.504 OA
ATOM     22  H   UNL     1     -21.952  25.984  -2.881  1.00  0.00     0.293 HD
ENDBRANCH  16  21
ENDBRANCH   1  11
BRANCH  10  23
ATOM     23  O   UNL     1     -24.552  26.742  -7.329  1.00  0.00    -0.500 OA
ATOM     24  H   UNL     1     -25.042  26.192  -8.024  1.00  0.00     0.294 HD
ENDBRANCH  10  23
BRANCH   5  25
ATOM     25  O   UNL     1     -23.476  34.209  -9.178  1.00  0.00    -0.507 OA
ATOM     26  H   UNL     1     -22.521  34.502  -9.007  1.00  0.00     0.293 HD
ENDBRANCH   5  25
BRANCH   7  27
ATOM     27  O   UNL     1     -26.987  30.937  -9.294  1.00  0.00    -0.507 OA
ATOM     28  H   UNL     1     -27.712  31.629  -9.413  1.00  0.00     0.293 HD
ENDBRANCH   7  27
TORSDOF 7
ENDMDL
MODEL 2
REMARK VINA RESULT:    26.868      0.329      1.815
REMARK INTER + INTRA:          32.821
REMARK INTER:                  33.158
REMARK INTRA:                  -0.337
REMARK UNBOUND:                -0.329
REMARK SMILES Oc1cc(O)c2cc(O)c(-c3cc(O)c(O)c(O)c3)[o+]c2c1
REMARK SMILES IDX 10 1 20 2 21 3 22 4 2 5 3 6 4 7 6 8 7 9 8 10 11 11 12 12
REMARK SMILES IDX 13 13 19 14 15 15 17 16 14 17 16 19 18 21 9 23 1 25 5 27
REMARK H PARENT 14 18 16 20 18 22 9 24 1 26 5 28
REMARK Flexibility Score: inf
ROOT
ATOM      1  C   UNL     1     -23.039  28.774  -7.400  1.00  0.00     0.402 A 
ATOM      2  O   UNL     1     -22.710  30.036  -7.663  1.00  0.00    -0.202 OA
ATOM      3  C   UNL     1     -23.555  30.916  -8.188  1.00  0.00     0.368 A 
ATOM      4  C   UNL     1     -23.115  32.221  -8.426  1.00  0.00     0.162 A 
ATOM      5  C   UNL     1     -23.985  33.169  -8.976  1.00  0.00     0.128 A 
ATOM      6  C   UNL     1     -25.298  32.810  -9.288  1.00  0.00     0.093 A 
ATOM      7  C   UNL     1     -25.762  31.508  -9.058  1.00  0.00     0.136 A 
ATOM      8  C   UNL     1     -24.883  30.542  -8.504  1.00  0.00     0.125 A 
ATOM      9  C   UNL     1     -25.258  29.211  -8.253  1.00  0.00     0.078 A 
ATOM     10  C   UNL     1     -24.334  28.315  -7.708  1.00  0.00     0.223 A 
ENDROOT
BRANCH   1  11
ATOM     11  C   UNL     1     -22.012  27.890  -6.804  1.00  0.00     0.091 A 
ATOM     12  C   UNL     1     -22.060  27.519  -5.450  1.00  0.00     0.068 A 
ATOM     13  C   UNL     1     -21.065  26.700  -4.899  1.00  0.00     0.162 A 
ATOM     14  C   UNL     1     -20.933  27.458  -7.592  1.00  0.00     0.068 A 
ATOM     15  C   UNL     1     -20.002  26.255  -5.702  1.00  0.00     0.200 A 
ATOM     16  C   UNL     1     -19.936  26.638  -7.047  1.00  0.00     0.162 A 
BRANCH  13  17
ATOM     17  O   UNL     1     -21.126  26.332  -3.555  1.00  0.00    -0.504 OA
ATOM     18  H   UNL     1     -21.319  25.377  -3.274  1.00  0.00     0.293 HD
ENDBRANCH  13  17
BRANCH  15  19
ATOM     19  O   UNL     1     -19.002  25.435  -5.177  1.00  0.00    -0.502 OA
ATOM     20  H   UNL     1     -18.897  25.282  -4.181  1.00  0.00     0.293 HD
ENDBRANCH  15  19
BRANCH  16  21
ATOM     21  O   UNL     1     -18.875  26.200  -7.837  1.00  0.00    -0.504 OA
ATOM     22  H   UNL     1     -18.250  25.464  -7.527  1.00  0.00     0.293 HD
ENDBRANCH  16  21
ENDBRANCH   1  11
BRANCH  10  23
ATOM     23  O   UNL     1     -24.690  26.981  -7.505  1.00  0.00    -0.500 OA
ATOM     24  H   UNL     1     -24.617  26.543  -6.594  1.00  0.00     0.294 HD
ENDBRANCH  10  23
BRANCH   5  25
ATOM     25  O   UNL     1     -23.554  34.472  -9.216  1.00  0.00    -0.507 OA
ATOM     26  H   UNL     1     -22.835  34.674  -9.901  1.00  0.00     0.293 HD
ENDBRANCH   5  25
BRANCH   7  27
ATOM     27  O   UNL     1     -27.090  31.231  -9.395  1.00  0.00    -0.507 OA
ATOM     28  H   UNL     1     -27.720  30.685  -8.827  1.00  0.00     0.293 HD
ENDBRANCH   7  27
TORSDOF 7
ENDMDL
MODEL 3
REMARK VINA RESULT:    27.039      3.679      7.237
REMARK INTER + INTRA:          33.033
REMARK INTER:                  32.819
REMARK INTRA:                   0.214
REMARK UNBOUND:                -0.329
REMARK SMILES Oc1cc(O)c2cc(O)c(-c3cc(O)c(O)c(O)c3)[o+]c2c1
REMARK SMILES IDX 10 1 20 2 21 3 22 4 2 5 3 6 4 7 6 8 7 9 8 10 11 11 12 12
REMARK SMILES IDX 13 13 19 14 15 15 17 16 14 17 16 19 18 21 9 23 1 25 5 27
REMARK H PARENT 14 18 16 20 18 22 9 24 1 26 5 28
REMARK Flexibility Score: inf
ROOT
ATOM      1  C   UNL     1     -25.525  31.525  -8.148  1.00  0.00     0.402 A 
ATOM      2  O   UNL     1     -24.993  30.318  -8.318  1.00  0.00    -0.202 OA
ATOM      3  C   UNL     1     -25.596  29.196  -7.942  1.00  0.00     0.368 A 
ATOM      4  C   UNL     1     -24.958  27.973  -8.166  1.00  0.00     0.162 A 
ATOM      5  C   UNL     1     -25.572  26.776  -7.783  1.00  0.00     0.128 A 
ATOM      6  C   UNL     1     -26.829  26.803  -7.174  1.00  0.00     0.093 A 
ATOM      7  C   UNL     1     -27.489  28.015  -6.940  1.00  0.00     0.136 A 
ATOM      8  C   UNL     1     -26.870  29.233  -7.323  1.00  0.00     0.125 A 
ATOM      9  C   UNL     1     -27.451  30.495  -7.115  1.00  0.00     0.078 A 
ATOM     10  C   UNL     1     -26.777  31.651  -7.517  1.00  0.00     0.223 A 
ENDROOT
BRANCH   1  11
ATOM     11  C   UNL     1     -24.758  32.702  -8.618  1.00  0.00     0.091 A 
ATOM     12  C   UNL     1     -23.354  32.726  -8.577  1.00  0.00     0.068 A 
ATOM     13  C   UNL     1     -22.648  33.859  -9.005  1.00  0.00     0.162 A 
ATOM     14  C   UNL     1     -25.449  33.842  -9.061  1.00  0.00     0.068 A 
ATOM     15  C   UNL     1     -23.348  34.986  -9.468  1.00  0.00     0.200 A 
ATOM     16  C   UNL     1     -24.748  34.977  -9.491  1.00  0.00     0.162 A 
BRANCH  13  17
ATOM     17  O   UNL     1     -21.254  33.871  -8.967  1.00  0.00    -0.504 OA
ATOM     18  H   UNL     1     -20.745  33.671  -8.113  1.00  0.00     0.293 HD
ENDBRANCH  13  17
BRANCH  15  19
ATOM     19  O   UNL     1     -22.667  36.124  -9.903  1.00  0.00    -0.502 OA
ATOM     20  H   UNL     1     -23.102  37.039  -9.921  1.00  0.00     0.293 HD
ENDBRANCH  15  19
BRANCH  16  21
ATOM     21  O   UNL     1     -25.437  36.100  -9.943  1.00  0.00    -0.504 OA
ATOM     22  H   UNL     1     -25.564  36.917  -9.356  1.00  0.00     0.293 HD
ENDBRANCH  16  21
ENDBRANCH   1  11
BRANCH  10  23
ATOM     23  O   UNL     1     -27.331  32.907  -7.265  1.00  0.00    -0.500 OA
ATOM     24  H   UNL     1     -28.238  33.172  -7.632  1.00  0.00     0.294 HD
ENDBRANCH  10  23
BRANCH   5  25
ATOM     25  O   UNL     1     -24.941  25.553  -8.003  1.00  0.00    -0.507 OA
ATOM     26  H   UNL     1     -24.713  25.236  -8.938  1.00  0.00     0.293 HD
ENDBRANCH   5  25
BRANCH   7  27
ATOM     27  O   UNL     1     -28.745  27.956  -6.329  1.00  0.00    -0.507 OA
ATOM     28  H   UNL     1     -29.319  28.760  -6.126  1.00  0.00     0.293 HD
ENDBRANCH   7  27
TORSDOF 7
ENDMDL
MODEL 4
REMARK VINA RESULT:    28.248      1.179      3.032
REMARK INTER + INTRA:          34.524
REMARK INTER:                  34.396
REMARK INTRA:                   0.128
REMARK UNBOUND:                -0.329
REMARK SMILES Oc1cc(O)c2cc(O)c(-c3cc(O)c(O)c(O)c3)[o+]c2c1
REMARK SMILES IDX 10 1 20 2 21 3 22 4 2 5 3 6 4 7 6 8 7 9 8 10 11 11 12 12
REMARK SMILES IDX 13 13 19 14 15 15 17 16 14 17 16 19 18 21 9 23 1 25 5 27
REMARK H PARENT 14 18 16 20 18 22 9 24 1 26 5 28
REMARK Flexibility Score: inf
ROOT
ATOM      1  C   UNL     1     -22.530  29.141  -7.311  1.00  0.00     0.402 A 
ATOM      2  O   UNL     1     -23.829  29.192  -7.030  1.00  0.00    -0.202 OA
ATOM      3  C   UNL     1     -24.650  30.103  -7.539  1.00  0.00     0.368 A 
ATOM      4  C   UNL     1     -26.002  30.073  -7.185  1.00  0.00     0.162 A 
ATOM      5  C   UNL     1     -26.890  31.019  -7.709  1.00  0.00     0.128 A 
ATOM      6  C   UNL     1     -26.423  31.996  -8.591  1.00  0.00     0.093 A 
ATOM      7  C   UNL     1     -25.074  32.046  -8.962  1.00  0.00     0.136 A 
ATOM      8  C   UNL     1     -24.168  31.092  -8.431  1.00  0.00     0.125 A 
ATOM      9  C   UNL     1     -22.797  31.074  -8.736  1.00  0.00     0.078 A 
ATOM     10  C   UNL     1     -21.966  30.104  -8.169  1.00  0.00     0.223 A 
ENDROOT
BRANCH   1  11
ATOM     11  C   UNL     1     -21.718  28.070  -6.688  1.00  0.00     0.091 A 
ATOM     12  C   UNL     1     -21.919  27.682  -5.353  1.00  0.00     0.068 A 
ATOM     13  C   UNL     1     -21.124  26.683  -4.774  1.00  0.00     0.162 A 
ATOM     14  C   UNL     1     -20.686  27.469  -7.426  1.00  0.00     0.068 A 
ATOM     15  C   UNL     1     -20.109  26.072  -5.528  1.00  0.00     0.200 A 
ATOM     16  C   UNL     1     -19.889  26.469  -6.853  1.00  0.00     0.162 A 
BRANCH  13  17
ATOM     17  O   UNL     1     -21.335  26.300  -3.450  1.00  0.00    -0.504 OA
ATOM     18  H   UNL     1     -20.652  25.751  -2.940  1.00  0.00     0.293 HD
ENDBRANCH  13  17
BRANCH  15  19
ATOM     19  O   UNL     1     -19.308  25.072  -4.976  1.00  0.00    -0.502 OA
ATOM     20  H   UNL     1     -18.550  25.280  -4.336  1.00  0.00     0.293 HD
ENDBRANCH  15  19
BRANCH  16  21
ATOM     21  O   UNL     1     -18.876  25.865  -7.595  1.00  0.00    -0.504 OA
ATOM     22  H   UNL     1     -18.967  25.714  -8.594  1.00  0.00     0.293 HD
ENDBRANCH  16  21
ENDBRANCH   1  11
BRANCH  10  23
ATOM     23  O   UNL     1     -20.595  30.116  -8.432  1.00  0.00    -0.500 OA
ATOM     24  H   UNL     1     -20.058  29.259  -8.495  1.00  0.00     0.294 HD
ENDBRANCH  10  23
BRANCH   5  25
ATOM     25  O   UNL     1     -28.238  30.995  -7.360  1.00  0.00    -0.507 OA
ATOM     26  H   UNL     1     -28.537  31.070  -6.394  1.00  0.00     0.293 HD
ENDBRANCH   5  25
BRANCH   7  27
ATOM     27  O   UNL     1     -24.688  33.053  -9.851  1.00  0.00    -0.507 OA
ATOM     28  H   UNL     1     -23.978  32.947 -10.561  1.00  0.00     0.293 HD
ENDBRANCH   7  27
TORSDOF 7
ENDMDL
MODEL 5
REMARK VINA RESULT:    28.310      1.198      2.470
REMARK INTER + INTRA:          34.600
REMARK INTER:                  34.565
REMARK INTRA:                   0.036
REMARK UNBOUND:                -0.329
REMARK SMILES Oc1cc(O)c2cc(O)c(-c3cc(O)c(O)c(O)c3)[o+]c2c1
REMARK SMILES IDX 10 1 20 2 21 3 22 4 2 5 3 6 4 7 6 8 7 9 8 10 11 11 12 12
REMARK SMILES IDX 13 13 19 14 15 15 17 16 14 17 16 19 18 21 9 23 1 25 5 27
REMARK H PARENT 14 18 16 20 18 22 9 24 1 26 5 28
REMARK Flexibility Score: inf
ROOT
ATOM      1  C   UNL     1     -22.506  29.180  -7.329  1.00  0.00     0.402 A 
ATOM      2  O   UNL     1     -23.803  29.200  -7.034  1.00  0.00    -0.202 OA
ATOM      3  C   UNL     1     -24.652  30.089  -7.536  1.00  0.00     0.368 A 
ATOM      4  C   UNL     1     -25.998  30.028  -7.167  1.00  0.00     0.162 A 
ATOM      5  C   UNL     1     -26.914  30.950  -7.683  1.00  0.00     0.128 A 
ATOM      6  C   UNL     1     -26.481  31.937  -8.572  1.00  0.00     0.093 A 
ATOM      7  C   UNL     1     -25.137  32.019  -8.957  1.00  0.00     0.136 A 
ATOM      8  C   UNL     1     -24.203  31.088  -8.434  1.00  0.00     0.125 A 
ATOM      9  C   UNL     1     -22.835  31.103  -8.754  1.00  0.00     0.078 A 
ATOM     10  C   UNL     1     -21.975  30.155  -8.194  1.00  0.00     0.223 A 
ENDROOT
BRANCH   1  11
ATOM     11  C   UNL     1     -21.662  28.131  -6.712  1.00  0.00     0.091 A 
ATOM     12  C   UNL     1     -20.652  27.481  -7.441  1.00  0.00     0.068 A 
ATOM     13  C   UNL     1     -19.879  26.474  -6.846  1.00  0.00     0.162 A 
ATOM     14  C   UNL     1     -21.912  27.734  -5.389  1.00  0.00     0.068 A 
ATOM     15  C   UNL     1     -20.122  26.100  -5.514  1.00  0.00     0.200 A 
ATOM     16  C   UNL     1     -21.142  26.729  -4.788  1.00  0.00     0.162 A 
BRANCH  13  17
ATOM     17  O   UNL     1     -18.875  25.839  -7.576  1.00  0.00    -0.504 OA
ATOM     18  H   UNL     1     -17.964  25.650  -7.173  1.00  0.00     0.293 HD
ENDBRANCH  13  17
BRANCH  15  19
ATOM     19  O   UNL     1     -19.364  25.104  -4.898  1.00  0.00    -0.502 OA
ATOM     20  H   UNL     1     -18.393  24.940  -5.138  1.00  0.00     0.293 HD
ENDBRANCH  15  19
BRANCH  16  21
ATOM     21  O   UNL     1     -21.384  26.350  -3.470  1.00  0.00    -0.504 OA
ATOM     22  H   UNL     1     -21.770  25.441  -3.241  1.00  0.00     0.293 HD
ENDBRANCH  16  21
ENDBRANCH   1  11
BRANCH  10  23
ATOM     23  O   UNL     1     -20.608  30.200  -8.472  1.00  0.00    -0.500 OA
ATOM     24  H   UNL     1     -19.929  30.451  -7.763  1.00  0.00     0.294 HD
ENDBRANCH  10  23
BRANCH   5  25
ATOM     25  O   UNL     1     -28.258  30.895  -7.320  1.00  0.00    -0.507 OA
ATOM     26  H   UNL     1     -28.618  31.430  -6.538  1.00  0.00     0.293 HD
ENDBRANCH   5  25
BRANCH   7  27
ATOM     27  O   UNL     1     -24.786  33.034  -9.852  1.00  0.00    -0.507 OA
ATOM     28  H   UNL     1     -25.318  33.880  -9.994  1.00  0.00     0.293 HD
ENDBRANCH   7  27
TORSDOF 7
ENDMDL
MODEL 6
REMARK VINA RESULT:    29.506      4.979      7.209
REMARK INTER + INTRA:          36.077
REMARK INTER:                  36.419
REMARK INTRA:                  -0.343
REMARK UNBOUND:                -0.329
REMARK SMILES Oc1cc(O)c2cc(O)c(-c3cc(O)c(O)c(O)c3)[o+]c2c1
REMARK SMILES IDX 10 1 20 2 21 3 22 4 2 5 3 6 4 7 6 8 7 9 8 10 11 11 12 12
REMARK SMILES IDX 13 13 19 14 15 15 17 16 14 17 16 19 18 21 9 23 1 25 5 27
REMARK H PARENT 14 18 16 20 18 22 9 24 1 26 5 28
REMARK Flexibility Score: inf
ROOT
ATOM      1  C   UNL     1     -25.380  31.698  -8.121  1.00  0.00     0.402 A 
ATOM      2  O   UNL     1     -25.552  31.628  -6.804  1.00  0.00    -0.202 OA
ATOM      3  C   UNL     1     -26.229  30.654  -6.207  1.00  0.00     0.368 A 
ATOM      4  C   UNL     1     -26.353  30.666  -4.815  1.00  0.00     0.162 A 
ATOM      5  C   UNL     1     -27.059  29.651  -4.160  1.00  0.00     0.128 A 
ATOM      6  C   UNL     1     -27.641  28.620  -4.901  1.00  0.00     0.093 A 
ATOM      7  C   UNL     1     -27.530  28.585  -6.297  1.00  0.00     0.136 A 
ATOM      8  C   UNL     1     -26.818  29.614  -6.967  1.00  0.00     0.125 A 
ATOM      9  C   UNL     1     -26.668  29.667  -8.362  1.00  0.00     0.078 A 
ATOM     10  C   UNL     1     -25.956  30.717  -8.950  1.00  0.00     0.223 A 
ENDROOT
BRANCH   1  11
ATOM     11  C   UNL     1     -24.596  32.829  -8.668  1.00  0.00     0.091 A 
ATOM     12  C   UNL     1     -23.192  32.843  -8.610  1.00  0.00     0.068 A 
ATOM     13  C   UNL     1     -22.469  33.933  -9.113  1.00  0.00     0.162 A 
ATOM     14  C   UNL     1     -25.269  33.939  -9.203  1.00  0.00     0.068 A 
ATOM     15  C   UNL     1     -23.151  35.029  -9.667  1.00  0.00     0.200 A 
ATOM     16  C   UNL     1     -24.551  35.032  -9.708  1.00  0.00     0.162 A 
BRANCH  13  17
ATOM     17  O   UNL     1     -21.076  33.935  -9.057  1.00  0.00    -0.504 OA
ATOM     18  H   UNL     1     -20.540  34.785  -9.196  1.00  0.00     0.293 HD
ENDBRANCH  13  17
BRANCH  15  19
ATOM     19  O   UNL     1     -22.453  36.125 -10.177  1.00  0.00    -0.502 OA
ATOM     20  H   UNL     1     -22.885  36.795 -10.802  1.00  0.00     0.293 HD
ENDBRANCH  15  19
BRANCH  16  21
ATOM     21  O   UNL     1     -25.223  36.124 -10.251  1.00  0.00    -0.504 OA
ATOM     22  H   UNL     1     -25.088  36.404 -11.217  1.00  0.00     0.293 HD
ENDBRANCH  16  21
ENDBRANCH   1  11
BRANCH  10  23
ATOM     23  O   UNL     1     -25.848  30.798 -10.339  1.00  0.00    -0.500 OA
ATOM     24  H   UNL     1     -25.822  29.968 -10.920  1.00  0.00     0.294 HD
ENDBRANCH  10  23
BRANCH   5  25
ATOM     25  O   UNL     1     -27.187  29.657  -2.773  1.00  0.00    -0.507 OA
ATOM     26  H   UNL     1     -27.074  30.508  -2.235  1.00  0.00     0.293 HD
ENDBRANCH   5  25
BRANCH   7  27
ATOM     27  O   UNL     1     -28.138  27.517  -6.964  1.00  0.00    -0.507 OA
ATOM     28  H   UNL     1     -28.233  27.451  -7.966  1.00  0.00     0.293 HD
ENDBRANCH   7  27
TORSDOF 7
ENDMDL
