MODEL 1
REMARK VINA RESULT:    -4.327      0.000      0.000
REMARK INTER + INTRA:          -4.881
REMARK INTER:                  -4.706
REMARK INTRA:                  -0.175
REMARK UNBOUND:                -0.175
REMARK SMILES Cc1ccc(C(C)C)c(O)c1
REMARK SMILES IDX 1 1 2 2 11 3 9 4 5 5 4 6 3 7 10 8 6 10 7 11 8 12
REMARK H PARENT 10 9
REMARK Flexibility Score: inf
ROOT
ATOM      1  C   UNL     1      26.254 -36.377   0.742  1.00  0.00     0.044 C 
ATOM      2  C   UNL     1      26.509 -37.716   0.119  1.00  0.00    -0.047 A 
ATOM      3  C   UNL     1      26.091 -38.887   0.766  1.00  0.00     0.049 A 
ATOM      4  C   UNL     1      26.293 -40.142   0.173  1.00  0.00     0.119 A 
ATOM      5  C   UNL     1      26.910 -40.235  -1.094  1.00  0.00    -0.004 A 
ATOM      6  C   UNL     1      27.307 -39.049  -1.743  1.00  0.00     0.008 A 
ATOM      7  C   UNL     1      27.102 -37.805  -1.145  1.00  0.00     0.004 A 
ENDROOT
BRANCH   4   8
ATOM      8  O   UNL     1      25.875 -41.293   0.843  1.00  0.00    -0.508 OA
ATOM      9  H   UNL     1      24.958 -41.694   0.693  1.00  0.00     0.293 HD
ENDBRANCH   4   8
BRANCH   5  10
ATOM     10  C   UNL     1      27.139 -41.585  -1.758  1.00  0.00     0.017 C 
ATOM     11  C   UNL     1      28.434 -42.236  -1.256  1.00  0.00     0.012 C 
ATOM     12  C   UNL     1      27.145 -41.455  -3.286  1.00  0.00     0.012 C 
ENDBRANCH   5  10
TORSDOF 2
ENDMDL
MODEL 2
REMARK VINA RESULT:    -4.006     22.244     23.407
REMARK INTER + INTRA:          -4.532
REMARK INTER:                  -4.332
REMARK INTRA:                  -0.200
REMARK UNBOUND:                -0.175
REMARK SMILES Cc1ccc(C(C)C)c(O)c1
REMARK SMILES IDX 1 1 2 2 11 3 9 4 5 5 4 6 3 7 10 8 6 10 7 11 8 12
REMARK H PARENT 10 9
REMARK Flexibility Score: inf
ROOT
ATOM      1  C   UNL     1      45.521 -35.250  13.125  1.00  0.00     0.044 C 
ATOM      2  C   UNL     1      45.192 -33.947  12.459  1.00  0.00    -0.047 A 
ATOM      3  C   UNL     1      45.765 -32.755  12.919  1.00  0.00     0.049 A 
ATOM      4  C   UNL     1      45.492 -31.536  12.279  1.00  0.00     0.119 A 
ATOM      5  C   UNL     1      44.642 -31.505  11.151  1.00  0.00    -0.004 A 
ATOM      6  C   UNL     1      44.088 -32.714  10.686  1.00  0.00     0.008 A 
ATOM      7  C   UNL     1      44.366 -33.921  11.329  1.00  0.00     0.004 A 
ENDROOT
BRANCH   4   8
ATOM      8  O   UNL     1      46.068 -30.362  12.764  1.00  0.00    -0.508 OA
ATOM      9  H   UNL     1      46.947 -30.368  13.268  1.00  0.00     0.293 HD
ENDBRANCH   4   8
BRANCH   5  10
ATOM     10  C   UNL     1      44.331 -30.196  10.439  1.00  0.00     0.017 C 
ATOM     11  C   UNL     1      42.833 -30.075  10.132  1.00  0.00     0.012 C 
ATOM     12  C   UNL     1      45.167 -30.051   9.162  1.00  0.00     0.012 C 
ENDBRANCH   5  10
TORSDOF 2
ENDMDL
MODEL 3
REMARK VINA RESULT:    -3.975      1.870      2.830
REMARK INTER + INTRA:          -4.498
REMARK INTER:                  -4.451
REMARK INTRA:                  -0.047
REMARK UNBOUND:                -0.175
REMARK SMILES Cc1ccc(C(C)C)c(O)c1
REMARK SMILES IDX 1 1 2 2 11 3 9 4 5 5 4 6 3 7 10 8 6 10 7 11 8 12
REMARK H PARENT 10 9
REMARK Flexibility Score: inf
ROOT
ATOM      1  C   UNL     1      25.875 -39.134   3.160  1.00  0.00     0.044 C 
ATOM      2  C   UNL     1      26.147 -39.339   1.700  1.00  0.00    -0.047 A 
ATOM      3  C   UNL     1      26.622 -38.280   0.914  1.00  0.00     0.049 A 
ATOM      4  C   UNL     1      26.914 -38.473  -0.444  1.00  0.00     0.119 A 
ATOM      5  C   UNL     1      26.743 -39.746  -1.031  1.00  0.00    -0.004 A 
ATOM      6  C   UNL     1      26.285 -40.808  -0.226  1.00  0.00     0.008 A 
ATOM      7  C   UNL     1      25.997 -40.606   1.126  1.00  0.00     0.004 A 
ENDROOT
BRANCH   4   8
ATOM      8  O   UNL     1      27.376 -37.399  -1.205  1.00  0.00    -0.508 OA
ATOM      9  H   UNL     1      27.291 -37.385  -2.214  1.00  0.00     0.293 HD
ENDBRANCH   4   8
BRANCH   5  10
ATOM     10  C   UNL     1      27.054 -39.980  -2.502  1.00  0.00     0.017 C 
ATOM     11  C   UNL     1      26.020 -39.292  -3.402  1.00  0.00     0.012 C 
ATOM     12  C   UNL     1      27.145 -41.478  -2.815  1.00  0.00     0.012 C 
ENDBRANCH   5  10
TORSDOF 2
ENDMDL
MODEL 4
REMARK VINA RESULT:    -3.972      1.911      4.354
REMARK INTER + INTRA:          -4.495
REMARK INTER:                  -4.732
REMARK INTRA:                   0.237
REMARK UNBOUND:                -0.175
REMARK SMILES Cc1ccc(C(C)C)c(O)c1
REMARK SMILES IDX 1 1 2 2 11 3 9 4 5 5 4 6 3 7 10 8 6 10 7 11 8 12
REMARK H PARENT 10 9
REMARK Flexibility Score: inf
ROOT
ATOM      1  C   UNL     1      26.515 -40.981  -3.859  1.00  0.00     0.044 C 
ATOM      2  C   UNL     1      26.559 -40.317  -2.515  1.00  0.00    -0.047 A 
ATOM      3  C   UNL     1      27.072 -39.020  -2.385  1.00  0.00     0.049 A 
ATOM      4  C   UNL     1      27.083 -38.376  -1.139  1.00  0.00     0.119 A 
ATOM      5  C   UNL     1      26.562 -39.031  -0.000  1.00  0.00    -0.004 A 
ATOM      6  C   UNL     1      26.030 -40.327  -0.148  1.00  0.00     0.008 A 
ATOM      7  C   UNL     1      26.023 -40.959  -1.393  1.00  0.00     0.004 A 
ENDROOT
BRANCH   4   8
ATOM      8  O   UNL     1      27.609 -37.088  -1.036  1.00  0.00    -0.508 OA
ATOM      9  H   UNL     1      27.035 -36.298  -0.767  1.00  0.00     0.293 HD
ENDBRANCH   4   8
BRANCH   5  10
ATOM     10  C   UNL     1      26.562 -38.354   1.363  1.00  0.00     0.017 C 
ATOM     11  C   UNL     1      25.901 -39.244   2.422  1.00  0.00     0.012 C 
ATOM     12  C   UNL     1      25.884 -36.981   1.296  1.00  0.00     0.012 C 
ENDBRANCH   5  10
TORSDOF 2
ENDMDL
MODEL 5
REMARK VINA RESULT:    -3.925      1.631      2.372
REMARK INTER + INTRA:          -4.444
REMARK INTER:                  -4.543
REMARK INTRA:                   0.099
REMARK UNBOUND:                -0.175
REMARK SMILES Cc1ccc(C(C)C)c(O)c1
REMARK SMILES IDX 1 1 2 2 11 3 9 4 5 5 4 6 3 7 10 8 6 10 7 11 8 12
REMARK H PARENT 10 9
REMARK Flexibility Score: inf
ROOT
ATOM      1  C   UNL     1      26.991 -36.000  -0.001  1.00  0.00     0.044 C 
ATOM      2  C   UNL     1      26.827 -37.485  -0.124  1.00  0.00    -0.047 A 
ATOM      3  C   UNL     1      27.140 -38.133  -1.326  1.00  0.00     0.049 A 
ATOM      4  C   UNL     1      27.025 -39.527  -1.439  1.00  0.00     0.119 A 
ATOM      5  C   UNL     1      26.601 -40.293  -0.331  1.00  0.00    -0.004 A 
ATOM      6  C   UNL     1      26.308 -39.632   0.879  1.00  0.00     0.008 A 
ATOM      7  C   UNL     1      26.427 -38.245   0.981  1.00  0.00     0.004 A 
ENDROOT
BRANCH   4   8
ATOM      8  O   UNL     1      27.335 -40.145  -2.651  1.00  0.00    -0.508 OA
ATOM      9  H   UNL     1      28.058 -39.787  -3.263  1.00  0.00     0.293 HD
ENDBRANCH   4   8
BRANCH   5  10
ATOM     10  C   UNL     1      26.469 -41.806  -0.428  1.00  0.00     0.017 C 
ATOM     11  C   UNL     1      25.875 -42.393   0.859  1.00  0.00     0.012 C 
ATOM     12  C   UNL     1      27.816 -42.457  -0.759  1.00  0.00     0.012 C 
ENDBRANCH   5  10
TORSDOF 2
ENDMDL
MODEL 6
REMARK VINA RESULT:    -3.760     21.849     23.116
REMARK INTER + INTRA:          -4.265
REMARK INTER:                  -4.075
REMARK INTRA:                  -0.189
REMARK UNBOUND:                -0.175
REMARK SMILES Cc1ccc(C(C)C)c(O)c1
REMARK SMILES IDX 1 1 2 2 11 3 9 4 5 5 4 6 3 7 10 8 6 10 7 11 8 12
REMARK H PARENT 10 9
REMARK Flexibility Score: inf
ROOT
ATOM      1  C   UNL     1      46.111 -35.009  13.125  1.00  0.00     0.044 C 
ATOM      2  C   UNL     1      45.430 -33.801  12.554  1.00  0.00    -0.047 A 
ATOM      3  C   UNL     1      44.419 -33.948  11.595  1.00  0.00     0.049 A 
ATOM      4  C   UNL     1      43.751 -32.825  11.083  1.00  0.00     0.119 A 
ATOM      5  C   UNL     1      44.087 -31.532  11.541  1.00  0.00    -0.004 A 
ATOM      6  C   UNL     1      45.091 -31.399  12.520  1.00  0.00     0.008 A 
ATOM      7  C   UNL     1      45.750 -32.522  13.024  1.00  0.00     0.004 A 
ENDROOT
BRANCH   4   8
ATOM      8  O   UNL     1      42.754 -33.000  10.122  1.00  0.00    -0.508 OA
ATOM      9  H   UNL     1      42.023 -32.313   9.981  1.00  0.00     0.293 HD
ENDBRANCH   4   8
BRANCH   5  10
ATOM     10  C   UNL     1      43.376 -30.299  11.000  1.00  0.00     0.017 C 
ATOM     11  C   UNL     1      44.063 -29.776   9.732  1.00  0.00     0.012 C 
ATOM     12  C   UNL     1      43.285 -29.203  12.068  1.00  0.00     0.012 C 
ENDBRANCH   5  10
TORSDOF 2
ENDMDL
MODEL 7
REMARK VINA RESULT:    -3.719      1.100      3.963
REMARK INTER + INTRA:          -4.220
REMARK INTER:                  -4.668
REMARK INTRA:                   0.448
REMARK UNBOUND:                -0.175
REMARK SMILES Cc1ccc(C(C)C)c(O)c1
REMARK SMILES IDX 1 1 2 2 11 3 9 4 5 5 4 6 3 7 10 8 6 10 7 11 8 12
REMARK H PARENT 10 9
REMARK Flexibility Score: inf
ROOT
ATOM      1  C   UNL     1      26.421 -41.628  -4.003  1.00  0.00     0.044 C 
ATOM      2  C   UNL     1      26.532 -40.678  -2.848  1.00  0.00    -0.047 A 
ATOM      3  C   UNL     1      26.383 -41.142  -1.535  1.00  0.00     0.049 A 
ATOM      4  C   UNL     1      26.521 -40.267  -0.447  1.00  0.00     0.119 A 
ATOM      5  C   UNL     1      26.826 -38.905  -0.669  1.00  0.00    -0.004 A 
ATOM      6  C   UNL     1      26.994 -38.456  -1.993  1.00  0.00     0.008 A 
ATOM      7  C   UNL     1      26.855 -39.334  -3.069  1.00  0.00     0.004 A 
ENDROOT
BRANCH   4   8
ATOM      8  O   UNL     1      26.357 -40.754   0.850  1.00  0.00    -0.508 OA
ATOM      9  H   UNL     1      27.099 -41.249   1.331  1.00  0.00     0.293 HD
ENDBRANCH   4   8
BRANCH   5  10
ATOM     10  C   UNL     1      26.982 -37.937   0.495  1.00  0.00     0.017 C 
ATOM     11  C   UNL     1      25.877 -38.144   1.539  1.00  0.00     0.012 C 
ATOM     12  C   UNL     1      27.009 -36.485   0.004  1.00  0.00     0.012 C 
ENDBRANCH   5  10
TORSDOF 2
ENDMDL
MODEL 8
REMARK VINA RESULT:    -3.571     21.115     22.337
REMARK INTER + INTRA:          -4.059
REMARK INTER:                  -3.864
REMARK INTRA:                  -0.195
REMARK UNBOUND:                -0.175
REMARK SMILES Cc1ccc(C(C)C)c(O)c1
REMARK SMILES IDX 1 1 2 2 11 3 9 4 5 5 4 6 3 7 10 8 6 10 7 11 8 12
REMARK H PARENT 10 9
REMARK Flexibility Score: inf
ROOT
ATOM      1  C   UNL     1      45.857 -35.136  13.125  1.00  0.00     0.044 C 
ATOM      2  C   UNL     1      44.938 -34.138  12.487  1.00  0.00    -0.047 A 
ATOM      3  C   UNL     1      45.388 -33.341  11.426  1.00  0.00     0.049 A 
ATOM      4  C   UNL     1      44.524 -32.430  10.799  1.00  0.00     0.119 A 
ATOM      5  C   UNL     1      43.182 -32.318  11.227  1.00  0.00    -0.004 A 
ATOM      6  C   UNL     1      42.736 -33.141  12.280  1.00  0.00     0.008 A 
ATOM      7  C   UNL     1      43.603 -34.044  12.898  1.00  0.00     0.004 A 
ENDROOT
BRANCH   4   8
ATOM      8  O   UNL     1      45.002 -31.641   9.752  1.00  0.00    -0.508 OA
ATOM      9  H   UNL     1      44.403 -30.991   9.259  1.00  0.00     0.293 HD
ENDBRANCH   4   8
BRANCH   5  10
ATOM     10  C   UNL     1      42.226 -31.339  10.562  1.00  0.00     0.017 C 
ATOM     11  C   UNL     1      42.270 -29.969  11.251  1.00  0.00     0.012 C 
ATOM     12  C   UNL     1      40.798 -31.896  10.534  1.00  0.00     0.012 C 
ENDBRANCH   5  10
TORSDOF 2
ENDMDL
MODEL 9
REMARK VINA RESULT:    -3.413     21.062     22.029
REMARK INTER + INTRA:          -3.888
REMARK INTER:                  -3.706
REMARK INTRA:                  -0.181
REMARK UNBOUND:                -0.175
REMARK SMILES Cc1ccc(C(C)C)c(O)c1
REMARK SMILES IDX 1 1 2 2 11 3 9 4 5 5 4 6 3 7 10 8 6 10 7 11 8 12
REMARK H PARENT 10 9
REMARK Flexibility Score: inf
ROOT
ATOM      1  C   UNL     1      41.229 -29.019   9.711  1.00  0.00     0.044 C 
ATOM      2  C   UNL     1      42.098 -30.146  10.185  1.00  0.00    -0.047 A 
ATOM      3  C   UNL     1      43.392 -30.304   9.673  1.00  0.00     0.049 A 
ATOM      4  C   UNL     1      44.224 -31.333  10.138  1.00  0.00     0.119 A 
ATOM      5  C   UNL     1      43.765 -32.215  11.142  1.00  0.00    -0.004 A 
ATOM      6  C   UNL     1      42.469 -32.032  11.663  1.00  0.00     0.008 A 
ATOM      7  C   UNL     1      41.649 -31.005  11.194  1.00  0.00     0.004 A 
ENDROOT
BRANCH   4   8
ATOM      8  O   UNL     1      45.505 -31.474   9.603  1.00  0.00    -0.508 OA
ATOM      9  H   UNL     1      45.682 -31.382   8.610  1.00  0.00     0.293 HD
ENDBRANCH   4   8
BRANCH   5  10
ATOM     10  C   UNL     1      44.650 -33.338  11.663  1.00  0.00     0.017 C 
ATOM     11  C   UNL     1      43.809 -34.535  12.125  1.00  0.00     0.012 C 
ATOM     12  C   UNL     1      45.565 -32.842  12.788  1.00  0.00     0.012 C 
ENDBRANCH   5  10
TORSDOF 2
ENDMDL
