MODEL 1
REMARK VINA RESULT:     0.000      0.000      0.000
REMARK INTER + INTRA:          -3.250
REMARK INTER:                   0.000
REMARK INTRA:                  -3.250
REMARK UNBOUND:                -3.250
REMARK SMILES CC(=O)CCC[C@H](C)CCC[C@@H](C)CCCC(C)C
REMARK SMILES IDX 10 1 11 2 12 3 13 4 14 5 15 6 16 7 17 8 18 9 19 10 9 11 7 12
REMARK SMILES IDX 8 13 6 14 5 15 4 16 2 17 3 18 1 19
REMARK H PARENT
REMARK Flexibility Score: inf
ROOT
ATOM      1  C   UNL     1     108.759 113.394 118.384  1.00  0.00     0.001 C 
ENDROOT
BRANCH   1   2
ATOM      2  C   UNL     1     107.224 113.587 118.421  1.00  0.00     0.003 C 
BRANCH   2   3
ATOM      3  C   UNL     1     106.332 112.401 117.953  1.00  0.00    -0.014 C 
ATOM      4  C   UNL     1     106.173 111.319 119.035  1.00  0.00     0.007 C 
BRANCH   3   5
ATOM      5  C   UNL     1     104.972 112.869 117.371  1.00  0.00     0.003 C 
BRANCH   5   6
ATOM      6  C   UNL     1     105.043 113.517 115.975  1.00  0.00     0.001 C 
BRANCH   6   7
ATOM      7  C   UNL     1     106.131 112.904 115.075  1.00  0.00     0.003 C 
BRANCH   7   8
ATOM      8  C   UNL     1     106.831 113.955 114.184  1.00  0.00    -0.017 C 
ATOM      9  C   UNL     1     108.065 113.337 113.510  1.00  0.00     0.007 C 
ATOM     10  C   UNL     1     107.249 115.201 114.983  1.00  0.00     0.007 C 
ENDBRANCH   7   8
ENDBRANCH   6   7
ENDBRANCH   5   6
ENDBRANCH   3   5
ENDBRANCH   2   3
ENDBRANCH   1   2
BRANCH   1  11
ATOM     11  C   UNL     1     109.367 112.988 117.028  1.00  0.00     0.003 C 
BRANCH  11  12
ATOM     12  C   UNL     1     109.924 111.543 116.947  1.00  0.00    -0.014 C 
ATOM     13  C   UNL     1     109.805 110.824 118.303  1.00  0.00     0.007 C 
BRANCH  12  14
ATOM     14  C   UNL     1     109.177 110.769 115.834  1.00  0.00     0.004 C 
BRANCH  14  15
ATOM     15  C   UNL     1     108.243 109.677 116.382  1.00  0.00     0.008 C 
BRANCH  15  16
ATOM     16  C   UNL     1     107.100 109.389 115.402  1.00  0.00     0.075 C 
BRANCH  16  17
ATOM     17  C   UNL     1     105.838 109.035 116.144  1.00  0.00     0.129 C 
ATOM     18  O   UNL     1     105.899 108.298 117.118  1.00  0.00    -0.300 OA
ATOM     19  C   UNL     1     104.500 109.557 115.708  1.00  0.00     0.087 C 
ENDBRANCH  16  17
ENDBRANCH  15  16
ENDBRANCH  14  15
ENDBRANCH  12  14
ENDBRANCH  11  12
ENDBRANCH   1  11
TORSDOF 12
ENDMDL
MODEL 2
REMARK VINA RESULT:     0.004      7.582     10.155
REMARK INTER + INTRA:          -3.243
REMARK INTER:                   0.000
REMARK INTRA:                  -3.243
REMARK UNBOUND:                -3.250
REMARK SMILES CC(=O)CCC[C@H](C)CCC[C@@H](C)CCCC(C)C
REMARK SMILES IDX 10 1 11 2 12 3 13 4 14 5 15 6 16 7 17 8 18 9 19 10 9 11 7 12
REMARK SMILES IDX 8 13 6 14 5 15 4 16 2 17 3 18 1 19
REMARK H PARENT
REMARK Flexibility Score: inf
ROOT
ATOM      1  C   UNL     1     104.515 103.700 112.249  1.00  0.00     0.001 C 
ENDROOT
BRANCH   1   2
ATOM      2  C   UNL     1     103.589 104.887 112.606  1.00  0.00     0.003 C 
BRANCH   2   3
ATOM      3  C   UNL     1     102.731 105.508 111.466  1.00  0.00    -0.014 C 
ATOM      4  C   UNL     1     101.401 104.763 111.255  1.00  0.00     0.007 C 
BRANCH   3   5
ATOM      5  C   UNL     1     102.539 107.038 111.627  1.00  0.00     0.003 C 
BRANCH   5   6
ATOM      6  C   UNL     1     103.810 107.885 111.419  1.00  0.00     0.001 C 
BRANCH   6   7
ATOM      7  C   UNL     1     104.629 107.457 110.187  1.00  0.00     0.003 C 
BRANCH   7   8
ATOM      8  C   UNL     1     106.148 107.672 110.378  1.00  0.00    -0.017 C 
ATOM      9  C   UNL     1     106.931 106.844 109.348  1.00  0.00     0.007 C 
ATOM     10  C   UNL     1     106.609 107.299 111.796  1.00  0.00     0.007 C 
ENDBRANCH   7   8
ENDBRANCH   6   7
ENDBRANCH   5   6
ENDBRANCH   3   5
ENDBRANCH   2   3
ENDBRANCH   1   2
BRANCH   1  11
ATOM     11  C   UNL     1     105.416 103.880 111.013  1.00  0.00     0.003 C 
BRANCH  11  12
ATOM     12  C   UNL     1     105.081 102.975 109.799  1.00  0.00    -0.014 C 
ATOM     13  C   UNL     1     103.823 102.130 110.066  1.00  0.00     0.007 C 
BRANCH  12  14
ATOM     14  C   UNL     1     104.908 103.855 108.537  1.00  0.00     0.004 C 
BRANCH  14  15
ATOM     15  C   UNL     1     103.435 104.082 108.158  1.00  0.00     0.008 C 
BRANCH  15  16
ATOM     16  C   UNL     1     103.236 105.468 107.533  1.00  0.00     0.075 C 
BRANCH  16  17
ATOM     17  C   UNL     1     101.829 105.957 107.757  1.00  0.00     0.129 C 
ATOM     18  O   UNL     1     100.901 105.164 107.702  1.00  0.00    -0.300 OA
ATOM     19  C   UNL     1     101.538 107.402 108.036  1.00  0.00     0.087 C 
ENDBRANCH  16  17
ENDBRANCH  15  16
ENDBRANCH  14  15
ENDBRANCH  12  14
ENDBRANCH  11  12
ENDBRANCH   1  11
TORSDOF 12
ENDMDL
MODEL 3
REMARK VINA RESULT:     0.018      6.659      9.051
REMARK INTER + INTRA:          -3.219
REMARK INTER:                   0.000
REMARK INTRA:                  -3.219
REMARK UNBOUND:                -3.250
REMARK SMILES CC(=O)CCC[C@H](C)CCC[C@@H](C)CCCC(C)C
REMARK SMILES IDX 10 1 11 2 12 3 13 4 14 5 15 6 16 7 17 8 18 9 19 10 9 11 7 12
REMARK SMILES IDX 8 13 6 14 5 15 4 16 2 17 3 18 1 19
REMARK H PARENT
REMARK Flexibility Score: inf
ROOT
ATOM      1  C   UNL     1     110.149 110.530 111.685  1.00  0.00     0.001 C 
ENDROOT
BRANCH   1   2
ATOM      2  C   UNL     1     111.339 111.345 111.124  1.00  0.00     0.003 C 
BRANCH   2   3
ATOM      3  C   UNL     1     112.374 110.600 110.232  1.00  0.00    -0.014 C 
ATOM      4  C   UNL     1     112.061 110.729 108.731  1.00  0.00     0.007 C 
BRANCH   3   5
ATOM      5  C   UNL     1     113.839 110.980 110.572  1.00  0.00     0.003 C 
BRANCH   5   6
ATOM      6  C   UNL     1     114.107 111.305 112.054  1.00  0.00     0.001 C 
BRANCH   6   7
ATOM      7  C   UNL     1     114.300 110.051 112.926  1.00  0.00     0.003 C 
BRANCH   7   8
ATOM      8  C   UNL     1     113.939 110.293 114.410  1.00  0.00    -0.017 C 
ATOM      9  C   UNL     1     113.378 109.007 115.032  1.00  0.00     0.007 C 
ATOM     10  C   UNL     1     112.921 111.434 114.575  1.00  0.00     0.007 C 
ENDBRANCH   7   8
ENDBRANCH   6   7
ENDBRANCH   5   6
ENDBRANCH   3   5
ENDBRANCH   2   3
ENDBRANCH   1   2
BRANCH   1  11
ATOM     11  C   UNL     1     110.497 109.402 112.675  1.00  0.00     0.003 C 
BRANCH  11  12
ATOM     12  C   UNL     1     110.452 107.963 112.098  1.00  0.00    -0.014 C 
ATOM     13  C   UNL     1     109.838 107.950 110.686  1.00  0.00     0.007 C 
BRANCH  12  14
ATOM     14  C   UNL     1     111.880 107.368 112.094  1.00  0.00     0.004 C 
BRANCH  14  15
ATOM     15  C   UNL     1     112.336 106.902 110.701  1.00  0.00     0.008 C 
BRANCH  15  16
ATOM     16  C   UNL     1     113.822 107.209 110.478  1.00  0.00     0.075 C 
BRANCH  16  17
ATOM     17  C   UNL     1     114.087 107.537 109.033  1.00  0.00     0.129 C 
ATOM     18  O   UNL     1     115.128 108.098 108.724  1.00  0.00    -0.300 OA
ATOM     19  C   UNL     1     113.094 107.201 107.959  1.00  0.00     0.087 C 
ENDBRANCH  16  17
ENDBRANCH  15  16
ENDBRANCH  14  15
ENDBRANCH  12  14
ENDBRANCH  11  12
ENDBRANCH   1  11
TORSDOF 12
ENDMDL
MODEL 4
REMARK VINA RESULT:     0.020      3.173      6.055
REMARK INTER + INTRA:          -3.216
REMARK INTER:                   0.000
REMARK INTRA:                  -3.216
REMARK UNBOUND:                -3.250
REMARK SMILES CC(=O)CCC[C@H](C)CCC[C@@H](C)CCCC(C)C
REMARK SMILES IDX 10 1 11 2 12 3 13 4 14 5 15 6 16 7 17 8 18 9 19 10 9 11 7 12
REMARK SMILES IDX 8 13 6 14 5 15 4 16 2 17 3 18 1 19
REMARK H PARENT
REMARK Flexibility Score: inf
ROOT
ATOM      1  C   UNL     1     112.298 108.868 116.604  1.00  0.00     0.001 C 
ENDROOT
BRANCH   1   2
ATOM      2  C   UNL     1     111.954 108.944 118.111  1.00  0.00     0.003 C 
BRANCH   2   3
ATOM      3  C   UNL     1     110.755 109.838 118.538  1.00  0.00    -0.014 C 
ATOM      4  C   UNL     1     109.447 109.041 118.686  1.00  0.00     0.007 C 
BRANCH   3   5
ATOM      5  C   UNL     1     111.070 110.707 119.784  1.00  0.00     0.003 C 
BRANCH   5   6
ATOM      6  C   UNL     1     112.546 111.120 119.941  1.00  0.00     0.001 C 
BRANCH   6   7
ATOM      7  C   UNL     1     112.914 112.378 119.134  1.00  0.00     0.003 C 
BRANCH   7   8
ATOM      8  C   UNL     1     114.414 112.434 118.766  1.00  0.00    -0.017 C 
ATOM      9  C   UNL     1     114.597 113.106 117.397  1.00  0.00     0.007 C 
ATOM     10  C   UNL     1     115.054 111.036 118.743  1.00  0.00     0.007 C 
ENDBRANCH   7   8
ENDBRANCH   6   7
ENDBRANCH   5   6
ENDBRANCH   3   5
ENDBRANCH   2   3
ENDBRANCH   1   2
BRANCH   1  11
ATOM     11  C   UNL     1     112.795 110.169 115.947  1.00  0.00     0.003 C 
BRANCH  11  12
ATOM     12  C   UNL     1     111.757 110.920 115.072  1.00  0.00    -0.014 C 
ATOM     13  C   UNL     1     110.494 110.067 114.853  1.00  0.00     0.007 C 
BRANCH  12  14
ATOM     14  C   UNL     1     111.411 112.274 115.737  1.00  0.00     0.004 C 
BRANCH  14  15
ATOM     15  C   UNL     1     109.908 112.442 116.017  1.00  0.00     0.008 C 
BRANCH  15  16
ATOM     16  C   UNL     1     109.674 113.176 117.343  1.00  0.00     0.075 C 
BRANCH  16  17
ATOM     17  C   UNL     1     108.413 112.690 118.006  1.00  0.00     0.129 C 
ATOM     18  O   UNL     1     108.204 112.967 119.178  1.00  0.00    -0.300 OA
ATOM     19  C   UNL     1     107.408 111.860 117.262  1.00  0.00     0.087 C 
ENDBRANCH  16  17
ENDBRANCH  15  16
ENDBRANCH  14  15
ENDBRANCH  12  14
ENDBRANCH  11  12
ENDBRANCH   1  11
TORSDOF 12
ENDMDL
MODEL 5
REMARK VINA RESULT:     0.023      7.305     10.224
REMARK INTER + INTRA:          -3.212
REMARK INTER:                   0.000
REMARK INTRA:                  -3.212
REMARK UNBOUND:                -3.250
REMARK SMILES CC(=O)CCC[C@H](C)CCC[C@@H](C)CCCC(C)C
REMARK SMILES IDX 10 1 11 2 12 3 13 4 14 5 15 6 16 7 17 8 18 9 19 10 9 11 7 12
REMARK SMILES IDX 8 13 6 14 5 15 4 16 2 17 3 18 1 19
REMARK H PARENT
REMARK Flexibility Score: inf
ROOT
ATOM      1  C   UNL     1     100.793 107.756 108.600  1.00  0.00     0.001 C 
ENDROOT
BRANCH   1   2
ATOM      2  C   UNL     1     101.280 108.872 109.556  1.00  0.00     0.003 C 
BRANCH   2   3
ATOM      3  C   UNL     1     102.698 109.467 109.316  1.00  0.00    -0.014 C 
ATOM      4  C   UNL     1     102.751 110.387 108.085  1.00  0.00     0.007 C 
BRANCH   3   5
ATOM      5  C   UNL     1     103.289 110.132 110.586  1.00  0.00     0.003 C 
BRANCH   5   6
ATOM      6  C   UNL     1     103.408 109.211 111.816  1.00  0.00     0.001 C 
BRANCH   6   7
ATOM      7  C   UNL     1     104.456 108.096 111.641  1.00  0.00     0.003 C 
BRANCH   7   8
ATOM      8  C   UNL     1     103.817 106.697 111.482  1.00  0.00    -0.017 C 
ATOM      9  C   UNL     1     102.522 106.612 112.303  1.00  0.00     0.007 C 
ATOM     10  C   UNL     1     104.776 105.575 111.913  1.00  0.00     0.007 C 
ENDBRANCH   7   8
ENDBRANCH   6   7
ENDBRANCH   5   6
ENDBRANCH   3   5
ENDBRANCH   2   3
ENDBRANCH   1   2
BRANCH   1  11
ATOM     11  C   UNL     1     101.545 106.413 108.675  1.00  0.00     0.003 C 
BRANCH  11  12
ATOM     12  C   UNL     1     102.474 106.096 107.474  1.00  0.00    -0.014 C 
ATOM     13  C   UNL     1     102.270 107.105 106.331  1.00  0.00     0.007 C 
BRANCH  12  14
ATOM     14  C   UNL     1     103.946 106.083 107.955  1.00  0.00     0.004 C 
BRANCH  14  15
ATOM     15  C   UNL     1     104.787 107.219 107.350  1.00  0.00     0.008 C 
BRANCH  15  16
ATOM     16  C   UNL     1     105.929 107.619 108.292  1.00  0.00     0.075 C 
BRANCH  16  17
ATOM     17  C   UNL     1     106.254 109.082 108.145  1.00  0.00     0.129 C 
ATOM     18  O   UNL     1     106.078 109.633 107.068  1.00  0.00    -0.300 OA
ATOM     19  C   UNL     1     106.804 109.880 109.291  1.00  0.00     0.087 C 
ENDBRANCH  16  17
ENDBRANCH  15  16
ENDBRANCH  14  15
ENDBRANCH  12  14
ENDBRANCH  11  12
ENDBRANCH   1  11
TORSDOF 12
ENDMDL
MODEL 6
REMARK VINA RESULT:     0.025      2.961      5.023
REMARK INTER + INTRA:          -3.208
REMARK INTER:                   0.000
REMARK INTRA:                  -3.208
REMARK UNBOUND:                -3.250
REMARK SMILES CC(=O)CCC[C@H](C)CCC[C@@H](C)CCCC(C)C
REMARK SMILES IDX 10 1 11 2 12 3 13 4 14 5 15 6 16 7 17 8 18 9 19 10 9 11 7 12
REMARK SMILES IDX 8 13 6 14 5 15 4 16 2 17 3 18 1 19
REMARK H PARENT
REMARK Flexibility Score: inf
ROOT
ATOM      1  C   UNL     1     110.347 110.714 118.515  1.00  0.00     0.001 C 
ENDROOT
BRANCH   1   2
ATOM      2  C   UNL     1     110.927 112.098 118.137  1.00  0.00     0.003 C 
BRANCH   2   3
ATOM      3  C   UNL     1     112.376 112.429 118.595  1.00  0.00    -0.014 C 
ATOM      4  C   UNL     1     113.007 111.297 119.424  1.00  0.00     0.007 C 
BRANCH   3   5
ATOM      5  C   UNL     1     113.283 112.889 117.423  1.00  0.00     0.003 C 
BRANCH   5   6
ATOM      6  C   UNL     1     112.538 113.447 116.195  1.00  0.00     0.001 C 
BRANCH   6   7
ATOM      7  C   UNL     1     113.121 112.957 114.857  1.00  0.00     0.003 C 
BRANCH   7   8
ATOM      8  C   UNL     1     112.033 112.717 113.785  1.00  0.00    -0.017 C 
ATOM      9  C   UNL     1     112.514 111.668 112.772  1.00  0.00     0.007 C 
ATOM     10  C   UNL     1     111.656 114.012 113.047  1.00  0.00     0.007 C 
ENDBRANCH   7   8
ENDBRANCH   6   7
ENDBRANCH   5   6
ENDBRANCH   3   5
ENDBRANCH   2   3
ENDBRANCH   1   2
BRANCH   1  11
ATOM     11  C   UNL     1     110.352 109.643 117.408  1.00  0.00     0.003 C 
BRANCH  11  12
ATOM     12  C   UNL     1     111.087 110.033 116.099  1.00  0.00    -0.014 C 
ATOM     13  C   UNL     1     112.488 109.399 116.038  1.00  0.00     0.007 C 
BRANCH  12  14
ATOM     14  C   UNL     1     110.227 109.609 114.883  1.00  0.00     0.004 C 
BRANCH  14  15
ATOM     15  C   UNL     1     108.772 110.099 114.974  1.00  0.00     0.008 C 
BRANCH  15  16
ATOM     16  C   UNL     1     108.641 111.534 114.450  1.00  0.00     0.075 C 
BRANCH  16  17
ATOM     17  C   UNL     1     108.350 112.488 115.578  1.00  0.00     0.129 C 
ATOM     18  O   UNL     1     107.677 112.112 116.527  1.00  0.00    -0.300 OA
ATOM     19  C   UNL     1     108.859 113.900 115.559  1.00  0.00     0.087 C 
ENDBRANCH  16  17
ENDBRANCH  15  16
ENDBRANCH  14  15
ENDBRANCH  12  14
ENDBRANCH  11  12
ENDBRANCH   1  11
TORSDOF 12
ENDMDL
MODEL 7
REMARK VINA RESULT:     0.026      3.610      6.598
REMARK INTER + INTRA:          -3.206
REMARK INTER:                   0.000
REMARK INTRA:                  -3.206
REMARK UNBOUND:                -3.250
REMARK SMILES CC(=O)CCC[C@H](C)CCC[C@@H](C)CCCC(C)C
REMARK SMILES IDX 10 1 11 2 12 3 13 4 14 5 15 6 16 7 17 8 18 9 19 10 9 11 7 12
REMARK SMILES IDX 8 13 6 14 5 15 4 16 2 17 3 18 1 19
REMARK H PARENT
REMARK Flexibility Score: inf
ROOT
ATOM      1  C   UNL     1     106.357 108.669 113.904  1.00  0.00     0.001 C 
ENDROOT
BRANCH   1   2
ATOM      2  C   UNL     1     106.880 109.348 115.192  1.00  0.00     0.003 C 
BRANCH   2   3
ATOM      3  C   UNL     1     108.129 110.268 115.073  1.00  0.00    -0.014 C 
ATOM      4  C   UNL     1     107.861 111.697 115.577  1.00  0.00     0.007 C 
BRANCH   3   5
ATOM      5  C   UNL     1     109.398 109.639 115.706  1.00  0.00     0.003 C 
BRANCH   5   6
ATOM      6  C   UNL     1     109.193 108.254 116.349  1.00  0.00     0.001 C 
BRANCH   6   7
ATOM      7  C   UNL     1     110.152 107.182 115.799  1.00  0.00     0.003 C 
BRANCH   7   8
ATOM      8  C   UNL     1     109.526 105.768 115.793  1.00  0.00    -0.017 C 
ATOM      9  C   UNL     1     110.016 104.980 114.570  1.00  0.00     0.007 C 
ATOM     10  C   UNL     1     107.989 105.819 115.792  1.00  0.00     0.007 C 
ENDBRANCH   7   8
ENDBRANCH   6   7
ENDBRANCH   5   6
ENDBRANCH   3   5
ENDBRANCH   2   3
ENDBRANCH   1   2
BRANCH   1  11
ATOM     11  C   UNL     1     107.288 108.714 112.678  1.00  0.00     0.003 C 
BRANCH  11  12
ATOM     12  C   UNL     1     108.328 107.567 112.581  1.00  0.00    -0.014 C 
ATOM     13  C   UNL     1     107.892 106.508 111.552  1.00  0.00     0.007 C 
BRANCH  12  14
ATOM     14  C   UNL     1     109.712 108.160 112.223  1.00  0.00     0.004 C 
BRANCH  14  15
ATOM     15  C   UNL     1     109.627 109.573 111.625  1.00  0.00     0.008 C 
BRANCH  15  16
ATOM     16  C   UNL     1     110.659 110.506 112.269  1.00  0.00     0.075 C 
BRANCH  16  17
ATOM     17  C   UNL     1     110.067 111.870 112.509  1.00  0.00     0.129 C 
ATOM     18  O   UNL     1     110.670 112.674 113.206  1.00  0.00    -0.300 OA
ATOM     19  C   UNL     1     108.744 112.264 111.921  1.00  0.00     0.087 C 
ENDBRANCH  16  17
ENDBRANCH  15  16
ENDBRANCH  14  15
ENDBRANCH  12  14
ENDBRANCH  11  12
ENDBRANCH   1  11
TORSDOF 12
ENDMDL
MODEL 8
REMARK VINA RESULT:     0.026      2.990      5.962
REMARK INTER + INTRA:          -3.206
REMARK INTER:                   0.000
REMARK INTRA:                  -3.206
REMARK UNBOUND:                -3.250
REMARK SMILES CC(=O)CCC[C@H](C)CCC[C@@H](C)CCCC(C)C
REMARK SMILES IDX 10 1 11 2 12 3 13 4 14 5 15 6 16 7 17 8 18 9 19 10 9 11 7 12
REMARK SMILES IDX 8 13 6 14 5 15 4 16 2 17 3 18 1 19
REMARK H PARENT
REMARK Flexibility Score: inf
ROOT
ATOM      1  C   UNL     1     105.870 109.164 114.044  1.00  0.00     0.001 C 
ENDROOT
BRANCH   1   2
ATOM      2  C   UNL     1     107.409 109.165 113.893  1.00  0.00     0.003 C 
BRANCH   2   3
ATOM      3  C   UNL     1     108.173 107.848 114.214  1.00  0.00    -0.014 C 
ATOM      4  C   UNL     1     109.020 107.352 113.030  1.00  0.00     0.007 C 
BRANCH   3   5
ATOM      5  C   UNL     1     108.983 107.933 115.534  1.00  0.00     0.003 C 
BRANCH   5   6
ATOM      6  C   UNL     1     108.914 109.290 116.261  1.00  0.00     0.001 C 
BRANCH   6   7
ATOM      7  C   UNL     1     108.451 109.172 117.725  1.00  0.00     0.003 C 
BRANCH   7   8
ATOM      8  C   UNL     1     107.660 110.412 118.202  1.00  0.00    -0.017 C 
ATOM      9  C   UNL     1     106.553 109.988 119.177  1.00  0.00     0.007 C 
ATOM     10  C   UNL     1     107.043 111.189 117.026  1.00  0.00     0.007 C 
ENDBRANCH   7   8
ENDBRANCH   6   7
ENDBRANCH   5   6
ENDBRANCH   3   5
ENDBRANCH   2   3
ENDBRANCH   1   2
BRANCH   1  11
ATOM     11  C   UNL     1     105.255 107.965 114.792  1.00  0.00     0.003 C 
BRANCH  11  12
ATOM     12  C   UNL     1     105.173 108.105 116.334  1.00  0.00    -0.014 C 
ATOM     13  C   UNL     1     103.741 108.447 116.785  1.00  0.00     0.007 C 
BRANCH  12  14
ATOM     14  C   UNL     1     105.671 106.797 116.995  1.00  0.00     0.004 C 
BRANCH  14  15
ATOM     15  C   UNL     1     105.656 105.594 116.037  1.00  0.00     0.008 C 
BRANCH  15  16
ATOM     16  C   UNL     1     106.971 104.810 116.118  1.00  0.00     0.075 C 
BRANCH  16  17
ATOM     17  C   UNL     1     107.419 104.378 114.746  1.00  0.00     0.129 C 
ATOM     18  O   UNL     1     108.539 103.911 114.598  1.00  0.00    -0.300 OA
ATOM     19  C   UNL     1     106.523 104.518 113.550  1.00  0.00     0.087 C 
ENDBRANCH  16  17
ENDBRANCH  15  16
ENDBRANCH  14  15
ENDBRANCH  12  14
ENDBRANCH  11  12
ENDBRANCH   1  11
TORSDOF 12
ENDMDL
MODEL 9
REMARK VINA RESULT:     0.030      2.777      5.731
REMARK INTER + INTRA:          -3.199
REMARK INTER:                   0.000
REMARK INTRA:                  -3.199
REMARK UNBOUND:                -3.250
REMARK SMILES CC(=O)CCC[C@H](C)CCC[C@@H](C)CCCC(C)C
REMARK SMILES IDX 10 1 11 2 12 3 13 4 14 5 15 6 16 7 17 8 18 9 19 10 9 11 7 12
REMARK SMILES IDX 8 13 6 14 5 15 4 16 2 17 3 18 1 19
REMARK H PARENT
REMARK Flexibility Score: inf
ROOT
ATOM      1  C   UNL     1     110.943 112.870 117.589  1.00  0.00     0.001 C 
ENDROOT
BRANCH   1   2
ATOM      2  C   UNL     1     112.074 112.581 118.605  1.00  0.00     0.003 C 
BRANCH   2   3
ATOM      3  C   UNL     1     112.419 111.094 118.906  1.00  0.00    -0.014 C 
ATOM      4  C   UNL     1     113.800 110.687 118.364  1.00  0.00     0.007 C 
BRANCH   3   5
ATOM      5  C   UNL     1     112.231 110.727 120.401  1.00  0.00     0.003 C 
BRANCH   5   6
ATOM      6  C   UNL     1     111.296 111.660 121.195  1.00  0.00     0.001 C 
BRANCH   6   7
ATOM      7  C   UNL     1     109.885 111.078 121.394  1.00  0.00     0.003 C 
BRANCH   7   8
ATOM      8  C   UNL     1     108.816 112.172 121.626  1.00  0.00    -0.017 C 
ATOM      9  C   UNL     1     107.432 111.651 121.214  1.00  0.00     0.007 C 
ATOM     10  C   UNL     1     109.134 113.460 120.850  1.00  0.00     0.007 C 
ENDBRANCH   7   8
ENDBRANCH   6   7
ENDBRANCH   5   6
ENDBRANCH   3   5
ENDBRANCH   2   3
ENDBRANCH   1   2
BRANCH   1  11
ATOM     11  C   UNL     1     110.154 111.650 117.077  1.00  0.00     0.003 C 
BRANCH  11  12
ATOM     12  C   UNL     1     108.840 111.332 117.836  1.00  0.00    -0.014 C 
ATOM     13  C   UNL     1     107.749 112.371 117.518  1.00  0.00     0.007 C 
BRANCH  12  14
ATOM     14  C   UNL     1     108.373 109.901 117.475  1.00  0.00     0.004 C 
BRANCH  14  15
ATOM     15  C   UNL     1     108.438 108.928 118.665  1.00  0.00     0.008 C 
BRANCH  15  16
ATOM     16  C   UNL     1     109.856 108.371 118.843  1.00  0.00     0.075 C 
BRANCH  16  17
ATOM     17  C   UNL     1     110.304 107.649 117.600  1.00  0.00     0.129 C 
ATOM     18  O   UNL     1     109.690 106.662 117.223  1.00  0.00    -0.300 OA
ATOM     19  C   UNL     1     111.500 108.107 116.817  1.00  0.00     0.087 C 
ENDBRANCH  16  17
ENDBRANCH  15  16
ENDBRANCH  14  15
ENDBRANCH  12  14
ENDBRANCH  11  12
ENDBRANCH   1  11
TORSDOF 12
ENDMDL
