MODEL 1
REMARK VINA RESULT:    -2.999      0.000      0.000
REMARK INTER + INTRA:          -4.506
REMARK INTER:                  -4.050
REMARK INTRA:                  -0.455
REMARK UNBOUND:                -0.455
REMARK SMILES O=C[C@@H](O)[C@@H](O)[C@@H](O)CO
REMARK SMILES IDX 7 1 9 2 10 3 5 5 3 6 2 7 1 8 4 9 6 11 8 13
REMARK H PARENT 10 4 4 10 6 12 8 14
REMARK Flexibility Score: inf
ROOT
ATOM      1  C   UNL     1       0.072  25.509  26.717  1.00  0.00     0.171 C 
ENDROOT
BRANCH   1   2
ATOM      2  C   UNL     1       0.818  24.455  27.558  1.00  0.00     0.190 C 
BRANCH   2   3
ATOM      3  O   UNL     1       2.072  24.200  26.988  1.00  0.00    -0.394 OA
ATOM      4  H   UNL     1       1.961  23.390  26.425  1.00  0.00     0.210 HD
ENDBRANCH   2   3
ENDBRANCH   1   2
BRANCH   1   5
ATOM      5  C   UNL     1      -0.353  25.015  25.307  1.00  0.00     0.181 C 
BRANCH   5   6
ATOM      6  C   UNL     1      -1.043  26.106  24.440  1.00  0.00     0.209 C 
BRANCH   6   7
ATOM      7  C   UNL     1      -0.849  25.896  22.963  1.00  0.00     0.258 C 
ATOM      8  O   UNL     1      -1.802  25.881  22.201  1.00  0.00    -0.300 OA
ENDBRANCH   6   7
BRANCH   6   9
ATOM      9  O   UNL     1      -2.422  26.125  24.706  1.00  0.00    -0.383 OA
ATOM     10  H   UNL     1      -2.650  27.050  24.986  1.00  0.00     0.211 HD
ENDBRANCH   6   9
ENDBRANCH   5   6
BRANCH   5  11
ATOM     11  O   UNL     1       0.744  24.446  24.637  1.00  0.00    -0.387 OA
ATOM     12  H   UNL     1       0.376  23.888  23.902  1.00  0.00     0.211 HD
ENDBRANCH   5  11
ENDBRANCH   1   5
BRANCH   1  13
ATOM     13  O   UNL     1      -1.054  25.978  27.417  1.00  0.00    -0.388 OA
ATOM     14  H   UNL     1      -1.330  25.268  28.055  1.00  0.00     0.211 HD
ENDBRANCH   1  13
TORSDOF 8
ENDMDL
MODEL 2
REMARK VINA RESULT:    -2.521      6.626      7.682
REMARK INTER + INTRA:          -3.860
REMARK INTER:                  -3.325
REMARK INTRA:                  -0.536
REMARK UNBOUND:                -0.455
REMARK SMILES O=C[C@@H](O)[C@@H](O)[C@@H](O)CO
REMARK SMILES IDX 7 1 9 2 10 3 5 5 3 6 2 7 1 8 4 9 6 11 8 13
REMARK H PARENT 10 4 4 10 6 12 8 14
REMARK Flexibility Score: inf
ROOT
ATOM      1  C   UNL     1      -6.296  22.147  25.281  1.00  0.00     0.171 C 
ENDROOT
BRANCH   1   2
ATOM      2  C   UNL     1      -6.116  21.471  23.909  1.00  0.00     0.190 C 
BRANCH   2   3
ATOM      3  O   UNL     1      -5.408  22.324  23.052  1.00  0.00    -0.394 OA
ATOM      4  H   UNL     1      -4.526  22.477  23.480  1.00  0.00     0.210 HD
ENDBRANCH   2   3
ENDBRANCH   1   2
BRANCH   1   5
ATOM      5  C   UNL     1      -7.519  23.101  25.365  1.00  0.00     0.181 C 
BRANCH   5   6
ATOM      6  C   UNL     1      -7.824  23.609  26.803  1.00  0.00     0.209 C 
BRANCH   6   7
ATOM      7  C   UNL     1      -7.376  25.026  27.037  1.00  0.00     0.258 C 
ATOM      8  O   UNL     1      -6.218  25.358  26.843  1.00  0.00    -0.300 OA
ENDBRANCH   6   7
BRANCH   6   9
ATOM      9  O   UNL     1      -9.204  23.534  27.053  1.00  0.00    -0.383 OA
ATOM     10  H   UNL     1      -9.443  22.570  27.072  1.00  0.00     0.211 HD
ENDBRANCH   6   9
ENDBRANCH   5   6
BRANCH   5  11
ATOM     11  O   UNL     1      -7.369  24.171  24.465  1.00  0.00    -0.387 OA
ATOM     12  H   UNL     1      -6.984  23.794  23.631  1.00  0.00     0.211 HD
ENDBRANCH   5  11
ENDBRANCH   1   5
BRANCH   1  13
ATOM     13  O   UNL     1      -6.380  21.175  26.293  1.00  0.00    -0.388 OA
ATOM     14  H   UNL     1      -5.652  21.355  26.945  1.00  0.00     0.211 HD
ENDBRANCH   1  13
TORSDOF 8
ENDMDL
MODEL 3
REMARK VINA RESULT:    -2.494     15.924     16.266
REMARK INTER + INTRA:          -3.824
REMARK INTER:                  -3.540
REMARK INTRA:                  -0.285
REMARK UNBOUND:                -0.455
REMARK SMILES O=C[C@@H](O)[C@@H](O)[C@@H](O)CO
REMARK SMILES IDX 7 1 9 2 10 3 5 5 3 6 2 7 1 8 4 9 6 11 8 13
REMARK H PARENT 10 4 4 10 6 12 8 14
REMARK Flexibility Score: inf
ROOT
ATOM      1  C   UNL     1      -7.318  12.165  26.952  1.00  0.00     0.171 C 
ENDROOT
BRANCH   1   2
ATOM      2  C   UNL     1      -5.807  12.377  26.738  1.00  0.00     0.190 C 
BRANCH   2   3
ATOM      3  O   UNL     1      -5.409  11.759  25.545  1.00  0.00    -0.394 OA
ATOM      4  H   UNL     1      -6.214  11.300  25.189  1.00  0.00     0.210 HD
ENDBRANCH   2   3
ENDBRANCH   1   2
BRANCH   1   5
ATOM      5  C   UNL     1      -7.693  10.762  27.504  1.00  0.00     0.181 C 
BRANCH   5   6
ATOM      6  C   UNL     1      -7.867   9.678  26.402  1.00  0.00     0.209 C 
BRANCH   6   7
ATOM      7  C   UNL     1      -8.658  10.161  25.217  1.00  0.00     0.258 C 
ATOM      8  O   UNL     1      -9.085   9.376  24.386  1.00  0.00    -0.300 OA
ENDBRANCH   6   7
BRANCH   6   9
ATOM      9  O   UNL     1      -6.607   9.252  25.950  1.00  0.00    -0.383 OA
ATOM     10  H   UNL     1      -6.564   9.457  24.979  1.00  0.00     0.211 HD
ENDBRANCH   6   9
ENDBRANCH   5   6
BRANCH   5  11
ATOM     11  O   UNL     1      -6.765  10.356  28.479  1.00  0.00    -0.387 OA
ATOM     12  H   UNL     1      -5.900  10.212  28.013  1.00  0.00     0.211 HD
ENDBRANCH   5  11
ENDBRANCH   1   5
BRANCH   1  13
ATOM     13  O   UNL     1      -7.832  13.163  27.799  1.00  0.00    -0.388 OA
ATOM     14  H   UNL     1      -7.128  13.854  27.912  1.00  0.00     0.211 HD
ENDBRANCH   1  13
TORSDOF 8
ENDMDL
MODEL 4
REMARK VINA RESULT:    -2.472     12.317     13.455
REMARK INTER + INTRA:          -3.795
REMARK INTER:                  -3.352
REMARK INTRA:                  -0.442
REMARK UNBOUND:                -0.455
REMARK SMILES O=C[C@@H](O)[C@@H](O)[C@@H](O)CO
REMARK SMILES IDX 7 1 9 2 10 3 5 5 3 6 2 7 1 8 4 9 6 11 8 13
REMARK H PARENT 10 4 4 10 6 12 8 14
REMARK Flexibility Score: inf
ROOT
ATOM      1  C   UNL     1     -10.124  16.613  20.603  1.00  0.00     0.171 C 
ENDROOT
BRANCH   1   2
ATOM      2  C   UNL     1      -9.689  15.202  20.165  1.00  0.00     0.190 C 
BRANCH   2   3
ATOM      3  O   UNL     1      -8.562  15.291  19.338  1.00  0.00    -0.394 OA
ATOM      4  H   UNL     1      -8.488  16.245  19.073  1.00  0.00     0.210 HD
ENDBRANCH   2   3
ENDBRANCH   1   2
BRANCH   1   5
ATOM      5  C   UNL     1      -9.285  17.206  21.768  1.00  0.00     0.181 C 
BRANCH   5   6
ATOM      6  C   UNL     1     -10.125  17.998  22.810  1.00  0.00     0.209 C 
BRANCH   6   7
ATOM      7  C   UNL     1      -9.622  17.840  24.219  1.00  0.00     0.258 C 
ATOM      8  O   UNL     1     -10.079  16.981  24.955  1.00  0.00    -0.300 OA
ENDBRANCH   6   7
BRANCH   6   9
ATOM      9  O   UNL     1     -10.116  19.365  22.488  1.00  0.00    -0.383 OA
ATOM     10  H   UNL     1      -9.239  19.727  22.782  1.00  0.00     0.211 HD
ENDBRANCH   6   9
ENDBRANCH   5   6
BRANCH   5  11
ATOM     11  O   UNL     1      -8.523  16.197  22.385  1.00  0.00    -0.387 OA
ATOM     12  H   UNL     1      -7.779  16.649  22.863  1.00  0.00     0.211 HD
ENDBRANCH   5  11
ENDBRANCH   1   5
BRANCH   1  13
ATOM     13  O   UNL     1     -10.099  17.491  19.504  1.00  0.00    -0.388 OA
ATOM     14  H   UNL     1      -9.473  17.112  18.831  1.00  0.00     0.211 HD
ENDBRANCH   1  13
TORSDOF 8
ENDMDL
MODEL 5
REMARK VINA RESULT:    -2.396      6.819      7.897
REMARK INTER + INTRA:          -3.691
REMARK INTER:                  -3.188
REMARK INTRA:                  -0.503
REMARK UNBOUND:                -0.455
REMARK SMILES O=C[C@@H](O)[C@@H](O)[C@@H](O)CO
REMARK SMILES IDX 7 1 9 2 10 3 5 5 3 6 2 7 1 8 4 9 6 11 8 13
REMARK H PARENT 10 4 4 10 6 12 8 14
REMARK Flexibility Score: inf
ROOT
ATOM      1  C   UNL     1      -7.707  23.713  26.813  1.00  0.00     0.171 C 
ENDROOT
BRANCH   1   2
ATOM      2  C   UNL     1      -9.234  23.817  26.640  1.00  0.00     0.190 C 
BRANCH   2   3
ATOM      3  O   UNL     1      -9.572  25.108  26.214  1.00  0.00    -0.394 OA
ATOM      4  H   UNL     1     -10.326  25.401  26.789  1.00  0.00     0.210 HD
ENDBRANCH   2   3
ENDBRANCH   1   2
BRANCH   1   5
ATOM      5  C   UNL     1      -6.938  23.390  25.503  1.00  0.00     0.181 C 
BRANCH   5   6
ATOM      6  C   UNL     1      -6.857  21.872  25.177  1.00  0.00     0.209 C 
BRANCH   6   7
ATOM      7  C   UNL     1      -5.966  21.565  24.005  1.00  0.00     0.258 C 
ATOM      8  O   UNL     1      -5.520  22.459  23.304  1.00  0.00    -0.300 OA
ENDBRANCH   6   7
BRANCH   6   9
ATOM      9  O   UNL     1      -6.374  21.170  26.295  1.00  0.00    -0.383 OA
ATOM     10  H   UNL     1      -6.930  21.444  27.071  1.00  0.00     0.211 HD
ENDBRANCH   6   9
ENDBRANCH   5   6
BRANCH   5  11
ATOM     11  O   UNL     1      -7.478  24.116  24.427  1.00  0.00    -0.387 OA
ATOM     12  H   UNL     1      -6.725  24.602  23.999  1.00  0.00     0.211 HD
ENDBRANCH   5  11
ENDBRANCH   1   5
BRANCH   1  13
ATOM     13  O   UNL     1      -7.201  24.895  27.383  1.00  0.00    -0.388 OA
ATOM     14  H   UNL     1      -7.684  25.048  28.238  1.00  0.00     0.211 HD
ENDBRANCH   1  13
TORSDOF 8
ENDMDL
MODEL 6
REMARK VINA RESULT:    -2.355      6.742      7.589
REMARK INTER + INTRA:          -3.637
REMARK INTER:                  -3.274
REMARK INTRA:                  -0.363
REMARK UNBOUND:                -0.455
REMARK SMILES O=C[C@@H](O)[C@@H](O)[C@@H](O)CO
REMARK SMILES IDX 7 1 9 2 10 3 5 5 3 6 2 7 1 8 4 9 6 11 8 13
REMARK H PARENT 10 4 4 10 6 12 8 14
REMARK Flexibility Score: inf
ROOT
ATOM      1  C   UNL     1      -7.122  24.458  25.149  1.00  0.00     0.171 C 
ENDROOT
BRANCH   1   2
ATOM      2  C   UNL     1      -6.778  25.412  26.309  1.00  0.00     0.190 C 
BRANCH   2   3
ATOM      3  O   UNL     1      -7.957  25.937  26.853  1.00  0.00    -0.394 OA
ATOM      4  H   UNL     1      -8.270  26.631  26.216  1.00  0.00     0.210 HD
ENDBRANCH   2   3
ENDBRANCH   1   2
BRANCH   1   5
ATOM      5  C   UNL     1      -7.630  23.062  25.603  1.00  0.00     0.181 C 
BRANCH   5   6
ATOM      6  C   UNL     1      -6.777  21.877  25.069  1.00  0.00     0.209 C 
BRANCH   6   7
ATOM      7  C   UNL     1      -5.681  22.312  24.135  1.00  0.00     0.258 C 
ATOM      8  O   UNL     1      -5.663  21.941  22.972  1.00  0.00    -0.300 OA
ENDBRANCH   6   7
BRANCH   6   9
ATOM      9  O   UNL     1      -6.193  21.187  26.144  1.00  0.00    -0.383 OA
ATOM     10  H   UNL     1      -6.935  20.775  26.661  1.00  0.00     0.211 HD
ENDBRANCH   6   9
ENDBRANCH   5   6
BRANCH   5  11
ATOM     11  O   UNL     1      -7.750  23.016  27.003  1.00  0.00    -0.387 OA
ATOM     12  H   UNL     1      -8.713  22.876  27.206  1.00  0.00     0.211 HD
ENDBRANCH   5  11
ENDBRANCH   1   5
BRANCH   1  13
ATOM     13  O   UNL     1      -8.068  25.054  24.296  1.00  0.00    -0.388 OA
ATOM     14  H   UNL     1      -8.648  25.639  24.851  1.00  0.00     0.211 HD
ENDBRANCH   1  13
TORSDOF 8
ENDMDL
MODEL 7
REMARK VINA RESULT:    -2.258      6.606      7.469
REMARK INTER + INTRA:          -3.506
REMARK INTER:                  -3.170
REMARK INTRA:                  -0.336
REMARK UNBOUND:                -0.455
REMARK SMILES O=C[C@@H](O)[C@@H](O)[C@@H](O)CO
REMARK SMILES IDX 7 1 9 2 10 3 5 5 3 6 2 7 1 8 4 9 6 11 8 13
REMARK H PARENT 10 4 4 10 6 12 8 14
REMARK Flexibility Score: inf
ROOT
ATOM      1  C   UNL     1      -6.274  22.036  25.579  1.00  0.00     0.171 C 
ENDROOT
BRANCH   1   2
ATOM      2  C   UNL     1      -6.265  21.630  24.093  1.00  0.00     0.190 C 
BRANCH   2   3
ATOM      3  O   UNL     1      -5.298  22.376  23.407  1.00  0.00    -0.394 OA
ATOM      4  H   UNL     1      -5.170  23.211  23.929  1.00  0.00     0.210 HD
ENDBRANCH   2   3
ENDBRANCH   1   2
BRANCH   1   5
ATOM      5  C   UNL     1      -7.385  23.056  25.954  1.00  0.00     0.181 C 
BRANCH   5   6
ATOM      6  C   UNL     1      -6.962  24.542  25.774  1.00  0.00     0.209 C 
BRANCH   6   7
ATOM      7  C   UNL     1      -8.039  25.393  25.161  1.00  0.00     0.258 C 
ATOM      8  O   UNL     1      -8.234  25.388  23.956  1.00  0.00    -0.300 OA
ENDBRANCH   6   7
BRANCH   6   9
ATOM      9  O   UNL     1      -6.617  25.093  27.019  1.00  0.00    -0.383 OA
ATOM     10  H   UNL     1      -7.215  24.679  27.695  1.00  0.00     0.211 HD
ENDBRANCH   6   9
ENDBRANCH   5   6
BRANCH   5  11
ATOM     11  O   UNL     1      -8.568  22.772  25.250  1.00  0.00    -0.387 OA
ATOM     12  H   UNL     1      -8.355  22.852  24.283  1.00  0.00     0.211 HD
ENDBRANCH   5  11
ENDBRANCH   1   5
BRANCH   1  13
ATOM     13  O   UNL     1      -6.383  20.894  26.392  1.00  0.00    -0.388 OA
ATOM     14  H   UNL     1      -7.305  20.539  26.291  1.00  0.00     0.211 HD
ENDBRANCH   1  13
TORSDOF 8
ENDMDL
