MODEL 1
REMARK VINA RESULT:    -4.384      0.000      0.000
REMARK INTER + INTRA:          -6.619
REMARK INTER:                  -6.691
REMARK INTRA:                   0.071
REMARK UNBOUND:                 0.071
REMARK SMILES CC1=CCC[C@H](C)C(=O)C[C@@H](C(C)C)C(=O)C1
REMARK SMILES IDX 8 1 9 2 6 3 7 4 5 5 4 6 3 7 2 8 1 9 10 11 11 12 15 13 16 14
REMARK SMILES IDX 17 15 12 17 13 18 14 19
REMARK H PARENT
REMARK Flexibility Score: 70.00
ROOT
ATOM      1  C   UNL     1      -6.605 -28.124 -19.352  1.00  0.00     0.136 C 
ATOM      2  O   UNL     1      -6.713 -28.725 -20.411  1.00  0.00    -0.299 OA
ENDROOT
BRANCH   1   3
ATOM      3  C   UNL     1      -5.367 -27.260 -19.141  1.00  0.00     0.053 C 
ATOM      4  C   UNL     1      -4.857 -26.538 -20.401  1.00  0.00     0.016 C 
BRANCH   3   5
ATOM      5  C   UNL     1      -5.537 -26.276 -17.955  1.00  0.00     0.015 C 
BRANCH   5   6
ATOM      6  C   UNL     1      -6.460 -25.069 -18.233  1.00  0.00     0.028 C 
BRANCH   6   7
ATOM      7  C   UNL     1      -7.468 -24.873 -17.121  1.00  0.00    -0.028 C 
ATOM      8  C   UNL     1      -8.811 -25.022 -17.217  1.00  0.00    -0.070 CG0
ATOM      9  C   UNL     1      -9.641 -24.747 -15.988  1.00  0.00     0.039 C 
ATOM     10  G   UNL     1      -9.516 -25.504 -18.468  1.00  0.00     0.000 G0
ENDBRANCH   6   7
ENDBRANCH   5   6
ENDBRANCH   3   5
ENDBRANCH   1   3
BRANCH   1  11
ATOM     11  C   UNL     1      -7.729 -28.262 -18.342  1.00  0.00     0.087 C 
BRANCH  11  12
ATOM     12  C   UNL     1      -9.127 -28.096 -18.981  1.00  0.00     0.066 C 
BRANCH  12  13
ATOM     13  C   UNL     1      -9.913 -26.986 -18.307  1.00  0.00     0.140 C 
ATOM     14  O   UNL     1     -10.872 -27.262 -17.599  1.00  0.00    -0.299 OA
BRANCH  13  15
ATOM     15  C   UNL     1      -9.511 -25.544 -18.464  1.00  0.00     0.106 CG0
ATOM     16  G   UNL     1      -8.813 -25.056 -17.211  1.00  0.00     0.000 G0
ENDBRANCH  13  15
ENDBRANCH  12  13
BRANCH  12  17
ATOM     17  C   UNL     1      -9.914 -29.442 -19.050  1.00  0.00    -0.006 C 
ATOM     18  C   UNL     1     -10.167 -29.958 -20.479  1.00  0.00     0.008 C 
ATOM     19  C   UNL     1      -9.220 -30.531 -18.216  1.00  0.00     0.008 C 
ENDBRANCH  12  17
ENDBRANCH  11  12
ENDBRANCH   1  11
TORSDOF 1
ENDMDL
MODEL 2
REMARK VINA RESULT:    -4.081      3.490      6.466
REMARK INTER + INTRA:          -6.157
REMARK INTER:                  -6.068
REMARK INTRA:                  -0.089
REMARK UNBOUND:                 0.071
REMARK SMILES CC1=CCC[C@H](C)C(=O)C[C@@H](C(C)C)C(=O)C1
REMARK SMILES IDX 8 1 9 2 6 3 7 4 5 5 4 6 3 7 2 8 1 9 10 11 11 12 15 13 16 14
REMARK SMILES IDX 17 15 12 17 13 18 14 19
REMARK H PARENT
REMARK Flexibility Score: 70.00
ROOT
ATOM      1  C   UNL     1      -8.830 -23.361 -17.164  1.00  0.00     0.136 C 
ATOM      2  O   UNL     1      -9.673 -23.108 -18.013  1.00  0.00    -0.299 OA
ENDROOT
BRANCH   1   3
ATOM      3  C   UNL     1      -8.775 -24.781 -16.612  1.00  0.00     0.053 C 
ATOM      4  C   UNL     1      -9.962 -25.176 -15.715  1.00  0.00     0.016 C 
BRANCH   3   5
ATOM      5  C   UNL     1      -8.532 -25.832 -17.726  1.00  0.00     0.015 C 
BRANCH   5   6
ATOM      6  C   UNL     1      -7.201 -25.678 -18.493  1.00  0.00     0.028 C 
BRANCH   6   7
ATOM      7  C   UNL     1      -6.008 -25.873 -17.582  1.00  0.00    -0.028 C 
ATOM      8  C   UNL     1      -4.943 -25.046 -17.463  1.00  0.00    -0.070 CG0
ATOM      9  C   UNL     1      -3.842 -25.445 -16.513  1.00  0.00     0.039 C 
ATOM     10  G   UNL     1      -4.824 -23.718 -18.184  1.00  0.00     0.000 G0
ENDBRANCH   6   7
ENDBRANCH   5   6
ENDBRANCH   3   5
ENDBRANCH   1   3
BRANCH   1  11
ATOM     11  C   UNL     1      -7.886 -22.248 -16.749  1.00  0.00     0.087 C 
BRANCH  11  12
ATOM     12  C   UNL     1      -6.779 -21.986 -17.796  1.00  0.00     0.066 C 
BRANCH  12  13
ATOM     13  C   UNL     1      -5.464 -22.618 -17.378  1.00  0.00     0.140 C 
ATOM     14  O   UNL     1      -4.919 -22.264 -16.341  1.00  0.00    -0.299 OA
BRANCH  13  15
ATOM     15  C   UNL     1      -4.830 -23.709 -18.200  1.00  0.00     0.106 CG0
ATOM     16  G   UNL     1      -4.941 -25.038 -17.481  1.00  0.00     0.000 G0
ENDBRANCH  13  15
ENDBRANCH  12  13
BRANCH  12  17
ATOM     17  C   UNL     1      -6.640 -20.472 -18.150  1.00  0.00    -0.006 C 
ATOM     18  C   UNL     1      -5.342 -20.109 -18.894  1.00  0.00     0.008 C 
ATOM     19  C   UNL     1      -7.857 -19.978 -18.948  1.00  0.00     0.008 C 
ENDBRANCH  12  17
ENDBRANCH  11  12
ENDBRANCH   1  11
TORSDOF 1
ENDMDL
MODEL 3
REMARK VINA RESULT:    -3.923      1.457      3.956
REMARK INTER + INTRA:          -5.915
REMARK INTER:                  -5.812
REMARK INTRA:                  -0.104
REMARK UNBOUND:                 0.071
REMARK SMILES CC1=CCC[C@H](C)C(=O)C[C@@H](C(C)C)C(=O)C1
REMARK SMILES IDX 8 1 9 2 6 3 7 4 5 5 4 6 3 7 2 8 1 9 10 11 11 12 15 13 16 14
REMARK SMILES IDX 17 15 12 17 13 18 14 19
REMARK H PARENT
REMARK Flexibility Score: 70.00
ROOT
ATOM      1  C   UNL     1      -9.979 -26.685 -17.968  1.00  0.00     0.136 C 
ATOM      2  O   UNL     1     -10.872 -27.333 -17.442  1.00  0.00    -0.299 OA
ENDROOT
BRANCH   1   3
ATOM      3  C   UNL     1      -9.689 -25.291 -17.422  1.00  0.00     0.053 C 
ATOM      4  C   UNL     1      -9.385 -25.235 -15.915  1.00  0.00     0.016 C 
BRANCH   3   5
ATOM      5  C   UNL     1      -8.601 -24.556 -18.247  1.00  0.00     0.015 C 
BRANCH   5   6
ATOM      6  C   UNL     1      -7.173 -24.636 -17.666  1.00  0.00     0.028 C 
BRANCH   6   7
ATOM      7  C   UNL     1      -6.143 -24.867 -18.751  1.00  0.00    -0.028 C 
ATOM      8  C   UNL     1      -5.523 -26.036 -19.036  1.00  0.00    -0.070 CG0
ATOM      9  C   UNL     1      -4.501 -26.040 -20.145  1.00  0.00     0.039 C 
ATOM     10  G   UNL     1      -5.840 -27.347 -18.346  1.00  0.00     0.000 G0
ENDBRANCH   6   7
ENDBRANCH   5   6
ENDBRANCH   3   5
ENDBRANCH   1   3
BRANCH   1  11
ATOM     11  C   UNL     1      -9.208 -27.332 -19.104  1.00  0.00     0.087 C 
BRANCH  11  12
ATOM     12  C   UNL     1      -8.225 -28.419 -18.613  1.00  0.00     0.066 C 
BRANCH  12  13
ATOM     13  C   UNL     1      -6.821 -28.167 -19.131  1.00  0.00     0.140 C 
ATOM     14  O   UNL     1      -6.487 -28.604 -20.224  1.00  0.00    -0.299 OA
BRANCH  13  15
ATOM     15  C   UNL     1      -5.834 -27.351 -18.339  1.00  0.00     0.106 CG0
ATOM     16  G   UNL     1      -5.547 -26.043 -19.048  1.00  0.00     0.000 G0
ENDBRANCH  13  15
ENDBRANCH  12  13
BRANCH  12  17
ATOM     17  C   UNL     1      -8.734 -29.863 -18.914  1.00  0.00    -0.006 C 
ATOM     18  C   UNL     1      -9.286 -30.611 -17.687  1.00  0.00     0.008 C 
ATOM     19  C   UNL     1      -9.782 -29.855 -20.038  1.00  0.00     0.008 C 
ENDBRANCH  12  17
ENDBRANCH  11  12
ENDBRANCH   1  11
TORSDOF 1
ENDMDL
MODEL 4
REMARK VINA RESULT:    -3.870      2.595      4.702
REMARK INTER + INTRA:          -5.835
REMARK INTER:                  -5.659
REMARK INTRA:                  -0.177
REMARK UNBOUND:                 0.071
REMARK SMILES CC1=CCC[C@H](C)C(=O)C[C@@H](C(C)C)C(=O)C1
REMARK SMILES IDX 8 1 9 2 6 3 7 4 5 5 4 6 3 7 2 8 1 9 10 11 11 12 15 13 16 14
REMARK SMILES IDX 17 15 12 17 13 18 14 19
REMARK H PARENT
REMARK Flexibility Score: 70.00
ROOT
ATOM      1  C   UNL     1      -7.979 -24.627 -17.142  1.00  0.00     0.136 C 
ATOM      2  O   UNL     1      -8.678 -24.999 -16.211  1.00  0.00    -0.299 OA
ENDROOT
BRANCH   1   3
ATOM      3  C   UNL     1      -7.194 -23.331 -16.975  1.00  0.00     0.053 C 
ATOM      4  C   UNL     1      -8.045 -22.049 -16.995  1.00  0.00     0.016 C 
BRANCH   3   5
ATOM      5  C   UNL     1      -6.258 -23.371 -15.740  1.00  0.00     0.015 C 
BRANCH   5   6
ATOM      6  C   UNL     1      -5.154 -24.451 -15.787  1.00  0.00     0.028 C 
BRANCH   6   7
ATOM      7  C   UNL     1      -4.131 -24.153 -16.863  1.00  0.00    -0.028 C 
ATOM      8  C   UNL     1      -3.715 -25.001 -17.834  1.00  0.00    -0.070 CG0
ATOM      9  C   UNL     1      -2.659 -24.512 -18.792  1.00  0.00     0.039 C 
ATOM     10  G   UNL     1      -4.292 -26.386 -18.045  1.00  0.00     0.000 G0
ENDBRANCH   6   7
ENDBRANCH   5   6
ENDBRANCH   3   5
ENDBRANCH   1   3
BRANCH   1  11
ATOM     11  C   UNL     1      -7.925 -25.502 -18.381  1.00  0.00     0.087 C 
BRANCH  11  12
ATOM     12  C   UNL     1      -6.923 -26.672 -18.241  1.00  0.00     0.066 C 
BRANCH  12  13
ATOM     13  C   UNL     1      -5.582 -26.326 -18.861  1.00  0.00     0.140 C 
ATOM     14  O   UNL     1      -5.527 -25.955 -20.026  1.00  0.00    -0.299 OA
BRANCH  13  15
ATOM     15  C   UNL     1      -4.312 -26.395 -18.055  1.00  0.00     0.106 CG0
ATOM     16  G   UNL     1      -3.734 -25.007 -17.870  1.00  0.00     0.000 G0
ENDBRANCH  13  15
ENDBRANCH  12  13
BRANCH  12  17
ATOM     17  C   UNL     1      -7.506 -28.021 -18.765  1.00  0.00    -0.006 C 
ATOM     18  C   UNL     1      -6.696 -29.265 -18.357  1.00  0.00     0.008 C 
ATOM     19  C   UNL     1      -8.973 -28.190 -18.340  1.00  0.00     0.008 C 
ENDBRANCH  12  17
ENDBRANCH  11  12
ENDBRANCH   1  11
TORSDOF 1
ENDMDL
MODEL 5
REMARK VINA RESULT:    -3.808      2.811      5.750
REMARK INTER + INTRA:          -5.740
REMARK INTER:                  -5.609
REMARK INTRA:                  -0.130
REMARK UNBOUND:                 0.071
REMARK SMILES CC1=CCC[C@H](C)C(=O)C[C@@H](C(C)C)C(=O)C1
REMARK SMILES IDX 8 1 9 2 6 3 7 4 5 5 4 6 3 7 2 8 1 9 10 11 11 12 15 13 16 14
REMARK SMILES IDX 17 15 12 17 13 18 14 19
REMARK H PARENT
REMARK Flexibility Score: 70.00
ROOT
ATOM      1  C   UNL     1      -6.729 -23.176 -16.099  1.00  0.00     0.136 C 
ATOM      2  O   UNL     1      -6.336 -22.127 -15.610  1.00  0.00    -0.299 OA
ENDROOT
BRANCH   1   3
ATOM      3  C   UNL     1      -8.183 -23.256 -16.548  1.00  0.00     0.053 C 
ATOM      4  C   UNL     1      -8.503 -22.503 -17.853  1.00  0.00     0.016 C 
BRANCH   3   5
ATOM      5  C   UNL     1      -8.700 -24.717 -16.598  1.00  0.00     0.015 C 
BRANCH   5   6
ATOM      6  C   UNL     1      -8.798 -25.330 -18.012  1.00  0.00     0.028 C 
BRANCH   6   7
ATOM      7  C   UNL     1      -8.454 -26.804 -18.004  1.00  0.00    -0.028 C 
ATOM      8  C   UNL     1      -7.346 -27.375 -18.533  1.00  0.00    -0.070 CG0
ATOM      9  C   UNL     1      -7.213 -28.874 -18.443  1.00  0.00     0.039 C 
ATOM     10  G   UNL     1      -6.210 -26.588 -19.155  1.00  0.00     0.000 G0
ENDBRANCH   6   7
ENDBRANCH   5   6
ENDBRANCH   3   5
ENDBRANCH   1   3
BRANCH   1  11
ATOM     11  C   UNL     1      -5.728 -24.306 -16.249  1.00  0.00     0.087 C 
BRANCH  11  12
ATOM     12  C   UNL     1      -5.328 -24.556 -17.722  1.00  0.00     0.066 C 
BRANCH  12  13
ATOM     13  C   UNL     1      -5.317 -26.038 -18.047  1.00  0.00     0.140 C 
ATOM     14  O   UNL     1      -4.623 -26.801 -17.389  1.00  0.00    -0.299 OA
BRANCH  13  15
ATOM     15  C   UNL     1      -6.180 -26.599 -19.146  1.00  0.00     0.106 CG0
ATOM     16  G   UNL     1      -7.346 -27.367 -18.557  1.00  0.00     0.000 G0
ENDBRANCH  13  15
ENDBRANCH  12  13
BRANCH  12  17
ATOM     17  C   UNL     1      -3.996 -23.840 -18.106  1.00  0.00    -0.006 C 
ATOM     18  C   UNL     1      -4.166 -22.662 -19.083  1.00  0.00     0.008 C 
ATOM     19  C   UNL     1      -3.237 -23.374 -16.853  1.00  0.00     0.008 C 
ENDBRANCH  12  17
ENDBRANCH  11  12
ENDBRANCH   1  11
TORSDOF 1
ENDMDL
MODEL 6
REMARK VINA RESULT:    -3.806      1.784      4.146
REMARK INTER + INTRA:          -5.738
REMARK INTER:                  -5.595
REMARK INTRA:                  -0.143
REMARK UNBOUND:                 0.071
REMARK SMILES CC1=CCC[C@H](C)C(=O)C[C@@H](C(C)C)C(=O)C1
REMARK SMILES IDX 8 1 9 2 6 3 7 4 5 5 4 6 3 7 2 8 1 9 10 11 11 12 15 13 16 14
REMARK SMILES IDX 17 15 12 17 13 18 14 19
REMARK H PARENT
REMARK Flexibility Score: 70.00
ROOT
ATOM      1  C   UNL     1      -7.211 -28.596 -18.898  1.00  0.00     0.136 C 
ATOM      2  O   UNL     1      -6.792 -29.367 -18.047  1.00  0.00    -0.299 OA
ENDROOT
BRANCH   1   3
ATOM      3  C   UNL     1      -8.624 -28.812 -19.427  1.00  0.00     0.053 C 
ATOM      4  C   UNL     1      -8.950 -30.259 -19.836  1.00  0.00     0.016 C 
BRANCH   3   5
ATOM      5  C   UNL     1      -9.700 -28.238 -18.470  1.00  0.00     0.015 C 
BRANCH   5   6
ATOM      6  C   UNL     1     -10.014 -26.738 -18.661  1.00  0.00     0.028 C 
BRANCH   6   7
ATOM      7  C   UNL     1      -9.622 -25.929 -17.442  1.00  0.00    -0.028 C 
ATOM      8  C   UNL     1      -8.503 -25.178 -17.301  1.00  0.00    -0.070 CG0
ATOM      9  C   UNL     1      -8.289 -24.472 -15.986  1.00  0.00     0.039 C 
ATOM     10  G   UNL     1      -7.490 -24.962 -18.406  1.00  0.00     0.000 G0
ENDBRANCH   6   7
ENDBRANCH   5   6
ENDBRANCH   3   5
ENDBRANCH   1   3
BRANCH   1  11
ATOM     11  C   UNL     1      -6.300 -27.465 -19.339  1.00  0.00     0.087 C 
BRANCH  11  12
ATOM     12  C   UNL     1      -5.599 -26.767 -18.151  1.00  0.00     0.066 C 
BRANCH  12  13
ATOM     13  C   UNL     1      -6.106 -25.349 -17.968  1.00  0.00     0.140 C 
ATOM     14  O   UNL     1      -5.375 -24.498 -17.480  1.00  0.00    -0.299 OA
BRANCH  13  15
ATOM     15  C   UNL     1      -7.489 -24.954 -18.413  1.00  0.00     0.106 CG0
ATOM     16  G   UNL     1      -8.484 -25.178 -17.292  1.00  0.00     0.000 G0
ENDBRANCH  13  15
ENDBRANCH  12  13
BRANCH  12  17
ATOM     17  C   UNL     1      -4.044 -26.850 -18.245  1.00  0.00    -0.006 C 
ATOM     18  C   UNL     1      -3.362 -27.449 -17.001  1.00  0.00     0.008 C 
ATOM     19  C   UNL     1      -3.606 -27.617 -19.502  1.00  0.00     0.008 C 
ENDBRANCH  12  17
ENDBRANCH  11  12
ENDBRANCH   1  11
TORSDOF 1
ENDMDL
MODEL 7
REMARK VINA RESULT:    -3.701      2.931      5.813
REMARK INTER + INTRA:          -5.577
REMARK INTER:                  -5.445
REMARK INTRA:                  -0.133
REMARK UNBOUND:                 0.071
REMARK SMILES CC1=CCC[C@H](C)C(=O)C[C@@H](C(C)C)C(=O)C1
REMARK SMILES IDX 8 1 9 2 6 3 7 4 5 5 4 6 3 7 2 8 1 9 10 11 11 12 15 13 16 14
REMARK SMILES IDX 17 15 12 17 13 18 14 19
REMARK H PARENT
REMARK Flexibility Score: 70.00
ROOT
ATOM      1  C   UNL     1      -8.221 -25.373 -17.766  1.00  0.00     0.136 C 
ATOM      2  O   UNL     1      -9.014 -24.680 -18.386  1.00  0.00    -0.299 OA
ENDROOT
BRANCH   1   3
ATOM      3  C   UNL     1      -8.250 -26.879 -18.000  1.00  0.00     0.053 C 
ATOM      4  C   UNL     1      -9.571 -27.421 -18.576  1.00  0.00     0.016 C 
BRANCH   3   5
ATOM      5  C   UNL     1      -7.032 -27.366 -18.826  1.00  0.00     0.015 C 
BRANCH   5   6
ATOM      6  C   UNL     1      -5.791 -27.758 -17.995  1.00  0.00     0.028 C 
BRANCH   6   7
ATOM      7  C   UNL     1      -4.528 -27.137 -18.554  1.00  0.00    -0.028 C 
ATOM      8  C   UNL     1      -3.939 -25.993 -18.133  1.00  0.00    -0.070 CG0
ATOM      9  C   UNL     1      -2.696 -25.533 -18.852  1.00  0.00     0.039 C 
ATOM     10  G   UNL     1      -4.424 -25.185 -16.946  1.00  0.00     0.000 G0
ENDBRANCH   6   7
ENDBRANCH   5   6
ENDBRANCH   3   5
ENDBRANCH   1   3
BRANCH   1  11
ATOM     11  C   UNL     1      -7.247 -24.675 -16.834  1.00  0.00     0.087 C 
BRANCH  11  12
ATOM     12  C   UNL     1      -6.415 -23.587 -17.549  1.00  0.00     0.066 C 
BRANCH  12  13
ATOM     13  C   UNL     1      -4.926 -23.832 -17.381  1.00  0.00     0.140 C 
ATOM     14  O   UNL     1      -4.132 -22.924 -17.585  1.00  0.00    -0.299 OA
BRANCH  13  15
ATOM     15  C   UNL     1      -4.405 -25.170 -16.929  1.00  0.00     0.106 CG0
ATOM     16  G   UNL     1      -3.950 -25.986 -18.122  1.00  0.00     0.000 G0
ENDBRANCH  13  15
ENDBRANCH  12  13
BRANCH  12  17
ATOM     17  C   UNL     1      -6.843 -22.144 -17.138  1.00  0.00    -0.006 C 
ATOM     18  C   UNL     1      -7.564 -21.355 -18.246  1.00  0.00     0.008 C 
ATOM     19  C   UNL     1      -7.704 -22.165 -15.866  1.00  0.00     0.008 C 
ENDBRANCH  12  17
ENDBRANCH  11  12
ENDBRANCH   1  11
TORSDOF 1
ENDMDL
MODEL 8
REMARK VINA RESULT:    -3.681      4.327      6.980
REMARK INTER + INTRA:          -5.546
REMARK INTER:                  -5.360
REMARK INTRA:                  -0.186
REMARK UNBOUND:                 0.071
REMARK SMILES CC1=CCC[C@H](C)C(=O)C[C@@H](C(C)C)C(=O)C1
REMARK SMILES IDX 8 1 9 2 6 3 7 4 5 5 4 6 3 7 2 8 1 9 10 11 11 12 15 13 16 14
REMARK SMILES IDX 17 15 12 17 13 18 14 19
REMARK H PARENT
REMARK Flexibility Score: 70.00
ROOT
ATOM      1  C   UNL     1      -8.267 -22.649 -17.558  1.00  0.00     0.136 C 
ATOM      2  O   UNL     1      -9.121 -22.695 -18.431  1.00  0.00    -0.299 OA
ENDROOT
BRANCH   1   3
ATOM      3  C   UNL     1      -8.101 -23.865 -16.653  1.00  0.00     0.053 C 
ATOM      4  C   UNL     1      -9.378 -24.699 -16.446  1.00  0.00     0.016 C 
BRANCH   3   5
ATOM      5  C   UNL     1      -6.908 -24.756 -17.084  1.00  0.00     0.015 C 
BRANCH   5   6
ATOM      6  C   UNL     1      -5.659 -24.662 -16.179  1.00  0.00     0.028 C 
BRANCH   6   7
ATOM      7  C   UNL     1      -4.404 -24.414 -16.988  1.00  0.00    -0.028 C 
ATOM      8  C   UNL     1      -3.881 -23.208 -17.312  1.00  0.00    -0.070 CG0
ATOM      9  C   UNL     1      -2.632 -23.184 -18.157  1.00  0.00     0.039 C 
ATOM     10  G   UNL     1      -4.445 -21.888 -16.825  1.00  0.00     0.000 G0
ENDBRANCH   6   7
ENDBRANCH   5   6
ENDBRANCH   3   5
ENDBRANCH   1   3
BRANCH   1  11
ATOM     11  C   UNL     1      -7.416 -21.396 -17.464  1.00  0.00     0.087 C 
BRANCH  11  12
ATOM     12  C   UNL     1      -6.328 -21.332 -18.561  1.00  0.00     0.066 C 
BRANCH  12  13
ATOM     13  C   UNL     1      -4.959 -21.063 -17.963  1.00  0.00     0.140 C 
ATOM     14  O   UNL     1      -4.272 -20.149 -18.399  1.00  0.00    -0.299 OA
BRANCH  13  15
ATOM     15  C   UNL     1      -4.440 -21.880 -16.810  1.00  0.00     0.106 CG0
ATOM     16  G   UNL     1      -3.902 -23.206 -17.307  1.00  0.00     0.000 G0
ENDBRANCH  13  15
ENDBRANCH  12  13
BRANCH  12  17
ATOM     17  C   UNL     1      -6.696 -20.340 -19.708  1.00  0.00    -0.006 C 
ATOM     18  C   UNL     1      -6.770 -20.984 -21.105  1.00  0.00     0.008 C 
ATOM     19  C   UNL     1      -8.009 -19.604 -19.401  1.00  0.00     0.008 C 
ENDBRANCH  12  17
ENDBRANCH  11  12
ENDBRANCH   1  11
TORSDOF 1
ENDMDL
MODEL 9
REMARK VINA RESULT:    -3.635      3.200      6.302
REMARK INTER + INTRA:          -5.476
REMARK INTER:                  -5.623
REMARK INTRA:                   0.147
REMARK UNBOUND:                 0.071
REMARK SMILES CC1=CCC[C@H](C)C(=O)C[C@@H](C(C)C)C(=O)C1
REMARK SMILES IDX 8 1 9 2 6 3 7 4 5 5 4 6 3 7 2 8 1 9 10 11 11 12 15 13 16 14
REMARK SMILES IDX 17 15 12 17 13 18 14 19
REMARK H PARENT
REMARK Flexibility Score: 70.00
ROOT
ATOM      1  C   UNL     1      -7.948 -22.631 -16.170  1.00  0.00     0.136 C 
ATOM      2  O   UNL     1      -8.262 -21.893 -15.247  1.00  0.00    -0.299 OA
ENDROOT
BRANCH   1   3
ATOM      3  C   UNL     1      -9.033 -23.505 -16.788  1.00  0.00     0.053 C 
ATOM      4  C   UNL     1      -9.500 -23.068 -18.189  1.00  0.00     0.016 C 
BRANCH   3   5
ATOM      5  C   UNL     1      -8.657 -25.009 -16.762  1.00  0.00     0.015 C 
BRANCH   5   6
ATOM      6  C   UNL     1      -8.640 -25.705 -18.141  1.00  0.00     0.028 C 
BRANCH   6   7
ATOM      7  C   UNL     1      -7.398 -26.552 -18.320  1.00  0.00    -0.028 C 
ATOM      8  C   UNL     1      -6.279 -26.206 -18.998  1.00  0.00    -0.070 CG0
ATOM      9  C   UNL     1      -5.163 -27.216 -19.081  1.00  0.00     0.039 C 
ATOM     10  G   UNL     1      -6.063 -24.843 -19.625  1.00  0.00     0.000 G0
ENDBRANCH   6   7
ENDBRANCH   5   6
ENDBRANCH   3   5
ENDBRANCH   1   3
BRANCH   1  11
ATOM     11  C   UNL     1      -6.508 -22.594 -16.648  1.00  0.00     0.087 C 
BRANCH  11  12
ATOM     12  C   UNL     1      -6.390 -22.676 -18.187  1.00  0.00     0.066 C 
BRANCH  12  13
ATOM     13  C   UNL     1      -5.547 -23.864 -18.613  1.00  0.00     0.140 C 
ATOM     14  O   UNL     1      -4.455 -24.053 -18.095  1.00  0.00    -0.299 OA
BRANCH  13  15
ATOM     15  C   UNL     1      -6.047 -24.844 -19.640  1.00  0.00     0.106 CG0
ATOM     16  G   UNL     1      -6.273 -26.201 -19.004  1.00  0.00     0.000 G0
ENDBRANCH  13  15
ENDBRANCH  12  13
BRANCH  12  17
ATOM     17  C   UNL     1      -5.910 -21.333 -18.820  1.00  0.00    -0.006 C 
ATOM     18  C   UNL     1      -7.036 -20.315 -19.080  1.00  0.00     0.008 C 
ATOM     19  C   UNL     1      -4.806 -20.685 -17.970  1.00  0.00     0.008 C 
ENDBRANCH  12  17
ENDBRANCH  11  12
ENDBRANCH   1  11
TORSDOF 1
ENDMDL
