MODEL 1
REMARK VINA RESULT:    -5.982      0.000      0.000
REMARK INTER + INTRA:          -6.565
REMARK INTER:                  -6.332
REMARK INTRA:                  -0.233
REMARK UNBOUND:                -0.233
REMARK SMILES O=c1cc(-c2ccccc2)oc2ccccc12
REMARK SMILES IDX 4 1 3 2 2 3 1 4 17 5 16 6 15 7 14 8 13 9 12 10 11 11 5 12
REMARK SMILES IDX 8 13 7 14 9 15 6 16 10 17
REMARK H PARENT
REMARK Flexibility Score: inf
ROOT
ATOM      1  C   UNL     1     -34.963  10.638 -40.705  1.00  0.00     0.138 A 
ATOM      2  C   UNL     1     -34.946  11.904 -40.082  1.00  0.00     0.100 A 
ATOM      3  C   UNL     1     -34.025  12.157 -39.063  1.00  0.00     0.193 A 
ATOM      4  O   UNL     1     -34.009  13.289 -38.507  1.00  0.00    -0.289 OA
ATOM      5  C   UNL     1     -33.130  11.151 -38.676  1.00  0.00     0.065 A 
ATOM      6  C   UNL     1     -32.177  11.341 -37.658  1.00  0.00     0.016 A 
ATOM      7  C   UNL     1     -31.308  10.302 -37.310  1.00  0.00     0.001 A 
ATOM      8  C   UNL     1     -31.381   9.073 -37.971  1.00  0.00     0.004 A 
ATOM      9  C   UNL     1     -32.325   8.875 -38.983  1.00  0.00     0.048 A 
ATOM     10  C   UNL     1     -33.200   9.908 -39.339  1.00  0.00     0.138 A 
ATOM     11  O   UNL     1     -34.094   9.710 -40.303  1.00  0.00    -0.456 OA
ENDROOT
BRANCH   1  12
ATOM     12  C   UNL     1     -35.917  10.283 -41.802  1.00  0.00     0.017 A 
ATOM     13  C   UNL     1     -37.789   9.632 -43.810  1.00  0.00     0.000 A 
ATOM     14  C   UNL     1     -36.424   9.547 -44.076  1.00  0.00     0.001 A 
ATOM     15  C   UNL     1     -38.229  10.039 -42.551  1.00  0.00     0.001 A 
ATOM     16  C   UNL     1     -35.491   9.869 -43.084  1.00  0.00     0.012 A 
ATOM     17  C   UNL     1     -37.303  10.362 -41.554  1.00  0.00     0.012 A 
ENDBRANCH   1  12
TORSDOF 1
ENDMDL
MODEL 2
REMARK VINA RESULT:    -5.748      1.897      2.171
REMARK INTER + INTRA:          -6.318
REMARK INTER:                  -6.096
REMARK INTRA:                  -0.222
REMARK UNBOUND:                -0.233
REMARK SMILES O=c1cc(-c2ccccc2)oc2ccccc12
REMARK SMILES IDX 4 1 3 2 2 3 1 4 17 5 16 6 15 7 14 8 13 9 12 10 11 11 5 12
REMARK SMILES IDX 8 13 7 14 9 15 6 16 10 17
REMARK H PARENT
REMARK Flexibility Score: inf
ROOT
ATOM      1  C   UNL     1     -34.233  10.459 -39.488  1.00  0.00     0.138 A 
ATOM      2  C   UNL     1     -33.479  11.631 -39.267  1.00  0.00     0.100 A 
ATOM      3  C   UNL     1     -32.954  11.882 -37.998  1.00  0.00     0.193 A 
ATOM      4  O   UNL     1     -32.279  12.930 -37.801  1.00  0.00    -0.289 OA
ATOM      5  C   UNL     1     -33.182  10.967 -36.962  1.00  0.00     0.065 A 
ATOM      6  C   UNL     1     -32.681  11.160 -35.662  1.00  0.00     0.016 A 
ATOM      7  C   UNL     1     -32.939  10.214 -34.664  1.00  0.00     0.001 A 
ATOM      8  C   UNL     1     -33.695   9.074 -34.955  1.00  0.00     0.004 A 
ATOM      9  C   UNL     1     -34.197   8.875 -36.245  1.00  0.00     0.048 A 
ATOM     10  C   UNL     1     -33.945   9.815 -37.250  1.00  0.00     0.138 A 
ATOM     11  O   UNL     1     -34.426   9.616 -38.473  1.00  0.00    -0.456 OA
ENDROOT
BRANCH   1  12
ATOM     12  C   UNL     1     -34.831  10.114 -40.815  1.00  0.00     0.017 A 
ATOM     13  C   UNL     1     -36.033   9.526 -43.299  1.00  0.00     0.000 A 
ATOM     14  C   UNL     1     -34.860   8.876 -42.921  1.00  0.00     0.001 A 
ATOM     15  C   UNL     1     -36.612  10.468 -42.449  1.00  0.00     0.001 A 
ATOM     16  C   UNL     1     -34.260   9.163 -41.690  1.00  0.00     0.012 A 
ATOM     17  C   UNL     1     -36.019  10.761 -41.218  1.00  0.00     0.012 A 
ENDBRANCH   1  12
TORSDOF 1
ENDMDL
MODEL 3
REMARK VINA RESULT:    -5.542      1.896      6.012
REMARK INTER + INTRA:          -6.099
REMARK INTER:                  -5.878
REMARK INTRA:                  -0.221
REMARK UNBOUND:                -0.233
REMARK SMILES O=c1cc(-c2ccccc2)oc2ccccc12
REMARK SMILES IDX 4 1 3 2 2 3 1 4 17 5 16 6 15 7 14 8 13 9 12 10 11 11 5 12
REMARK SMILES IDX 8 13 7 14 9 15 6 16 10 17
REMARK H PARENT
REMARK Flexibility Score: inf
ROOT
ATOM      1  C   UNL     1     -33.747  10.070 -39.076  1.00  0.00     0.138 A 
ATOM      2  C   UNL     1     -32.595   9.649 -39.774  1.00  0.00     0.100 A 
ATOM      3  C   UNL     1     -32.706   9.250 -41.108  1.00  0.00     0.193 A 
ATOM      4  O   UNL     1     -31.676   8.875 -41.732  1.00  0.00    -0.289 OA
ATOM      5  C   UNL     1     -33.959   9.273 -41.734  1.00  0.00     0.065 A 
ATOM      6  C   UNL     1     -34.140   8.884 -43.073  1.00  0.00     0.016 A 
ATOM      7  C   UNL     1     -35.413   8.925 -43.650  1.00  0.00     0.001 A 
ATOM      8  C   UNL     1     -36.511   9.353 -42.897  1.00  0.00     0.004 A 
ATOM      9  C   UNL     1     -36.341   9.741 -41.565  1.00  0.00     0.048 A 
ATOM     10  C   UNL     1     -35.071   9.703 -40.979  1.00  0.00     0.138 A 
ATOM     11  O   UNL     1     -34.919  10.074 -39.712  1.00  0.00    -0.456 OA
ENDROOT
BRANCH   1  12
ATOM     12  C   UNL     1     -33.717  10.513 -37.648  1.00  0.00     0.017 A 
ATOM     13  C   UNL     1     -33.634  11.437 -34.983  1.00  0.00     0.000 A 
ATOM     14  C   UNL     1     -33.962  10.109 -35.250  1.00  0.00     0.001 A 
ATOM     15  C   UNL     1     -33.348  12.308 -36.033  1.00  0.00     0.001 A 
ATOM     16  C   UNL     1     -34.004   9.645 -36.570  1.00  0.00     0.012 A 
ATOM     17  C   UNL     1     -33.388  11.853 -37.354  1.00  0.00     0.012 A 
ENDBRANCH   1  12
TORSDOF 1
ENDMDL
MODEL 4
REMARK VINA RESULT:    -5.396      2.177      6.268
REMARK INTER + INTRA:          -5.945
REMARK INTER:                  -5.689
REMARK INTRA:                  -0.256
REMARK UNBOUND:                -0.233
REMARK SMILES O=c1cc(-c2ccccc2)oc2ccccc12
REMARK SMILES IDX 4 1 3 2 2 3 1 4 17 5 16 6 15 7 14 8 13 9 12 10 11 11 5 12
REMARK SMILES IDX 8 13 7 14 9 15 6 16 10 17
REMARK H PARENT
REMARK Flexibility Score: inf
ROOT
ATOM      1  C   UNL     1     -33.624  11.475 -37.422  1.00  0.00     0.138 A 
ATOM      2  C   UNL     1     -33.895  12.682 -38.101  1.00  0.00     0.100 A 
ATOM      3  C   UNL     1     -34.413  12.641 -39.398  1.00  0.00     0.193 A 
ATOM      4  O   UNL     1     -34.656  13.721 -40.003  1.00  0.00    -0.289 OA
ATOM      5  C   UNL     1     -34.655  11.403 -40.006  1.00  0.00     0.065 A 
ATOM      6  C   UNL     1     -35.176  11.292 -41.308  1.00  0.00     0.016 A 
ATOM      7  C   UNL     1     -35.399  10.030 -41.869  1.00  0.00     0.001 A 
ATOM      8  C   UNL     1     -35.107   8.875 -41.137  1.00  0.00     0.004 A 
ATOM      9  C   UNL     1     -34.589   8.976 -39.843  1.00  0.00     0.048 A 
ATOM     10  C   UNL     1     -34.362  10.234 -39.272  1.00  0.00     0.138 A 
ATOM     11  O   UNL     1     -33.870  10.319 -38.041  1.00  0.00    -0.456 OA
ENDROOT
BRANCH   1  12
ATOM     12  C   UNL     1     -33.070  11.428 -36.034  1.00  0.00     0.017 A 
ATOM     13  C   UNL     1     -32.066  11.425 -33.397  1.00  0.00     0.000 A 
ATOM     14  C   UNL     1     -31.757  10.377 -34.261  1.00  0.00     0.001 A 
ATOM     15  C   UNL     1     -32.871  12.475 -33.836  1.00  0.00     0.001 A 
ATOM     16  C   UNL     1     -32.251  10.373 -35.570  1.00  0.00     0.012 A 
ATOM     17  C   UNL     1     -33.370  12.479 -35.142  1.00  0.00     0.012 A 
ENDBRANCH   1  12
TORSDOF 1
ENDMDL
MODEL 5
REMARK VINA RESULT:    -5.303      1.611      6.468
REMARK INTER + INTRA:          -5.846
REMARK INTER:                  -5.602
REMARK INTRA:                  -0.245
REMARK UNBOUND:                -0.233
REMARK SMILES O=c1cc(-c2ccccc2)oc2ccccc12
REMARK SMILES IDX 4 1 3 2 2 3 1 4 17 5 16 6 15 7 14 8 13 9 12 10 11 11 5 12
REMARK SMILES IDX 8 13 7 14 9 15 6 16 10 17
REMARK H PARENT
REMARK Flexibility Score: inf
ROOT
ATOM      1  C   UNL     1     -35.469  10.585 -40.996  1.00  0.00     0.138 A 
ATOM      2  C   UNL     1     -35.091   9.882 -42.160  1.00  0.00     0.100 A 
ATOM      3  C   UNL     1     -36.067   9.504 -43.084  1.00  0.00     0.193 A 
ATOM      4  O   UNL     1     -35.728   8.877 -44.125  1.00  0.00    -0.289 OA
ATOM      5  C   UNL     1     -37.409   9.828 -42.842  1.00  0.00     0.065 A 
ATOM      6  C   UNL     1     -38.441   9.478 -43.731  1.00  0.00     0.016 A 
ATOM      7  C   UNL     1     -39.764   9.825 -43.442  1.00  0.00     0.001 A 
ATOM      8  C   UNL     1     -40.066  10.522 -42.268  1.00  0.00     0.004 A 
ATOM      9  C   UNL     1     -39.047  10.874 -41.378  1.00  0.00     0.048 A 
ATOM     10  C   UNL     1     -37.720  10.531 -41.659  1.00  0.00     0.138 A 
ATOM     11  O   UNL     1     -36.758  10.871 -40.807  1.00  0.00    -0.456 OA
ENDROOT
BRANCH   1  12
ATOM     12  C   UNL     1     -34.489  11.026 -39.957  1.00  0.00     0.017 A 
ATOM     13  C   UNL     1     -32.597  11.770 -37.999  1.00  0.00     0.000 A 
ATOM     14  C   UNL     1     -33.570  12.679 -38.409  1.00  0.00     0.001 A 
ATOM     15  C   UNL     1     -32.559  10.492 -38.556  1.00  0.00     0.001 A 
ATOM     16  C   UNL     1     -34.511  12.316 -39.379  1.00  0.00     0.012 A 
ATOM     17  C   UNL     1     -33.495  10.121 -39.526  1.00  0.00     0.012 A 
ENDBRANCH   1  12
TORSDOF 1
ENDMDL
MODEL 6
REMARK VINA RESULT:    -4.978      3.088      6.813
REMARK INTER + INTRA:          -5.503
REMARK INTER:                  -5.246
REMARK INTRA:                  -0.256
REMARK UNBOUND:                -0.233
REMARK SMILES O=c1cc(-c2ccccc2)oc2ccccc12
REMARK SMILES IDX 4 1 3 2 2 3 1 4 17 5 16 6 15 7 14 8 13 9 12 10 11 11 5 12
REMARK SMILES IDX 8 13 7 14 9 15 6 16 10 17
REMARK H PARENT
REMARK Flexibility Score: inf
ROOT
ATOM      1  C   UNL     1     -33.129  12.005 -36.168  1.00  0.00     0.138 A 
ATOM      2  C   UNL     1     -33.891  12.797 -37.053  1.00  0.00     0.100 A 
ATOM      3  C   UNL     1     -34.020  12.408 -38.388  1.00  0.00     0.193 A 
ATOM      4  O   UNL     1     -34.703  13.116 -39.177  1.00  0.00    -0.289 OA
ATOM      5  C   UNL     1     -33.391  11.237 -38.829  1.00  0.00     0.065 A 
ATOM      6  C   UNL     1     -33.481  10.789 -40.160  1.00  0.00     0.016 A 
ATOM      7  C   UNL     1     -32.833   9.612 -40.549  1.00  0.00     0.001 A 
ATOM      8  C   UNL     1     -32.094   8.877 -39.617  1.00  0.00     0.004 A 
ATOM      9  C   UNL     1     -31.999   9.315 -38.293  1.00  0.00     0.048 A 
ATOM     10  C   UNL     1     -32.643  10.491 -37.894  1.00  0.00     0.138 A 
ATOM     11  O   UNL     1     -32.547  10.899 -36.632  1.00  0.00    -0.456 OA
ENDROOT
BRANCH   1  12
ATOM     12  C   UNL     1     -32.939  12.349 -34.725  1.00  0.00     0.017 A 
ATOM     13  C   UNL     1     -32.668  13.043 -32.003  1.00  0.00     0.000 A 
ATOM     14  C   UNL     1     -31.655  12.333 -32.646  1.00  0.00     0.001 A 
ATOM     15  C   UNL     1     -33.815  13.409 -32.706  1.00  0.00     0.001 A 
ATOM     16  C   UNL     1     -31.784  11.987 -33.995  1.00  0.00     0.012 A 
ATOM     17  C   UNL     1     -33.952  13.067 -34.054  1.00  0.00     0.012 A 
ENDBRANCH   1  12
TORSDOF 1
ENDMDL
