MODEL 1
REMARK VINA RESULT:    -3.926      0.000      0.000
REMARK INTER + INTRA:          -7.536
REMARK INTER:                  -7.597
REMARK INTRA:                   0.061
REMARK UNBOUND:                 0.061
REMARK SMILES CCCCCCCCCCCCCCCCCC(=O)[O-]
REMARK SMILES IDX 10 1 11 2 12 3 13 4 14 5 15 6 16 7 17 8 18 9 19 10 20 11
REMARK SMILES IDX 9 12 8 13 7 14 6 15 5 16 4 17 3 18 2 19 1 20
REMARK H PARENT
REMARK Flexibility Score: inf
ROOT
ATOM      1  C   UNL     1      39.868  13.446 -35.984  1.00  0.00     0.000 C 
ENDROOT
BRANCH   1   2
ATOM      2  C   UNL     1      39.407  12.064 -36.478  1.00  0.00     0.000 C 
BRANCH   2   3
ATOM      3  C   UNL     1      38.099  12.122 -37.288  1.00  0.00     0.000 C 
BRANCH   3   4
ATOM      4  C   UNL     1      36.913  12.823 -36.591  1.00  0.00     0.000 C 
BRANCH   4   5
ATOM      5  C   UNL     1      36.919  12.760 -35.051  1.00  0.00     0.000 C 
BRANCH   5   6
ATOM      6  C   UNL     1      37.489  14.025 -34.370  1.00  0.00     0.000 C 
BRANCH   6   7
ATOM      7  C   UNL     1      36.876  14.303 -32.985  1.00  0.00     0.006 C 
BRANCH   7   8
ATOM      8  C   UNL     1      36.896  13.087 -32.046  1.00  0.00     0.053 C 
BRANCH   8   9
ATOM      9  C   UNL     1      37.050  13.494 -30.611  1.00  0.00     0.041 C 
ATOM     10  O   UNL     1      37.215  12.620 -29.720  1.00  0.00    -0.550 OA
ATOM     11  O   UNL     1      37.040  14.838 -30.261  1.00  0.00    -0.550 OA
ENDBRANCH   8   9
ENDBRANCH   7   8
ENDBRANCH   6   7
ENDBRANCH   5   6
ENDBRANCH   4   5
ENDBRANCH   3   4
ENDBRANCH   2   3
ENDBRANCH   1   2
BRANCH   1  12
ATOM     12  C   UNL     1      41.388  13.522 -35.757  1.00  0.00     0.000 C 
BRANCH  12  13
ATOM     13  C   UNL     1      42.135  12.173 -35.833  1.00  0.00    -0.000 C 
BRANCH  13  14
ATOM     14  C   UNL     1      43.628  12.267 -36.190  1.00  0.00    -0.000 C 
BRANCH  14  15
ATOM     15  C   UNL     1      44.547  11.888 -35.017  1.00  0.00    -0.000 C 
BRANCH  15  16
ATOM     16  C   UNL     1      44.092  12.506 -33.684  1.00  0.00    -0.000 C 
BRANCH  16  17
ATOM     17  C   UNL     1      45.259  13.112 -32.884  1.00  0.00    -0.000 C 
BRANCH  17  18
ATOM     18  C   UNL     1      46.191  12.039 -32.299  1.00  0.00    -0.000 C 
BRANCH  18  19
ATOM     19  C   UNL     1      46.173  12.015 -30.763  1.00  0.00    -0.003 C 
ATOM     20  C   UNL     1      45.457  13.242 -30.205  1.00  0.00     0.004 C 
ENDBRANCH  18  19
ENDBRANCH  17  18
ENDBRANCH  16  17
ENDBRANCH  15  16
ENDBRANCH  14  15
ENDBRANCH  13  14
ENDBRANCH  12  13
ENDBRANCH   1  12
TORSDOF 16
ENDMDL
MODEL 2
REMARK VINA RESULT:    -3.347     19.862     22.450
REMARK INTER + INTRA:          -6.416
REMARK INTER:                  -5.770
REMARK INTRA:                  -0.646
REMARK UNBOUND:                 0.061
REMARK SMILES CCCCCCCCCCCCCCCCCC(=O)[O-]
REMARK SMILES IDX 10 1 11 2 12 3 13 4 14 5 15 6 16 7 17 8 18 9 19 10 20 11
REMARK SMILES IDX 9 12 8 13 7 14 6 15 5 16 4 17 3 18 2 19 1 20
REMARK H PARENT
REMARK Flexibility Score: inf
ROOT
ATOM      1  C   UNL     1      54.805  29.610 -38.020  1.00  0.00     0.000 C 
ENDROOT
BRANCH   1   2
ATOM      2  C   UNL     1      53.995  28.900 -39.119  1.00  0.00     0.000 C 
BRANCH   2   3
ATOM      3  C   UNL     1      53.877  27.382 -38.891  1.00  0.00     0.000 C 
BRANCH   3   4
ATOM      4  C   UNL     1      54.893  26.775 -37.900  1.00  0.00     0.000 C 
BRANCH   4   5
ATOM      5  C   UNL     1      54.870  25.238 -37.787  1.00  0.00     0.000 C 
BRANCH   5   6
ATOM      6  C   UNL     1      54.791  24.713 -36.335  1.00  0.00     0.000 C 
BRANCH   6   7
ATOM      7  C   UNL     1      54.966  25.818 -35.276  1.00  0.00     0.006 C 
BRANCH   7   8
ATOM      8  C   UNL     1      56.435  26.141 -34.959  1.00  0.00     0.053 C 
BRANCH   8   9
ATOM      9  C   UNL     1      56.614  27.571 -34.546  1.00  0.00     0.041 C 
ATOM     10  O   UNL     1      57.125  28.401 -35.343  1.00  0.00    -0.550 OA
ATOM     11  O   UNL     1      56.190  27.994 -33.292  1.00  0.00    -0.550 OA
ENDBRANCH   8   9
ENDBRANCH   7   8
ENDBRANCH   6   7
ENDBRANCH   5   6
ENDBRANCH   4   5
ENDBRANCH   3   4
ENDBRANCH   2   3
ENDBRANCH   1   2
BRANCH   1  12
ATOM     12  C   UNL     1      54.371  31.072 -37.811  1.00  0.00     0.000 C 
BRANCH  12  13
ATOM     13  C   UNL     1      55.291  31.908 -36.896  1.00  0.00    -0.000 C 
BRANCH  13  14
ATOM     14  C   UNL     1      56.048  31.111 -35.819  1.00  0.00    -0.000 C 
BRANCH  14  15
ATOM     15  C   UNL     1      56.594  32.003 -34.692  1.00  0.00    -0.000 C 
BRANCH  15  16
ATOM     16  C   UNL     1      55.763  31.903 -33.401  1.00  0.00    -0.000 C 
BRANCH  16  17
ATOM     17  C   UNL     1      56.572  31.339 -32.220  1.00  0.00    -0.000 C 
BRANCH  17  18
ATOM     18  C   UNL     1      55.719  31.171 -30.951  1.00  0.00    -0.000 C 
BRANCH  18  19
ATOM     19  C   UNL     1      55.778  29.743 -30.386  1.00  0.00    -0.003 C 
ATOM     20  C   UNL     1      56.253  29.747 -28.935  1.00  0.00     0.004 C 
ENDBRANCH  18  19
ENDBRANCH  17  18
ENDBRANCH  16  17
ENDBRANCH  15  16
ENDBRANCH  14  15
ENDBRANCH  13  14
ENDBRANCH  12  13
ENDBRANCH   1  12
TORSDOF 16
ENDMDL
MODEL 3
REMARK VINA RESULT:    -3.202      3.091      5.854
REMARK INTER + INTRA:          -6.137
REMARK INTER:                  -6.168
REMARK INTRA:                   0.032
REMARK UNBOUND:                 0.061
REMARK SMILES CCCCCCCCCCCCCCCCCC(=O)[O-]
REMARK SMILES IDX 10 1 11 2 12 3 13 4 14 5 15 6 16 7 17 8 18 9 19 10 20 11
REMARK SMILES IDX 9 12 8 13 7 14 6 15 5 16 4 17 3 18 2 19 1 20
REMARK H PARENT
REMARK Flexibility Score: inf
ROOT
ATOM      1  C   UNL     1      44.714  12.781 -32.731  1.00  0.00     0.000 C 
ENDROOT
BRANCH   1   2
ATOM      2  C   UNL     1      44.613  12.651 -34.260  1.00  0.00     0.000 C 
BRANCH   2   3
ATOM      3  C   UNL     1      43.167  12.458 -34.751  1.00  0.00     0.000 C 
BRANCH   3   4
ATOM      4  C   UNL     1      42.811  13.167 -36.075  1.00  0.00     0.000 C 
BRANCH   4   5
ATOM      5  C   UNL     1      41.469  12.750 -36.709  1.00  0.00     0.000 C 
BRANCH   5   6
ATOM      6  C   UNL     1      40.309  12.614 -35.697  1.00  0.00     0.000 C 
BRANCH   6   7
ATOM      7  C   UNL     1      39.019  12.047 -36.318  1.00  0.00     0.006 C 
BRANCH   7   8
ATOM      8  C   UNL     1      37.814  12.995 -36.211  1.00  0.00     0.053 C 
BRANCH   8   9
ATOM      9  C   UNL     1      38.042  14.073 -35.196  1.00  0.00     0.041 C 
ATOM     10  O   UNL     1      38.807  15.039 -35.459  1.00  0.00    -0.550 OA
ATOM     11  O   UNL     1      37.388  14.029 -33.971  1.00  0.00    -0.550 OA
ENDBRANCH   8   9
ENDBRANCH   7   8
ENDBRANCH   6   7
ENDBRANCH   5   6
ENDBRANCH   4   5
ENDBRANCH   3   4
ENDBRANCH   2   3
ENDBRANCH   1   2
BRANCH   1  12
ATOM     12  C   UNL     1      46.161  12.979 -32.244  1.00  0.00     0.000 C 
BRANCH  12  13
ATOM     13  C   UNL     1      46.612  12.030 -31.113  1.00  0.00    -0.000 C 
BRANCH  13  14
ATOM     14  C   UNL     1      45.859  12.191 -29.781  1.00  0.00    -0.000 C 
BRANCH  14  15
ATOM     15  C   UNL     1      46.746  11.907 -28.557  1.00  0.00    -0.000 C 
BRANCH  15  16
ATOM     16  C   UNL     1      45.955  11.902 -27.239  1.00  0.00    -0.000 C 
BRANCH  16  17
ATOM     17  C   UNL     1      46.866  11.975 -26.001  1.00  0.00    -0.000 C 
BRANCH  17  18
ATOM     18  C   UNL     1      46.078  11.895 -24.684  1.00  0.00    -0.000 C 
BRANCH  18  19
ATOM     19  C   UNL     1      45.251  13.162 -24.413  1.00  0.00    -0.003 C 
ATOM     20  C   UNL     1      43.803  12.977 -24.862  1.00  0.00     0.004 C 
ENDBRANCH  18  19
ENDBRANCH  17  18
ENDBRANCH  16  17
ENDBRANCH  15  16
ENDBRANCH  14  15
ENDBRANCH  13  14
ENDBRANCH  12  13
ENDBRANCH   1  12
TORSDOF 16
ENDMDL
MODEL 4
REMARK VINA RESULT:    -2.804     19.932     22.643
REMARK INTER + INTRA:          -5.365
REMARK INTER:                  -4.612
REMARK INTRA:                  -0.753
REMARK UNBOUND:                 0.061
REMARK SMILES CCCCCCCCCCCCCCCCCC(=O)[O-]
REMARK SMILES IDX 10 1 11 2 12 3 13 4 14 5 15 6 16 7 17 8 18 9 19 10 20 11
REMARK SMILES IDX 9 12 8 13 7 14 6 15 5 16 4 17 3 18 2 19 1 20
REMARK H PARENT
REMARK Flexibility Score: inf
ROOT
ATOM      1  C   UNL     1      56.458  27.709 -33.230  1.00  0.00     0.000 C 
ENDROOT
BRANCH   1   2
ATOM      2  C   UNL     1      55.665  27.663 -34.547  1.00  0.00     0.000 C 
BRANCH   2   3
ATOM      3  C   UNL     1      55.921  26.378 -35.356  1.00  0.00     0.000 C 
BRANCH   3   4
ATOM      4  C   UNL     1      54.670  25.720 -35.976  1.00  0.00     0.000 C 
BRANCH   4   5
ATOM      5  C   UNL     1      54.881  25.070 -37.358  1.00  0.00     0.000 C 
BRANCH   5   6
ATOM      6  C   UNL     1      54.930  26.080 -38.528  1.00  0.00     0.000 C 
BRANCH   6   7
ATOM      7  C   UNL     1      54.119  27.362 -38.263  1.00  0.00     0.006 C 
BRANCH   7   8
ATOM      8  C   UNL     1      54.556  28.557 -39.125  1.00  0.00     0.053 C 
BRANCH   8   9
ATOM      9  C   UNL     1      55.052  29.696 -38.286  1.00  0.00     0.041 C 
ATOM     10  O   UNL     1      54.732  30.880 -38.573  1.00  0.00    -0.550 OA
ATOM     11  O   UNL     1      55.845  29.450 -37.172  1.00  0.00    -0.550 OA
ENDBRANCH   8   9
ENDBRANCH   7   8
ENDBRANCH   6   7
ENDBRANCH   5   6
ENDBRANCH   4   5
ENDBRANCH   3   4
ENDBRANCH   2   3
ENDBRANCH   1   2
BRANCH   1  12
ATOM     12  C   UNL     1      56.640  29.141 -32.694  1.00  0.00     0.000 C 
BRANCH  12  13
ATOM     13  C   UNL     1      56.188  30.265 -33.649  1.00  0.00    -0.000 C 
BRANCH  13  14
ATOM     14  C   UNL     1      54.969  31.078 -33.178  1.00  0.00    -0.000 C 
BRANCH  14  15
ATOM     15  C   UNL     1      54.907  31.226 -31.648  1.00  0.00    -0.000 C 
BRANCH  15  16
ATOM     16  C   UNL     1      56.023  32.125 -31.093  1.00  0.00    -0.000 C 
BRANCH  16  17
ATOM     17  C   UNL     1      56.955  31.380 -30.121  1.00  0.00    -0.000 C 
BRANCH  17  18
ATOM     18  C   UNL     1      56.207  30.346 -29.264  1.00  0.00    -0.000 C 
BRANCH  18  19
ATOM     19  C   UNL     1      57.104  29.176 -28.833  1.00  0.00    -0.003 C 
ATOM     20  C   UNL     1      57.056  28.043 -29.856  1.00  0.00     0.004 C 
ENDBRANCH  18  19
ENDBRANCH  17  18
ENDBRANCH  16  17
ENDBRANCH  15  16
ENDBRANCH  14  15
ENDBRANCH  13  14
ENDBRANCH  12  13
ENDBRANCH   1  12
TORSDOF 16
ENDMDL
MODEL 5
REMARK VINA RESULT:    -2.446     18.328     21.385
REMARK INTER + INTRA:          -4.673
REMARK INTER:                  -3.140
REMARK INTRA:                  -1.533
REMARK UNBOUND:                 0.061
REMARK SMILES CCCCCCCCCCCCCCCCCC(=O)[O-]
REMARK SMILES IDX 10 1 11 2 12 3 13 4 14 5 15 6 16 7 17 8 18 9 19 10 20 11
REMARK SMILES IDX 9 12 8 13 7 14 6 15 5 16 4 17 3 18 2 19 1 20
REMARK H PARENT
REMARK Flexibility Score: inf
ROOT
ATOM      1  C   UNL     1      55.959  27.946 -33.209  1.00  0.00     0.000 C 
ENDROOT
BRANCH   1   2
ATOM      2  C   UNL     1      56.859  27.556 -34.394  1.00  0.00     0.000 C 
BRANCH   2   3
ATOM      3  C   UNL     1      56.497  26.187 -34.997  1.00  0.00     0.000 C 
BRANCH   3   4
ATOM      4  C   UNL     1      55.124  26.109 -35.698  1.00  0.00     0.000 C 
BRANCH   4   5
ATOM      5  C   UNL     1      54.763  24.735 -36.294  1.00  0.00     0.000 C 
BRANCH   5   6
ATOM      6  C   UNL     1      54.808  24.685 -37.839  1.00  0.00     0.000 C 
BRANCH   6   7
ATOM      7  C   UNL     1      54.456  23.302 -38.417  1.00  0.00     0.006 C 
BRANCH   7   8
ATOM      8  C   UNL     1      54.274  22.214 -37.347  1.00  0.00     0.053 C 
BRANCH   8   9
ATOM      9  C   UNL     1      53.915  20.891 -37.953  1.00  0.00     0.041 C 
ATOM     10  O   UNL     1      54.535  19.849 -37.611  1.00  0.00    -0.550 OA
ATOM     11  O   UNL     1      52.877  20.802 -38.873  1.00  0.00    -0.550 OA
ENDBRANCH   8   9
ENDBRANCH   7   8
ENDBRANCH   6   7
ENDBRANCH   5   6
ENDBRANCH   4   5
ENDBRANCH   3   4
ENDBRANCH   2   3
ENDBRANCH   1   2
BRANCH   1  12
ATOM     12  C   UNL     1      56.496  29.158 -32.425  1.00  0.00     0.000 C 
BRANCH  12  13
ATOM     13  C   UNL     1      55.568  30.391 -32.400  1.00  0.00    -0.000 C 
BRANCH  13  14
ATOM     14  C   UNL     1      56.055  31.597 -33.223  1.00  0.00    -0.000 C 
BRANCH  14  15
ATOM     15  C   UNL     1      55.391  31.679 -34.608  1.00  0.00    -0.000 C 
BRANCH  15  16
ATOM     16  C   UNL     1      56.190  30.940 -35.694  1.00  0.00    -0.000 C 
BRANCH  16  17
ATOM     17  C   UNL     1      55.346  30.629 -36.941  1.00  0.00    -0.000 C 
BRANCH  17  18
ATOM     18  C   UNL     1      55.564  29.198 -37.458  1.00  0.00    -0.000 C 
BRANCH  18  19
ATOM     19  C   UNL     1      55.085  29.014 -38.907  1.00  0.00    -0.003 C 
ATOM     20  C   UNL     1      53.978  27.966 -38.988  1.00  0.00     0.004 C 
ENDBRANCH  18  19
ENDBRANCH  17  18
ENDBRANCH  16  17
ENDBRANCH  15  16
ENDBRANCH  14  15
ENDBRANCH  13  14
ENDBRANCH  12  13
ENDBRANCH   1  12
TORSDOF 16
ENDMDL
MODEL 6
REMARK VINA RESULT:    -2.075     18.948     21.884
REMARK INTER + INTRA:          -3.955
REMARK INTER:                  -3.044
REMARK INTRA:                  -0.911
REMARK UNBOUND:                 0.061
REMARK SMILES CCCCCCCCCCCCCCCCCC(=O)[O-]
REMARK SMILES IDX 10 1 11 2 12 3 13 4 14 5 15 6 16 7 17 8 18 9 19 10 20 11
REMARK SMILES IDX 9 12 8 13 7 14 6 15 5 16 4 17 3 18 2 19 1 20
REMARK H PARENT
REMARK Flexibility Score: inf
ROOT
ATOM      1  C   UNL     1      57.110  28.751 -35.146  1.00  0.00     0.000 C 
ENDROOT
BRANCH   1   2
ATOM      2  C   UNL     1      56.812  29.457 -36.480  1.00  0.00     0.000 C 
BRANCH   2   3
ATOM      3  C   UNL     1      55.483  30.233 -36.464  1.00  0.00     0.000 C 
BRANCH   3   4
ATOM      4  C   UNL     1      55.468  31.513 -35.601  1.00  0.00     0.000 C 
BRANCH   4   5
ATOM      5  C   UNL     1      56.820  31.904 -34.974  1.00  0.00     0.000 C 
BRANCH   5   6
ATOM      6  C   UNL     1      56.855  31.792 -33.432  1.00  0.00     0.000 C 
BRANCH   6   7
ATOM      7  C   UNL     1      55.621  31.084 -32.842  1.00  0.00     0.006 C 
BRANCH   7   8
ATOM      8  C   UNL     1      55.538  31.163 -31.310  1.00  0.00     0.053 C 
BRANCH   8   9
ATOM      9  C   UNL     1      55.986  29.888 -30.662  1.00  0.00     0.041 C 
ATOM     10  O   UNL     1      55.906  29.751 -29.413  1.00  0.00    -0.550 OA
ATOM     11  O   UNL     1      56.464  28.840 -31.438  1.00  0.00    -0.550 OA
ENDBRANCH   8   9
ENDBRANCH   7   8
ENDBRANCH   6   7
ENDBRANCH   5   6
ENDBRANCH   4   5
ENDBRANCH   3   4
ENDBRANCH   2   3
ENDBRANCH   1   2
BRANCH   1  12
ATOM     12  C   UNL     1      55.980  27.802 -34.708  1.00  0.00     0.000 C 
BRANCH  12  13
ATOM     13  C   UNL     1      55.453  26.853 -35.805  1.00  0.00    -0.000 C 
BRANCH  13  14
ATOM     14  C   UNL     1      55.244  25.393 -35.366  1.00  0.00    -0.000 C 
BRANCH  14  15
ATOM     15  C   UNL     1      54.468  24.565 -36.404  1.00  0.00    -0.000 C 
BRANCH  15  16
ATOM     16  C   UNL     1      54.765  24.997 -37.850  1.00  0.00    -0.000 C 
BRANCH  16  17
ATOM     17  C   UNL     1      54.403  23.911 -38.878  1.00  0.00    -0.000 C 
BRANCH  17  18
ATOM     18  C   UNL     1      54.842  22.508 -38.431  1.00  0.00    -0.000 C 
BRANCH  18  19
ATOM     19  C   UNL     1      53.670  21.516 -38.362  1.00  0.00    -0.003 C 
ATOM     20  C   UNL     1      54.085  20.227 -37.658  1.00  0.00     0.004 C 
ENDBRANCH  18  19
ENDBRANCH  17  18
ENDBRANCH  16  17
ENDBRANCH  15  16
ENDBRANCH  14  15
ENDBRANCH  13  14
ENDBRANCH  12  13
ENDBRANCH   1  12
TORSDOF 16
ENDMDL
