MODEL 1
REMARK VINA RESULT:    -6.533      0.000      0.000
REMARK INTER + INTRA:          -8.085
REMARK INTER:                  -7.870
REMARK INTRA:                  -0.215
REMARK UNBOUND:                -0.215
REMARK SMILES O=c1c(O)c(-c2ccc(O)c(O)c2)oc2cc(O)cc(O)c12
REMARK SMILES IDX 5 1 3 2 2 3 1 4 22 5 20 6 19 7 17 8 16 9 15 10 14 11 6 12
REMARK SMILES IDX 7 13 8 14 9 15 13 16 11 17 10 18 12 20 4 22 21 24 18 26
REMARK H PARENT 10 19 12 21 4 23 21 25 18 27
REMARK Flexibility Score: inf
ROOT
ATOM      1  C   UNL     1       2.099 -11.551 -32.657  1.00  0.00     0.180 A 
ATOM      2  C   UNL     1       0.959 -10.730 -32.632  1.00  0.00     0.208 A 
ATOM      3  C   UNL     1       0.201 -10.651 -31.452  1.00  0.00     0.238 A 
ATOM      4  O   UNL     1      -0.787  -9.873 -31.419  1.00  0.00    -0.285 OA
ATOM      5  C   UNL     1       0.585 -11.406 -30.318  1.00  0.00     0.111 A 
ATOM      6  C   UNL     1      -0.131 -11.434 -29.083  1.00  0.00     0.134 A 
ATOM      7  C   UNL     1       0.411 -12.114 -27.986  1.00  0.00     0.093 A 
ATOM      8  C   UNL     1       1.608 -12.820 -28.095  1.00  0.00     0.123 A 
ATOM      9  C   UNL     1       2.286 -12.849 -29.315  1.00  0.00     0.094 A 
ATOM     10  C   UNL     1       1.789 -12.151 -30.418  1.00  0.00     0.146 A 
ATOM     11  O   UNL     1       2.470 -12.195 -31.556  1.00  0.00    -0.452 OA
ENDROOT
BRANCH   1  12
ATOM     12  C   UNL     1       2.933 -11.705 -33.871  1.00  0.00     0.025 A 
ATOM     13  C   UNL     1       4.264 -11.260 -33.856  1.00  0.00     0.016 A 
ATOM     14  C   UNL     1       5.074 -11.415 -34.984  1.00  0.00     0.051 A 
ATOM     15  C   UNL     1       4.575 -12.029 -36.135  1.00  0.00     0.157 A 
ATOM     16  C   UNL     1       2.438 -12.341 -35.024  1.00  0.00     0.062 A 
ATOM     17  C   UNL     1       3.251 -12.499 -36.156  1.00  0.00     0.158 A 
BRANCH  15  18
ATOM     18  O   UNL     1       5.407 -12.166 -37.246  1.00  0.00    -0.504 OA
ATOM     19  H   UNL     1       6.416 -12.123 -37.171  1.00  0.00     0.293 HD
ENDBRANCH  15  18
BRANCH  17  20
ATOM     20  O   UNL     1       2.750 -13.125 -37.296  1.00  0.00    -0.504 OA
ATOM     21  H   UNL     1       2.999 -14.078 -37.532  1.00  0.00     0.293 HD
ENDBRANCH  17  20
ENDBRANCH   1  12
BRANCH   2  22
ATOM     22  O   UNL     1       0.611  -9.977 -33.756  1.00  0.00    -0.502 OA
ATOM     23  H   UNL     1      -0.022  -9.187 -33.708  1.00  0.00     0.293 HD
ENDBRANCH   2  22
BRANCH   6  24
ATOM     24  O   UNL     1      -1.381 -10.838 -28.892  1.00  0.00    -0.507 OA
ATOM     25  H   UNL     1      -1.795 -10.645 -27.993  1.00  0.00     0.293 HD
ENDBRANCH   6  24
BRANCH   8  26
ATOM     26  O   UNL     1       2.110 -13.498 -26.987  1.00  0.00    -0.508 OA
ATOM     27  H   UNL     1       2.465 -13.000 -26.177  1.00  0.00     0.293 HD
ENDBRANCH   8  26
TORSDOF 6
ENDMDL
MODEL 2
REMARK VINA RESULT:    -6.441      1.415      7.073
REMARK INTER + INTRA:          -7.974
REMARK INTER:                  -7.742
REMARK INTRA:                  -0.232
REMARK UNBOUND:                -0.215
REMARK SMILES O=c1c(O)c(-c2ccc(O)c(O)c2)oc2cc(O)cc(O)c12
REMARK SMILES IDX 5 1 3 2 2 3 1 4 22 5 20 6 19 7 17 8 16 9 15 10 14 11 6 12
REMARK SMILES IDX 7 13 8 14 9 15 13 16 11 17 10 18 12 20 4 22 21 24 18 26
REMARK H PARENT 10 19 12 21 4 23 21 25 18 27
REMARK Flexibility Score: inf
ROOT
ATOM      1  C   UNL     1       2.625 -11.827 -31.687  1.00  0.00     0.180 A 
ATOM      2  C   UNL     1       3.794 -11.049 -31.726  1.00  0.00     0.208 A 
ATOM      3  C   UNL     1       4.492 -10.927 -32.939  1.00  0.00     0.238 A 
ATOM      4  O   UNL     1       5.507 -10.185 -32.980  1.00  0.00    -0.285 OA
ATOM      5  C   UNL     1       4.020 -11.597 -34.093  1.00  0.00     0.111 A 
ATOM      6  C   UNL     1       4.668 -11.576 -35.365  1.00  0.00     0.134 A 
ATOM      7  C   UNL     1       4.043 -12.168 -36.469  1.00  0.00     0.093 A 
ATOM      8  C   UNL     1       2.826 -12.835 -36.336  1.00  0.00     0.123 A 
ATOM      9  C   UNL     1       2.212 -12.913 -35.085  1.00  0.00     0.094 A 
ATOM     10  C   UNL     1       2.793 -12.302 -33.972  1.00  0.00     0.146 A 
ATOM     11  O   UNL     1       2.172 -12.390 -32.802  1.00  0.00    -0.452 OA
ENDROOT
BRANCH   1  12
ATOM     12  C   UNL     1       1.850 -12.024 -30.441  1.00  0.00     0.025 A 
ATOM     13  C   UNL     1       2.382 -12.820 -29.415  1.00  0.00     0.016 A 
ATOM     14  C   UNL     1       1.675 -13.001 -28.223  1.00  0.00     0.051 A 
ATOM     15  C   UNL     1       0.439 -12.380 -28.031  1.00  0.00     0.157 A 
ATOM     16  C   UNL     1       0.614 -11.382 -30.239  1.00  0.00     0.062 A 
ATOM     17  C   UNL     1      -0.095 -11.562 -29.041  1.00  0.00     0.158 A 
BRANCH  15  18
ATOM     18  O   UNL     1      -0.244 -12.582 -26.832  1.00  0.00    -0.504 OA
ATOM     19  H   UNL     1      -0.699 -11.824 -26.338  1.00  0.00     0.293 HD
ENDBRANCH  15  18
BRANCH  17  20
ATOM     20  O   UNL     1      -1.321 -10.928 -28.853  1.00  0.00    -0.504 OA
ATOM     21  H   UNL     1      -2.190 -11.447 -28.824  1.00  0.00     0.293 HD
ENDBRANCH  17  20
ENDBRANCH   1  12
BRANCH   2  22
ATOM     22  O   UNL     1       4.231 -10.379 -30.581  1.00  0.00    -0.502 OA
ATOM     23  H   UNL     1       4.895  -9.615 -30.616  1.00  0.00     0.293 HD
ENDBRANCH   2  22
BRANCH   6  24
ATOM     24  O   UNL     1       5.930 -11.016 -35.588  1.00  0.00    -0.507 OA
ATOM     25  H   UNL     1       6.293 -10.207 -35.107  1.00  0.00     0.293 HD
ENDBRANCH   6  24
BRANCH   8  26
ATOM     26  O   UNL     1       2.240 -13.425 -37.453  1.00  0.00    -0.508 OA
ATOM     27  H   UNL     1       2.158 -12.929 -38.334  1.00  0.00     0.293 HD
ENDBRANCH   8  26
TORSDOF 6
ENDMDL
MODEL 3
REMARK VINA RESULT:    -6.339      4.445      6.087
REMARK INTER + INTRA:          -7.851
REMARK INTER:                  -7.529
REMARK INTRA:                  -0.323
REMARK UNBOUND:                -0.215
REMARK SMILES O=c1c(O)c(-c2ccc(O)c(O)c2)oc2cc(O)cc(O)c12
REMARK SMILES IDX 5 1 3 2 2 3 1 4 22 5 20 6 19 7 17 8 16 9 15 10 14 11 6 12
REMARK SMILES IDX 7 13 8 14 9 15 13 16 11 17 10 18 12 20 4 22 21 24 18 26
REMARK H PARENT 10 19 12 21 4 23 21 25 18 27
REMARK Flexibility Score: inf
ROOT
ATOM      1  C   UNL     1       5.112  -8.523 -35.439  1.00  0.00     0.180 A 
ATOM      2  C   UNL     1       4.325  -9.605 -35.871  1.00  0.00     0.208 A 
ATOM      3  C   UNL     1       3.997 -10.618 -34.955  1.00  0.00     0.238 A 
ATOM      4  O   UNL     1       3.248 -11.555 -35.334  1.00  0.00    -0.285 OA
ATOM      5  C   UNL     1       4.472 -10.544 -33.624  1.00  0.00     0.111 A 
ATOM      6  C   UNL     1       4.234 -11.533 -32.622  1.00  0.00     0.134 A 
ATOM      7  C   UNL     1       4.641 -11.293 -31.304  1.00  0.00     0.093 A 
ATOM      8  C   UNL     1       5.333 -10.133 -30.964  1.00  0.00     0.123 A 
ATOM      9  C   UNL     1       5.623  -9.185 -31.947  1.00  0.00     0.094 A 
ATOM     10  C   UNL     1       5.199  -9.379 -33.263  1.00  0.00     0.146 A 
ATOM     11  O   UNL     1       5.486  -8.449 -34.166  1.00  0.00    -0.452 OA
ENDROOT
BRANCH   1  12
ATOM     12  C   UNL     1       5.520  -7.430 -36.351  1.00  0.00     0.025 A 
ATOM     13  C   UNL     1       6.695  -7.564 -37.106  1.00  0.00     0.016 A 
ATOM     14  C   UNL     1       7.087  -6.554 -37.989  1.00  0.00     0.051 A 
ATOM     15  C   UNL     1       6.307  -5.405 -38.141  1.00  0.00     0.157 A 
ATOM     16  C   UNL     1       4.725  -6.283 -36.521  1.00  0.00     0.062 A 
ATOM     17  C   UNL     1       5.116  -5.269 -37.408  1.00  0.00     0.158 A 
BRANCH  15  18
ATOM     18  O   UNL     1       6.725  -4.413 -39.027  1.00  0.00    -0.504 OA
ATOM     19  H   UNL     1       6.093  -3.704 -39.378  1.00  0.00     0.293 HD
ENDBRANCH  15  18
BRANCH  17  20
ATOM     20  O   UNL     1       4.325  -4.133 -37.565  1.00  0.00    -0.504 OA
ATOM     21  H   UNL     1       4.680  -3.294 -38.008  1.00  0.00     0.293 HD
ENDBRANCH  17  20
ENDBRANCH   1  12
BRANCH   2  22
ATOM     22  O   UNL     1       3.850  -9.647 -37.184  1.00  0.00    -0.502 OA
ATOM     23  H   UNL     1       4.179 -10.326 -37.860  1.00  0.00     0.293 HD
ENDBRANCH   2  22
BRANCH   6  24
ATOM     24  O   UNL     1       3.631 -12.770 -32.875  1.00  0.00    -0.507 OA
ATOM     25  H   UNL     1       3.989 -13.463 -33.513  1.00  0.00     0.293 HD
ENDBRANCH   6  24
BRANCH   8  26
ATOM     26  O   UNL     1       5.736  -9.934 -29.645  1.00  0.00    -0.508 OA
ATOM     27  H   UNL     1       6.489 -10.476 -29.234  1.00  0.00     0.293 HD
ENDBRANCH   8  26
TORSDOF 6
ENDMDL
MODEL 4
REMARK VINA RESULT:    -5.924      2.481      3.551
REMARK INTER + INTRA:          -7.351
REMARK INTER:                  -7.347
REMARK INTRA:                  -0.004
REMARK UNBOUND:                -0.215
REMARK SMILES O=c1c(O)c(-c2ccc(O)c(O)c2)oc2cc(O)cc(O)c12
REMARK SMILES IDX 5 1 3 2 2 3 1 4 22 5 20 6 19 7 17 8 16 9 15 10 14 11 6 12
REMARK SMILES IDX 7 13 8 14 9 15 13 16 11 17 10 18 12 20 4 22 21 24 18 26
REMARK H PARENT 10 19 12 21 4 23 21 25 18 27
REMARK Flexibility Score: inf
ROOT
ATOM      1  C   UNL     1       3.102 -11.660 -31.525  1.00  0.00     0.180 A 
ATOM      2  C   UNL     1       2.648 -12.663 -30.651  1.00  0.00     0.208 A 
ATOM      3  C   UNL     1       2.529 -12.372 -29.282  1.00  0.00     0.238 A 
ATOM      4  O   UNL     1       2.070 -13.257 -28.514  1.00  0.00    -0.285 OA
ATOM      5  C   UNL     1       2.879 -11.087 -28.803  1.00  0.00     0.111 A 
ATOM      6  C   UNL     1       2.835 -10.695 -27.431  1.00  0.00     0.134 A 
ATOM      7  C   UNL     1       3.079  -9.359 -27.087  1.00  0.00     0.093 A 
ATOM      8  C   UNL     1       3.428  -8.418 -28.054  1.00  0.00     0.123 A 
ATOM      9  C   UNL     1       3.532  -8.805 -29.392  1.00  0.00     0.094 A 
ATOM     10  C   UNL     1       3.260 -10.121 -29.771  1.00  0.00     0.146 A 
ATOM     11  O   UNL     1       3.360 -10.445 -31.054  1.00  0.00    -0.452 OA
ENDROOT
BRANCH   1  12
ATOM     12  C   UNL     1       3.278 -11.898 -32.976  1.00  0.00     0.025 A 
ATOM     13  C   UNL     1       2.203 -12.395 -33.730  1.00  0.00     0.016 A 
ATOM     14  C   UNL     1       2.342 -12.607 -35.104  1.00  0.00     0.051 A 
ATOM     15  C   UNL     1       3.546 -12.313 -35.747  1.00  0.00     0.157 A 
ATOM     16  C   UNL     1       4.483 -11.584 -33.628  1.00  0.00     0.062 A 
ATOM     17  C   UNL     1       4.623 -11.795 -35.009  1.00  0.00     0.158 A 
BRANCH  15  18
ATOM     18  O   UNL     1       3.655 -12.538 -37.120  1.00  0.00    -0.504 OA
ATOM     19  H   UNL     1       3.731 -13.471 -37.507  1.00  0.00     0.293 HD
ENDBRANCH  15  18
BRANCH  17  20
ATOM     20  O   UNL     1       5.823 -11.485 -35.646  1.00  0.00    -0.504 OA
ATOM     21  H   UNL     1       6.716 -11.591 -35.178  1.00  0.00     0.293 HD
ENDBRANCH  17  20
ENDBRANCH   1  12
BRANCH   2  22
ATOM     22  O   UNL     1       2.287 -13.918 -31.149  1.00  0.00    -0.502 OA
ATOM     23  H   UNL     1       2.483 -14.778 -30.651  1.00  0.00     0.293 HD
ENDBRANCH   2  22
BRANCH   6  24
ATOM     24  O   UNL     1       2.587 -11.576 -26.375  1.00  0.00    -0.507 OA
ATOM     25  H   UNL     1       3.285 -11.910 -25.728  1.00  0.00     0.293 HD
ENDBRANCH   6  24
BRANCH   8  26
ATOM     26  O   UNL     1       3.679  -7.102 -27.673  1.00  0.00    -0.508 OA
ATOM     27  H   UNL     1       4.367  -6.533 -28.155  1.00  0.00     0.293 HD
ENDBRANCH   8  26
TORSDOF 6
ENDMDL
MODEL 5
REMARK VINA RESULT:    -5.904      1.948      7.150
REMARK INTER + INTRA:          -7.327
REMARK INTER:                  -7.004
REMARK INTRA:                  -0.323
REMARK UNBOUND:                -0.215
REMARK SMILES O=c1c(O)c(-c2ccc(O)c(O)c2)oc2cc(O)cc(O)c12
REMARK SMILES IDX 5 1 3 2 2 3 1 4 22 5 20 6 19 7 17 8 16 9 15 10 14 11 6 12
REMARK SMILES IDX 7 13 8 14 9 15 13 16 11 17 10 18 12 20 4 22 21 24 18 26
REMARK H PARENT 10 19 12 21 4 23 21 25 18 27
REMARK Flexibility Score: inf
ROOT
ATOM      1  C   UNL     1       2.837 -11.356 -33.194  1.00  0.00     0.180 A 
ATOM      2  C   UNL     1       2.667 -12.194 -34.309  1.00  0.00     0.208 A 
ATOM      3  C   UNL     1       3.438 -11.963 -35.460  1.00  0.00     0.238 A 
ATOM      4  O   UNL     1       3.320 -12.750 -36.434  1.00  0.00    -0.285 OA
ATOM      5  C   UNL     1       4.359 -10.888 -35.485  1.00  0.00     0.111 A 
ATOM      6  C   UNL     1       5.163 -10.537 -36.611  1.00  0.00     0.134 A 
ATOM      7  C   UNL     1       6.134  -9.536 -36.481  1.00  0.00     0.093 A 
ATOM      8  C   UNL     1       6.285  -8.829 -35.290  1.00  0.00     0.123 A 
ATOM      9  C   UNL     1       5.463  -9.124 -34.200  1.00  0.00     0.094 A 
ATOM     10  C   UNL     1       4.510 -10.141 -34.287  1.00  0.00     0.146 A 
ATOM     11  O   UNL     1       3.756 -10.397 -33.226  1.00  0.00    -0.452 OA
ENDROOT
BRANCH   1  12
ATOM     12  C   UNL     1       2.043 -11.521 -31.954  1.00  0.00     0.025 A 
ATOM     13  C   UNL     1       0.801 -10.878 -31.839  1.00  0.00     0.016 A 
ATOM     14  C   UNL     1       0.027 -11.037 -30.687  1.00  0.00     0.051 A 
ATOM     15  C   UNL     1       0.472 -11.850 -29.642  1.00  0.00     0.157 A 
ATOM     16  C   UNL     1       2.481 -12.356 -30.911  1.00  0.00     0.062 A 
ATOM     17  C   UNL     1       1.703 -12.518 -29.754  1.00  0.00     0.158 A 
BRANCH  15  18
ATOM     18  O   UNL     1      -0.322 -11.987 -28.503  1.00  0.00    -0.504 OA
ATOM     19  H   UNL     1      -1.185 -12.518 -28.510  1.00  0.00     0.293 HD
ENDBRANCH  15  18
BRANCH  17  20
ATOM     20  O   UNL     1       2.147 -13.342 -28.722  1.00  0.00    -0.504 OA
ATOM     21  H   UNL     1       3.091 -13.279 -28.360  1.00  0.00     0.293 HD
ENDBRANCH  17  20
ENDBRANCH   1  12
BRANCH   2  22
ATOM     22  O   UNL     1       1.768 -13.262 -34.254  1.00  0.00    -0.502 OA
ATOM     23  H   UNL     1       1.431 -13.734 -35.085  1.00  0.00     0.293 HD
ENDBRANCH   2  22
BRANCH   6  24
ATOM     24  O   UNL     1       5.031 -11.118 -37.876  1.00  0.00    -0.507 OA
ATOM     25  H   UNL     1       5.723 -11.707 -38.314  1.00  0.00     0.293 HD
ENDBRANCH   6  24
BRANCH   8  26
ATOM     26  O   UNL     1       7.250  -7.829 -35.201  1.00  0.00    -0.508 OA
ATOM     27  H   UNL     1       7.491  -7.402 -34.313  1.00  0.00     0.293 HD
ENDBRANCH   8  26
TORSDOF 6
ENDMDL
MODEL 6
REMARK VINA RESULT:    -5.829      1.218      2.982
REMARK INTER + INTRA:          -7.237
REMARK INTER:                  -6.989
REMARK INTRA:                  -0.248
REMARK UNBOUND:                -0.215
REMARK SMILES O=c1c(O)c(-c2ccc(O)c(O)c2)oc2cc(O)cc(O)c12
REMARK SMILES IDX 5 1 3 2 2 3 1 4 22 5 20 6 19 7 17 8 16 9 15 10 14 11 6 12
REMARK SMILES IDX 7 13 8 14 9 15 13 16 11 17 10 18 12 20 4 22 21 24 18 26
REMARK H PARENT 10 19 12 21 4 23 21 25 18 27
REMARK Flexibility Score: inf
ROOT
ATOM      1  C   UNL     1       2.035 -11.678 -32.612  1.00  0.00     0.180 A 
ATOM      2  C   UNL     1       2.244 -12.490 -31.484  1.00  0.00     0.208 A 
ATOM      3  C   UNL     1       1.442 -12.296 -30.347  1.00  0.00     0.238 A 
ATOM      4  O   UNL     1       1.597 -13.061 -29.361  1.00  0.00    -0.285 OA
ATOM      5  C   UNL     1       0.454 -11.283 -30.348  1.00  0.00     0.111 A 
ATOM      6  C   UNL     1      -0.388 -10.972 -29.238  1.00  0.00     0.134 A 
ATOM      7  C   UNL     1      -1.420 -10.037 -29.394  1.00  0.00     0.093 A 
ATOM      8  C   UNL     1      -1.599  -9.357 -30.597  1.00  0.00     0.123 A 
ATOM      9  C   UNL     1      -0.744  -9.610 -31.671  1.00  0.00     0.094 A 
ATOM     10  C   UNL     1       0.271 -10.562 -31.557  1.00  0.00     0.146 A 
ATOM     11  O   UNL     1       1.056 -10.781 -32.605  1.00  0.00    -0.452 OA
ENDROOT
BRANCH   1  12
ATOM     12  C   UNL     1       2.857 -11.806 -33.838  1.00  0.00     0.025 A 
ATOM     13  C   UNL     1       4.186 -11.359 -33.828  1.00  0.00     0.016 A 
ATOM     14  C   UNL     1       4.985 -11.489 -34.968  1.00  0.00     0.051 A 
ATOM     15  C   UNL     1       4.473 -12.080 -36.126  1.00  0.00     0.157 A 
ATOM     16  C   UNL     1       2.349 -12.419 -34.998  1.00  0.00     0.062 A 
ATOM     17  C   UNL     1       3.150 -12.552 -36.142  1.00  0.00     0.158 A 
BRANCH  15  18
ATOM     18  O   UNL     1       5.293 -12.193 -37.249  1.00  0.00    -0.504 OA
ATOM     19  H   UNL     1       4.953 -12.567 -38.127  1.00  0.00     0.293 HD
ENDBRANCH  15  18
BRANCH  17  20
ATOM     20  O   UNL     1       2.637 -13.156 -37.289  1.00  0.00    -0.504 OA
ATOM     21  H   UNL     1       3.197 -13.781 -37.856  1.00  0.00     0.293 HD
ENDBRANCH  17  20
ENDBRANCH   1  12
BRANCH   2  22
ATOM     22  O   UNL     1       3.211 -13.498 -31.513  1.00  0.00    -0.502 OA
ATOM     23  H   UNL     1       3.055 -14.389 -31.970  1.00  0.00     0.293 HD
ENDBRANCH   2  22
BRANCH   6  24
ATOM     24  O   UNL     1      -0.237 -11.527 -27.963  1.00  0.00    -0.507 OA
ATOM     25  H   UNL     1       0.071 -12.470 -27.780  1.00  0.00     0.293 HD
ENDBRANCH   6  24
BRANCH   8  26
ATOM     26  O   UNL     1      -2.626  -8.422 -30.711  1.00  0.00    -0.508 OA
ATOM     27  H   UNL     1      -3.564  -8.696 -30.986  1.00  0.00     0.293 HD
ENDBRANCH   8  26
TORSDOF 6
ENDMDL
MODEL 7
REMARK VINA RESULT:    -5.818      2.028      6.959
REMARK INTER + INTRA:          -7.224
REMARK INTER:                  -6.913
REMARK INTRA:                  -0.311
REMARK UNBOUND:                -0.215
REMARK SMILES O=c1c(O)c(-c2ccc(O)c(O)c2)oc2cc(O)cc(O)c12
REMARK SMILES IDX 5 1 3 2 2 3 1 4 22 5 20 6 19 7 17 8 16 9 15 10 14 11 6 12
REMARK SMILES IDX 7 13 8 14 9 15 13 16 11 17 10 18 12 20 4 22 21 24 18 26
REMARK H PARENT 10 19 12 21 4 23 21 25 18 27
REMARK Flexibility Score: inf
ROOT
ATOM      1  C   UNL     1       2.219 -11.961 -30.813  1.00  0.00     0.180 A 
ATOM      2  C   UNL     1       1.916 -12.686 -31.979  1.00  0.00     0.208 A 
ATOM      3  C   UNL     1       2.599 -12.382 -33.168  1.00  0.00     0.238 A 
ATOM      4  O   UNL     1       2.362 -13.071 -34.193  1.00  0.00    -0.285 OA
ATOM      5  C   UNL     1       3.566 -11.348 -33.179  1.00  0.00     0.111 A 
ATOM      6  C   UNL     1       4.291 -10.929 -34.335  1.00  0.00     0.134 A 
ATOM      7  C   UNL     1       5.316  -9.984 -34.203  1.00  0.00     0.093 A 
ATOM      8  C   UNL     1       5.600  -9.397 -32.971  1.00  0.00     0.123 A 
ATOM      9  C   UNL     1       4.857  -9.756 -31.845  1.00  0.00     0.094 A 
ATOM     10  C   UNL     1       3.852 -10.721 -31.937  1.00  0.00     0.146 A 
ATOM     11  O   UNL     1       3.177 -11.041 -30.841  1.00  0.00    -0.452 OA
ENDROOT
BRANCH   1  12
ATOM     12  C   UNL     1       1.523 -12.206 -29.529  1.00  0.00     0.025 A 
ATOM     13  C   UNL     1       2.170 -12.939 -28.522  1.00  0.00     0.016 A 
ATOM     14  C   UNL     1       1.539 -13.163 -27.295  1.00  0.00     0.051 A 
ATOM     15  C   UNL     1       0.263 -12.648 -27.051  1.00  0.00     0.157 A 
ATOM     16  C   UNL     1       0.248 -11.670 -29.274  1.00  0.00     0.062 A 
ATOM     17  C   UNL     1      -0.386 -11.894 -28.042  1.00  0.00     0.158 A 
BRANCH  15  18
ATOM     18  O   UNL     1      -0.342 -12.891 -25.818  1.00  0.00    -0.504 OA
ATOM     19  H   UNL     1      -0.700 -13.805 -25.566  1.00  0.00     0.293 HD
ENDBRANCH  15  18
BRANCH  17  20
ATOM     20  O   UNL     1      -1.652 -11.364 -27.801  1.00  0.00    -0.504 OA
ATOM     21  H   UNL     1      -2.391 -11.417 -28.492  1.00  0.00     0.293 HD
ENDBRANCH  17  20
ENDBRANCH   1  12
BRANCH   2  22
ATOM     22  O   UNL     1       0.974 -13.716 -31.940  1.00  0.00    -0.502 OA
ATOM     23  H   UNL     1       0.513 -14.001 -31.083  1.00  0.00     0.293 HD
ENDBRANCH   2  22
BRANCH   6  24
ATOM     24  O   UNL     1       4.025 -11.385 -35.630  1.00  0.00    -0.507 OA
ATOM     25  H   UNL     1       4.042 -12.353 -35.913  1.00  0.00     0.293 HD
ENDBRANCH   6  24
BRANCH   8  26
ATOM     26  O   UNL     1       6.617  -8.449 -32.880  1.00  0.00    -0.508 OA
ATOM     27  H   UNL     1       6.427  -7.457 -32.975  1.00  0.00     0.293 HD
ENDBRANCH   8  26
TORSDOF 6
ENDMDL
MODEL 8
REMARK VINA RESULT:    -5.756      2.960      4.118
REMARK INTER + INTRA:          -7.149
REMARK INTER:                  -6.836
REMARK INTRA:                  -0.313
REMARK UNBOUND:                -0.215
REMARK SMILES O=c1c(O)c(-c2ccc(O)c(O)c2)oc2cc(O)cc(O)c12
REMARK SMILES IDX 5 1 3 2 2 3 1 4 22 5 20 6 19 7 17 8 16 9 15 10 14 11 6 12
REMARK SMILES IDX 7 13 8 14 9 15 13 16 11 17 10 18 12 20 4 22 21 24 18 26
REMARK H PARENT 10 19 12 21 4 23 21 25 18 27
REMARK Flexibility Score: inf
ROOT
ATOM      1  C   UNL     1       4.267 -10.339 -34.242  1.00  0.00     0.180 A 
ATOM      2  C   UNL     1       3.538 -11.454 -34.691  1.00  0.00     0.208 A 
ATOM      3  C   UNL     1       2.923 -12.292 -33.747  1.00  0.00     0.238 A 
ATOM      4  O   UNL     1       2.227 -13.256 -34.157  1.00  0.00    -0.285 OA
ATOM      5  C   UNL     1       3.058 -12.013 -32.365  1.00  0.00     0.111 A 
ATOM      6  C   UNL     1       2.511 -12.816 -31.319  1.00  0.00     0.134 A 
ATOM      7  C   UNL     1       2.596 -12.375 -29.993  1.00  0.00     0.093 A 
ATOM      8  C   UNL     1       3.262 -11.195 -29.668  1.00  0.00     0.123 A 
ATOM      9  C   UNL     1       3.853 -10.432 -30.677  1.00  0.00     0.094 A 
ATOM     10  C   UNL     1       3.755 -10.827 -32.013  1.00  0.00     0.146 A 
ATOM     11  O   UNL     1       4.320 -10.068 -32.943  1.00  0.00    -0.452 OA
ENDROOT
BRANCH   1  12
ATOM     12  C   UNL     1       4.964  -9.425 -35.175  1.00  0.00     0.025 A 
ATOM     13  C   UNL     1       6.238  -9.766 -35.655  1.00  0.00     0.016 A 
ATOM     14  C   UNL     1       6.904  -8.927 -36.553  1.00  0.00     0.051 A 
ATOM     15  C   UNL     1       6.304  -7.746 -36.995  1.00  0.00     0.157 A 
ATOM     16  C   UNL     1       4.352  -8.245 -35.637  1.00  0.00     0.062 A 
ATOM     17  C   UNL     1       5.019  -7.403 -36.540  1.00  0.00     0.158 A 
BRANCH  15  18
ATOM     18  O   UNL     1       6.994  -6.927 -37.889  1.00  0.00    -0.504 OA
ATOM     19  H   UNL     1       8.006  -6.898 -37.919  1.00  0.00     0.293 HD
ENDBRANCH  15  18
BRANCH  17  20
ATOM     20  O   UNL     1       4.408  -6.233 -36.988  1.00  0.00    -0.504 OA
ATOM     21  H   UNL     1       4.909  -5.354 -37.031  1.00  0.00     0.293 HD
ENDBRANCH  17  20
ENDBRANCH   1  12
BRANCH   2  22
ATOM     22  O   UNL     1       3.400 -11.697 -36.060  1.00  0.00    -0.502 OA
ATOM     23  H   UNL     1       3.233 -10.957 -36.731  1.00  0.00     0.293 HD
ENDBRANCH   2  22
BRANCH   6  24
ATOM     24  O   UNL     1       1.904 -14.059 -31.526  1.00  0.00    -0.507 OA
ATOM     25  H   UNL     1       1.102 -14.398 -31.019  1.00  0.00     0.293 HD
ENDBRANCH   6  24
BRANCH   8  26
ATOM     26  O   UNL     1       3.340 -10.794 -28.336  1.00  0.00    -0.508 OA
ATOM     27  H   UNL     1       2.818 -11.269 -27.608  1.00  0.00     0.293 HD
ENDBRANCH   8  26
TORSDOF 6
ENDMDL
MODEL 9
REMARK VINA RESULT:    -5.718      2.233      2.880
REMARK INTER + INTRA:          -7.102
REMARK INTER:                  -7.045
REMARK INTRA:                  -0.058
REMARK UNBOUND:                -0.215
REMARK SMILES O=c1c(O)c(-c2ccc(O)c(O)c2)oc2cc(O)cc(O)c12
REMARK SMILES IDX 5 1 3 2 2 3 1 4 22 5 20 6 19 7 17 8 16 9 15 10 14 11 6 12
REMARK SMILES IDX 7 13 8 14 9 15 13 16 11 17 10 18 12 20 4 22 21 24 18 26
REMARK H PARENT 10 19 12 21 4 23 21 25 18 27
REMARK Flexibility Score: inf
ROOT
ATOM      1  C   UNL     1       3.662 -11.090 -32.294  1.00  0.00     0.180 A 
ATOM      2  C   UNL     1       2.720 -12.126 -32.176  1.00  0.00     0.208 A 
ATOM      3  C   UNL     1       2.229 -12.459 -30.903  1.00  0.00     0.238 A 
ATOM      4  O   UNL     1       1.345 -13.350 -30.810  1.00  0.00    -0.285 OA
ATOM      5  C   UNL     1       2.698 -11.763 -29.764  1.00  0.00     0.111 A 
ATOM      6  C   UNL     1       2.299 -12.043 -28.422  1.00  0.00     0.134 A 
ATOM      7  C   UNL     1       2.728 -11.205 -27.385  1.00  0.00     0.093 A 
ATOM      8  C   UNL     1       3.590 -10.138 -27.630  1.00  0.00     0.123 A 
ATOM      9  C   UNL     1       4.034  -9.891 -28.931  1.00  0.00     0.094 A 
ATOM     10  C   UNL     1       3.596 -10.687 -29.991  1.00  0.00     0.146 A 
ATOM     11  O   UNL     1       4.033 -10.412 -31.213  1.00  0.00    -0.452 OA
ENDROOT
BRANCH   1  12
ATOM     12  C   UNL     1       4.245 -10.699 -33.598  1.00  0.00     0.025 A 
ATOM     13  C   UNL     1       4.244  -9.348 -33.977  1.00  0.00     0.016 A 
ATOM     14  C   UNL     1       4.807  -8.954 -35.194  1.00  0.00     0.051 A 
ATOM     15  C   UNL     1       5.391  -9.899 -36.042  1.00  0.00     0.157 A 
ATOM     16  C   UNL     1       4.851 -11.646 -34.443  1.00  0.00     0.062 A 
ATOM     17  C   UNL     1       5.419 -11.252 -35.664  1.00  0.00     0.158 A 
BRANCH  15  18
ATOM     18  O   UNL     1       5.942  -9.477 -37.251  1.00  0.00    -0.504 OA
ATOM     19  H   UNL     1       6.932  -9.286 -37.354  1.00  0.00     0.293 HD
ENDBRANCH  15  18
BRANCH  17  20
ATOM     20  O   UNL     1       6.012 -12.199 -36.497  1.00  0.00    -0.504 OA
ATOM     21  H   UNL     1       5.478 -12.701 -37.197  1.00  0.00     0.293 HD
ENDBRANCH  17  20
ENDBRANCH   1  12
BRANCH   2  22
ATOM     22  O   UNL     1       2.255 -12.786 -33.316  1.00  0.00    -0.502 OA
ATOM     23  H   UNL     1       2.745 -13.571 -33.729  1.00  0.00     0.293 HD
ENDBRANCH   2  22
BRANCH   6  24
ATOM     24  O   UNL     1       1.513 -13.139 -28.054  1.00  0.00    -0.507 OA
ATOM     25  H   UNL     1       1.869 -14.062 -27.858  1.00  0.00     0.293 HD
ENDBRANCH   6  24
BRANCH   8  26
ATOM     26  O   UNL     1       4.009  -9.335 -26.572  1.00  0.00    -0.508 OA
ATOM     27  H   UNL     1       3.343  -8.859 -25.972  1.00  0.00     0.293 HD
ENDBRANCH   8  26
TORSDOF 6
ENDMDL
