MODEL 1
REMARK VINA RESULT:    -4.897      0.000      0.000
REMARK INTER + INTRA:          -8.200
REMARK INTER:                  -7.760
REMARK INTRA:                  -0.440
REMARK UNBOUND:                -0.440
REMARK SMILES CCCCCCCCCCCC(=O)[O-]
REMARK SMILES IDX 7 1 8 2 9 3 10 4 11 5 12 6 13 7 14 8 6 9 5 10 4 11 3 12 2 13
REMARK SMILES IDX 1 14
REMARK H PARENT
REMARK Flexibility Score: inf
ROOT
ATOM      1  C   UNL     1      29.607  -9.641  14.227  1.00  0.00     0.000 C 
ENDROOT
BRANCH   1   2
ATOM      2  C   UNL     1      28.673  -9.178  15.359  1.00  0.00     0.000 C 
BRANCH   2   3
ATOM      3  C   UNL     1      27.526 -10.150  15.700  1.00  0.00     0.000 C 
BRANCH   3   4
ATOM      4  C   UNL     1      27.607 -11.523  15.009  1.00  0.00     0.006 C 
BRANCH   4   5
ATOM      5  C   UNL     1      27.380 -12.692  15.976  1.00  0.00     0.053 C 
BRANCH   5   6
ATOM      6  C   UNL     1      28.642 -13.473  16.157  1.00  0.00     0.041 C 
ATOM      7  O   UNL     1      29.617 -12.968  16.774  1.00  0.00    -0.550 OA
ATOM      8  O   UNL     1      28.762 -14.740  15.600  1.00  0.00    -0.550 OA
ENDBRANCH   5   6
ENDBRANCH   4   5
ENDBRANCH   3   4
ENDBRANCH   2   3
ENDBRANCH   1   2
BRANCH   1   9
ATOM      9  C   UNL     1      30.782  -8.681  13.991  1.00  0.00     0.000 C 
BRANCH   9  10
ATOM     10  C   UNL     1      30.961  -8.390  12.497  1.00  0.00    -0.000 C 
BRANCH  10  11
ATOM     11  C   UNL     1      30.498  -6.968  12.153  1.00  0.00    -0.000 C 
BRANCH  11  12
ATOM     12  C   UNL     1      31.318  -6.386  10.996  1.00  0.00    -0.000 C 
BRANCH  12  13
ATOM     13  C   UNL     1      32.170  -5.203  11.467  1.00  0.00    -0.003 C 
ATOM     14  C   UNL     1      33.582  -5.274  10.891  1.00  0.00     0.004 C 
ENDBRANCH  12  13
ENDBRANCH  11  12
ENDBRANCH  10  11
ENDBRANCH   9  10
ENDBRANCH   1   9
TORSDOF 10
ENDMDL
MODEL 2
REMARK VINA RESULT:    -4.847      4.303      7.100
REMARK INTER + INTRA:          -8.121
REMARK INTER:                  -7.018
REMARK INTRA:                  -1.103
REMARK UNBOUND:                -0.440
REMARK SMILES CCCCCCCCCCCC(=O)[O-]
REMARK SMILES IDX 7 1 8 2 9 3 10 4 11 5 12 6 13 7 14 8 6 9 5 10 4 11 3 12 2 13
REMARK SMILES IDX 1 14
REMARK H PARENT
REMARK Flexibility Score: inf
ROOT
ATOM      1  C   UNL     1      30.995 -10.409  13.277  1.00  0.00     0.000 C 
ENDROOT
BRANCH   1   2
ATOM      2  C   UNL     1      31.348  -9.124  12.508  1.00  0.00     0.000 C 
BRANCH   2   3
ATOM      3  C   UNL     1      30.567  -7.866  12.941  1.00  0.00     0.000 C 
BRANCH   3   4
ATOM      4  C   UNL     1      30.645  -6.680  11.962  1.00  0.00     0.006 C 
BRANCH   4   5
ATOM      5  C   UNL     1      31.236  -7.069  10.601  1.00  0.00     0.053 C 
BRANCH   5   6
ATOM      6  C   UNL     1      32.241  -6.054  10.159  1.00  0.00     0.041 C 
ATOM      7  O   UNL     1      32.609  -6.010   8.956  1.00  0.00    -0.550 OA
ATOM      8  O   UNL     1      32.811  -5.190  11.085  1.00  0.00    -0.550 OA
ENDBRANCH   5   6
ENDBRANCH   4   5
ENDBRANCH   3   4
ENDBRANCH   2   3
ENDBRANCH   1   2
BRANCH   1   9
ATOM      9  C   UNL     1      29.533 -10.837  13.084  1.00  0.00     0.000 C 
BRANCH   9  10
ATOM     10  C   UNL     1      28.919 -11.303  14.410  1.00  0.00    -0.000 C 
BRANCH  10  11
ATOM     11  C   UNL     1      27.699 -10.450  14.782  1.00  0.00    -0.000 C 
BRANCH  11  12
ATOM     12  C   UNL     1      28.129  -9.101  15.371  1.00  0.00    -0.000 C 
BRANCH  12  13
ATOM     13  C   UNL     1      28.882  -9.294  16.692  1.00  0.00    -0.003 C 
ATOM     14  C   UNL     1      30.283  -8.692  16.623  1.00  0.00     0.004 C 
ENDBRANCH  12  13
ENDBRANCH  11  12
ENDBRANCH  10  11
ENDBRANCH   9  10
ENDBRANCH   1   9
TORSDOF 10
ENDMDL
MODEL 3
REMARK VINA RESULT:    -4.754      1.203      2.197
REMARK INTER + INTRA:          -7.974
REMARK INTER:                  -7.352
REMARK INTRA:                  -0.622
REMARK UNBOUND:                -0.440
REMARK SMILES CCCCCCCCCCCC(=O)[O-]
REMARK SMILES IDX 7 1 8 2 9 3 10 4 11 5 12 6 13 7 14 8 6 9 5 10 4 11 3 12 2 13
REMARK SMILES IDX 1 14
REMARK H PARENT
REMARK Flexibility Score: inf
ROOT
ATOM      1  C   UNL     1      31.311  -8.818  13.532  1.00  0.00     0.000 C 
ENDROOT
BRANCH   1   2
ATOM      2  C   UNL     1      29.949  -8.544  14.192  1.00  0.00     0.000 C 
BRANCH   2   3
ATOM      3  C   UNL     1      29.838  -8.974  15.669  1.00  0.00     0.000 C 
BRANCH   3   4
ATOM      4  C   UNL     1      28.414  -9.310  16.146  1.00  0.00     0.006 C 
BRANCH   4   5
ATOM      5  C   UNL     1      27.658 -10.220  15.170  1.00  0.00     0.053 C 
BRANCH   5   6
ATOM      6  C   UNL     1      28.272 -11.584  15.144  1.00  0.00     0.041 C 
ATOM      7  O   UNL     1      28.538 -12.138  14.045  1.00  0.00    -0.550 OA
ATOM      8  O   UNL     1      28.503 -12.266  16.332  1.00  0.00    -0.550 OA
ENDBRANCH   5   6
ENDBRANCH   4   5
ENDBRANCH   3   4
ENDBRANCH   2   3
ENDBRANCH   1   2
BRANCH   1   9
ATOM      9  C   UNL     1      31.401  -8.275  12.098  1.00  0.00     0.000 C 
BRANCH   9  10
ATOM     10  C   UNL     1      30.710  -6.911  11.984  1.00  0.00    -0.000 C 
BRANCH  10  11
ATOM     11  C   UNL     1      31.414  -6.021  10.952  1.00  0.00    -0.000 C 
BRANCH  11  12
ATOM     12  C   UNL     1      32.563  -5.236  11.595  1.00  0.00    -0.000 C 
BRANCH  12  13
ATOM     13  C   UNL     1      33.806  -5.249  10.700  1.00  0.00    -0.003 C 
ATOM     14  C   UNL     1      34.822  -6.281  11.180  1.00  0.00     0.004 C 
ENDBRANCH  12  13
ENDBRANCH  11  12
ENDBRANCH  10  11
ENDBRANCH   9  10
ENDBRANCH   1   9
TORSDOF 10
ENDMDL
MODEL 4
REMARK VINA RESULT:    -4.669      4.329      7.853
REMARK INTER + INTRA:          -7.838
REMARK INTER:                  -7.300
REMARK INTRA:                  -0.539
REMARK UNBOUND:                -0.440
REMARK SMILES CCCCCCCCCCCC(=O)[O-]
REMARK SMILES IDX 7 1 8 2 9 3 10 4 11 5 12 6 13 7 14 8 6 9 5 10 4 11 3 12 2 13
REMARK SMILES IDX 1 14
REMARK H PARENT
REMARK Flexibility Score: inf
ROOT
ATOM      1  C   UNL     1      30.650 -10.048  12.591  1.00  0.00     0.000 C 
ENDROOT
BRANCH   1   2
ATOM      2  C   UNL     1      30.969  -8.767  13.382  1.00  0.00     0.000 C 
BRANCH   2   3
ATOM      3  C   UNL     1      30.445  -7.461  12.752  1.00  0.00     0.000 C 
BRANCH   3   4
ATOM      4  C   UNL     1      31.078  -7.089  11.399  1.00  0.00     0.006 C 
BRANCH   4   5
ATOM      5  C   UNL     1      31.674  -5.676  11.388  1.00  0.00     0.053 C 
BRANCH   5   6
ATOM      6  C   UNL     1      32.879  -5.623  10.504  1.00  0.00     0.041 C 
ATOM      7  O   UNL     1      33.957  -5.132  10.930  1.00  0.00    -0.550 OA
ATOM      8  O   UNL     1      32.798  -6.069   9.190  1.00  0.00    -0.550 OA
ENDBRANCH   5   6
ENDBRANCH   4   5
ENDBRANCH   3   4
ENDBRANCH   2   3
ENDBRANCH   1   2
BRANCH   1   9
ATOM      9  C   UNL     1      29.523 -10.876  13.224  1.00  0.00     0.000 C 
BRANCH   9  10
ATOM     10  C   UNL     1      29.054 -10.247  14.542  1.00  0.00    -0.000 C 
BRANCH  10  11
ATOM     11  C   UNL     1      27.620 -10.675  14.878  1.00  0.00    -0.000 C 
BRANCH  11  12
ATOM     12  C   UNL     1      27.154 -11.810  13.959  1.00  0.00    -0.000 C 
BRANCH  12  13
ATOM     13  C   UNL     1      26.875 -13.086  14.761  1.00  0.00    -0.003 C 
ATOM     14  C   UNL     1      27.440 -14.316  14.056  1.00  0.00     0.004 C 
ENDBRANCH  12  13
ENDBRANCH  11  12
ENDBRANCH  10  11
ENDBRANCH   9  10
ENDBRANCH   1   9
TORSDOF 10
ENDMDL
MODEL 5
REMARK VINA RESULT:    -4.642      3.879      7.708
REMARK INTER + INTRA:          -7.797
REMARK INTER:                  -7.113
REMARK INTRA:                  -0.684
REMARK UNBOUND:                -0.440
REMARK SMILES CCCCCCCCCCCC(=O)[O-]
REMARK SMILES IDX 7 1 8 2 9 3 10 4 11 5 12 6 13 7 14 8 6 9 5 10 4 11 3 12 2 13
REMARK SMILES IDX 1 14
REMARK H PARENT
REMARK Flexibility Score: inf
ROOT
ATOM      1  C   UNL     1      31.345  -8.399  12.155  1.00  0.00     0.000 C 
ENDROOT
BRANCH   1   2
ATOM      2  C   UNL     1      30.700  -7.002  12.128  1.00  0.00     0.000 C 
BRANCH   2   3
ATOM      3  C   UNL     1      31.335  -6.006  11.137  1.00  0.00     0.000 C 
BRANCH   3   4
ATOM      4  C   UNL     1      32.598  -5.290  11.650  1.00  0.00     0.006 C 
BRANCH   4   5
ATOM      5  C   UNL     1      33.750  -5.315  10.638  1.00  0.00     0.053 C 
BRANCH   5   6
ATOM      6  C   UNL     1      34.803  -6.284  11.069  1.00  0.00     0.041 C 
ATOM      7  O   UNL     1      35.833  -6.456  10.365  1.00  0.00    -0.550 OA
ATOM      8  O   UNL     1      34.626  -7.038  12.222  1.00  0.00    -0.550 OA
ENDBRANCH   5   6
ENDBRANCH   4   5
ENDBRANCH   3   4
ENDBRANCH   2   3
ENDBRANCH   1   2
BRANCH   1   9
ATOM      9  C   UNL     1      30.917  -9.231  13.372  1.00  0.00     0.000 C 
BRANCH   9  10
ATOM     10  C   UNL     1      29.912  -8.462  14.237  1.00  0.00    -0.000 C 
BRANCH  10  11
ATOM     11  C   UNL     1      29.689  -9.166  15.581  1.00  0.00    -0.000 C 
BRANCH  11  12
ATOM     12  C   UNL     1      28.193  -9.355  15.863  1.00  0.00    -0.000 C 
BRANCH  12  13
ATOM     13  C   UNL     1      27.540 -10.240  14.797  1.00  0.00    -0.003 C 
ATOM     14  C   UNL     1      28.045 -11.677  14.887  1.00  0.00     0.004 C 
ENDBRANCH  12  13
ENDBRANCH  11  12
ENDBRANCH  10  11
ENDBRANCH   9  10
ENDBRANCH   1   9
TORSDOF 10
ENDMDL
MODEL 6
REMARK VINA RESULT:    -4.631      3.816      7.675
REMARK INTER + INTRA:          -7.779
REMARK INTER:                  -6.970
REMARK INTRA:                  -0.809
REMARK UNBOUND:                -0.440
REMARK SMILES CCCCCCCCCCCC(=O)[O-]
REMARK SMILES IDX 7 1 8 2 9 3 10 4 11 5 12 6 13 7 14 8 6 9 5 10 4 11 3 12 2 13
REMARK SMILES IDX 1 14
REMARK H PARENT
REMARK Flexibility Score: inf
ROOT
ATOM      1  C   UNL     1      30.608  -7.206  12.490  1.00  0.00     0.000 C 
ENDROOT
BRANCH   1   2
ATOM      2  C   UNL     1      30.954  -6.199  11.379  1.00  0.00     0.000 C 
BRANCH   2   3
ATOM      3  C   UNL     1      31.748  -6.782  10.192  1.00  0.00     0.000 C 
BRANCH   3   4
ATOM      4  C   UNL     1      32.925  -5.917   9.707  1.00  0.00     0.006 C 
BRANCH   4   5
ATOM      5  C   UNL     1      33.729  -5.305  10.860  1.00  0.00     0.053 C 
BRANCH   5   6
ATOM      6  C   UNL     1      34.711  -6.296  11.398  1.00  0.00     0.041 C 
ATOM      7  O   UNL     1      35.811  -6.479  10.815  1.00  0.00    -0.550 OA
ATOM      8  O   UNL     1      34.389  -7.058  12.515  1.00  0.00    -0.550 OA
ENDBRANCH   5   6
ENDBRANCH   4   5
ENDBRANCH   3   4
ENDBRANCH   2   3
ENDBRANCH   1   2
BRANCH   1   9
ATOM      9  C   UNL     1      31.176  -8.607  12.225  1.00  0.00     0.000 C 
BRANCH   9  10
ATOM     10  C   UNL     1      30.551  -9.640  13.170  1.00  0.00    -0.000 C 
BRANCH  10  11
ATOM     11  C   UNL     1      30.029  -8.974  14.449  1.00  0.00    -0.000 C 
BRANCH  11  12
ATOM     12  C   UNL     1      28.587  -9.403  14.744  1.00  0.00    -0.000 C 
BRANCH  12  13
ATOM     13  C   UNL     1      28.409 -10.911  14.540  1.00  0.00    -0.003 C 
ATOM     14  C   UNL     1      27.041 -11.230  13.945  1.00  0.00     0.004 C 
ENDBRANCH  12  13
ENDBRANCH  11  12
ENDBRANCH  10  11
ENDBRANCH   9  10
ENDBRANCH   1   9
TORSDOF 10
ENDMDL
MODEL 7
REMARK VINA RESULT:    -4.630      1.429      2.318
REMARK INTER + INTRA:          -7.777
REMARK INTER:                  -6.978
REMARK INTRA:                  -0.799
REMARK UNBOUND:                -0.440
REMARK SMILES CCCCCCCCCCCC(=O)[O-]
REMARK SMILES IDX 7 1 8 2 9 3 10 4 11 5 12 6 13 7 14 8 6 9 5 10 4 11 3 12 2 13
REMARK SMILES IDX 1 14
REMARK H PARENT
REMARK Flexibility Score: inf
ROOT
ATOM      1  C   UNL     1      28.270  -9.167  15.313  1.00  0.00     0.000 C 
ENDROOT
BRANCH   1   2
ATOM      2  C   UNL     1      27.319 -10.378  15.314  1.00  0.00     0.000 C 
BRANCH   2   3
ATOM      3  C   UNL     1      27.388 -11.265  14.054  1.00  0.00     0.000 C 
BRANCH   3   4
ATOM      4  C   UNL     1      26.970 -12.731  14.264  1.00  0.00     0.006 C 
BRANCH   4   5
ATOM      5  C   UNL     1      27.226 -13.224  15.693  1.00  0.00     0.053 C 
BRANCH   5   6
ATOM      6  C   UNL     1      28.578 -13.856  15.794  1.00  0.00     0.041 C 
ATOM      7  O   UNL     1      28.776 -15.008  15.326  1.00  0.00    -0.550 OA
ATOM      8  O   UNL     1      29.608 -13.194  16.451  1.00  0.00    -0.550 OA
ENDBRANCH   5   6
ENDBRANCH   4   5
ENDBRANCH   3   4
ENDBRANCH   2   3
ENDBRANCH   1   2
BRANCH   1   9
ATOM      9  C   UNL     1      29.655  -9.496  15.888  1.00  0.00     0.000 C 
BRANCH   9  10
ATOM     10  C   UNL     1      30.765  -9.091  14.910  1.00  0.00    -0.000 C 
BRANCH  10  11
ATOM     11  C   UNL     1      30.219  -8.952  13.483  1.00  0.00    -0.000 C 
BRANCH  11  12
ATOM     12  C   UNL     1      30.605  -7.599  12.875  1.00  0.00    -0.000 C 
BRANCH  12  13
ATOM     13  C   UNL     1      31.141  -7.769  11.450  1.00  0.00    -0.003 C 
ATOM     14  C   UNL     1      31.495  -9.226  11.163  1.00  0.00     0.004 C 
ENDBRANCH  12  13
ENDBRANCH  11  12
ENDBRANCH  10  11
ENDBRANCH   9  10
ENDBRANCH   1   9
TORSDOF 10
ENDMDL
MODEL 8
REMARK VINA RESULT:    -4.612      3.568      6.380
REMARK INTER + INTRA:          -7.749
REMARK INTER:                  -6.159
REMARK INTRA:                  -1.590
REMARK UNBOUND:                -0.440
REMARK SMILES CCCCCCCCCCCC(=O)[O-]
REMARK SMILES IDX 7 1 8 2 9 3 10 4 11 5 12 6 13 7 14 8 6 9 5 10 4 11 3 12 2 13
REMARK SMILES IDX 1 14
REMARK H PARENT
REMARK Flexibility Score: inf
ROOT
ATOM      1  C   UNL     1      29.442  -9.206  16.747  1.00  0.00     0.000 C 
ENDROOT
BRANCH   1   2
ATOM      2  C   UNL     1      30.797  -9.524  16.091  1.00  0.00     0.000 C 
BRANCH   2   3
ATOM      3  C   UNL     1      30.921  -9.108  14.611  1.00  0.00     0.000 C 
BRANCH   3   4
ATOM      4  C   UNL     1      31.368 -10.227  13.653  1.00  0.00     0.006 C 
BRANCH   4   5
ATOM      5  C   UNL     1      30.665 -10.162  12.292  1.00  0.00     0.053 C 
BRANCH   5   6
ATOM      6  C   UNL     1      31.435  -9.295  11.347  1.00  0.00     0.041 C 
ATOM      7  O   UNL     1      32.409  -9.768  10.705  1.00  0.00    -0.550 OA
ATOM      8  O   UNL     1      31.110  -7.951  11.214  1.00  0.00    -0.550 OA
ENDBRANCH   5   6
ENDBRANCH   4   5
ENDBRANCH   3   4
ENDBRANCH   2   3
ENDBRANCH   1   2
BRANCH   1   9
ATOM      9  C   UNL     1      28.318  -8.995  15.724  1.00  0.00     0.000 C 
BRANCH   9  10
ATOM     10  C   UNL     1      27.368 -10.197  15.695  1.00  0.00    -0.000 C 
BRANCH  10  11
ATOM     11  C   UNL     1      27.467 -10.948  14.361  1.00  0.00    -0.000 C 
BRANCH  11  12
ATOM     12  C   UNL     1      28.319 -12.214  14.503  1.00  0.00    -0.000 C 
BRANCH  12  13
ATOM     13  C   UNL     1      28.196 -12.804  15.912  1.00  0.00    -0.003 C 
ATOM     14  C   UNL     1      29.568 -12.991  16.555  1.00  0.00     0.004 C 
ENDBRANCH  12  13
ENDBRANCH  11  12
ENDBRANCH  10  11
ENDBRANCH   9  10
ENDBRANCH   1   9
TORSDOF 10
ENDMDL
MODEL 9
REMARK VINA RESULT:    -4.609      1.701      3.264
REMARK INTER + INTRA:          -7.743
REMARK INTER:                  -7.012
REMARK INTRA:                  -0.731
REMARK UNBOUND:                -0.440
REMARK SMILES CCCCCCCCCCCC(=O)[O-]
REMARK SMILES IDX 7 1 8 2 9 3 10 4 11 5 12 6 13 7 14 8 6 9 5 10 4 11 3 12 2 13
REMARK SMILES IDX 1 14
REMARK H PARENT
REMARK Flexibility Score: inf
ROOT
ATOM      1  C   UNL     1      30.623  -7.499  12.541  1.00  0.00     0.000 C 
ENDROOT
BRANCH   1   2
ATOM      2  C   UNL     1      31.251  -8.834  12.103  1.00  0.00     0.000 C 
BRANCH   2   3
ATOM      3  C   UNL     1      30.827 -10.061  12.935  1.00  0.00     0.000 C 
BRANCH   3   4
ATOM      4  C   UNL     1      29.720  -9.796  13.971  1.00  0.00     0.006 C 
BRANCH   4   5
ATOM      5  C   UNL     1      28.678 -10.920  14.031  1.00  0.00     0.053 C 
BRANCH   5   6
ATOM      6  C   UNL     1      27.948 -10.888  15.335  1.00  0.00     0.041 C 
ATOM      7  O   UNL     1      27.583 -11.961  15.883  1.00  0.00    -0.550 OA
ATOM      8  O   UNL     1      27.624  -9.671  15.921  1.00  0.00    -0.550 OA
ENDBRANCH   5   6
ENDBRANCH   4   5
ENDBRANCH   3   4
ENDBRANCH   2   3
ENDBRANCH   1   2
BRANCH   1   9
ATOM      9  C   UNL     1      30.842  -6.372  11.522  1.00  0.00     0.000 C 
BRANCH   9  10
ATOM     10  C   UNL     1      31.392  -6.926  10.202  1.00  0.00    -0.000 C 
BRANCH  10  11
ATOM     11  C   UNL     1      32.552  -6.066   9.684  1.00  0.00    -0.000 C 
BRANCH  11  12
ATOM     12  C   UNL     1      33.263  -5.348  10.837  1.00  0.00    -0.000 C 
BRANCH  12  13
ATOM     13  C   UNL     1      34.481  -6.146  11.314  1.00  0.00    -0.003 C 
ATOM     14  C   UNL     1      35.279  -6.695  10.135  1.00  0.00     0.004 C 
ENDBRANCH  12  13
ENDBRANCH  11  12
ENDBRANCH  10  11
ENDBRANCH   9  10
ENDBRANCH   1   9
TORSDOF 10
ENDMDL
