MODEL 1
REMARK VINA RESULT:    -2.510      0.000      0.000
REMARK INTER + INTRA:          -2.834
REMARK INTER:                  -2.730
REMARK INTRA:                  -0.104
REMARK UNBOUND:                -0.104
REMARK SMILES CC(C)(C)[C@@H]1C=C[C@H](O)CC1
REMARK SMILES IDX 5 1 11 2 10 3 8 4 7 5 6 6 2 7 1 8 3 9 4 10 9 11
REMARK H PARENT 9 12
REMARK Flexibility Score: inf
ROOT
ATOM      1  C   UNL     1     -41.108  24.488   7.051  1.00  0.00     0.017 C 
ATOM      2  C   UNL     1     -42.063  23.560   7.862  1.00  0.00     0.011 C 
ATOM      3  C   UNL     1     -41.446  22.196   8.193  1.00  0.00     0.037 C 
ATOM      4  C   UNL     1     -40.142  22.372   8.975  1.00  0.00     0.137 C 
ATOM      5  C   UNL     1     -39.213  23.324   8.272  1.00  0.00     0.000 C 
ATOM      6  C   UNL     1     -39.650  24.303   7.462  1.00  0.00    -0.025 C 
ENDROOT
BRANCH   1   7
ATOM      7  C   UNL     1     -41.314  24.455   5.482  1.00  0.00    -0.032 C 
ATOM      8  C   UNL     1     -39.947  24.365   4.758  1.00  0.00     0.011 C 
ATOM      9  C   UNL     1     -42.125  23.200   5.068  1.00  0.00     0.011 C 
ATOM     10  C   UNL     1     -42.065  25.702   4.974  1.00  0.00     0.011 C 
ENDBRANCH   1   7
BRANCH   4  11
ATOM     11  O   UNL     1     -39.501  21.134   9.123  1.00  0.00    -0.389 OA
ATOM     12  H   UNL     1     -38.957  21.191   9.953  1.00  0.00     0.211 HD
ENDBRANCH   4  11
TORSDOF 2
ENDMDL
MODEL 2
REMARK VINA RESULT:    -1.395      2.622      4.326
REMARK INTER + INTRA:          -1.621
REMARK INTER:                  -1.555
REMARK INTRA:                  -0.065
REMARK UNBOUND:                -0.104
REMARK SMILES CC(C)(C)[C@@H]1C=C[C@H](O)CC1
REMARK SMILES IDX 5 1 11 2 10 3 8 4 7 5 6 6 2 7 1 8 3 9 4 10 9 11
REMARK H PARENT 9 12
REMARK Flexibility Score: inf
ROOT
ATOM      1  C   UNL     1     -40.689  23.686   6.870  1.00  0.00     0.017 C 
ATOM      2  C   UNL     1     -41.944  24.518   7.274  1.00  0.00     0.011 C 
ATOM      3  C   UNL     1     -42.075  25.833   6.497  1.00  0.00     0.037 C 
ATOM      4  C   UNL     1     -42.121  25.565   4.991  1.00  0.00     0.137 C 
ATOM      5  C   UNL     1     -40.971  24.697   4.560  1.00  0.00     0.000 C 
ATOM      6  C   UNL     1     -40.373  23.818   5.382  1.00  0.00    -0.025 C 
ENDROOT
BRANCH   1   7
ATOM      7  C   UNL     1     -39.419  23.899   7.790  1.00  0.00    -0.032 C 
ATOM      8  C   UNL     1     -38.119  23.651   6.984  1.00  0.00     0.011 C 
ATOM      9  C   UNL     1     -39.358  25.360   8.301  1.00  0.00     0.011 C 
ATOM     10  C   UNL     1     -39.431  22.961   9.014  1.00  0.00     0.011 C 
ENDBRANCH   1   7
BRANCH   4  11
ATOM     11  O   UNL     1     -42.069  26.776   4.287  1.00  0.00    -0.389 OA
ATOM     12  H   UNL     1     -41.262  27.258   4.608  1.00  0.00     0.211 HD
ENDBRANCH   4  11
TORSDOF 2
ENDMDL
MODEL 3
REMARK VINA RESULT:    -1.189      2.412      4.105
REMARK INTER + INTRA:          -1.397
REMARK INTER:                  -1.119
REMARK INTRA:                  -0.278
REMARK UNBOUND:                -0.104
REMARK SMILES CC(C)(C)[C@@H]1C=C[C@H](O)CC1
REMARK SMILES IDX 5 1 11 2 10 3 8 4 7 5 6 6 2 7 1 8 3 9 4 10 9 11
REMARK H PARENT 9 12
REMARK Flexibility Score: inf
ROOT
ATOM      1  C   UNL     1     -40.477  23.113   7.042  1.00  0.00     0.017 C 
ATOM      2  C   UNL     1     -41.202  23.150   5.662  1.00  0.00     0.011 C 
ATOM      3  C   UNL     1     -42.092  24.385   5.478  1.00  0.00     0.037 C 
ATOM      4  C   UNL     1     -41.272  25.667   5.644  1.00  0.00     0.137 C 
ATOM      5  C   UNL     1     -40.489  25.647   6.927  1.00  0.00     0.000 C 
ATOM      6  C   UNL     1     -40.085  24.510   7.517  1.00  0.00    -0.025 C 
ENDROOT
BRANCH   1   7
ATOM      7  C   UNL     1     -41.209  22.266   8.160  1.00  0.00    -0.032 C 
ATOM      8  C   UNL     1     -40.173  21.631   9.123  1.00  0.00     0.011 C 
ATOM      9  C   UNL     1     -42.122  23.176   9.021  1.00  0.00     0.011 C 
ATOM     10  C   UNL     1     -42.078  21.144   7.556  1.00  0.00     0.011 C 
ENDBRANCH   1   7
BRANCH   4  11
ATOM     11  O   UNL     1     -42.122  26.782   5.644  1.00  0.00    -0.389 OA
ATOM     12  H   UNL     1     -41.806  27.382   4.917  1.00  0.00     0.211 HD
ENDBRANCH   4  11
TORSDOF 2
ENDMDL
MODEL 4
REMARK VINA RESULT:    -0.048      1.275      2.197
REMARK INTER + INTRA:          -0.156
REMARK INTER:                   0.059
REMARK INTRA:                  -0.215
REMARK UNBOUND:                -0.104
REMARK SMILES CC(C)(C)[C@@H]1C=C[C@H](O)CC1
REMARK SMILES IDX 5 1 11 2 10 3 8 4 7 5 6 6 2 7 1 8 3 9 4 10 9 11
REMARK H PARENT 9 12
REMARK Flexibility Score: inf
ROOT
ATOM      1  C   UNL     1     -42.056  23.656   6.368  1.00  0.00     0.017 C 
ATOM      2  C   UNL     1     -41.809  22.193   5.889  1.00  0.00     0.011 C 
ATOM      3  C   UNL     1     -40.890  21.397   6.823  1.00  0.00     0.037 C 
ATOM      4  C   UNL     1     -41.462  21.366   8.242  1.00  0.00     0.137 C 
ATOM      5  C   UNL     1     -41.793  22.752   8.723  1.00  0.00     0.000 C 
ATOM      6  C   UNL     1     -42.115  23.755   7.890  1.00  0.00    -0.025 C 
ENDROOT
BRANCH   1   7
ATOM      7  C   UNL     1     -41.108  24.742   5.716  1.00  0.00    -0.032 C 
ATOM      8  C   UNL     1     -41.947  25.867   5.056  1.00  0.00     0.011 C 
ATOM      9  C   UNL     1     -40.229  25.416   6.800  1.00  0.00     0.011 C 
ATOM     10  C   UNL     1     -40.175  24.129   4.652  1.00  0.00     0.011 C 
ENDBRANCH   1   7
BRANCH   4  11
ATOM     11  O   UNL     1     -40.535  20.787   9.120  1.00  0.00    -0.389 OA
ATOM     12  H   UNL     1     -40.360  21.456   9.834  1.00  0.00     0.211 HD
ENDBRANCH   4  11
TORSDOF 2
ENDMDL
