MODEL 1
REMARK VINA RESULT:    -2.679      0.000      0.000
REMARK INTER + INTRA:          -3.168
REMARK INTER:                  -3.149
REMARK INTRA:                  -0.019
REMARK UNBOUND:                -0.019
REMARK SMILES CCCCC(=O)[O-]
REMARK SMILES IDX 4 1 5 2 6 3 7 4 3 5 2 6 1 7
REMARK H PARENT
REMARK Flexibility Score: inf
ROOT
ATOM      1  C   UNL     1      55.531  28.291  50.680  1.00  0.00     0.053 C 
ENDROOT
BRANCH   1   2
ATOM      2  C   UNL     1      54.601  27.427  49.884  1.00  0.00     0.041 C 
ATOM      3  O   UNL     1      53.480  27.872  49.521  1.00  0.00    -0.550 OA
ATOM      4  O   UNL     1      54.986  26.145  49.515  1.00  0.00    -0.550 OA
ENDBRANCH   1   2
BRANCH   1   5
ATOM      5  C   UNL     1      57.001  27.977  50.374  1.00  0.00     0.006 C 
BRANCH   5   6
ATOM      6  C   UNL     1      57.843  29.251  50.206  1.00  0.00    -0.003 C 
ATOM      7  C   UNL     1      59.038  29.003  49.289  1.00  0.00     0.004 C 
ENDBRANCH   5   6
ENDBRANCH   1   5
TORSDOF 3
ENDMDL
MODEL 2
REMARK VINA RESULT:    -2.657      2.850      3.980
REMARK INTER + INTRA:          -3.142
REMARK INTER:                  -3.109
REMARK INTRA:                  -0.033
REMARK UNBOUND:                -0.019
REMARK SMILES CCCCC(=O)[O-]
REMARK SMILES IDX 4 1 5 2 6 3 7 4 3 5 2 6 1 7
REMARK H PARENT
REMARK Flexibility Score: inf
ROOT
ATOM      1  C   UNL     1      57.066  28.050  50.337  1.00  0.00     0.053 C 
ENDROOT
BRANCH   1   2
ATOM      2  C   UNL     1      58.040  29.185  50.240  1.00  0.00     0.041 C 
ATOM      3  O   UNL     1      58.233  29.939  51.229  1.00  0.00    -0.550 OA
ATOM      4  O   UNL     1      58.758  29.387  49.068  1.00  0.00    -0.550 OA
ENDBRANCH   1   2
BRANCH   1   5
ATOM      5  C   UNL     1      55.645  28.543  50.641  1.00  0.00     0.006 C 
BRANCH   5   6
ATOM      6  C   UNL     1      54.571  27.623  50.042  1.00  0.00    -0.003 C 
ATOM      7  C   UNL     1      55.142  26.243  49.728  1.00  0.00     0.004 C 
ENDBRANCH   5   6
ENDBRANCH   1   5
TORSDOF 3
ENDMDL
MODEL 3
REMARK VINA RESULT:    -2.641      3.756      4.752
REMARK INTER + INTRA:          -3.123
REMARK INTER:                  -3.083
REMARK INTRA:                  -0.040
REMARK UNBOUND:                -0.019
REMARK SMILES CCCCC(=O)[O-]
REMARK SMILES IDX 4 1 5 2 6 3 7 4 3 5 2 6 1 7
REMARK H PARENT
REMARK Flexibility Score: inf
ROOT
ATOM      1  C   UNL     1      59.207  26.782  49.611  1.00  0.00     0.053 C 
ENDROOT
BRANCH   1   2
ATOM      2  C   UNL     1      60.183  25.720  50.018  1.00  0.00     0.041 C 
ATOM      3  O   UNL     1      61.411  25.986  50.095  1.00  0.00    -0.550 OA
ATOM      4  O   UNL     1      59.731  24.447  50.343  1.00  0.00    -0.550 OA
ENDBRANCH   1   2
BRANCH   1   5
ATOM      5  C   UNL     1      59.908  28.109  49.295  1.00  0.00     0.006 C 
BRANCH   5   6
ATOM      6  C   UNL     1      58.927  29.291  49.265  1.00  0.00    -0.003 C 
ATOM      7  C   UNL     1      57.801  29.096  50.276  1.00  0.00     0.004 C 
ENDBRANCH   5   6
ENDBRANCH   1   5
TORSDOF 3
ENDMDL
MODEL 4
REMARK VINA RESULT:    -2.637     12.939     13.518
REMARK INTER + INTRA:          -3.118
REMARK INTER:                  -3.098
REMARK INTRA:                  -0.021
REMARK UNBOUND:                -0.019
REMARK SMILES CCCCC(=O)[O-]
REMARK SMILES IDX 4 1 5 2 6 3 7 4 3 5 2 6 1 7
REMARK H PARENT
REMARK Flexibility Score: inf
ROOT
ATOM      1  C   UNL     1      61.536  32.265  60.191  1.00  0.00     0.053 C 
ENDROOT
BRANCH   1   2
ATOM      2  C   UNL     1      61.484  31.237  61.279  1.00  0.00     0.041 C 
ATOM      3  O   UNL     1      60.438  31.093  61.964  1.00  0.00    -0.550 OA
ATOM      4  O   UNL     1      62.579  30.415  61.514  1.00  0.00    -0.550 OA
ENDBRANCH   1   2
BRANCH   1   5
ATOM      5  C   UNL     1      62.512  33.401  60.526  1.00  0.00     0.006 C 
BRANCH   5   6
ATOM      6  C   UNL     1      61.853  34.784  60.416  1.00  0.00    -0.003 C 
ATOM      7  C   UNL     1      62.759  35.872  60.984  1.00  0.00     0.004 C 
ENDBRANCH   5   6
ENDBRANCH   1   5
TORSDOF 3
ENDMDL
MODEL 5
REMARK VINA RESULT:    -2.615     13.746     14.374
REMARK INTER + INTRA:          -3.093
REMARK INTER:                  -3.073
REMARK INTRA:                  -0.020
REMARK UNBOUND:                -0.019
REMARK SMILES CCCCC(=O)[O-]
REMARK SMILES IDX 4 1 5 2 6 3 7 4 3 5 2 6 1 7
REMARK H PARENT
REMARK Flexibility Score: inf
ROOT
ATOM      1  C   UNL     1      62.127  34.112  60.135  1.00  0.00     0.053 C 
ENDROOT
BRANCH   1   2
ATOM      2  C   UNL     1      62.995  35.044  60.924  1.00  0.00     0.041 C 
ATOM      3  O   UNL     1      62.586  36.200  61.210  1.00  0.00    -0.550 OA
ATOM      4  O   UNL     1      64.242  34.624  61.371  1.00  0.00    -0.550 OA
ENDBRANCH   1   2
BRANCH   1   5
ATOM      5  C   UNL     1      62.364  32.647  60.522  1.00  0.00     0.006 C 
BRANCH   5   6
ATOM      6  C   UNL     1      61.049  31.892  60.771  1.00  0.00    -0.003 C 
ATOM      7  C   UNL     1      61.283  30.645  61.619  1.00  0.00     0.004 C 
ENDBRANCH   5   6
ENDBRANCH   1   5
TORSDOF 3
ENDMDL
MODEL 6
REMARK VINA RESULT:    -2.610      1.254      1.820
REMARK INTER + INTRA:          -3.087
REMARK INTER:                  -2.977
REMARK INTRA:                  -0.111
REMARK UNBOUND:                -0.019
REMARK SMILES CCCCC(=O)[O-]
REMARK SMILES IDX 4 1 5 2 6 3 7 4 3 5 2 6 1 7
REMARK H PARENT
REMARK Flexibility Score: inf
ROOT
ATOM      1  C   UNL     1      56.131  28.054  50.476  1.00  0.00     0.053 C 
ENDROOT
BRANCH   1   2
ATOM      2  C   UNL     1      56.131  26.599  50.116  1.00  0.00     0.041 C 
ATOM      3  O   UNL     1      57.070  25.853  50.500  1.00  0.00    -0.550 OA
ATOM      4  O   UNL     1      55.078  26.062  49.388  1.00  0.00    -0.550 OA
ENDBRANCH   1   2
BRANCH   1   5
ATOM      5  C   UNL     1      57.518  28.531  50.922  1.00  0.00     0.006 C 
BRANCH   5   6
ATOM      6  C   UNL     1      58.265  29.272  49.803  1.00  0.00    -0.003 C 
ATOM      7  C   UNL     1      59.427  28.437  49.271  1.00  0.00     0.004 C 
ENDBRANCH   5   6
ENDBRANCH   1   5
TORSDOF 3
ENDMDL
MODEL 7
REMARK VINA RESULT:    -2.587      2.588      4.013
REMARK INTER + INTRA:          -3.059
REMARK INTER:                  -3.021
REMARK INTRA:                  -0.038
REMARK UNBOUND:                -0.019
REMARK SMILES CCCCC(=O)[O-]
REMARK SMILES IDX 4 1 5 2 6 3 7 4 3 5 2 6 1 7
REMARK H PARENT
REMARK Flexibility Score: inf
ROOT
ATOM      1  C   UNL     1      55.508  26.288  49.973  1.00  0.00     0.053 C 
ENDROOT
BRANCH   1   2
ATOM      2  C   UNL     1      56.939  26.612  50.277  1.00  0.00     0.041 C 
ATOM      3  O   UNL     1      57.332  27.808  50.273  1.00  0.00    -0.550 OA
ATOM      4  O   UNL     1      57.829  25.595  50.597  1.00  0.00    -0.550 OA
ENDBRANCH   1   2
BRANCH   1   5
ATOM      5  C   UNL     1      54.622  27.541  50.003  1.00  0.00     0.006 C 
BRANCH   5   6
ATOM      6  C   UNL     1      53.192  27.252  49.523  1.00  0.00    -0.003 C 
ATOM      7  C   UNL     1      53.116  25.912  48.797  1.00  0.00     0.004 C 
ENDBRANCH   5   6
ENDBRANCH   1   5
TORSDOF 3
ENDMDL
MODEL 8
REMARK VINA RESULT:    -2.585      3.007      4.216
REMARK INTER + INTRA:          -3.057
REMARK INTER:                  -2.996
REMARK INTRA:                  -0.062
REMARK UNBOUND:                -0.019
REMARK SMILES CCCCC(=O)[O-]
REMARK SMILES IDX 4 1 5 2 6 3 7 4 3 5 2 6 1 7
REMARK H PARENT
REMARK Flexibility Score: inf
ROOT
ATOM      1  C   UNL     1      58.017  27.781  50.436  1.00  0.00     0.053 C 
ENDROOT
BRANCH   1   2
ATOM      2  C   UNL     1      59.060  28.358  49.527  1.00  0.00     0.041 C 
ATOM      3  O   UNL     1      60.119  27.718  49.294  1.00  0.00    -0.550 OA
ATOM      4  O   UNL     1      58.846  29.585  48.912  1.00  0.00    -0.550 OA
ENDBRANCH   1   2
BRANCH   1   5
ATOM      5  C   UNL     1      56.808  28.714  50.580  1.00  0.00     0.006 C 
BRANCH   5   6
ATOM      6  C   UNL     1      55.476  27.968  50.410  1.00  0.00    -0.003 C 
ATOM      7  C   UNL     1      55.709  26.504  50.046  1.00  0.00     0.004 C 
ENDBRANCH   5   6
ENDBRANCH   1   5
TORSDOF 3
ENDMDL
MODEL 9
REMARK VINA RESULT:    -2.508     13.487     14.152
REMARK INTER + INTRA:          -2.967
REMARK INTER:                  -2.934
REMARK INTRA:                  -0.032
REMARK UNBOUND:                -0.019
REMARK SMILES CCCCC(=O)[O-]
REMARK SMILES IDX 4 1 5 2 6 3 7 4 3 5 2 6 1 7
REMARK H PARENT
REMARK Flexibility Score: inf
ROOT
ATOM      1  C   UNL     1      62.859  34.178  60.499  1.00  0.00     0.053 C 
ENDROOT
BRANCH   1   2
ATOM      2  C   UNL     1      61.685  33.321  60.136  1.00  0.00     0.041 C 
ATOM      3  O   UNL     1      61.432  32.281  60.799  1.00  0.00    -0.550 OA
ATOM      4  O   UNL     1      60.853  33.689  59.086  1.00  0.00    -0.550 OA
ENDBRANCH   1   2
BRANCH   1   5
ATOM      5  C   UNL     1      62.438  35.621  60.807  1.00  0.00     0.006 C 
BRANCH   5   6
ATOM      6  C   UNL     1      63.622  36.488  61.260  1.00  0.00    -0.003 C 
ATOM      7  C   UNL     1      64.827  35.625  61.625  1.00  0.00     0.004 C 
ENDBRANCH   5   6
ENDBRANCH   1   5
TORSDOF 3
ENDMDL
