MODEL 1
REMARK VINA RESULT:    -5.155      0.000      0.000
REMARK INTER + INTRA:          -7.404
REMARK INTER:                  -6.963
REMARK INTRA:                  -0.441
REMARK UNBOUND:                -0.441
REMARK SMILES CC(=O)CCC=C(C)CCC=C(C)C
REMARK SMILES IDX 7 1 6 2 8 3 9 4 10 5 11 6 13 7 12 8 14 9 5 10 4 11 2 12 3 13
REMARK SMILES IDX 1 14
REMARK H PARENT
REMARK Flexibility Score: inf
ROOT
ATOM      1  C   UNL     1      -8.092  34.769   4.588  1.00  0.00    -0.077 C 
ATOM      2  C   UNL     1      -7.153  33.957   5.123  1.00  0.00    -0.028 C 
ATOM      3  C   UNL     1      -9.435  34.852   5.268  1.00  0.00     0.039 C 
ENDROOT
BRANCH   1   4
ATOM      4  C   UNL     1      -7.842  35.624   3.357  1.00  0.00     0.034 C 
BRANCH   4   5
ATOM      5  C   UNL     1      -9.010  35.549   2.361  1.00  0.00     0.032 C 
BRANCH   5   6
ATOM      6  C   UNL     1      -8.645  36.141   1.021  1.00  0.00    -0.028 C 
ATOM      7  C   UNL     1      -8.634  36.330  -1.447  1.00  0.00     0.039 C 
ATOM      8  C   UNL     1      -9.031  35.633  -0.171  1.00  0.00    -0.080 C 
ATOM      9  C   UNL     1      -9.809  34.344  -0.280  1.00  0.00     0.039 C 
ENDBRANCH   5   6
ENDBRANCH   4   5
ENDBRANCH   1   4
BRANCH   2  10
ATOM     10  C   UNL     1      -5.786  33.715   4.535  1.00  0.00     0.035 C 
BRANCH  10  11
ATOM     11  C   UNL     1      -4.834  33.147   5.593  1.00  0.00     0.079 C 
BRANCH  11  12
ATOM     12  C   UNL     1      -4.631  31.669   5.389  1.00  0.00     0.130 C 
ATOM     13  O   UNL     1      -3.875  31.059   6.129  1.00  0.00    -0.300 OA
ATOM     14  C   UNL     1      -5.329  30.928   4.287  1.00  0.00     0.087 C 
ENDBRANCH  11  12
ENDBRANCH  10  11
ENDBRANCH   2  10
TORSDOF 6
ENDMDL
MODEL 2
REMARK VINA RESULT:    -5.105      5.916      8.739
REMARK INTER + INTRA:          -7.337
REMARK INTER:                  -6.174
REMARK INTRA:                  -1.163
REMARK UNBOUND:                -0.441
REMARK SMILES CC(=O)CCC=C(C)CCC=C(C)C
REMARK SMILES IDX 7 1 6 2 8 3 9 4 10 5 11 6 13 7 12 8 14 9 5 10 4 11 2 12 3 13
REMARK SMILES IDX 1 14
REMARK H PARENT
REMARK Flexibility Score: inf
ROOT
ATOM      1  C   UNL     1      -6.544  37.432  -2.525  1.00  0.00    -0.077 C 
ATOM      2  C   UNL     1      -7.458  37.580  -3.510  1.00  0.00    -0.028 C 
ATOM      3  C   UNL     1      -5.172  36.929  -2.896  1.00  0.00     0.039 C 
ENDROOT
BRANCH   1   4
ATOM      4  C   UNL     1      -6.827  37.781  -1.074  1.00  0.00     0.034 C 
BRANCH   4   5
ATOM      5  C   UNL     1      -6.683  36.560  -0.153  1.00  0.00     0.032 C 
BRANCH   5   6
ATOM      6  C   UNL     1      -7.626  35.446  -0.542  1.00  0.00    -0.028 C 
ATOM      7  C   UNL     1      -9.778  34.230  -0.645  1.00  0.00     0.039 C 
ATOM      8  C   UNL     1      -8.922  35.374  -0.166  1.00  0.00    -0.080 C 
ATOM      9  C   UNL     1      -9.542  36.379   0.774  1.00  0.00     0.039 C 
ENDBRANCH   5   6
ENDBRANCH   4   5
ENDBRANCH   1   4
BRANCH   2  10
ATOM     10  C   UNL     1      -8.887  38.014  -3.303  1.00  0.00     0.035 C 
BRANCH  10  11
ATOM     11  C   UNL     1      -9.851  36.859  -3.594  1.00  0.00     0.079 C 
BRANCH  11  12
ATOM     12  C   UNL     1     -10.852  37.254  -4.648  1.00  0.00     0.130 C 
ATOM     13  O   UNL     1     -11.750  36.480  -4.942  1.00  0.00    -0.300 OA
ATOM     14  C   UNL     1     -10.763  38.573  -5.356  1.00  0.00     0.087 C 
ENDBRANCH  11  12
ENDBRANCH  10  11
ENDBRANCH   2  10
TORSDOF 6
ENDMDL
MODEL 3
REMARK VINA RESULT:    -5.017      4.886      7.479
REMARK INTER + INTRA:          -7.218
REMARK INTER:                  -6.025
REMARK INTRA:                  -1.192
REMARK UNBOUND:                -0.441
REMARK SMILES CC(=O)CCC=C(C)CCC=C(C)C
REMARK SMILES IDX 7 1 6 2 8 3 9 4 10 5 11 6 13 7 12 8 14 9 5 10 4 11 2 12 3 13
REMARK SMILES IDX 1 14
REMARK H PARENT
REMARK Flexibility Score: inf
ROOT
ATOM      1  C   UNL     1     -10.511  37.385  -3.637  1.00  0.00    -0.077 C 
ATOM      2  C   UNL     1      -9.167  37.242  -3.694  1.00  0.00    -0.028 C 
ATOM      3  C   UNL     1     -11.315  37.076  -4.874  1.00  0.00     0.039 C 
ENDROOT
BRANCH   1   4
ATOM      4  C   UNL     1     -11.244  37.809  -2.376  1.00  0.00     0.034 C 
BRANCH   4   5
ATOM      5  C   UNL     1     -11.691  36.600  -1.540  1.00  0.00     0.032 C 
BRANCH   5   6
ATOM      6  C   UNL     1     -10.989  36.548  -0.204  1.00  0.00    -0.028 C 
ATOM      7  C   UNL     1      -9.448  35.657   1.515  1.00  0.00     0.039 C 
ATOM      8  C   UNL     1     -10.115  35.586   0.165  1.00  0.00    -0.080 C 
ATOM      9  C   UNL     1      -9.815  34.395  -0.712  1.00  0.00     0.039 C 
ENDBRANCH   5   6
ENDBRANCH   4   5
ENDBRANCH   1   4
BRANCH   2  10
ATOM     10  C   UNL     1      -8.216  37.566  -2.570  1.00  0.00     0.035 C 
BRANCH  10  11
ATOM     11  C   UNL     1      -6.763  37.472  -3.045  1.00  0.00     0.079 C 
BRANCH  11  12
ATOM     12  C   UNL     1      -5.901  36.817  -1.999  1.00  0.00     0.130 C 
ATOM     13  O   UNL     1      -4.686  36.827  -2.129  1.00  0.00    -0.300 OA
ATOM     14  C   UNL     1      -6.501  36.140  -0.802  1.00  0.00     0.087 C 
ENDBRANCH  11  12
ENDBRANCH  10  11
ENDBRANCH   2  10
TORSDOF 6
ENDMDL
MODEL 4
REMARK VINA RESULT:    -4.988      1.941      2.597
REMARK INTER + INTRA:          -7.178
REMARK INTER:                  -6.869
REMARK INTRA:                  -0.310
REMARK UNBOUND:                -0.441
REMARK SMILES CC(=O)CCC=C(C)CCC=C(C)C
REMARK SMILES IDX 7 1 6 2 8 3 9 4 10 5 11 6 13 7 12 8 14 9 5 10 4 11 2 12 3 13
REMARK SMILES IDX 1 14
REMARK H PARENT
REMARK Flexibility Score: inf
ROOT
ATOM      1  C   UNL     1      -6.349  34.471   4.847  1.00  0.00    -0.077 C 
ATOM      2  C   UNL     1      -5.835  34.089   6.038  1.00  0.00    -0.028 C 
ATOM      3  C   UNL     1      -7.839  34.677   4.747  1.00  0.00     0.039 C 
ENDROOT
BRANCH   1   4
ATOM      4  C   UNL     1      -5.490  34.733   3.622  1.00  0.00     0.034 C 
BRANCH   4   5
ATOM      5  C   UNL     1      -5.761  36.119   3.019  1.00  0.00     0.032 C 
BRANCH   5   6
ATOM      6  C   UNL     1      -6.343  36.025   1.629  1.00  0.00    -0.028 C 
ATOM      7  C   UNL     1      -6.348  36.167  -0.841  1.00  0.00     0.039 C 
ATOM      8  C   UNL     1      -5.674  36.333   0.496  1.00  0.00    -0.080 C 
ATOM      9  C   UNL     1      -4.275  36.899   0.519  1.00  0.00     0.039 C 
ENDBRANCH   5   6
ENDBRANCH   4   5
ENDBRANCH   1   4
BRANCH   2  10
ATOM     10  C   UNL     1      -4.381  33.784   6.292  1.00  0.00     0.035 C 
BRANCH  10  11
ATOM     11  C   UNL     1      -3.854  32.769   5.273  1.00  0.00     0.079 C 
BRANCH  11  12
ATOM     12  C   UNL     1      -4.522  31.431   5.460  1.00  0.00     0.130 C 
ATOM     13  O   UNL     1      -4.359  30.820   6.505  1.00  0.00    -0.300 OA
ATOM     14  C   UNL     1      -5.375  30.826   4.384  1.00  0.00     0.087 C 
ENDBRANCH  11  12
ENDBRANCH  10  11
ENDBRANCH   2  10
TORSDOF 6
ENDMDL
MODEL 5
REMARK VINA RESULT:    -4.969      6.115      8.602
REMARK INTER + INTRA:          -7.153
REMARK INTER:                  -6.204
REMARK INTRA:                  -0.949
REMARK UNBOUND:                -0.441
REMARK SMILES CC(=O)CCC=C(C)CCC=C(C)C
REMARK SMILES IDX 7 1 6 2 8 3 9 4 10 5 11 6 13 7 12 8 14 9 5 10 4 11 2 12 3 13
REMARK SMILES IDX 1 14
REMARK H PARENT
REMARK Flexibility Score: inf
ROOT
ATOM      1  C   UNL     1      -9.234  35.724  -0.900  1.00  0.00    -0.077 C 
ATOM      2  C   UNL     1      -9.797  36.172  -2.045  1.00  0.00    -0.028 C 
ATOM      3  C   UNL     1      -9.739  34.429  -0.317  1.00  0.00     0.039 C 
ENDROOT
BRANCH   1   4
ATOM      4  C   UNL     1      -8.097  36.447  -0.200  1.00  0.00     0.034 C 
BRANCH   4   5
ATOM      5  C   UNL     1      -6.723  35.944  -0.668  1.00  0.00     0.032 C 
BRANCH   5   6
ATOM      6  C   UNL     1      -5.750  37.078  -0.880  1.00  0.00    -0.028 C 
ATOM      7  C   UNL     1      -4.402  38.697  -2.179  1.00  0.00     0.039 C 
ATOM      8  C   UNL     1      -5.355  37.532  -2.090  1.00  0.00    -0.080 C 
ATOM      9  C   UNL     1      -5.793  36.875  -3.376  1.00  0.00     0.039 C 
ENDBRANCH   5   6
ENDBRANCH   4   5
ENDBRANCH   1   4
BRANCH   2  10
ATOM     10  C   UNL     1      -9.451  37.473  -2.725  1.00  0.00     0.035 C 
BRANCH  10  11
ATOM     11  C   UNL     1      -9.394  37.292  -4.245  1.00  0.00     0.079 C 
BRANCH  11  12
ATOM     12  C   UNL     1     -10.762  37.458  -4.853  1.00  0.00     0.130 C 
ATOM     13  O   UNL     1     -11.468  36.475  -5.019  1.00  0.00    -0.300 OA
ATOM     14  C   UNL     1     -11.274  38.804  -5.272  1.00  0.00     0.087 C 
ENDBRANCH  11  12
ENDBRANCH  10  11
ENDBRANCH   2  10
TORSDOF 6
ENDMDL
MODEL 6
REMARK VINA RESULT:    -4.903      2.826      4.791
REMARK INTER + INTRA:          -7.064
REMARK INTER:                  -6.372
REMARK INTRA:                  -0.692
REMARK UNBOUND:                -0.441
REMARK SMILES CC(=O)CCC=C(C)CCC=C(C)C
REMARK SMILES IDX 7 1 6 2 8 3 9 4 10 5 11 6 13 7 12 8 14 9 5 10 4 11 2 12 3 13
REMARK SMILES IDX 1 14
REMARK H PARENT
REMARK Flexibility Score: inf
ROOT
ATOM      1  C   UNL     1      -4.699  32.534   5.025  1.00  0.00    -0.077 C 
ATOM      2  C   UNL     1      -3.679  32.720   5.892  1.00  0.00    -0.028 C 
ATOM      3  C   UNL     1      -5.137  31.122   4.730  1.00  0.00     0.039 C 
ENDROOT
BRANCH   1   4
ATOM      4  C   UNL     1      -5.443  33.683   4.365  1.00  0.00     0.034 C 
BRANCH   4   5
ATOM      5  C   UNL     1      -6.626  34.164   5.218  1.00  0.00     0.032 C 
BRANCH   5   6
ATOM      6  C   UNL     1      -7.580  35.023   4.423  1.00  0.00    -0.028 C 
ATOM      7  C   UNL     1      -9.767  35.994   3.790  1.00  0.00     0.039 C 
ATOM      8  C   UNL     1      -8.916  35.071   4.625  1.00  0.00    -0.080 C 
ATOM      9  C   UNL     1      -9.608  34.184   5.629  1.00  0.00     0.039 C 
ENDBRANCH   5   6
ENDBRANCH   4   5
ENDBRANCH   1   4
BRANCH   2  10
ATOM     10  C   UNL     1      -3.082  34.058   6.249  1.00  0.00     0.035 C 
BRANCH  10  11
ATOM     11  C   UNL     1      -3.726  34.616   7.522  1.00  0.00     0.079 C 
BRANCH  11  12
ATOM     12  C   UNL     1      -3.934  36.103   7.406  1.00  0.00     0.130 C 
ATOM     13  O   UNL     1      -4.276  36.580   6.334  1.00  0.00    -0.300 OA
ATOM     14  C   UNL     1      -3.719  37.016   8.577  1.00  0.00     0.087 C 
ENDBRANCH  11  12
ENDBRANCH  10  11
ENDBRANCH   2  10
TORSDOF 6
ENDMDL
MODEL 7
REMARK VINA RESULT:    -4.885      5.780      8.777
REMARK INTER + INTRA:          -7.040
REMARK INTER:                  -5.833
REMARK INTRA:                  -1.207
REMARK UNBOUND:                -0.441
REMARK SMILES CC(=O)CCC=C(C)CCC=C(C)C
REMARK SMILES IDX 7 1 6 2 8 3 9 4 10 5 11 6 13 7 12 8 14 9 5 10 4 11 2 12 3 13
REMARK SMILES IDX 1 14
REMARK H PARENT
REMARK Flexibility Score: inf
ROOT
ATOM      1  C   UNL     1     -10.989  37.454  -1.278  1.00  0.00    -0.077 C 
ATOM      2  C   UNL     1     -10.262  37.940  -2.310  1.00  0.00    -0.028 C 
ATOM      3  C   UNL     1     -11.681  38.437  -0.369  1.00  0.00     0.039 C 
ENDROOT
BRANCH   1   4
ATOM      4  C   UNL     1     -11.165  35.968  -1.019  1.00  0.00     0.034 C 
BRANCH   4   5
ATOM      5  C   UNL     1     -10.361  35.501   0.204  1.00  0.00     0.032 C 
BRANCH   5   6
ATOM      6  C   UNL     1      -8.930  35.178  -0.153  1.00  0.00    -0.028 C 
ATOM      7  C   UNL     1      -6.475  35.485  -0.180  1.00  0.00     0.039 C 
ATOM      8  C   UNL     1      -7.864  35.926   0.206  1.00  0.00    -0.080 C 
ATOM      9  C   UNL     1      -8.013  37.236   0.940  1.00  0.00     0.039 C 
ENDBRANCH   5   6
ENDBRANCH   4   5
ENDBRANCH   1   4
BRANCH   2  10
ATOM     10  C   UNL     1      -9.463  37.100  -3.274  1.00  0.00     0.035 C 
BRANCH  10  11
ATOM     11  C   UNL     1      -9.665  37.585  -4.712  1.00  0.00     0.079 C 
BRANCH  11  12
ATOM     12  C   UNL     1     -11.119  37.519  -5.098  1.00  0.00     0.130 C 
ATOM     13  O   UNL     1     -11.718  36.458  -5.003  1.00  0.00    -0.300 OA
ATOM     14  C   UNL     1     -11.849  38.726  -5.608  1.00  0.00     0.087 C 
ENDBRANCH  11  12
ENDBRANCH  10  11
ENDBRANCH   2  10
TORSDOF 6
ENDMDL
MODEL 8
REMARK VINA RESULT:    -4.856      5.186      7.465
REMARK INTER + INTRA:          -7.001
REMARK INTER:                  -5.495
REMARK INTRA:                  -1.506
REMARK UNBOUND:                -0.441
REMARK SMILES CC(=O)CCC=C(C)CCC=C(C)C
REMARK SMILES IDX 7 1 6 2 8 3 9 4 10 5 11 6 13 7 12 8 14 9 5 10 4 11 2 12 3 13
REMARK SMILES IDX 1 14
REMARK H PARENT
REMARK Flexibility Score: inf
ROOT
ATOM      1  C   UNL     1      -7.862  36.070   0.118  1.00  0.00    -0.077 C 
ATOM      2  C   UNL     1      -7.321  37.077  -0.603  1.00  0.00    -0.028 C 
ATOM      3  C   UNL     1      -7.716  36.108   1.618  1.00  0.00     0.039 C 
ENDROOT
BRANCH   1   4
ATOM      4  C   UNL     1      -8.637  34.926  -0.512  1.00  0.00     0.034 C 
BRANCH   4   5
ATOM      5  C   UNL     1     -10.106  34.915  -0.064  1.00  0.00     0.032 C 
BRANCH   5   6
ATOM      6  C   UNL     1     -10.941  35.900  -0.846  1.00  0.00    -0.028 C 
ATOM      7  C   UNL     1     -12.219  37.984  -1.234  1.00  0.00     0.039 C 
ATOM      8  C   UNL     1     -11.425  37.059  -0.347  1.00  0.00    -0.080 C 
ATOM      9  C   UNL     1     -11.246  37.446   1.101  1.00  0.00     0.039 C 
ENDBRANCH   5   6
ENDBRANCH   4   5
ENDBRANCH   1   4
BRANCH   2  10
ATOM     10  C   UNL     1      -7.326  37.160  -2.109  1.00  0.00     0.035 C 
BRANCH  10  11
ATOM     11  C   UNL     1      -8.517  37.987  -2.602  1.00  0.00     0.079 C 
BRANCH  11  12
ATOM     12  C   UNL     1      -8.815  37.684  -4.046  1.00  0.00     0.130 C 
ATOM     13  O   UNL     1      -7.976  37.936  -4.898  1.00  0.00    -0.300 OA
ATOM     14  C   UNL     1     -10.127  37.089  -4.467  1.00  0.00     0.087 C 
ENDBRANCH  11  12
ENDBRANCH  10  11
ENDBRANCH   2  10
TORSDOF 6
ENDMDL
MODEL 9
REMARK VINA RESULT:    -4.734      6.043      8.840
REMARK INTER + INTRA:          -6.835
REMARK INTER:                  -5.685
REMARK INTRA:                  -1.150
REMARK UNBOUND:                -0.441
REMARK SMILES CC(=O)CCC=C(C)CCC=C(C)C
REMARK SMILES IDX 7 1 6 2 8 3 9 4 10 5 11 6 13 7 12 8 14 9 5 10 4 11 2 12 3 13
REMARK SMILES IDX 1 14
REMARK H PARENT
REMARK Flexibility Score: inf
ROOT
ATOM      1  C   UNL     1      -8.034  38.419  -1.685  1.00  0.00    -0.077 C 
ATOM      2  C   UNL     1      -9.100  38.278  -2.504  1.00  0.00    -0.028 C 
ATOM      3  C   UNL     1      -7.911  39.692  -0.887  1.00  0.00     0.039 C 
ENDROOT
BRANCH   1   4
ATOM      4  C   UNL     1      -6.978  37.341  -1.509  1.00  0.00     0.034 C 
BRANCH   4   5
ATOM      5  C   UNL     1      -7.187  36.542  -0.214  1.00  0.00     0.032 C 
BRANCH   5   6
ATOM      6  C   UNL     1      -7.948  35.262  -0.458  1.00  0.00    -0.028 C 
ATOM      7  C   UNL     1      -9.927  33.776  -0.518  1.00  0.00     0.039 C 
ATOM      8  C   UNL     1      -9.264  35.093  -0.200  1.00  0.00    -0.080 C 
ATOM      9  C   UNL     1     -10.098  36.166   0.455  1.00  0.00     0.039 C 
ENDBRANCH   5   6
ENDBRANCH   4   5
ENDBRANCH   1   4
BRANCH   2  10
ATOM     10  C   UNL     1      -9.341  37.098  -3.411  1.00  0.00     0.035 C 
BRANCH  10  11
ATOM     11  C   UNL     1      -9.622  37.564  -4.843  1.00  0.00     0.079 C 
BRANCH  11  12
ATOM     12  C   UNL     1     -11.100  37.546  -5.129  1.00  0.00     0.130 C 
ATOM     13  O   UNL     1     -11.720  36.498  -5.025  1.00  0.00    -0.300 OA
ATOM     14  C   UNL     1     -11.830  38.787  -5.552  1.00  0.00     0.087 C 
ENDBRANCH  11  12
ENDBRANCH  10  11
ENDBRANCH   2  10
TORSDOF 6
ENDMDL
