MODEL 1
REMARK VINA RESULT:    -8.325      0.000      0.000
REMARK INTER + INTRA:         -16.680
REMARK INTER:                 -13.678
REMARK INTRA:                  -3.002
REMARK UNBOUND:                -3.002
REMARK SMILES C[C@H]1O[C@H](OC[C@@H]2O[C@H](Oc3c(-c4ccc(O)c(O)c4)oc4cc(O)cc(O)c4c3=O)[C@@H](O)[C@H](O)[C@@H]2O)[C@H](O)[C@@H](O)[C@@H]1O
REMARK SMILES IDX 7 1 36 2 34 3 32 4 9 5 8 6 6 7 5 8 4 9 1 10 2 11 42 12 3 13
REMARK SMILES IDX 40 14 38 15 43 16 41 18 39 20 37 22 35 24 10 26 11 27 12 28
REMARK SMILES IDX 30 29 21 30 29 31 31 32 22 33 27 34 23 35 26 36 24 37 13 38
REMARK SMILES IDX 20 39 14 40 18 41 15 42 16 43 19 44 17 46 28 48 25 50 33 52
REMARK H PARENT 43 17 41 19 39 21 37 23 35 25 19 45 17 47 28 49 25 51 33 53
REMARK Flexibility Score: inf
ROOT
ATOM      1  C   UNL     1      24.759 -22.415  31.373  1.00  0.00     0.180 C 
ATOM      2  C   UNL     1      23.481 -22.148  32.228  1.00  0.00     0.177 C 
ATOM      3  C   UNL     1      22.547 -23.391  32.235  1.00  0.00     0.180 C 
ATOM      4  C   UNL     1      23.367 -24.693  32.128  1.00  0.00     0.214 C 
ATOM      5  C   UNL     1      24.337 -24.649  30.899  1.00  0.00     0.339 C 
ATOM      6  O   UNL     1      24.442 -23.346  30.344  1.00  0.00    -0.332 OA
ENDROOT
BRANCH   1   7
ATOM      7  C   UNL     1      25.424 -21.134  30.779  1.00  0.00     0.198 C 
BRANCH   7   8
ATOM      8  O   UNL     1      25.167 -20.996  29.388  1.00  0.00    -0.347 OA
BRANCH   8   9
ATOM      9  C   UNL     1      24.539 -19.756  29.078  1.00  0.00     0.281 C 
ATOM     10  C   UNL     1      24.090 -16.964  28.129  1.00  0.00     0.041 C 
ATOM     11  C   UNL     1      24.783 -18.113  27.359  1.00  0.00     0.150 C 
ATOM     12  C   UNL     1      23.854 -18.837  26.340  1.00  0.00     0.174 C 
ATOM     13  O   UNL     1      25.415 -19.047  28.208  1.00  0.00    -0.344 OA
ATOM     14  C   UNL     1      23.177 -20.103  26.942  1.00  0.00     0.179 C 
ATOM     15  C   UNL     1      23.139 -20.045  28.477  1.00  0.00     0.202 C 
BRANCH  12  16
ATOM     16  O   UNL     1      24.573 -19.189  25.178  1.00  0.00    -0.388 OA
ATOM     17  H   UNL     1      24.930 -20.111  25.316  1.00  0.00     0.211 HD
ENDBRANCH  12  16
BRANCH  14  18
ATOM     18  O   UNL     1      21.863 -20.191  26.440  1.00  0.00    -0.387 OA
ATOM     19  H   UNL     1      21.263 -19.772  27.113  1.00  0.00     0.211 HD
ENDBRANCH  14  18
BRANCH  15  20
ATOM     20  O   UNL     1      22.637 -21.258  28.987  1.00  0.00    -0.385 OA
ATOM     21  H   UNL     1      23.406 -21.748  29.383  1.00  0.00     0.211 HD
ENDBRANCH  15  20
ENDBRANCH   8   9
ENDBRANCH   7   8
ENDBRANCH   1   7
BRANCH   2  22
ATOM     22  O   UNL     1      22.770 -21.003  31.824  1.00  0.00    -0.387 OA
ATOM     23  H   UNL     1      23.349 -20.477  31.202  1.00  0.00     0.211 HD
ENDBRANCH   2  22
BRANCH   3  24
ATOM     24  O   UNL     1      21.640 -23.344  31.166  1.00  0.00    -0.387 OA
ATOM     25  H   UNL     1      22.074 -23.784  30.390  1.00  0.00     0.211 HD
ENDBRANCH   3  24
BRANCH   5  26
ATOM     26  O   UNL     1      23.881 -25.549  29.882  1.00  0.00    -0.454 OA
BRANCH  26  27
ATOM     27  C   UNL     1      24.048 -25.386  28.490  1.00  0.00     0.214 A 
ATOM     28  C   UNL     1      25.092 -26.082  27.853  1.00  0.00     0.180 A 
ATOM     29  C   UNL     1      23.248 -24.527  27.695  1.00  0.00     0.239 A 
ATOM     30  O   UNL     1      25.366 -25.860  26.575  1.00  0.00    -0.452 OA
ATOM     31  C   UNL     1      23.515 -24.375  26.318  1.00  0.00     0.111 A 
ATOM     32  O   UNL     1      22.307 -23.884  28.230  1.00  0.00    -0.285 OA
ATOM     33  C   UNL     1      24.653 -25.043  25.808  1.00  0.00     0.146 A 
ATOM     34  C   UNL     1      22.752 -23.556  25.432  1.00  0.00     0.134 A 
ATOM     35  C   UNL     1      25.054 -24.858  24.480  1.00  0.00     0.094 A 
ATOM     36  C   UNL     1      23.193 -23.364  24.121  1.00  0.00     0.093 A 
ATOM     37  C   UNL     1      24.334 -24.005  23.641  1.00  0.00     0.123 A 
BRANCH  28  38
ATOM     38  C   UNL     1      25.944 -27.041  28.582  1.00  0.00     0.025 A 
ATOM     39  C   UNL     1      25.359 -27.909  29.516  1.00  0.00     0.062 A 
ATOM     40  C   UNL     1      27.338 -27.034  28.422  1.00  0.00     0.016 A 
ATOM     41  C   UNL     1      26.156 -28.777  30.278  1.00  0.00     0.158 A 
ATOM     42  C   UNL     1      28.137 -27.887  29.185  1.00  0.00     0.051 A 
ATOM     43  C   UNL     1      27.550 -28.763  30.114  1.00  0.00     0.157 A 
BRANCH  41  44
ATOM     44  O   UNL     1      25.581 -29.651  31.195  1.00  0.00    -0.504 OA
ATOM     45  H   UNL     1      24.827 -29.355  31.805  1.00  0.00     0.293 HD
ENDBRANCH  41  44
BRANCH  43  46
ATOM     46  O   UNL     1      28.339 -29.611  30.888  1.00  0.00    -0.504 OA
ATOM     47  H   UNL     1      27.968 -30.457  31.307  1.00  0.00     0.293 HD
ENDBRANCH  43  46
ENDBRANCH  28  38
BRANCH  34  48
ATOM     48  O   UNL     1      21.551 -22.930  25.787  1.00  0.00    -0.507 OA
ATOM     49  H   UNL     1      21.451 -21.947  25.976  1.00  0.00     0.293 HD
ENDBRANCH  34  48
BRANCH  37  50
ATOM     50  O   UNL     1      24.737 -23.793  22.327  1.00  0.00    -0.508 OA
ATOM     51  H   UNL     1      24.223 -23.183  21.707  1.00  0.00     0.293 HD
ENDBRANCH  37  50
ENDBRANCH  26  27
ENDBRANCH   5  26
BRANCH   4  52
ATOM     52  O   UNL     1      24.112 -24.877  33.309  1.00  0.00    -0.384 OA
ATOM     53  H   UNL     1      23.748 -25.678  33.767  1.00  0.00     0.211 HD
ENDBRANCH   4  52
TORSDOF 16
ENDMDL
MODEL 2
REMARK VINA RESULT:    -8.096      4.652      8.382
REMARK INTER + INTRA:         -16.304
REMARK INTER:                 -12.876
REMARK INTRA:                  -3.428
REMARK UNBOUND:                -3.002
REMARK SMILES C[C@H]1O[C@H](OC[C@@H]2O[C@H](Oc3c(-c4ccc(O)c(O)c4)oc4cc(O)cc(O)c4c3=O)[C@@H](O)[C@H](O)[C@@H]2O)[C@H](O)[C@@H](O)[C@@H]1O
REMARK SMILES IDX 7 1 36 2 34 3 32 4 9 5 8 6 6 7 5 8 4 9 1 10 2 11 42 12 3 13
REMARK SMILES IDX 40 14 38 15 43 16 41 18 39 20 37 22 35 24 10 26 11 27 12 28
REMARK SMILES IDX 30 29 21 30 29 31 31 32 22 33 27 34 23 35 26 36 24 37 13 38
REMARK SMILES IDX 20 39 14 40 18 41 15 42 16 43 19 44 17 46 28 48 25 50 33 52
REMARK H PARENT 43 17 41 19 39 21 37 23 35 25 19 45 17 47 28 49 25 51 33 53
REMARK Flexibility Score: inf
ROOT
ATOM      1  C   UNL     1      20.689 -18.527  31.156  1.00  0.00     0.180 C 
ATOM      2  C   UNL     1      20.138 -17.085  31.377  1.00  0.00     0.177 C 
ATOM      3  C   UNL     1      20.701 -16.104  30.309  1.00  0.00     0.180 C 
ATOM      4  C   UNL     1      20.953 -16.834  28.975  1.00  0.00     0.214 C 
ATOM      5  C   UNL     1      21.844 -18.105  29.186  1.00  0.00     0.339 C 
ATOM      6  O   UNL     1      21.978 -18.443  30.559  1.00  0.00    -0.332 OA
ENDROOT
BRANCH   1   7
ATOM      7  C   UNL     1      20.727 -19.413  32.440  1.00  0.00     0.198 C 
BRANCH   7   8
ATOM      8  O   UNL     1      22.053 -19.613  32.911  1.00  0.00    -0.347 OA
BRANCH   8   9
ATOM      9  C   UNL     1      22.200 -19.242  34.277  1.00  0.00     0.281 C 
ATOM     10  C   UNL     1      22.485 -19.396  37.243  1.00  0.00     0.041 C 
ATOM     11  C   UNL     1      23.291 -20.185  36.184  1.00  0.00     0.150 C 
ATOM     12  C   UNL     1      24.685 -19.568  35.868  1.00  0.00     0.174 C 
ATOM     13  O   UNL     1      22.567 -20.416  34.996  1.00  0.00    -0.344 OA
ATOM     14  C   UNL     1      24.653 -18.615  34.638  1.00  0.00     0.179 C 
ATOM     15  C   UNL     1      23.234 -18.089  34.371  1.00  0.00     0.202 C 
BRANCH  12  16
ATOM     16  O   UNL     1      25.641 -20.586  35.655  1.00  0.00    -0.388 OA
ATOM     17  H   UNL     1      25.343 -21.386  36.172  1.00  0.00     0.211 HD
ENDBRANCH  12  16
BRANCH  14  18
ATOM     18  O   UNL     1      25.518 -17.530  34.889  1.00  0.00    -0.387 OA
ATOM     19  H   UNL     1      24.959 -16.780  35.226  1.00  0.00     0.211 HD
ENDBRANCH  14  18
BRANCH  15  20
ATOM     20  O   UNL     1      23.222 -17.335  33.181  1.00  0.00    -0.385 OA
ATOM     21  H   UNL     1      23.966 -17.673  32.615  1.00  0.00     0.211 HD
ENDBRANCH  15  20
ENDBRANCH   8   9
ENDBRANCH   7   8
ENDBRANCH   1   7
BRANCH   2  22
ATOM     22  O   UNL     1      20.376 -16.589  32.672  1.00  0.00    -0.387 OA
ATOM     23  H   UNL     1      19.850 -17.138  33.320  1.00  0.00     0.211 HD
ENDBRANCH   2  22
BRANCH   3  24
ATOM     24  O   UNL     1      21.907 -15.530  30.741  1.00  0.00    -0.387 OA
ATOM     25  H   UNL     1      22.115 -14.780  30.126  1.00  0.00     0.211 HD
ENDBRANCH   3  24
BRANCH   5  26
ATOM     26  O   UNL     1      23.149 -17.887  28.634  1.00  0.00    -0.454 OA
BRANCH  26  27
ATOM     27  C   UNL     1      24.378 -18.190  29.258  1.00  0.00     0.214 A 
ATOM     28  C   UNL     1      24.998 -19.417  28.957  1.00  0.00     0.180 A 
ATOM     29  C   UNL     1      25.011 -17.348  30.206  1.00  0.00     0.239 A 
ATOM     30  O   UNL     1      26.084 -19.800  29.614  1.00  0.00    -0.452 OA
ATOM     31  C   UNL     1      26.212 -17.749  30.829  1.00  0.00     0.111 A 
ATOM     32  O   UNL     1      24.484 -16.244  30.505  1.00  0.00    -0.285 OA
ATOM     33  C   UNL     1      26.688 -19.047  30.526  1.00  0.00     0.146 A 
ATOM     34  C   UNL     1      26.936 -16.962  31.774  1.00  0.00     0.134 A 
ATOM     35  C   UNL     1      27.809 -19.567  31.182  1.00  0.00     0.094 A 
ATOM     36  C   UNL     1      28.032 -17.517  32.437  1.00  0.00     0.093 A 
ATOM     37  C   UNL     1      28.471 -18.809  32.150  1.00  0.00     0.123 A 
BRANCH  28  38
ATOM     38  C   UNL     1      24.448 -20.337  27.944  1.00  0.00     0.025 A 
ATOM     39  C   UNL     1      25.010 -20.361  26.658  1.00  0.00     0.062 A 
ATOM     40  C   UNL     1      23.315 -21.119  28.219  1.00  0.00     0.016 A 
ATOM     41  C   UNL     1      24.456 -21.171  25.654  1.00  0.00     0.158 A 
ATOM     42  C   UNL     1      22.754 -21.917  27.220  1.00  0.00     0.051 A 
ATOM     43  C   UNL     1      23.323 -21.948  25.936  1.00  0.00     0.157 A 
BRANCH  41  44
ATOM     44  O   UNL     1      25.018 -21.211  24.382  1.00  0.00    -0.504 OA
ATOM     45  H   UNL     1      25.533 -22.022  24.058  1.00  0.00     0.293 HD
ENDBRANCH  41  44
BRANCH  43  46
ATOM     46  O   UNL     1      22.764 -22.733  24.930  1.00  0.00    -0.504 OA
ATOM     47  H   UNL     1      22.102 -23.474  25.132  1.00  0.00     0.293 HD
ENDBRANCH  43  46
ENDBRANCH  28  38
BRANCH  34  48
ATOM     48  O   UNL     1      26.628 -15.630  32.078  1.00  0.00    -0.507 OA
ATOM     49  H   UNL     1      27.156 -15.049  32.708  1.00  0.00     0.293 HD
ENDBRANCH  34  48
BRANCH  37  50
ATOM     50  O   UNL     1      29.571 -19.324  32.828  1.00  0.00    -0.508 OA
ATOM     51  H   UNL     1      30.516 -19.107  32.545  1.00  0.00     0.293 HD
ENDBRANCH  37  50
ENDBRANCH  26  27
ENDBRANCH   5  26
BRANCH   4  52
ATOM     52  O   UNL     1      19.722 -17.212  28.406  1.00  0.00    -0.384 OA
ATOM     53  H   UNL     1      19.036 -17.155  29.120  1.00  0.00     0.211 HD
ENDBRANCH   4  52
TORSDOF 16
ENDMDL
MODEL 3
REMARK VINA RESULT:    -8.066      2.453      8.707
REMARK INTER + INTRA:         -16.255
REMARK INTER:                 -13.848
REMARK INTRA:                  -2.407
REMARK UNBOUND:                -3.002
REMARK SMILES C[C@H]1O[C@H](OC[C@@H]2O[C@H](Oc3c(-c4ccc(O)c(O)c4)oc4cc(O)cc(O)c4c3=O)[C@@H](O)[C@H](O)[C@@H]2O)[C@H](O)[C@@H](O)[C@@H]1O
REMARK SMILES IDX 7 1 36 2 34 3 32 4 9 5 8 6 6 7 5 8 4 9 1 10 2 11 42 12 3 13
REMARK SMILES IDX 40 14 38 15 43 16 41 18 39 20 37 22 35 24 10 26 11 27 12 28
REMARK SMILES IDX 30 29 21 30 29 31 31 32 22 33 27 34 23 35 26 36 24 37 13 38
REMARK SMILES IDX 20 39 14 40 18 41 15 42 16 43 19 44 17 46 28 48 25 50 33 52
REMARK H PARENT 43 17 41 19 39 21 37 23 35 25 19 45 17 47 28 49 25 51 33 53
REMARK Flexibility Score: inf
ROOT
ATOM      1  C   UNL     1      24.228 -24.478  26.116  1.00  0.00     0.180 C 
ATOM      2  C   UNL     1      23.250 -24.227  24.927  1.00  0.00     0.177 C 
ATOM      3  C   UNL     1      22.815 -22.736  24.869  1.00  0.00     0.180 C 
ATOM      4  C   UNL     1      23.940 -21.817  25.388  1.00  0.00     0.214 C 
ATOM      5  C   UNL     1      24.430 -22.270  26.805  1.00  0.00     0.339 C 
ATOM      6  O   UNL     1      23.936 -23.554  27.158  1.00  0.00    -0.332 OA
ENDROOT
BRANCH   1   7
ATOM      7  C   UNL     1      24.233 -25.942  26.656  1.00  0.00     0.198 C 
BRANCH   7   8
ATOM      8  O   UNL     1      23.473 -26.074  27.850  1.00  0.00    -0.347 OA
BRANCH   8   9
ATOM      9  C   UNL     1      24.190 -26.760  28.870  1.00  0.00     0.281 C 
ATOM     10  C   UNL     1      25.821 -28.803  30.307  1.00  0.00     0.041 C 
ATOM     11  C   UNL     1      26.133 -28.151  28.939  1.00  0.00     0.150 C 
ATOM     12  C   UNL     1      27.147 -26.973  29.022  1.00  0.00     0.174 C 
ATOM     13  O   UNL     1      24.974 -27.763  28.234  1.00  0.00    -0.344 OA
ATOM     14  C   UNL     1      26.447 -25.588  29.140  1.00  0.00     0.179 C 
ATOM     15  C   UNL     1      25.015 -25.725  29.681  1.00  0.00     0.202 C 
BRANCH  12  16
ATOM     16  O   UNL     1      28.004 -26.978  27.899  1.00  0.00    -0.388 OA
ATOM     17  H   UNL     1      28.438 -27.876  27.860  1.00  0.00     0.211 HD
ENDBRANCH  12  16
BRANCH  14  18
ATOM     18  O   UNL     1      27.203 -24.775  30.009  1.00  0.00    -0.387 OA
ATOM     19  H   UNL     1      27.559 -24.020  29.469  1.00  0.00     0.211 HD
ENDBRANCH  14  18
BRANCH  15  20
ATOM     20  O   UNL     1      24.373 -24.471  29.653  1.00  0.00    -0.385 OA
ATOM     21  H   UNL     1      24.727 -23.947  30.421  1.00  0.00     0.211 HD
ENDBRANCH  15  20
ENDBRANCH   8   9
ENDBRANCH   7   8
ENDBRANCH   1   7
BRANCH   2  22
ATOM     22  O   UNL     1      22.121 -25.067  24.947  1.00  0.00    -0.387 OA
ATOM     23  H   UNL     1      22.263 -25.767  25.645  1.00  0.00     0.211 HD
ENDBRANCH   2  22
BRANCH   3  24
ATOM     24  O   UNL     1      21.665 -22.517  25.644  1.00  0.00    -0.387 OA
ATOM     25  H   UNL     1      21.720 -23.118  26.431  1.00  0.00     0.211 HD
ENDBRANCH   3  24
BRANCH   5  26
ATOM     26  O   UNL     1      24.006 -21.324  27.795  1.00  0.00    -0.454 OA
BRANCH  26  27
ATOM     27  C   UNL     1      24.812 -20.765  28.811  1.00  0.00     0.214 A 
ATOM     28  C   UNL     1      24.363 -19.598  29.457  1.00  0.00     0.180 A 
ATOM     29  C   UNL     1      26.072 -21.287  29.196  1.00  0.00     0.239 A 
ATOM     30  O   UNL     1      25.143 -18.968  30.324  1.00  0.00    -0.452 OA
ATOM     31  C   UNL     1      26.844 -20.637  30.181  1.00  0.00     0.111 A 
ATOM     32  O   UNL     1      26.510 -22.327  28.637  1.00  0.00    -0.285 OA
ATOM     33  C   UNL     1      26.339 -19.415  30.688  1.00  0.00     0.146 A 
ATOM     34  C   UNL     1      28.110 -21.098  30.653  1.00  0.00     0.134 A 
ATOM     35  C   UNL     1      27.091 -18.650  31.585  1.00  0.00     0.094 A 
ATOM     36  C   UNL     1      28.853 -20.300  31.524  1.00  0.00     0.093 A 
ATOM     37  C   UNL     1      28.356 -19.083  31.990  1.00  0.00     0.123 A 
BRANCH  28  38
ATOM     38  C   UNL     1      23.042 -19.010  29.168  1.00  0.00     0.025 A 
ATOM     39  C   UNL     1      22.925 -18.040  28.160  1.00  0.00     0.062 A 
ATOM     40  C   UNL     1      21.920 -19.338  29.945  1.00  0.00     0.016 A 
ATOM     41  C   UNL     1      21.695 -17.410  27.917  1.00  0.00     0.158 A 
ATOM     42  C   UNL     1      20.697 -18.706  29.715  1.00  0.00     0.051 A 
ATOM     43  C   UNL     1      20.579 -17.741  28.700  1.00  0.00     0.157 A 
BRANCH  41  44
ATOM     44  O   UNL     1      21.570 -16.459  26.910  1.00  0.00    -0.504 OA
ATOM     45  H   UNL     1      21.806 -16.674  25.947  1.00  0.00     0.293 HD
ENDBRANCH  41  44
BRANCH  43  46
ATOM     46  O   UNL     1      19.365 -17.097  28.469  1.00  0.00    -0.504 OA
ATOM     47  H   UNL     1      18.949 -16.475  29.153  1.00  0.00     0.293 HD
ENDBRANCH  43  46
ENDBRANCH  28  38
BRANCH  34  48
ATOM     48  O   UNL     1      28.665 -22.337  30.310  1.00  0.00    -0.507 OA
ATOM     49  H   UNL     1      28.522 -22.805  29.431  1.00  0.00     0.293 HD
ENDBRANCH  34  48
BRANCH  37  50
ATOM     50  O   UNL     1      29.124 -18.319  32.862  1.00  0.00    -0.508 OA
ATOM     51  H   UNL     1      30.041 -18.619  33.162  1.00  0.00     0.293 HD
ENDBRANCH  37  50
ENDBRANCH  26  27
ENDBRANCH   5  26
BRANCH   4  52
ATOM     52  O   UNL     1      25.021 -21.844  24.486  1.00  0.00    -0.384 OA
ATOM     53  H   UNL     1      25.732 -21.262  24.859  1.00  0.00     0.211 HD
ENDBRANCH   4  52
TORSDOF 16
ENDMDL
MODEL 4
REMARK VINA RESULT:    -8.055      2.447      5.888
REMARK INTER + INTRA:         -16.238
REMARK INTER:                 -12.926
REMARK INTRA:                  -3.311
REMARK UNBOUND:                -3.002
REMARK SMILES C[C@H]1O[C@H](OC[C@@H]2O[C@H](Oc3c(-c4ccc(O)c(O)c4)oc4cc(O)cc(O)c4c3=O)[C@@H](O)[C@H](O)[C@@H]2O)[C@H](O)[C@@H](O)[C@@H]1O
REMARK SMILES IDX 7 1 36 2 34 3 32 4 9 5 8 6 6 7 5 8 4 9 1 10 2 11 42 12 3 13
REMARK SMILES IDX 40 14 38 15 43 16 41 18 39 20 37 22 35 24 10 26 11 27 12 28
REMARK SMILES IDX 30 29 21 30 29 31 31 32 22 33 27 34 23 35 26 36 24 37 13 38
REMARK SMILES IDX 20 39 14 40 18 41 15 42 16 43 19 44 17 46 28 48 25 50 33 52
REMARK H PARENT 43 17 41 19 39 21 37 23 35 25 19 45 17 47 28 49 25 51 33 53
REMARK Flexibility Score: inf
ROOT
ATOM      1  C   UNL     1      22.595 -23.555  26.438  1.00  0.00     0.180 C 
ATOM      2  C   UNL     1      22.789 -24.631  25.325  1.00  0.00     0.177 C 
ATOM      3  C   UNL     1      23.750 -25.757  25.801  1.00  0.00     0.180 C 
ATOM      4  C   UNL     1      23.630 -25.972  27.323  1.00  0.00     0.214 C 
ATOM      5  C   UNL     1      23.815 -24.624  28.100  1.00  0.00     0.339 C 
ATOM      6  O   UNL     1      23.772 -23.498  27.236  1.00  0.00    -0.332 OA
ENDROOT
BRANCH   1   7
ATOM      7  C   UNL     1      22.209 -22.138  25.912  1.00  0.00     0.198 C 
BRANCH   7   8
ATOM      8  O   UNL     1      23.352 -21.326  25.678  1.00  0.00    -0.347 OA
BRANCH   8   9
ATOM      9  C   UNL     1      23.151 -19.980  26.096  1.00  0.00     0.281 C 
ATOM     10  C   UNL     1      21.905 -17.520  27.232  1.00  0.00     0.041 C 
ATOM     11  C   UNL     1      21.985 -18.917  27.892  1.00  0.00     0.150 C 
ATOM     12  C   UNL     1      23.145 -19.061  28.919  1.00  0.00     0.174 C 
ATOM     13  O   UNL     1      22.014 -19.970  26.954  1.00  0.00    -0.344 OA
ATOM     14  C   UNL     1      24.434 -19.661  28.285  1.00  0.00     0.179 C 
ATOM     15  C   UNL     1      24.455 -19.466  26.761  1.00  0.00     0.202 C 
BRANCH  12  16
ATOM     16  O   UNL     1      22.741 -19.854  30.015  1.00  0.00    -0.388 OA
ATOM     17  H   UNL     1      22.227 -19.265  30.635  1.00  0.00     0.211 HD
ENDBRANCH  12  16
BRANCH  14  18
ATOM     18  O   UNL     1      25.554 -19.024  28.857  1.00  0.00    -0.387 OA
ATOM     19  H   UNL     1      26.209 -19.735  29.089  1.00  0.00     0.211 HD
ENDBRANCH  14  18
BRANCH  15  20
ATOM     20  O   UNL     1      25.569 -20.131  26.211  1.00  0.00    -0.385 OA
ATOM     21  H   UNL     1      25.248 -21.010  25.876  1.00  0.00     0.211 HD
ENDBRANCH  15  20
ENDBRANCH   8   9
ENDBRANCH   7   8
ENDBRANCH   1   7
BRANCH   2  22
ATOM     22  O   UNL     1      23.231 -24.094  24.102  1.00  0.00    -0.387 OA
ATOM     23  H   UNL     1      23.321 -23.104  24.208  1.00  0.00     0.211 HD
ENDBRANCH   2  22
BRANCH   3  24
ATOM     24  O   UNL     1      25.083 -25.442  25.496  1.00  0.00    -0.387 OA
ATOM     25  H   UNL     1      25.515 -25.141  26.337  1.00  0.00     0.211 HD
ENDBRANCH   3  24
BRANCH   5  26
ATOM     26  O   UNL     1      25.069 -24.627  28.793  1.00  0.00    -0.454 OA
BRANCH  26  27
ATOM     27  C   UNL     1      25.691 -23.510  29.393  1.00  0.00     0.214 A 
ATOM     28  C   UNL     1      26.975 -23.139  28.951  1.00  0.00     0.180 A 
ATOM     29  C   UNL     1      25.116 -22.758  30.448  1.00  0.00     0.239 A 
ATOM     30  O   UNL     1      27.648 -22.180  29.571  1.00  0.00    -0.452 OA
ATOM     31  C   UNL     1      25.827 -21.690  31.034  1.00  0.00     0.111 A 
ATOM     32  O   UNL     1      23.971 -23.063  30.874  1.00  0.00    -0.285 OA
ATOM     33  C   UNL     1      27.149 -21.474  30.578  1.00  0.00     0.146 A 
ATOM     34  C   UNL     1      25.323 -20.860  32.081  1.00  0.00     0.134 A 
ATOM     35  C   UNL     1      27.963 -20.509  31.181  1.00  0.00     0.094 A 
ATOM     36  C   UNL     1      26.167 -19.927  32.685  1.00  0.00     0.093 A 
ATOM     37  C   UNL     1      27.478 -19.746  32.246  1.00  0.00     0.123 A 
BRANCH  28  38
ATOM     38  C   UNL     1      27.635 -23.823  27.822  1.00  0.00     0.025 A 
ATOM     39  C   UNL     1      27.613 -23.230  26.550  1.00  0.00     0.062 A 
ATOM     40  C   UNL     1      28.202 -25.097  27.983  1.00  0.00     0.016 A 
ATOM     41  C   UNL     1      28.166 -23.896  25.445  1.00  0.00     0.158 A 
ATOM     42  C   UNL     1      28.743 -25.768  26.884  1.00  0.00     0.051 A 
ATOM     43  C   UNL     1      28.729 -25.170  25.613  1.00  0.00     0.157 A 
BRANCH  41  44
ATOM     44  O   UNL     1      28.161 -23.308  24.185  1.00  0.00    -0.504 OA
ATOM     45  H   UNL     1      27.564 -22.515  23.974  1.00  0.00     0.293 HD
ENDBRANCH  41  44
BRANCH  43  46
ATOM     46  O   UNL     1      29.257 -25.836  24.509  1.00  0.00    -0.504 OA
ATOM     47  H   UNL     1      28.978 -25.609  23.561  1.00  0.00     0.293 HD
ENDBRANCH  43  46
ENDBRANCH  28  38
BRANCH  34  48
ATOM     48  O   UNL     1      24.003 -20.905  32.543  1.00  0.00    -0.507 OA
ATOM     49  H   UNL     1      23.665 -21.532  33.254  1.00  0.00     0.293 HD
ENDBRANCH  34  48
BRANCH  37  50
ATOM     50  O   UNL     1      28.285 -18.801  32.871  1.00  0.00    -0.508 OA
ATOM     51  H   UNL     1      28.784 -18.099  32.343  1.00  0.00     0.293 HD
ENDBRANCH  37  50
ENDBRANCH  26  27
ENDBRANCH   5  26
BRANCH   4  52
ATOM     52  O   UNL     1      22.367 -26.517  27.622  1.00  0.00    -0.384 OA
ATOM     53  H   UNL     1      22.172 -26.309  28.572  1.00  0.00     0.211 HD
ENDBRANCH   4  52
TORSDOF 16
ENDMDL
MODEL 5
REMARK VINA RESULT:    -8.027      2.760      6.341
REMARK INTER + INTRA:         -16.190
REMARK INTER:                 -14.484
REMARK INTRA:                  -1.706
REMARK UNBOUND:                -3.002
REMARK SMILES C[C@H]1O[C@H](OC[C@@H]2O[C@H](Oc3c(-c4ccc(O)c(O)c4)oc4cc(O)cc(O)c4c3=O)[C@@H](O)[C@H](O)[C@@H]2O)[C@H](O)[C@@H](O)[C@@H]1O
REMARK SMILES IDX 7 1 36 2 34 3 32 4 9 5 8 6 6 7 5 8 4 9 1 10 2 11 42 12 3 13
REMARK SMILES IDX 40 14 38 15 43 16 41 18 39 20 37 22 35 24 10 26 11 27 12 28
REMARK SMILES IDX 30 29 21 30 29 31 31 32 22 33 27 34 23 35 26 36 24 37 13 38
REMARK SMILES IDX 20 39 14 40 18 41 15 42 16 43 19 44 17 46 28 48 25 50 33 52
REMARK H PARENT 43 17 41 19 39 21 37 23 35 25 19 45 17 47 28 49 25 51 33 53
REMARK Flexibility Score: inf
ROOT
ATOM      1  C   UNL     1      24.760 -19.677  26.908  1.00  0.00     0.180 C 
ATOM      2  C   UNL     1      24.664 -19.941  25.373  1.00  0.00     0.177 C 
ATOM      3  C   UNL     1      25.121 -21.387  25.028  1.00  0.00     0.180 C 
ATOM      4  C   UNL     1      24.796 -22.354  26.183  1.00  0.00     0.214 C 
ATOM      5  C   UNL     1      25.372 -21.826  27.541  1.00  0.00     0.339 C 
ATOM      6  O   UNL     1      25.805 -20.476  27.451  1.00  0.00    -0.332 OA
ENDROOT
BRANCH   1   7
ATOM      7  C   UNL     1      24.945 -18.178  27.299  1.00  0.00     0.198 C 
BRANCH   7   8
ATOM      8  O   UNL     1      23.701 -17.528  27.525  1.00  0.00    -0.347 OA
BRANCH   8   9
ATOM      9  C   UNL     1      23.155 -17.840  28.803  1.00  0.00     0.281 C 
ATOM     10  C   UNL     1      22.458 -17.700  31.699  1.00  0.00     0.041 C 
ATOM     11  C   UNL     1      22.327 -16.570  30.651  1.00  0.00     0.150 C 
ATOM     12  C   UNL     1      20.888 -16.409  30.077  1.00  0.00     0.174 C 
ATOM     13  O   UNL     1      23.271 -16.671  29.607  1.00  0.00    -0.344 OA
ATOM     14  C   UNL     1      20.680 -17.199  28.753  1.00  0.00     0.179 C 
ATOM     15  C   UNL     1      21.700 -18.341  28.612  1.00  0.00     0.202 C 
BRANCH  12  16
ATOM     16  O   UNL     1      20.588 -15.045  29.869  1.00  0.00    -0.388 OA
ATOM     17  H   UNL     1      21.085 -14.752  29.055  1.00  0.00     0.211 HD
ENDBRANCH  12  16
BRANCH  14  18
ATOM     18  O   UNL     1      19.374 -17.730  28.748  1.00  0.00    -0.387 OA
ATOM     19  H   UNL     1      19.366 -18.496  29.382  1.00  0.00     0.211 HD
ENDBRANCH  14  18
BRANCH  15  20
ATOM     20  O   UNL     1      21.561 -18.950  27.350  1.00  0.00    -0.385 OA
ATOM     21  H   UNL     1      22.008 -19.836  27.403  1.00  0.00     0.211 HD
ENDBRANCH  15  20
ENDBRANCH   8   9
ENDBRANCH   7   8
ENDBRANCH   1   7
BRANCH   2  22
ATOM     22  O   UNL     1      25.375 -19.004  24.601  1.00  0.00    -0.387 OA
ATOM     23  H   UNL     1      24.755 -18.628  23.914  1.00  0.00     0.211 HD
ENDBRANCH   2  22
BRANCH   3  24
ATOM     24  O   UNL     1      26.502 -21.431  24.781  1.00  0.00    -0.387 OA
ATOM     25  H   UNL     1      26.938 -20.813  25.423  1.00  0.00     0.211 HD
ENDBRANCH   3  24
BRANCH   5  26
ATOM     26  O   UNL     1      26.477 -22.639  27.955  1.00  0.00    -0.454 OA
BRANCH  26  27
ATOM     27  C   UNL     1      26.407 -23.779  28.785  1.00  0.00     0.214 A 
ATOM     28  C   UNL     1      26.796 -23.653  30.132  1.00  0.00     0.180 A 
ATOM     29  C   UNL     1      26.006 -25.061  28.332  1.00  0.00     0.239 A 
ATOM     30  O   UNL     1      26.869 -24.722  30.912  1.00  0.00    -0.452 OA
ATOM     31  C   UNL     1      26.018 -26.164  29.211  1.00  0.00     0.111 A 
ATOM     32  O   UNL     1      25.656 -25.213  27.132  1.00  0.00    -0.285 OA
ATOM     33  C   UNL     1      26.525 -25.941  30.513  1.00  0.00     0.146 A 
ATOM     34  C   UNL     1      25.608 -27.485  28.857  1.00  0.00     0.134 A 
ATOM     35  C   UNL     1      26.676 -27.003  31.412  1.00  0.00     0.094 A 
ATOM     36  C   UNL     1      25.799 -28.531  29.761  1.00  0.00     0.093 A 
ATOM     37  C   UNL     1      26.330 -28.301  31.030  1.00  0.00     0.123 A 
BRANCH  28  38
ATOM     38  C   UNL     1      27.176 -22.352  30.712  1.00  0.00     0.025 A 
ATOM     39  C   UNL     1      28.523 -21.956  30.694  1.00  0.00     0.062 A 
ATOM     40  C   UNL     1      26.227 -21.546  31.362  1.00  0.00     0.016 A 
ATOM     41  C   UNL     1      28.921 -20.758  31.307  1.00  0.00     0.158 A 
ATOM     42  C   UNL     1      26.621 -20.360  31.983  1.00  0.00     0.051 A 
ATOM     43  C   UNL     1      27.968 -19.960  31.957  1.00  0.00     0.157 A 
BRANCH  41  44
ATOM     44  O   UNL     1      30.252 -20.354  31.279  1.00  0.00    -0.504 OA
ATOM     45  H   UNL     1      30.843 -20.425  32.101  1.00  0.00     0.293 HD
ENDBRANCH  41  44
BRANCH  43  46
ATOM     46  O   UNL     1      28.372 -18.783  32.583  1.00  0.00    -0.504 OA
ATOM     47  H   UNL     1      28.253 -18.636  33.579  1.00  0.00     0.293 HD
ENDBRANCH  43  46
ENDBRANCH  28  38
BRANCH  34  48
ATOM     48  O   UNL     1      24.994 -27.811  27.641  1.00  0.00    -0.507 OA
ATOM     49  H   UNL     1      24.073 -27.513  27.366  1.00  0.00     0.293 HD
ENDBRANCH  34  48
BRANCH  37  50
ATOM     50  O   UNL     1      26.498 -29.369  31.905  1.00  0.00    -0.508 OA
ATOM     51  H   UNL     1      27.044 -29.280  32.750  1.00  0.00     0.293 HD
ENDBRANCH  37  50
ENDBRANCH  26  27
ENDBRANCH   5  26
BRANCH   4  52
ATOM     52  O   UNL     1      23.401 -22.505  26.291  1.00  0.00    -0.384 OA
ATOM     53  H   UNL     1      23.223 -23.449  26.538  1.00  0.00     0.211 HD
ENDBRANCH   4  52
TORSDOF 16
ENDMDL
MODEL 6
REMARK VINA RESULT:    -7.999      3.498      8.703
REMARK INTER + INTRA:         -16.145
REMARK INTER:                 -13.894
REMARK INTRA:                  -2.251
REMARK UNBOUND:                -3.002
REMARK SMILES C[C@H]1O[C@H](OC[C@@H]2O[C@H](Oc3c(-c4ccc(O)c(O)c4)oc4cc(O)cc(O)c4c3=O)[C@@H](O)[C@H](O)[C@@H]2O)[C@H](O)[C@@H](O)[C@@H]1O
REMARK SMILES IDX 7 1 36 2 34 3 32 4 9 5 8 6 6 7 5 8 4 9 1 10 2 11 42 12 3 13
REMARK SMILES IDX 40 14 38 15 43 16 41 18 39 20 37 22 35 24 10 26 11 27 12 28
REMARK SMILES IDX 30 29 21 30 29 31 31 32 22 33 27 34 23 35 26 36 24 37 13 38
REMARK SMILES IDX 20 39 14 40 18 41 15 42 16 43 19 44 17 46 28 48 25 50 33 52
REMARK H PARENT 43 17 41 19 39 21 37 23 35 25 19 45 17 47 28 49 25 51 33 53
REMARK Flexibility Score: inf
ROOT
ATOM      1  C   UNL     1      23.670 -19.833  28.049  1.00  0.00     0.180 C 
ATOM      2  C   UNL     1      22.919 -19.135  26.873  1.00  0.00     0.177 C 
ATOM      3  C   UNL     1      22.914 -17.591  27.055  1.00  0.00     0.180 C 
ATOM      4  C   UNL     1      24.189 -17.121  27.784  1.00  0.00     0.214 C 
ATOM      5  C   UNL     1      24.395 -17.906  29.124  1.00  0.00     0.339 C 
ATOM      6  O   UNL     1      23.539 -19.035  29.221  1.00  0.00    -0.332 OA
ENDROOT
BRANCH   1   7
ATOM      7  C   UNL     1      23.224 -21.303  28.325  1.00  0.00     0.198 C 
BRANCH   7   8
ATOM      8  O   UNL     1      22.894 -21.993  27.127  1.00  0.00    -0.347 OA
BRANCH   8   9
ATOM      9  C   UNL     1      23.612 -23.215  26.995  1.00  0.00     0.281 C 
ATOM     10  C   UNL     1      24.389 -26.086  27.219  1.00  0.00     0.041 C 
ATOM     11  C   UNL     1      23.016 -25.520  26.785  1.00  0.00     0.150 C 
ATOM     12  C   UNL     1      22.815 -25.474  25.242  1.00  0.00     0.174 C 
ATOM     13  O   UNL     1      22.726 -24.267  27.363  1.00  0.00    -0.344 OA
ATOM     14  C   UNL     1      23.196 -24.094  24.630  1.00  0.00     0.179 C 
ATOM     15  C   UNL     1      24.155 -23.318  25.546  1.00  0.00     0.202 C 
BRANCH  12  16
ATOM     16  O   UNL     1      21.480 -25.790  24.906  1.00  0.00    -0.388 OA
ATOM     17  H   UNL     1      20.908 -25.032  25.214  1.00  0.00     0.211 HD
ENDBRANCH  12  16
BRANCH  14  18
ATOM     18  O   UNL     1      23.809 -24.312  23.379  1.00  0.00    -0.387 OA
ATOM     19  H   UNL     1      23.305 -23.778  22.709  1.00  0.00     0.211 HD
ENDBRANCH  14  18
BRANCH  15  20
ATOM     20  O   UNL     1      24.375 -22.029  25.021  1.00  0.00    -0.385 OA
ATOM     21  H   UNL     1      24.794 -22.146  24.128  1.00  0.00     0.211 HD
ENDBRANCH  15  20
ENDBRANCH   8   9
ENDBRANCH   7   8
ENDBRANCH   1   7
BRANCH   2  22
ATOM     22  O   UNL     1      21.608 -19.611  26.689  1.00  0.00    -0.387 OA
ATOM     23  H   UNL     1      21.616 -20.269  25.937  1.00  0.00     0.211 HD
ENDBRANCH   2  22
BRANCH   3  24
ATOM     24  O   UNL     1      21.796 -17.176  27.796  1.00  0.00    -0.387 OA
ATOM     25  H   UNL     1      20.988 -17.462  27.297  1.00  0.00     0.211 HD
ENDBRANCH   3  24
BRANCH   5  26
ATOM     26  O   UNL     1      24.149 -17.042  30.241  1.00  0.00    -0.454 OA
BRANCH  26  27
ATOM     27  C   UNL     1      23.414 -17.370  31.401  1.00  0.00     0.214 A 
ATOM     28  C   UNL     1      24.099 -17.940  32.490  1.00  0.00     0.180 A 
ATOM     29  C   UNL     1      22.012 -17.197  31.522  1.00  0.00     0.239 A 
ATOM     30  O   UNL     1      23.431 -18.380  33.547  1.00  0.00    -0.452 OA
ATOM     31  C   UNL     1      21.342 -17.603  32.694  1.00  0.00     0.111 A 
ATOM     32  O   UNL     1      21.365 -16.695  30.566  1.00  0.00    -0.285 OA
ATOM     33  C   UNL     1      22.116 -18.257  33.682  1.00  0.00     0.146 A 
ATOM     34  C   UNL     1      19.941 -17.446  32.920  1.00  0.00     0.134 A 
ATOM     35  C   UNL     1      21.512 -18.791  34.825  1.00  0.00     0.094 A 
ATOM     36  C   UNL     1      19.359 -18.016  34.054  1.00  0.00     0.093 A 
ATOM     37  C   UNL     1      20.130 -18.686  35.004  1.00  0.00     0.123 A 
BRANCH  28  38
ATOM     38  C   UNL     1      25.564 -18.109  32.483  1.00  0.00     0.025 A 
ATOM     39  C   UNL     1      26.110 -19.374  32.210  1.00  0.00     0.062 A 
ATOM     40  C   UNL     1      26.415 -17.050  32.836  1.00  0.00     0.016 A 
ATOM     41  C   UNL     1      27.497 -19.579  32.272  1.00  0.00     0.158 A 
ATOM     42  C   UNL     1      27.794 -17.252  32.910  1.00  0.00     0.051 A 
ATOM     43  C   UNL     1      28.341 -18.515  32.628  1.00  0.00     0.157 A 
BRANCH  41  44
ATOM     44  O   UNL     1      28.045 -20.825  31.988  1.00  0.00    -0.504 OA
ATOM     45  H   UNL     1      28.470 -21.022  31.088  1.00  0.00     0.293 HD
ENDBRANCH  41  44
BRANCH  43  46
ATOM     46  O   UNL     1      29.715 -18.730  32.710  1.00  0.00    -0.504 OA
ATOM     47  H   UNL     1      30.312 -18.165  33.303  1.00  0.00     0.293 HD
ENDBRANCH  43  46
ENDBRANCH  28  38
BRANCH  34  48
ATOM     48  O   UNL     1      19.090 -16.727  32.072  1.00  0.00    -0.507 OA
ATOM     49  H   UNL     1      18.715 -17.077  31.206  1.00  0.00     0.293 HD
ENDBRANCH  34  48
BRANCH  37  50
ATOM     50  O   UNL     1      19.513 -19.233  36.123  1.00  0.00    -0.508 OA
ATOM     51  H   UNL     1      19.872 -20.063  36.573  1.00  0.00     0.293 HD
ENDBRANCH  37  50
ENDBRANCH  26  27
ENDBRANCH   5  26
BRANCH   4  52
ATOM     52  O   UNL     1      25.305 -17.315  26.948  1.00  0.00    -0.384 OA
ATOM     53  H   UNL     1      26.109 -17.342  27.529  1.00  0.00     0.211 HD
ENDBRANCH   4  52
TORSDOF 16
ENDMDL
MODEL 7
REMARK VINA RESULT:    -7.969      2.290      6.402
REMARK INTER + INTRA:         -16.096
REMARK INTER:                 -13.151
REMARK INTRA:                  -2.946
REMARK UNBOUND:                -3.002
REMARK SMILES C[C@H]1O[C@H](OC[C@@H]2O[C@H](Oc3c(-c4ccc(O)c(O)c4)oc4cc(O)cc(O)c4c3=O)[C@@H](O)[C@H](O)[C@@H]2O)[C@H](O)[C@@H](O)[C@@H]1O
REMARK SMILES IDX 7 1 36 2 34 3 32 4 9 5 8 6 6 7 5 8 4 9 1 10 2 11 42 12 3 13
REMARK SMILES IDX 40 14 38 15 43 16 41 18 39 20 37 22 35 24 10 26 11 27 12 28
REMARK SMILES IDX 30 29 21 30 29 31 31 32 22 33 27 34 23 35 26 36 24 37 13 38
REMARK SMILES IDX 20 39 14 40 18 41 15 42 16 43 19 44 17 46 28 48 25 50 33 52
REMARK H PARENT 43 17 41 19 39 21 37 23 35 25 19 45 17 47 28 49 25 51 33 53
REMARK Flexibility Score: inf
ROOT
ATOM      1  C   UNL     1      24.182 -19.773  27.057  1.00  0.00     0.180 C 
ATOM      2  C   UNL     1      22.682 -19.350  26.996  1.00  0.00     0.177 C 
ATOM      3  C   UNL     1      22.052 -19.332  28.418  1.00  0.00     0.180 C 
ATOM      4  C   UNL     1      23.105 -18.957  29.479  1.00  0.00     0.214 C 
ATOM      5  C   UNL     1      24.369 -19.876  29.369  1.00  0.00     0.339 C 
ATOM      6  O   UNL     1      24.375 -20.638  28.170  1.00  0.00    -0.332 OA
ENDROOT
BRANCH   1   7
ATOM      7  C   UNL     1      24.728 -20.422  25.747  1.00  0.00     0.198 C 
BRANCH   7   8
ATOM      8  O   UNL     1      24.167 -21.707  25.514  1.00  0.00    -0.347 OA
BRANCH   8   9
ATOM      9  C   UNL     1      25.160 -22.726  25.464  1.00  0.00     0.281 C 
ATOM     10  C   UNL     1      26.983 -24.951  26.253  1.00  0.00     0.041 C 
ATOM     11  C   UNL     1      25.459 -24.859  26.501  1.00  0.00     0.150 C 
ATOM     12  C   UNL     1      24.605 -25.642  25.461  1.00  0.00     0.174 C 
ATOM     13  O   UNL     1      24.998 -23.532  26.626  1.00  0.00    -0.344 OA
ATOM     14  C   UNL     1      24.124 -24.744  24.283  1.00  0.00     0.179 C 
ATOM     15  C   UNL     1      25.012 -23.499  24.127  1.00  0.00     0.202 C 
BRANCH  12  16
ATOM     16  O   UNL     1      23.490 -26.241  26.086  1.00  0.00    -0.388 OA
ATOM     17  H   UNL     1      23.829 -26.751  26.874  1.00  0.00     0.211 HD
ENDBRANCH  12  16
BRANCH  14  18
ATOM     18  O   UNL     1      24.163 -25.503  23.096  1.00  0.00    -0.387 OA
ATOM     19  H   UNL     1      23.255 -25.885  22.962  1.00  0.00     0.211 HD
ENDBRANCH  14  18
BRANCH  15  20
ATOM     20  O   UNL     1      24.473 -22.652  23.138  1.00  0.00    -0.385 OA
ATOM     21  H   UNL     1      25.103 -21.891  23.032  1.00  0.00     0.211 HD
ENDBRANCH  15  20
ENDBRANCH   8   9
ENDBRANCH   7   8
ENDBRANCH   1   7
BRANCH   2  22
ATOM     22  O   UNL     1      21.913 -20.147  26.128  1.00  0.00    -0.387 OA
ATOM     23  H   UNL     1      21.535 -20.908  26.653  1.00  0.00     0.211 HD
ENDBRANCH   2  22
BRANCH   3  24
ATOM     24  O   UNL     1      21.513 -20.586  28.744  1.00  0.00    -0.387 OA
ATOM     25  H   UNL     1      22.238 -21.255  28.644  1.00  0.00     0.211 HD
ENDBRANCH   3  24
BRANCH   5  26
ATOM     26  O   UNL     1      24.422 -20.773  30.486  1.00  0.00    -0.454 OA
BRANCH  26  27
ATOM     27  C   UNL     1      24.828 -22.124  30.450  1.00  0.00     0.214 A 
ATOM     28  C   UNL     1      26.157 -22.435  30.796  1.00  0.00     0.180 A 
ATOM     29  C   UNL     1      23.986 -23.191  30.046  1.00  0.00     0.239 A 
ATOM     30  O   UNL     1      26.616 -23.670  30.653  1.00  0.00    -0.452 OA
ATOM     31  C   UNL     1      24.485 -24.509  29.982  1.00  0.00     0.111 A 
ATOM     32  O   UNL     1      22.793 -22.951  29.725  1.00  0.00    -0.285 OA
ATOM     33  C   UNL     1      25.862 -24.687  30.253  1.00  0.00     0.146 A 
ATOM     34  C   UNL     1      23.710 -25.650  29.614  1.00  0.00     0.134 A 
ATOM     35  C   UNL     1      26.462 -25.942  30.105  1.00  0.00     0.094 A 
ATOM     36  C   UNL     1      24.340 -26.884  29.442  1.00  0.00     0.093 A 
ATOM     37  C   UNL     1      25.705 -27.038  29.682  1.00  0.00     0.123 A 
BRANCH  28  38
ATOM     38  C   UNL     1      27.093 -21.405  31.282  1.00  0.00     0.025 A 
ATOM     39  C   UNL     1      28.385 -21.337  30.737  1.00  0.00     0.062 A 
ATOM     40  C   UNL     1      26.743 -20.554  32.342  1.00  0.00     0.016 A 
ATOM     41  C   UNL     1      29.320 -20.416  31.236  1.00  0.00     0.158 A 
ATOM     42  C   UNL     1      27.674 -19.645  32.849  1.00  0.00     0.051 A 
ATOM     43  C   UNL     1      28.964 -19.571  32.297  1.00  0.00     0.157 A 
BRANCH  41  44
ATOM     44  O   UNL     1      30.597 -20.333  30.691  1.00  0.00    -0.504 OA
ATOM     45  H   UNL     1      30.886 -20.936  29.928  1.00  0.00     0.293 HD
ENDBRANCH  41  44
BRANCH  43  46
ATOM     46  O   UNL     1      29.903 -18.674  32.803  1.00  0.00    -0.504 OA
ATOM     47  H   UNL     1      30.419 -18.860  33.656  1.00  0.00     0.293 HD
ENDBRANCH  43  46
ENDBRANCH  28  38
BRANCH  34  48
ATOM     48  O   UNL     1      22.323 -25.623  29.425  1.00  0.00    -0.507 OA
ATOM     49  H   UNL     1      21.644 -25.603  30.168  1.00  0.00     0.293 HD
ENDBRANCH  34  48
BRANCH  37  50
ATOM     50  O   UNL     1      26.294 -28.285  29.507  1.00  0.00    -0.508 OA
ATOM     51  H   UNL     1      26.597 -28.843  30.292  1.00  0.00     0.293 HD
ENDBRANCH  37  50
ENDBRANCH  26  27
ENDBRANCH   5  26
BRANCH   4  52
ATOM     52  O   UNL     1      23.485 -17.612  29.309  1.00  0.00    -0.384 OA
ATOM     53  H   UNL     1      23.517 -17.435  28.333  1.00  0.00     0.211 HD
ENDBRANCH   4  52
TORSDOF 16
ENDMDL
MODEL 8
REMARK VINA RESULT:    -7.946      1.774      6.568
REMARK INTER + INTRA:         -16.059
REMARK INTER:                 -12.871
REMARK INTRA:                  -3.187
REMARK UNBOUND:                -3.002
REMARK SMILES C[C@H]1O[C@H](OC[C@@H]2O[C@H](Oc3c(-c4ccc(O)c(O)c4)oc4cc(O)cc(O)c4c3=O)[C@@H](O)[C@H](O)[C@@H]2O)[C@H](O)[C@@H](O)[C@@H]1O
REMARK SMILES IDX 7 1 36 2 34 3 32 4 9 5 8 6 6 7 5 8 4 9 1 10 2 11 42 12 3 13
REMARK SMILES IDX 40 14 38 15 43 16 41 18 39 20 37 22 35 24 10 26 11 27 12 28
REMARK SMILES IDX 30 29 21 30 29 31 31 32 22 33 27 34 23 35 26 36 24 37 13 38
REMARK SMILES IDX 20 39 14 40 18 41 15 42 16 43 19 44 17 46 28 48 25 50 33 52
REMARK H PARENT 43 17 41 19 39 21 37 23 35 25 19 45 17 47 28 49 25 51 33 53
REMARK Flexibility Score: inf
ROOT
ATOM      1  C   UNL     1      22.665 -23.513  26.253  1.00  0.00     0.180 C 
ATOM      2  C   UNL     1      22.912 -24.546  25.111  1.00  0.00     0.177 C 
ATOM      3  C   UNL     1      23.852 -25.689  25.588  1.00  0.00     0.180 C 
ATOM      4  C   UNL     1      23.663 -25.960  27.094  1.00  0.00     0.214 C 
ATOM      5  C   UNL     1      23.810 -24.643  27.928  1.00  0.00     0.339 C 
ATOM      6  O   UNL     1      23.805 -23.484  27.106  1.00  0.00    -0.332 OA
ENDROOT
BRANCH   1   7
ATOM      7  C   UNL     1      22.301 -22.076  25.764  1.00  0.00     0.198 C 
BRANCH   7   8
ATOM      8  O   UNL     1      23.456 -21.275  25.553  1.00  0.00    -0.347 OA
BRANCH   8   9
ATOM      9  C   UNL     1      23.343 -19.996  26.168  1.00  0.00     0.281 C 
ATOM     10  C   UNL     1      22.204 -17.462  27.253  1.00  0.00     0.041 C 
ATOM     11  C   UNL     1      21.704 -18.901  27.520  1.00  0.00     0.150 C 
ATOM     12  C   UNL     1      22.208 -19.502  28.865  1.00  0.00     0.174 C 
ATOM     13  O   UNL     1      21.964 -19.785  26.451  1.00  0.00    -0.344 OA
ATOM     14  C   UNL     1      23.503 -20.347  28.696  1.00  0.00     0.179 C 
ATOM     15  C   UNL     1      24.263 -19.962  27.416  1.00  0.00     0.202 C 
BRANCH  12  16
ATOM     16  O   UNL     1      21.200 -20.291  29.463  1.00  0.00    -0.388 OA
ATOM     17  H   UNL     1      20.325 -19.857  29.264  1.00  0.00     0.211 HD
ENDBRANCH  12  16
BRANCH  14  18
ATOM     18  O   UNL     1      24.330 -20.132  29.818  1.00  0.00    -0.387 OA
ATOM     19  H   UNL     1      24.019 -20.748  30.533  1.00  0.00     0.211 HD
ENDBRANCH  14  18
BRANCH  15  20
ATOM     20  O   UNL     1      25.357 -20.831  27.233  1.00  0.00    -0.385 OA
ATOM     21  H   UNL     1      25.875 -20.829  28.081  1.00  0.00     0.211 HD
ENDBRANCH  15  20
ENDBRANCH   8   9
ENDBRANCH   7   8
ENDBRANCH   1   7
BRANCH   2  22
ATOM     22  O   UNL     1      23.408 -23.963  23.930  1.00  0.00    -0.387 OA
ATOM     23  H   UNL     1      22.854 -24.284  23.164  1.00  0.00     0.211 HD
ENDBRANCH   2  22
BRANCH   3  24
ATOM     24  O   UNL     1      25.197 -25.362  25.357  1.00  0.00    -0.387 OA
ATOM     25  H   UNL     1      25.708 -26.212  25.330  1.00  0.00     0.211 HD
ENDBRANCH   3  24
BRANCH   5  26
ATOM     26  O   UNL     1      25.031 -24.671  28.678  1.00  0.00    -0.454 OA
BRANCH  26  27
ATOM     27  C   UNL     1      25.356 -25.581  29.707  1.00  0.00     0.214 A 
ATOM     28  C   UNL     1      24.600 -25.548  30.894  1.00  0.00     0.180 A 
ATOM     29  C   UNL     1      26.428 -26.505  29.635  1.00  0.00     0.239 A 
ATOM     30  O   UNL     1      24.949 -26.293  31.934  1.00  0.00    -0.452 OA
ATOM     31  C   UNL     1      26.724 -27.342  30.730  1.00  0.00     0.111 A 
ATOM     32  O   UNL     1      27.129 -26.560  28.591  1.00  0.00    -0.285 OA
ATOM     33  C   UNL     1      25.964 -27.150  31.908  1.00  0.00     0.146 A 
ATOM     34  C   UNL     1      27.764 -28.320  30.743  1.00  0.00     0.134 A 
ATOM     35  C   UNL     1      26.264 -27.860  33.076  1.00  0.00     0.094 A 
ATOM     36  C   UNL     1      28.063 -28.991  31.930  1.00  0.00     0.093 A 
ATOM     37  C   UNL     1      27.325 -28.768  33.092  1.00  0.00     0.123 A 
BRANCH  28  38
ATOM     38  C   UNL     1      23.431 -24.662  31.046  1.00  0.00     0.025 A 
ATOM     39  C   UNL     1      23.623 -23.330  31.447  1.00  0.00     0.062 A 
ATOM     40  C   UNL     1      22.126 -25.155  30.885  1.00  0.00     0.016 A 
ATOM     41  C   UNL     1      22.523 -22.489  31.672  1.00  0.00     0.158 A 
ATOM     42  C   UNL     1      21.029 -24.325  31.119  1.00  0.00     0.051 A 
ATOM     43  C   UNL     1      21.222 -22.989  31.512  1.00  0.00     0.157 A 
BRANCH  41  44
ATOM     44  O   UNL     1      22.707 -21.164  32.055  1.00  0.00    -0.504 OA
ATOM     45  H   UNL     1      23.613 -20.823  32.357  1.00  0.00     0.293 HD
ENDBRANCH  41  44
BRANCH  43  46
ATOM     46  O   UNL     1      20.133 -22.157  31.758  1.00  0.00    -0.504 OA
ATOM     47  H   UNL     1      20.152 -21.167  31.539  1.00  0.00     0.293 HD
ENDBRANCH  43  46
ENDBRANCH  28  38
BRANCH  34  48
ATOM     48  O   UNL     1      28.513 -28.677  29.616  1.00  0.00    -0.507 OA
ATOM     49  H   UNL     1      29.481 -28.439  29.472  1.00  0.00     0.293 HD
ENDBRANCH  34  48
BRANCH  37  50
ATOM     50  O   UNL     1      27.650 -29.462  34.253  1.00  0.00    -0.508 OA
ATOM     51  H   UNL     1      27.684 -30.471  34.275  1.00  0.00     0.293 HD
ENDBRANCH  37  50
ENDBRANCH  26  27
ENDBRANCH   5  26
BRANCH   4  52
ATOM     52  O   UNL     1      22.389 -26.516  27.314  1.00  0.00    -0.384 OA
ATOM     53  H   UNL     1      22.429 -27.020  28.167  1.00  0.00     0.211 HD
ENDBRANCH   4  52
TORSDOF 16
ENDMDL
MODEL 9
REMARK VINA RESULT:    -7.889      6.871     11.265
REMARK INTER + INTRA:         -15.965
REMARK INTER:                 -13.167
REMARK INTRA:                  -2.798
REMARK UNBOUND:                -3.002
REMARK SMILES C[C@H]1O[C@H](OC[C@@H]2O[C@H](Oc3c(-c4ccc(O)c(O)c4)oc4cc(O)cc(O)c4c3=O)[C@@H](O)[C@H](O)[C@@H]2O)[C@H](O)[C@@H](O)[C@@H]1O
REMARK SMILES IDX 7 1 36 2 34 3 32 4 9 5 8 6 6 7 5 8 4 9 1 10 2 11 42 12 3 13
REMARK SMILES IDX 40 14 38 15 43 16 41 18 39 20 37 22 35 24 10 26 11 27 12 28
REMARK SMILES IDX 30 29 21 30 29 31 31 32 22 33 27 34 23 35 26 36 24 37 13 38
REMARK SMILES IDX 20 39 14 40 18 41 15 42 16 43 19 44 17 46 28 48 25 50 33 52
REMARK H PARENT 43 17 41 19 39 21 37 23 35 25 19 45 17 47 28 49 25 51 33 53
REMARK Flexibility Score: inf
ROOT
ATOM      1  C   UNL     1      23.776 -29.264  38.737  1.00  0.00     0.180 C 
ATOM      2  C   UNL     1      24.592 -30.366  39.480  1.00  0.00     0.177 C 
ATOM      3  C   UNL     1      26.063 -29.914  39.702  1.00  0.00     0.180 C 
ATOM      4  C   UNL     1      26.145 -28.384  39.880  1.00  0.00     0.214 C 
ATOM      5  C   UNL     1      25.435 -27.640  38.699  1.00  0.00     0.339 C 
ATOM      6  O   UNL     1      24.656 -28.520  37.902  1.00  0.00    -0.332 OA
ENDROOT
BRANCH   1   7
ATOM      7  C   UNL     1      22.554 -29.797  37.925  1.00  0.00     0.198 C 
BRANCH   7   8
ATOM      8  O   UNL     1      22.949 -30.692  36.894  1.00  0.00    -0.347 OA
BRANCH   8   9
ATOM      9  C   UNL     1      21.884 -30.980  35.995  1.00  0.00     0.281 C 
ATOM     10  C   UNL     1      20.015 -30.842  33.674  1.00  0.00     0.041 C 
ATOM     11  C   UNL     1      21.561 -30.808  33.632  1.00  0.00     0.150 C 
ATOM     12  C   UNL     1      22.211 -32.183  33.301  1.00  0.00     0.174 C 
ATOM     13  O   UNL     1      22.134 -30.253  34.796  1.00  0.00    -0.344 OA
ATOM     14  C   UNL     1      22.601 -32.984  34.577  1.00  0.00     0.179 C 
ATOM     15  C   UNL     1      21.798 -32.517  35.802  1.00  0.00     0.202 C 
BRANCH  12  16
ATOM     16  O   UNL     1      23.349 -32.009  32.483  1.00  0.00    -0.388 OA
ATOM     17  H   UNL     1      23.277 -32.660  31.730  1.00  0.00     0.211 HD
ENDBRANCH  12  16
BRANCH  14  18
ATOM     18  O   UNL     1      22.351 -34.352  34.343  1.00  0.00    -0.387 OA
ATOM     19  H   UNL     1      21.366 -34.481  34.382  1.00  0.00     0.211 HD
ENDBRANCH  14  18
BRANCH  15  20
ATOM     20  O   UNL     1      22.267 -33.174  36.957  1.00  0.00    -0.385 OA
ATOM     21  H   UNL     1      22.400 -32.478  37.654  1.00  0.00     0.211 HD
ENDBRANCH  15  20
ENDBRANCH   8   9
ENDBRANCH   7   8
ENDBRANCH   1   7
BRANCH   2  22
ATOM     22  O   UNL     1      24.556 -31.617  38.836  1.00  0.00    -0.387 OA
ATOM     23  H   UNL     1      24.668 -32.329  39.527  1.00  0.00     0.211 HD
ENDBRANCH   2  22
BRANCH   3  24
ATOM     24  O   UNL     1      26.871 -30.282  38.615  1.00  0.00    -0.387 OA
ATOM     25  H   UNL     1      26.446 -31.067  38.183  1.00  0.00     0.211 HD
ENDBRANCH   3  24
BRANCH   5  26
ATOM     26  O   UNL     1      26.410 -27.002  37.864  1.00  0.00    -0.454 OA
BRANCH  26  27
ATOM     27  C   UNL     1      26.480 -27.081  36.457  1.00  0.00     0.214 A 
ATOM     28  C   UNL     1      25.761 -26.141  35.696  1.00  0.00     0.180 A 
ATOM     29  C   UNL     1      27.204 -28.080  35.757  1.00  0.00     0.239 A 
ATOM     30  O   UNL     1      25.694 -26.254  34.376  1.00  0.00    -0.452 OA
ATOM     31  C   UNL     1      27.178 -28.125  34.348  1.00  0.00     0.111 A 
ATOM     32  O   UNL     1      27.856 -28.941  36.404  1.00  0.00    -0.285 OA
ATOM     33  C   UNL     1      26.338 -27.193  33.692  1.00  0.00     0.146 A 
ATOM     34  C   UNL     1      27.892 -29.073  33.555  1.00  0.00     0.134 A 
ATOM     35  C   UNL     1      26.168 -27.239  32.304  1.00  0.00     0.094 A 
ATOM     36  C   UNL     1      27.679 -29.118  32.177  1.00  0.00     0.093 A 
ATOM     37  C   UNL     1      26.824 -28.213  31.548  1.00  0.00     0.123 A 
BRANCH  28  38
ATOM     38  C   UNL     1      25.023 -25.031  36.328  1.00  0.00     0.025 A 
ATOM     39  C   UNL     1      25.712 -23.861  36.684  1.00  0.00     0.062 A 
ATOM     40  C   UNL     1      23.666 -25.164  36.661  1.00  0.00     0.016 A 
ATOM     41  C   UNL     1      25.050 -22.822  37.356  1.00  0.00     0.158 A 
ATOM     42  C   UNL     1      23.006 -24.137  37.339  1.00  0.00     0.051 A 
ATOM     43  C   UNL     1      23.694 -22.963  37.688  1.00  0.00     0.157 A 
BRANCH  41  44
ATOM     44  O   UNL     1      25.723 -21.654  37.699  1.00  0.00    -0.504 OA
ATOM     45  H   UNL     1      26.387 -21.221  37.065  1.00  0.00     0.293 HD
ENDBRANCH  41  44
BRANCH  43  46
ATOM     46  O   UNL     1      23.047 -21.937  38.374  1.00  0.00    -0.504 OA
ATOM     47  H   UNL     1      22.301 -22.121  39.035  1.00  0.00     0.293 HD
ENDBRANCH  43  46
ENDBRANCH  28  38
BRANCH  34  48
ATOM     48  O   UNL     1      28.831 -29.973  34.074  1.00  0.00    -0.507 OA
ATOM     49  H   UNL     1      29.798 -29.755  34.249  1.00  0.00     0.293 HD
ENDBRANCH  34  48
BRANCH  37  50
ATOM     50  O   UNL     1      26.644 -28.286  30.170  1.00  0.00    -0.508 OA
ATOM     51  H   UNL     1      27.382 -28.595  29.555  1.00  0.00     0.293 HD
ENDBRANCH  37  50
ENDBRANCH  26  27
ENDBRANCH   5  26
BRANCH   4  52
ATOM     52  O   UNL     1      25.538 -28.021  41.098  1.00  0.00    -0.384 OA
ATOM     53  H   UNL     1      25.874 -27.119  41.338  1.00  0.00     0.211 HD
ENDBRANCH   4  52
TORSDOF 16
ENDMDL
