MODEL 1
REMARK VINA RESULT:     4.753      0.000      0.000
REMARK INTER + INTRA:           4.753
REMARK INTER:                   4.753
REMARK INTRA:                   0.000
REMARK UNBOUND:                 0.000
REMARK SMILES CC1(C)O[C@]2(C)CC[C@H]1CC2
REMARK SMILES IDX 1 1 2 2 9 3 10 4 11 5 5 6 4 7 7 8 8 9 6 10 3 11
REMARK H PARENT
REMARK Flexibility Score: inf
ROOT
ATOM      1  C   UNL     1       3.158 -14.325  15.217  1.00  0.00     0.042 C 
ATOM      2  C   UNL     1       1.778 -13.880  14.686  1.00  0.00     0.066 C 
ATOM      3  C   UNL     1       0.626 -14.381  15.640  1.00  0.00     0.021 C 
ATOM      4  C   UNL     1       0.809 -13.710  17.022  1.00  0.00     0.009 C 
ATOM      5  C   UNL     1       0.944 -12.180  16.830  1.00  0.00     0.035 C 
ATOM      6  C   UNL     1       0.759 -11.818  15.329  1.00  0.00     0.066 C 
ATOM      7  O   UNL     1       1.787 -12.451  14.564  1.00  0.00    -0.369 OA
ATOM      8  C   UNL     1      -0.627 -12.339  14.850  1.00  0.00     0.035 C 
ATOM      9  C   UNL     1      -0.725 -13.865  15.088  1.00  0.00     0.009 C 
ATOM     10  C   UNL     1       0.857 -10.303  15.130  1.00  0.00     0.042 C 
ATOM     11  C   UNL     1       1.616 -14.481  13.272  1.00  0.00     0.042 C 
ENDROOT
TORSDOF 0
ENDMDL
MODEL 2
REMARK VINA RESULT:     4.834      0.836      3.313
REMARK INTER + INTRA:           4.834
REMARK INTER:                   4.834
REMARK INTRA:                   0.000
REMARK UNBOUND:                 0.000
REMARK SMILES CC1(C)O[C@]2(C)CC[C@H]1CC2
REMARK SMILES IDX 1 1 2 2 9 3 10 4 11 5 5 6 4 7 7 8 8 9 6 10 3 11
REMARK H PARENT
REMARK Flexibility Score: inf
ROOT
ATOM      1  C   UNL     1      -1.033 -11.791  14.885  1.00  0.00     0.042 C 
ATOM      2  C   UNL     1       0.470 -12.037  15.137  1.00  0.00     0.066 C 
ATOM      3  C   UNL     1       0.683 -12.915  16.430  1.00  0.00     0.021 C 
ATOM      4  C   UNL     1       0.038 -14.302  16.191  1.00  0.00     0.009 C 
ATOM      5  C   UNL     1       0.564 -14.882  14.856  1.00  0.00     0.035 C 
ATOM      6  C   UNL     1       1.629 -13.926  14.247  1.00  0.00     0.066 C 
ATOM      7  O   UNL     1       1.022 -12.663  13.970  1.00  0.00    -0.369 OA
ATOM      8  C   UNL     1       2.777 -13.725  15.279  1.00  0.00     0.035 C 
ATOM      9  C   UNL     1       2.199 -13.171  16.604  1.00  0.00     0.009 C 
ATOM     10  C   UNL     1       2.182 -14.505  12.942  1.00  0.00     0.042 C 
ATOM     11  C   UNL     1       1.139 -10.654  15.301  1.00  0.00     0.042 C 
ENDROOT
TORSDOF 0
ENDMDL
