MODEL 1
REMARK VINA RESULT:    -4.120      0.000      0.000
REMARK INTER + INTRA:          -9.922
REMARK INTER:                  -7.733
REMARK INTRA:                  -2.190
REMARK UNBOUND:                -2.190
REMARK SMILES CCCCCCCCC=CCCCCCCCC(=O)[O-]
REMARK SMILES IDX 10 1 9 2 11 3 12 4 13 5 14 6 15 7 16 8 17 9 18 10 19 11
REMARK SMILES IDX 20 12 8 13 7 14 6 15 5 16 4 17 3 18 2 19 1 20
REMARK H PARENT
REMARK Flexibility Score: inf
ROOT
ATOM      1  C   UNL     1      -7.589  -0.697  -7.163  1.00  0.00    -0.031 C 
ATOM      2  C   UNL     1      -8.869  -0.439  -6.861  1.00  0.00    -0.031 C 
ENDROOT
BRANCH   1   3
ATOM      3  C   UNL     1      -7.027  -2.083  -7.002  1.00  0.00     0.027 C 
BRANCH   3   4
ATOM      4  C   UNL     1      -8.105  -3.066  -6.524  1.00  0.00     0.004 C 
BRANCH   4   5
ATOM      5  C   UNL     1      -8.003  -4.436  -7.215  1.00  0.00     0.000 C 
BRANCH   5   6
ATOM      6  C   UNL     1      -6.930  -4.463  -8.317  1.00  0.00     0.000 C 
BRANCH   6   7
ATOM      7  C   UNL     1      -5.900  -5.589  -8.120  1.00  0.00     0.000 C 
BRANCH   7   8
ATOM      8  C   UNL     1      -4.448  -5.212  -8.476  1.00  0.00     0.006 C 
BRANCH   8   9
ATOM      9  C   UNL     1      -3.925  -3.950  -7.772  1.00  0.00     0.053 C 
BRANCH   9  10
ATOM     10  C   UNL     1      -2.859  -3.266  -8.570  1.00  0.00     0.041 C 
ATOM     11  O   UNL     1      -2.923  -3.243  -9.827  1.00  0.00    -0.550 OA
ATOM     12  O   UNL     1      -1.775  -2.682  -7.926  1.00  0.00    -0.550 OA
ENDBRANCH   9  10
ENDBRANCH   8   9
ENDBRANCH   7   8
ENDBRANCH   6   7
ENDBRANCH   5   6
ENDBRANCH   4   5
ENDBRANCH   3   4
ENDBRANCH   1   3
BRANCH   2  13
ATOM     13  C   UNL     1      -9.456   0.940  -7.015  1.00  0.00     0.027 C 
BRANCH  13  14
ATOM     14  C   UNL     1     -10.069   1.464  -5.709  1.00  0.00     0.004 C 
BRANCH  14  15
ATOM     15  C   UNL     1      -9.499   2.837  -5.312  1.00  0.00     0.000 C 
BRANCH  15  16
ATOM     16  C   UNL     1      -8.672   2.781  -4.018  1.00  0.00     0.000 C 
BRANCH  16  17
ATOM     17  C   UNL     1      -7.188   2.469  -4.277  1.00  0.00    -0.000 C 
BRANCH  17  18
ATOM     18  C   UNL     1      -6.839   0.997  -4.005  1.00  0.00    -0.000 C 
BRANCH  18  19
ATOM     19  C   UNL     1      -7.732   0.370  -2.923  1.00  0.00    -0.003 C 
ATOM     20  C   UNL     1      -8.168  -1.038  -3.320  1.00  0.00     0.004 C 
ENDBRANCH  18  19
ENDBRANCH  17  18
ENDBRANCH  16  17
ENDBRANCH  15  16
ENDBRANCH  14  15
ENDBRANCH  13  14
ENDBRANCH   2  13
TORSDOF 15
ENDMDL
MODEL 2
REMARK VINA RESULT:    -4.043      1.436      3.308
REMARK INTER + INTRA:          -9.778
REMARK INTER:                  -7.460
REMARK INTRA:                  -2.318
REMARK UNBOUND:                -2.190
REMARK SMILES CCCCCCCCC=CCCCCCCCC(=O)[O-]
REMARK SMILES IDX 10 1 9 2 11 3 12 4 13 5 14 6 15 7 16 8 17 9 18 10 19 11
REMARK SMILES IDX 20 12 8 13 7 14 6 15 5 16 4 17 3 18 2 19 1 20
REMARK H PARENT
REMARK Flexibility Score: inf
ROOT
ATOM      1  C   UNL     1      -8.006  -1.222  -4.100  1.00  0.00    -0.031 C 
ATOM      2  C   UNL     1      -7.964  -0.447  -3.007  1.00  0.00    -0.031 C 
ENDROOT
BRANCH   1   3
ATOM      3  C   UNL     1      -8.761  -2.523  -4.089  1.00  0.00     0.027 C 
BRANCH   3   4
ATOM      4  C   UNL     1     -10.061  -2.417  -4.899  1.00  0.00     0.004 C 
BRANCH   4   5
ATOM      5  C   UNL     1     -10.003  -3.211  -6.214  1.00  0.00     0.000 C 
BRANCH   5   6
ATOM      6  C   UNL     1      -8.746  -4.092  -6.317  1.00  0.00     0.000 C 
BRANCH   6   7
ATOM      7  C   UNL     1      -7.892  -3.770  -7.557  1.00  0.00     0.000 C 
BRANCH   7   8
ATOM      8  C   UNL     1      -6.824  -2.679  -7.346  1.00  0.00     0.006 C 
BRANCH   8   9
ATOM      9  C   UNL     1      -5.708  -2.664  -8.402  1.00  0.00     0.053 C 
BRANCH   9  10
ATOM     10  C   UNL     1      -4.511  -3.450  -7.961  1.00  0.00     0.041 C 
ATOM     11  O   UNL     1      -3.597  -2.894  -7.298  1.00  0.00    -0.550 OA
ATOM     12  O   UNL     1      -4.390  -4.788  -8.313  1.00  0.00    -0.550 OA
ENDBRANCH   9  10
ENDBRANCH   8   9
ENDBRANCH   7   8
ENDBRANCH   6   7
ENDBRANCH   5   6
ENDBRANCH   4   5
ENDBRANCH   3   4
ENDBRANCH   1   3
BRANCH   2  13
ATOM     13  C   UNL     1      -7.216   0.860  -2.993  1.00  0.00     0.027 C 
BRANCH  13  14
ATOM     14  C   UNL     1      -8.153   2.070  -2.870  1.00  0.00     0.004 C 
BRANCH  14  15
ATOM     15  C   UNL     1      -7.968   3.066  -4.028  1.00  0.00     0.000 C 
BRANCH  15  16
ATOM     16  C   UNL     1      -9.225   3.193  -4.904  1.00  0.00     0.000 C 
BRANCH  16  17
ATOM     17  C   UNL     1      -9.845   1.828  -5.252  1.00  0.00    -0.000 C 
BRANCH  17  18
ATOM     18  C   UNL     1      -9.831   1.543  -6.762  1.00  0.00    -0.000 C 
BRANCH  18  19
ATOM     19  C   UNL     1      -8.950   0.339  -7.126  1.00  0.00    -0.003 C 
ATOM     20  C   UNL     1      -8.988   0.064  -8.628  1.00  0.00     0.004 C 
ENDBRANCH  18  19
ENDBRANCH  17  18
ENDBRANCH  16  17
ENDBRANCH  15  16
ENDBRANCH  14  15
ENDBRANCH  13  14
ENDBRANCH   2  13
TORSDOF 15
ENDMDL
MODEL 3
REMARK VINA RESULT:    -3.850      2.975      7.020
REMARK INTER + INTRA:          -9.415
REMARK INTER:                  -7.266
REMARK INTRA:                  -2.149
REMARK UNBOUND:                -2.190
REMARK SMILES CCCCCCCCC=CCCCCCCCC(=O)[O-]
REMARK SMILES IDX 10 1 9 2 11 3 12 4 13 5 14 6 15 7 16 8 17 9 18 10 19 11
REMARK SMILES IDX 20 12 8 13 7 14 6 15 5 16 4 17 3 18 2 19 1 20
REMARK H PARENT
REMARK Flexibility Score: inf
ROOT
ATOM      1  C   UNL     1      -8.825  -2.999  -4.651  1.00  0.00    -0.031 C 
ATOM      2  C   UNL     1      -9.536  -4.095  -4.352  1.00  0.00    -0.031 C 
ENDROOT
BRANCH   1   3
ATOM      3  C   UNL     1      -8.865  -1.791  -3.755  1.00  0.00     0.027 C 
BRANCH   3   4
ATOM      4  C   UNL     1     -10.020  -0.854  -4.139  1.00  0.00     0.004 C 
BRANCH   4   5
ATOM      5  C   UNL     1     -10.064  -0.559  -5.647  1.00  0.00     0.000 C 
BRANCH   5   6
ATOM      6  C   UNL     1      -9.287   0.714  -6.023  1.00  0.00     0.000 C 
BRANCH   6   7
ATOM      7  C   UNL     1      -9.782   1.960  -5.266  1.00  0.00     0.000 C 
BRANCH   7   8
ATOM      8  C   UNL     1      -8.687   2.739  -4.510  1.00  0.00     0.006 C 
BRANCH   8   9
ATOM      9  C   UNL     1      -8.537   2.353  -3.030  1.00  0.00     0.053 C 
BRANCH   9  10
ATOM     10  C   UNL     1      -7.404   1.399  -2.813  1.00  0.00     0.041 C 
ATOM     11  O   UNL     1      -7.067   1.068  -1.646  1.00  0.00    -0.550 OA
ATOM     12  O   UNL     1      -6.697   0.900  -3.900  1.00  0.00    -0.550 OA
ENDBRANCH   9  10
ENDBRANCH   8   9
ENDBRANCH   7   8
ENDBRANCH   6   7
ENDBRANCH   5   6
ENDBRANCH   4   5
ENDBRANCH   3   4
ENDBRANCH   1   3
BRANCH   2  13
ATOM     13  C   UNL     1      -9.512  -5.317  -5.232  1.00  0.00     0.027 C 
BRANCH  13  14
ATOM     14  C   UNL     1      -9.205  -4.978  -6.698  1.00  0.00     0.004 C 
BRANCH  14  15
ATOM     15  C   UNL     1      -7.963  -5.724  -7.216  1.00  0.00     0.000 C 
BRANCH  15  16
ATOM     16  C   UNL     1      -7.014  -4.813  -8.011  1.00  0.00     0.000 C 
BRANCH  16  17
ATOM     17  C   UNL     1      -7.496  -3.352  -8.055  1.00  0.00    -0.000 C 
BRANCH  17  18
ATOM     18  C   UNL     1      -6.490  -2.381  -7.418  1.00  0.00    -0.000 C 
BRANCH  18  19
ATOM     19  C   UNL     1      -6.799  -0.913  -7.748  1.00  0.00    -0.003 C 
ATOM     20  C   UNL     1      -7.463  -0.786  -9.117  1.00  0.00     0.004 C 
ENDBRANCH  18  19
ENDBRANCH  17  18
ENDBRANCH  16  17
ENDBRANCH  15  16
ENDBRANCH  14  15
ENDBRANCH  13  14
ENDBRANCH   2  13
TORSDOF 15
ENDMDL
MODEL 4
REMARK VINA RESULT:    -3.803     13.954     16.221
REMARK INTER + INTRA:          -9.327
REMARK INTER:                  -6.618
REMARK INTRA:                  -2.709
REMARK UNBOUND:                -2.190
REMARK SMILES CCCCCCCCC=CCCCCCCCC(=O)[O-]
REMARK SMILES IDX 10 1 9 2 11 3 12 4 13 5 14 6 15 7 16 8 17 9 18 10 19 11
REMARK SMILES IDX 20 12 8 13 7 14 6 15 5 16 4 17 3 18 2 19 1 20
REMARK H PARENT
REMARK Flexibility Score: inf
ROOT
ATOM      1  C   UNL     1      -2.860   8.095   4.070  1.00  0.00    -0.031 C 
ATOM      2  C   UNL     1      -2.957   6.775   3.863  1.00  0.00    -0.031 C 
ENDROOT
BRANCH   1   3
ATOM      3  C   UNL     1      -2.266   8.995   3.020  1.00  0.00     0.027 C 
BRANCH   3   4
ATOM      4  C   UNL     1      -1.303  10.015   3.645  1.00  0.00     0.004 C 
BRANCH   4   5
ATOM      5  C   UNL     1      -1.094   9.783   5.150  1.00  0.00     0.000 C 
BRANCH   5   6
ATOM      6  C   UNL     1       0.329   9.302   5.482  1.00  0.00     0.000 C 
BRANCH   6   7
ATOM      7  C   UNL     1       0.372   8.353   6.693  1.00  0.00     0.000 C 
BRANCH   7   8
ATOM      8  C   UNL     1      -0.130   6.922   6.415  1.00  0.00     0.006 C 
BRANCH   8   9
ATOM      9  C   UNL     1       0.748   5.810   7.011  1.00  0.00     0.053 C 
BRANCH   9  10
ATOM     10  C   UNL     1       0.389   4.462   6.468  1.00  0.00     0.041 C 
ATOM     11  O   UNL     1      -0.058   4.348   5.297  1.00  0.00    -0.550 OA
ATOM     12  O   UNL     1       0.515   3.334   7.269  1.00  0.00    -0.550 OA
ENDBRANCH   9  10
ENDBRANCH   8   9
ENDBRANCH   7   8
ENDBRANCH   6   7
ENDBRANCH   5   6
ENDBRANCH   4   5
ENDBRANCH   3   4
ENDBRANCH   1   3
BRANCH   2  13
ATOM     13  C   UNL     1      -3.549   5.854   4.897  1.00  0.00     0.027 C 
BRANCH  13  14
ATOM     14  C   UNL     1      -5.062   5.668   4.718  1.00  0.00     0.004 C 
BRANCH  14  15
ATOM     15  C   UNL     1      -5.839   5.958   6.014  1.00  0.00     0.000 C 
BRANCH  15  16
ATOM     16  C   UNL     1      -6.682   7.240   5.922  1.00  0.00     0.000 C 
BRANCH  16  17
ATOM     17  C   UNL     1      -5.834   8.517   6.055  1.00  0.00    -0.000 C 
BRANCH  17  18
ATOM     18  C   UNL     1      -5.328   8.742   7.489  1.00  0.00    -0.000 C 
BRANCH  18  19
ATOM     19  C   UNL     1      -3.795   8.768   7.575  1.00  0.00    -0.003 C 
ATOM     20  C   UNL     1      -3.260   7.500   8.237  1.00  0.00     0.004 C 
ENDBRANCH  18  19
ENDBRANCH  17  18
ENDBRANCH  16  17
ENDBRANCH  15  16
ENDBRANCH  14  15
ENDBRANCH  13  14
ENDBRANCH   2  13
TORSDOF 15
ENDMDL
MODEL 5
REMARK VINA RESULT:    -3.792      1.661      2.512
REMARK INTER + INTRA:          -9.306
REMARK INTER:                  -7.093
REMARK INTRA:                  -2.213
REMARK UNBOUND:                -2.190
REMARK SMILES CCCCCCCCC=CCCCCCCCC(=O)[O-]
REMARK SMILES IDX 10 1 9 2 11 3 12 4 13 5 14 6 15 7 16 8 17 9 18 10 19 11
REMARK SMILES IDX 20 12 8 13 7 14 6 15 5 16 4 17 3 18 2 19 1 20
REMARK H PARENT
REMARK Flexibility Score: inf
ROOT
ATOM      1  C   UNL     1      -8.930  -2.064  -4.686  1.00  0.00    -0.031 C 
ATOM      2  C   UNL     1      -7.940  -1.830  -5.558  1.00  0.00    -0.031 C 
ENDROOT
BRANCH   1   3
ATOM      3  C   UNL     1      -9.035  -3.390  -3.982  1.00  0.00     0.027 C 
BRANCH   3   4
ATOM      4  C   UNL     1      -9.894  -4.377  -4.785  1.00  0.00     0.004 C 
BRANCH   4   5
ATOM      5  C   UNL     1      -9.052  -5.457  -5.485  1.00  0.00     0.000 C 
BRANCH   5   6
ATOM      6  C   UNL     1      -9.030  -5.289  -7.014  1.00  0.00     0.000 C 
BRANCH   6   7
ATOM      7  C   UNL     1      -7.625  -4.980  -7.561  1.00  0.00     0.000 C 
BRANCH   7   8
ATOM      8  C   UNL     1      -7.558  -3.802  -8.554  1.00  0.00     0.006 C 
BRANCH   8   9
ATOM      9  C   UNL     1      -6.184  -3.597  -9.209  1.00  0.00     0.053 C 
BRANCH   9  10
ATOM     10  C   UNL     1      -5.088  -3.502  -8.193  1.00  0.00     0.041 C 
ATOM     11  O   UNL     1      -5.055  -2.538  -7.384  1.00  0.00    -0.550 OA
ATOM     12  O   UNL     1      -4.084  -4.461  -8.162  1.00  0.00    -0.550 OA
ENDBRANCH   9  10
ENDBRANCH   8   9
ENDBRANCH   7   8
ENDBRANCH   6   7
ENDBRANCH   5   6
ENDBRANCH   4   5
ENDBRANCH   3   4
ENDBRANCH   1   3
BRANCH   2  13
ATOM     13  C   UNL     1      -7.813  -0.511  -6.274  1.00  0.00     0.027 C 
BRANCH  13  14
ATOM     14  C   UNL     1      -9.104  -0.115  -7.004  1.00  0.00     0.004 C 
BRANCH  14  15
ATOM     15  C   UNL     1      -9.507   1.342  -6.717  1.00  0.00     0.000 C 
BRANCH  15  16
ATOM     16  C   UNL     1      -9.563   1.654  -5.213  1.00  0.00     0.000 C 
BRANCH  16  17
ATOM     17  C   UNL     1      -8.705   2.872  -4.829  1.00  0.00    -0.000 C 
BRANCH  17  18
ATOM     18  C   UNL     1      -7.387   2.475  -4.147  1.00  0.00    -0.000 C 
BRANCH  18  19
ATOM     19  C   UNL     1      -7.589   2.023  -2.692  1.00  0.00    -0.003 C 
ATOM     20  C   UNL     1      -7.391   0.516  -2.552  1.00  0.00     0.004 C 
ENDBRANCH  18  19
ENDBRANCH  17  18
ENDBRANCH  16  17
ENDBRANCH  15  16
ENDBRANCH  14  15
ENDBRANCH  13  14
ENDBRANCH   2  13
TORSDOF 15
ENDMDL
MODEL 6
REMARK VINA RESULT:    -3.749      1.484      2.707
REMARK INTER + INTRA:          -9.225
REMARK INTER:                  -7.804
REMARK INTRA:                  -1.422
REMARK UNBOUND:                -2.190
REMARK SMILES CCCCCCCCC=CCCCCCCCC(=O)[O-]
REMARK SMILES IDX 10 1 9 2 11 3 12 4 13 5 14 6 15 7 16 8 17 9 18 10 19 11
REMARK SMILES IDX 20 12 8 13 7 14 6 15 5 16 4 17 3 18 2 19 1 20
REMARK H PARENT
REMARK Flexibility Score: inf
ROOT
ATOM      1  C   UNL     1      -9.076  -4.255  -5.071  1.00  0.00    -0.031 C 
ATOM      2  C   UNL     1      -8.654  -2.990  -4.936  1.00  0.00    -0.031 C 
ENDROOT
BRANCH   1   3
ATOM      3  C   UNL     1      -9.070  -4.925  -6.418  1.00  0.00     0.027 C 
BRANCH   3   4
ATOM      4  C   UNL     1      -8.769  -3.918  -7.538  1.00  0.00     0.004 C 
BRANCH   4   5
ATOM      5  C   UNL     1      -7.509  -4.285  -8.339  1.00  0.00     0.000 C 
BRANCH   5   6
ATOM      6  C   UNL     1      -7.377  -5.800  -8.570  1.00  0.00     0.000 C 
BRANCH   6   7
ATOM      7  C   UNL     1      -5.987  -6.343  -8.190  1.00  0.00     0.000 C 
BRANCH   7   8
ATOM      8  C   UNL     1      -4.800  -5.592  -8.828  1.00  0.00     0.006 C 
BRANCH   8   9
ATOM      9  C   UNL     1      -3.733  -5.121  -7.829  1.00  0.00     0.053 C 
BRANCH   9  10
ATOM     10  C   UNL     1      -3.372  -3.682  -8.033  1.00  0.00     0.041 C 
ATOM     11  O   UNL     1      -3.692  -2.819  -7.174  1.00  0.00    -0.550 OA
ATOM     12  O   UNL     1      -2.711  -3.288  -9.190  1.00  0.00    -0.550 OA
ENDBRANCH   9  10
ENDBRANCH   8   9
ENDBRANCH   7   8
ENDBRANCH   6   7
ENDBRANCH   5   6
ENDBRANCH   4   5
ENDBRANCH   3   4
ENDBRANCH   1   3
BRANCH   2  13
ATOM     13  C   UNL     1      -8.650  -2.297  -3.599  1.00  0.00     0.027 C 
BRANCH  13  14
ATOM     14  C   UNL     1      -9.186  -0.861  -3.682  1.00  0.00     0.004 C 
BRANCH  14  15
ATOM     15  C   UNL     1      -8.715  -0.140  -4.957  1.00  0.00     0.000 C 
BRANCH  15  16
ATOM     16  C   UNL     1      -7.336   0.519  -4.789  1.00  0.00     0.000 C 
BRANCH  16  17
ATOM     17  C   UNL     1      -7.178   1.221  -3.429  1.00  0.00    -0.000 C 
BRANCH  17  18
ATOM     18  C   UNL     1      -7.068   2.748  -3.564  1.00  0.00    -0.000 C 
BRANCH  18  19
ATOM     19  C   UNL     1      -8.391   3.398  -3.997  1.00  0.00    -0.003 C 
ATOM     20  C   UNL     1      -9.526   3.018  -3.049  1.00  0.00     0.004 C 
ENDBRANCH  18  19
ENDBRANCH  17  18
ENDBRANCH  16  17
ENDBRANCH  15  16
ENDBRANCH  14  15
ENDBRANCH  13  14
ENDBRANCH   2  13
TORSDOF 15
ENDMDL
MODEL 7
REMARK VINA RESULT:    -3.721      1.279      2.337
REMARK INTER + INTRA:          -9.174
REMARK INTER:                  -7.539
REMARK INTRA:                  -1.636
REMARK UNBOUND:                -2.190
REMARK SMILES CCCCCCCCC=CCCCCCCCC(=O)[O-]
REMARK SMILES IDX 10 1 9 2 11 3 12 4 13 5 14 6 15 7 16 8 17 9 18 10 19 11
REMARK SMILES IDX 20 12 8 13 7 14 6 15 5 16 4 17 3 18 2 19 1 20
REMARK H PARENT
REMARK Flexibility Score: inf
ROOT
ATOM      1  C   UNL     1      -6.871  -2.204  -7.191  1.00  0.00    -0.031 C 
ATOM      2  C   UNL     1      -8.072  -2.361  -6.616  1.00  0.00    -0.031 C 
ENDROOT
BRANCH   1   3
ATOM      3  C   UNL     1      -6.724  -2.258  -8.687  1.00  0.00     0.027 C 
BRANCH   3   4
ATOM      4  C   UNL     1      -7.614  -3.353  -9.292  1.00  0.00     0.004 C 
BRANCH   4   5
ATOM      5  C   UNL     1      -6.823  -4.620  -9.658  1.00  0.00     0.000 C 
BRANCH   5   6
ATOM      6  C   UNL     1      -6.645  -5.571  -8.463  1.00  0.00     0.000 C 
BRANCH   6   7
ATOM      7  C   UNL     1      -5.173  -5.733  -8.042  1.00  0.00     0.000 C 
BRANCH   7   8
ATOM      8  C   UNL     1      -4.173  -4.863  -8.829  1.00  0.00     0.006 C 
BRANCH   8   9
ATOM      9  C   UNL     1      -3.398  -3.849  -7.973  1.00  0.00     0.053 C 
BRANCH   9  10
ATOM     10  C   UNL     1      -2.357  -3.125  -8.770  1.00  0.00     0.041 C 
ATOM     11  O   UNL     1      -2.293  -3.278 -10.018  1.00  0.00    -0.550 OA
ATOM     12  O   UNL     1      -1.436  -2.306  -8.130  1.00  0.00    -0.550 OA
ENDBRANCH   9  10
ENDBRANCH   8   9
ENDBRANCH   7   8
ENDBRANCH   6   7
ENDBRANCH   5   6
ENDBRANCH   4   5
ENDBRANCH   3   4
ENDBRANCH   1   3
BRANCH   2  13
ATOM     13  C   UNL     1      -8.245  -2.310  -5.121  1.00  0.00     0.027 C 
BRANCH  13  14
ATOM     14  C   UNL     1      -9.194  -1.187  -4.679  1.00  0.00     0.004 C 
BRANCH  14  15
ATOM     15  C   UNL     1      -8.811   0.169  -5.296  1.00  0.00     0.000 C 
BRANCH  15  16
ATOM     16  C   UNL     1      -7.447   0.678  -4.804  1.00  0.00     0.000 C 
BRANCH  16  17
ATOM     17  C   UNL     1      -7.352   0.729  -3.270  1.00  0.00    -0.000 C 
BRANCH  17  18
ATOM     18  C   UNL     1      -7.327   2.168  -2.728  1.00  0.00    -0.000 C 
BRANCH  18  19
ATOM     19  C   UNL     1      -7.541   3.216  -3.831  1.00  0.00    -0.003 C 
ATOM     20  C   UNL     1      -8.880   3.929  -3.659  1.00  0.00     0.004 C 
ENDBRANCH  18  19
ENDBRANCH  17  18
ENDBRANCH  16  17
ENDBRANCH  15  16
ENDBRANCH  14  15
ENDBRANCH  13  14
ENDBRANCH   2  13
TORSDOF 15
ENDMDL
MODEL 8
REMARK VINA RESULT:    -3.708     14.246     16.125
REMARK INTER + INTRA:          -9.150
REMARK INTER:                  -6.097
REMARK INTRA:                  -3.053
REMARK UNBOUND:                -2.190
REMARK SMILES CCCCCCCCC=CCCCCCCCC(=O)[O-]
REMARK SMILES IDX 10 1 9 2 11 3 12 4 13 5 14 6 15 7 16 8 17 9 18 10 19 11
REMARK SMILES IDX 20 12 8 13 7 14 6 15 5 16 4 17 3 18 2 19 1 20
REMARK H PARENT
REMARK Flexibility Score: inf
ROOT
ATOM      1  C   UNL     1      -3.738   6.005   4.688  1.00  0.00    -0.031 C 
ATOM      2  C   UNL     1      -5.021   6.284   4.960  1.00  0.00    -0.031 C 
ENDROOT
BRANCH   1   3
ATOM      3  C   UNL     1      -2.957   6.855   3.722  1.00  0.00     0.027 C 
BRANCH   3   4
ATOM      4  C   UNL     1      -2.954   8.327   4.157  1.00  0.00     0.004 C 
BRANCH   4   5
ATOM      5  C   UNL     1      -1.534   8.874   4.378  1.00  0.00     0.000 C 
BRANCH   5   6
ATOM      6  C   UNL     1      -1.209   9.086   5.867  1.00  0.00     0.000 C 
BRANCH   6   7
ATOM      7  C   UNL     1       0.045   8.316   6.319  1.00  0.00     0.000 C 
BRANCH   7   8
ATOM      8  C   UNL     1       0.127   6.859   5.823  1.00  0.00     0.006 C 
BRANCH   8   9
ATOM      9  C   UNL     1       0.631   5.854   6.871  1.00  0.00     0.053 C 
BRANCH   9  10
ATOM     10  C   UNL     1       0.356   4.439   6.467  1.00  0.00     0.041 C 
ATOM     11  O   UNL     1      -0.125   4.185   5.331  1.00  0.00    -0.550 OA
ATOM     12  O   UNL     1       0.600   3.402   7.358  1.00  0.00    -0.550 OA
ENDBRANCH   9  10
ENDBRANCH   8   9
ENDBRANCH   7   8
ENDBRANCH   6   7
ENDBRANCH   5   6
ENDBRANCH   4   5
ENDBRANCH   3   4
ENDBRANCH   1   3
BRANCH   2  13
ATOM     13  C   UNL     1      -5.823   5.449   5.923  1.00  0.00     0.027 C 
BRANCH  13  14
ATOM     14  C   UNL     1      -6.689   6.305   6.859  1.00  0.00     0.004 C 
BRANCH  14  15
ATOM     15  C   UNL     1      -6.557   7.808   6.556  1.00  0.00     0.000 C 
BRANCH  15  16
ATOM     16  C   UNL     1      -5.939   8.593   7.724  1.00  0.00     0.000 C 
BRANCH  16  17
ATOM     17  C   UNL     1      -4.401   8.571   7.704  1.00  0.00    -0.000 C 
BRANCH  17  18
ATOM     18  C   UNL     1      -3.811   7.635   8.771  1.00  0.00    -0.000 C 
BRANCH  18  19
ATOM     19  C   UNL     1      -2.711   6.721   8.210  1.00  0.00    -0.003 C 
ATOM     20  C   UNL     1      -3.096   5.250   8.350  1.00  0.00     0.004 C 
ENDBRANCH  18  19
ENDBRANCH  17  18
ENDBRANCH  16  17
ENDBRANCH  15  16
ENDBRANCH  14  15
ENDBRANCH  13  14
ENDBRANCH   2  13
TORSDOF 15
ENDMDL
MODEL 9
REMARK VINA RESULT:    -3.667     14.037     17.074
REMARK INTER + INTRA:          -9.072
REMARK INTER:                  -6.452
REMARK INTRA:                  -2.620
REMARK UNBOUND:                -2.190
REMARK SMILES CCCCCCCCC=CCCCCCCCC(=O)[O-]
REMARK SMILES IDX 10 1 9 2 11 3 12 4 13 5 14 6 15 7 16 8 17 9 18 10 19 11
REMARK SMILES IDX 20 12 8 13 7 14 6 15 5 16 4 17 3 18 2 19 1 20
REMARK H PARENT
REMARK Flexibility Score: inf
ROOT
ATOM      1  C   UNL     1      -0.450   7.329   5.973  1.00  0.00    -0.031 C 
ATOM      2  C   UNL     1       0.389   6.285   5.936  1.00  0.00    -0.031 C 
ENDROOT
BRANCH   1   3
ATOM      3  C   UNL     1       0.075   8.738   5.922  1.00  0.00     0.027 C 
BRANCH   3   4
ATOM      4  C   UNL     1      -0.891   9.663   5.168  1.00  0.00     0.004 C 
BRANCH   4   5
ATOM      5  C   UNL     1      -1.517   8.986   3.938  1.00  0.00     0.000 C 
BRANCH   5   6
ATOM      6  C   UNL     1      -3.054   8.980   3.985  1.00  0.00     0.000 C 
BRANCH   6   7
ATOM      7  C   UNL     1      -3.665   7.697   3.393  1.00  0.00     0.000 C 
BRANCH   7   8
ATOM      8  C   UNL     1      -3.218   6.389   4.076  1.00  0.00     0.006 C 
BRANCH   8   9
ATOM      9  C   UNL     1      -3.984   6.048   5.363  1.00  0.00     0.053 C 
BRANCH   9  10
ATOM     10  C   UNL     1      -5.386   5.603   5.079  1.00  0.00     0.041 C 
ATOM     11  O   UNL     1      -6.348   6.398   5.238  1.00  0.00    -0.550 OA
ATOM     12  O   UNL     1      -5.631   4.298   4.671  1.00  0.00    -0.550 OA
ENDBRANCH   9  10
ENDBRANCH   8   9
ENDBRANCH   7   8
ENDBRANCH   6   7
ENDBRANCH   5   6
ENDBRANCH   4   5
ENDBRANCH   3   4
ENDBRANCH   1   3
BRANCH   2  13
ATOM     13  C   UNL     1      -0.112   4.866   5.985  1.00  0.00     0.027 C 
BRANCH  13  14
ATOM     14  C   UNL     1       0.397   4.107   7.218  1.00  0.00     0.004 C 
BRANCH  14  15
ATOM     15  C   UNL     1       1.542   4.853   7.925  1.00  0.00     0.000 C 
BRANCH  15  16
ATOM     16  C   UNL     1       1.493   4.699   9.453  1.00  0.00     0.000 C 
BRANCH  16  17
ATOM     17  C   UNL     1       0.255   5.365  10.076  1.00  0.00    -0.000 C 
BRANCH  17  18
ATOM     18  C   UNL     1       0.094   6.832   9.644  1.00  0.00    -0.000 C 
BRANCH  18  19
ATOM     19  C   UNL     1      -1.378   7.254   9.529  1.00  0.00    -0.003 C 
ATOM     20  C   UNL     1      -2.232   6.121   8.967  1.00  0.00     0.004 C 
ENDBRANCH  18  19
ENDBRANCH  17  18
ENDBRANCH  16  17
ENDBRANCH  15  16
ENDBRANCH  14  15
ENDBRANCH  13  14
ENDBRANCH   2  13
TORSDOF 15
ENDMDL
