MODEL 1
REMARK VINA RESULT:    -6.048      0.000      0.000
REMARK INTER + INTRA:         -16.053
REMARK INTER:                 -14.356
REMARK INTRA:                  -1.696
REMARK UNBOUND:                -1.696
REMARK SMILES O=C(OC[C@H]1O[C@H](OC(=O)c2cc(O)c(O)c(O)c2)[C@H](OC(=O)c2cc(O)c(O)c(O)c2)[C@@H](OC(=O)c2cc(O)c(O)c(O)c2)[C@H]1OC(=O)c1cc(O)c(O)c(O)c1)c1cc(O)c(O)c(O)c1
REMARK SMILES IDX 5 1 46 2 33 3 20 4 7 5 6 6 4 7 3 8 2 9 1 10 59 11 60 12
REMARK SMILES IDX 61 13 67 14 63 15 65 16 62 17 64 19 66 21 47 23 48 24 49 25
REMARK SMILES IDX 50 26 58 27 51 28 56 29 52 30 54 31 57 32 53 34 55 36 34 38
REMARK SMILES IDX 35 39 36 40 37 41 45 42 38 43 43 44 39 45 41 46 44 47 40 49
REMARK SMILES IDX 42 51 8 53 9 54 10 55 11 56 19 57 12 58 17 59 13 60 15 61
REMARK SMILES IDX 18 62 14 64 16 66 21 68 22 69 23 70 24 71 32 72 25 73 30 74
REMARK SMILES IDX 26 75 28 76 31 77 27 79 29 81
REMARK H PARENT 62 18 64 20 66 22 57 33 53 35 55 37 44 48 40 50 42 52 18 63
REMARK H PARENT 14 65 16 67 31 78 27 80 29 82
REMARK Flexibility Score: inf
ROOT
ATOM      1  C   UNL     1      72.743  44.715   8.715  1.00  0.00     0.205 C 
ATOM      2  C   UNL     1      71.275  45.174   8.779  1.00  0.00     0.254 C 
ATOM      3  C   UNL     1      70.400  43.915   8.783  1.00  0.00     0.267 C 
ATOM      4  C   UNL     1      70.794  43.016   9.969  1.00  0.00     0.290 C 
ATOM      5  C   UNL     1      72.317  42.755   9.940  1.00  0.00     0.357 C 
ATOM      6  O   UNL     1      73.069  43.961   9.875  1.00  0.00    -0.329 OA
ENDROOT
BRANCH   1   7
ATOM      7  C   UNL     1      73.721  45.898   8.591  1.00  0.00     0.269 C 
BRANCH   7   8
ATOM      8  O   UNL     1      74.051  46.099   7.220  1.00  0.00    -0.459 OA
BRANCH   8   9
ATOM      9  C   UNL     1      73.678  47.255   6.520  1.00  0.00     0.338 C 
ATOM     10  O   UNL     1      73.945  48.394   6.999  1.00  0.00    -0.246 OA
BRANCH   9  11
ATOM     11  C   UNL     1      72.946  47.140   5.242  1.00  0.00     0.067 A 
ATOM     12  C   UNL     1      73.236  46.096   4.353  1.00  0.00     0.066 A 
ATOM     13  C   UNL     1      72.589  46.004   3.118  1.00  0.00     0.162 A 
ATOM     14  C   UNL     1      71.979  48.101   4.884  1.00  0.00     0.066 A 
ATOM     15  C   UNL     1      71.646  46.991   2.744  1.00  0.00     0.200 A 
ATOM     16  C   UNL     1      71.344  48.033   3.639  1.00  0.00     0.162 A 
BRANCH  13  17
ATOM     17  O   UNL     1      72.903  44.915   2.303  1.00  0.00    -0.504 OA
ATOM     18  H   UNL     1      73.505  44.162   2.588  1.00  0.00     0.293 HD
ENDBRANCH  13  17
BRANCH  15  19
ATOM     19  O   UNL     1      71.003  46.969   1.503  1.00  0.00    -0.502 OA
ATOM     20  H   UNL     1      70.126  47.426   1.306  1.00  0.00     0.293 HD
ENDBRANCH  15  19
BRANCH  16  21
ATOM     21  O   UNL     1      70.413  49.019   3.309  1.00  0.00    -0.504 OA
ATOM     22  H   UNL     1      69.809  48.938   2.501  1.00  0.00     0.293 HD
ENDBRANCH  16  21
ENDBRANCH   9  11
ENDBRANCH   8   9
ENDBRANCH   7   8
ENDBRANCH   1   7
BRANCH   2  23
ATOM     23  O   UNL     1      71.037  45.908   9.980  1.00  0.00    -0.452 OA
BRANCH  23  24
ATOM     24  C   UNL     1      70.871  47.299  10.034  1.00  0.00     0.338 C 
ATOM     25  O   UNL     1      71.880  48.048  10.091  1.00  0.00    -0.246 OA
BRANCH  24  26
ATOM     26  C   UNL     1      69.507  47.872  10.004  1.00  0.00     0.067 A 
ATOM     27  C   UNL     1      68.375  47.045  10.124  1.00  0.00     0.066 A 
ATOM     28  C   UNL     1      69.326  49.249   9.798  1.00  0.00     0.066 A 
ATOM     29  C   UNL     1      67.081  47.585  10.026  1.00  0.00     0.162 A 
ATOM     30  C   UNL     1      68.041  49.793   9.709  1.00  0.00     0.162 A 
ATOM     31  C   UNL     1      66.914  48.965   9.820  1.00  0.00     0.200 A 
BRANCH  29  32
ATOM     32  O   UNL     1      65.966  46.757  10.124  1.00  0.00    -0.504 OA
ATOM     33  H   UNL     1      65.116  46.951   9.608  1.00  0.00     0.293 HD
ENDBRANCH  29  32
BRANCH  30  34
ATOM     34  O   UNL     1      67.904  51.164   9.502  1.00  0.00    -0.504 OA
ATOM     35  H   UNL     1      67.082  51.563   9.059  1.00  0.00     0.293 HD
ENDBRANCH  30  34
BRANCH  31  36
ATOM     36  O   UNL     1      65.643  49.526   9.717  1.00  0.00    -0.502 OA
ATOM     37  H   UNL     1      64.825  48.976   9.493  1.00  0.00     0.293 HD
ENDBRANCH  31  36
ENDBRANCH  24  26
ENDBRANCH  23  24
ENDBRANCH   2  23
BRANCH   3  38
ATOM     38  O   UNL     1      69.019  44.269   8.838  1.00  0.00    -0.450 OA
BRANCH  38  39
ATOM     39  C   UNL     1      68.154  44.108   7.746  1.00  0.00     0.338 C 
ATOM     40  O   UNL     1      68.622  43.856   6.602  1.00  0.00    -0.246 OA
BRANCH  39  41
ATOM     41  C   UNL     1      66.690  44.212   7.936  1.00  0.00     0.067 A 
ATOM     42  C   UNL     1      65.973  43.155   8.521  1.00  0.00     0.066 A 
ATOM     43  C   UNL     1      66.003  45.370   7.536  1.00  0.00     0.066 A 
ATOM     44  C   UNL     1      64.590  43.248   8.702  1.00  0.00     0.162 A 
ATOM     45  C   UNL     1      64.619  45.474   7.707  1.00  0.00     0.162 A 
ATOM     46  C   UNL     1      63.899  44.397   8.288  1.00  0.00     0.200 A 
BRANCH  44  47
ATOM     47  O   UNL     1      63.897  42.192   9.298  1.00  0.00    -0.504 OA
ATOM     48  H   UNL     1      63.783  42.131  10.306  1.00  0.00     0.293 HD
ENDBRANCH  44  47
BRANCH  45  49
ATOM     49  O   UNL     1      64.004  46.653   7.286  1.00  0.00    -0.504 OA
ATOM     50  H   UNL     1      64.332  47.220   6.518  1.00  0.00     0.293 HD
ENDBRANCH  45  49
BRANCH  46  51
ATOM     51  O   UNL     1      62.513  44.423   8.467  1.00  0.00    -0.502 OA
ATOM     52  H   UNL     1      62.036  45.092   9.062  1.00  0.00     0.293 HD
ENDBRANCH  46  51
ENDBRANCH  39  41
ENDBRANCH  38  39
ENDBRANCH   3  38
BRANCH   5  53
ATOM     53  O   UNL     1      72.654  41.886   8.861  1.00  0.00    -0.428 OA
BRANCH  53  54
ATOM     54  C   UNL     1      73.968  41.659   8.436  1.00  0.00     0.340 C 
ATOM     55  O   UNL     1      74.942  42.024   9.143  1.00  0.00    -0.246 OA
BRANCH  54  56
ATOM     56  C   UNL     1      74.204  40.982   7.151  1.00  0.00     0.067 A 
ATOM     57  C   UNL     1      74.466  39.607   7.103  1.00  0.00     0.066 A 
ATOM     58  C   UNL     1      74.154  41.712   5.958  1.00  0.00     0.066 A 
ATOM     59  C   UNL     1      74.645  38.950   5.879  1.00  0.00     0.162 A 
ATOM     60  C   UNL     1      74.358  41.083   4.730  1.00  0.00     0.162 A 
ATOM     61  C   UNL     1      74.589  39.693   4.672  1.00  0.00     0.200 A 
BRANCH  59  62
ATOM     62  O   UNL     1      74.868  37.570   5.914  1.00  0.00    -0.504 OA
ATOM     63  H   UNL     1      74.367  36.930   6.521  1.00  0.00     0.293 HD
ENDBRANCH  59  62
BRANCH  60  64
ATOM     64  O   UNL     1      74.333  41.862   3.572  1.00  0.00    -0.504 OA
ATOM     65  H   UNL     1      73.470  42.245   3.201  1.00  0.00     0.293 HD
ENDBRANCH  60  64
BRANCH  61  66
ATOM     66  O   UNL     1      74.752  39.091   3.416  1.00  0.00    -0.502 OA
ATOM     67  H   UNL     1      75.626  39.065   2.909  1.00  0.00     0.293 HD
ENDBRANCH  61  66
ENDBRANCH  54  56
ENDBRANCH  53  54
ENDBRANCH   5  53
BRANCH   4  68
ATOM     68  O   UNL     1      70.126  41.759   9.876  1.00  0.00    -0.448 OA
BRANCH  68  69
ATOM     69  C   UNL     1      70.670  40.622   9.272  1.00  0.00     0.339 C 
ATOM     70  O   UNL     1      71.447  39.867   9.921  1.00  0.00    -0.246 OA
BRANCH  69  71
ATOM     71  C   UNL     1      70.343  40.319   7.863  1.00  0.00     0.067 A 
ATOM     72  C   UNL     1      69.808  39.077   7.499  1.00  0.00     0.066 A 
ATOM     73  C   UNL     1      70.558  41.283   6.865  1.00  0.00     0.066 A 
ATOM     74  C   UNL     1      69.478  38.801   6.164  1.00  0.00     0.162 A 
ATOM     75  C   UNL     1      70.230  41.020   5.532  1.00  0.00     0.162 A 
ATOM     76  C   UNL     1      69.687  39.777   5.175  1.00  0.00     0.200 A 
BRANCH  74  77
ATOM     77  O   UNL     1      68.933  37.564   5.816  1.00  0.00    -0.504 OA
ATOM     78  H   UNL     1      68.445  37.428   4.937  1.00  0.00     0.293 HD
ENDBRANCH  74  77
BRANCH  75  79
ATOM     79  O   UNL     1      70.448  42.010   4.573  1.00  0.00    -0.504 OA
ATOM     80  H   UNL     1      70.592  42.980   4.820  1.00  0.00     0.293 HD
ENDBRANCH  75  79
BRANCH  76  81
ATOM     81  O   UNL     1      69.361  39.522   3.842  1.00  0.00    -0.502 OA
ATOM     82  H   UNL     1      69.330  40.249   3.142  1.00  0.00     0.293 HD
ENDBRANCH  76  81
ENDBRANCH  69  71
ENDBRANCH  68  69
ENDBRANCH   4  68
TORSDOF 31
ENDMDL
MODEL 2
REMARK VINA RESULT:    -6.034      2.069      8.384
REMARK INTER + INTRA:         -16.019
REMARK INTER:                 -10.683
REMARK INTRA:                  -5.336
REMARK UNBOUND:                -1.696
REMARK SMILES O=C(OC[C@H]1O[C@H](OC(=O)c2cc(O)c(O)c(O)c2)[C@H](OC(=O)c2cc(O)c(O)c(O)c2)[C@@H](OC(=O)c2cc(O)c(O)c(O)c2)[C@H]1OC(=O)c1cc(O)c(O)c(O)c1)c1cc(O)c(O)c(O)c1
REMARK SMILES IDX 5 1 46 2 33 3 20 4 7 5 6 6 4 7 3 8 2 9 1 10 59 11 60 12
REMARK SMILES IDX 61 13 67 14 63 15 65 16 62 17 64 19 66 21 47 23 48 24 49 25
REMARK SMILES IDX 50 26 58 27 51 28 56 29 52 30 54 31 57 32 53 34 55 36 34 38
REMARK SMILES IDX 35 39 36 40 37 41 45 42 38 43 43 44 39 45 41 46 44 47 40 49
REMARK SMILES IDX 42 51 8 53 9 54 10 55 11 56 19 57 12 58 17 59 13 60 15 61
REMARK SMILES IDX 18 62 14 64 16 66 21 68 22 69 23 70 24 71 32 72 25 73 30 74
REMARK SMILES IDX 26 75 28 76 31 77 27 79 29 81
REMARK H PARENT 62 18 64 20 66 22 57 33 53 35 55 37 44 48 40 50 42 52 18 63
REMARK H PARENT 14 65 16 67 31 78 27 80 29 82
REMARK Flexibility Score: inf
ROOT
ATOM      1  C   UNL     1      72.892  45.076   7.656  1.00  0.00     0.205 C 
ATOM      2  C   UNL     1      72.441  43.886   6.790  1.00  0.00     0.254 C 
ATOM      3  C   UNL     1      72.330  44.385   5.345  1.00  0.00     0.267 C 
ATOM      4  C   UNL     1      73.681  44.969   4.894  1.00  0.00     0.290 C 
ATOM      5  C   UNL     1      74.157  46.026   5.918  1.00  0.00     0.357 C 
ATOM      6  O   UNL     1      74.179  45.518   7.246  1.00  0.00    -0.329 OA
ENDROOT
BRANCH   1   7
ATOM      7  C   UNL     1      72.930  44.727   9.155  1.00  0.00     0.269 C 
BRANCH   7   8
ATOM      8  O   UNL     1      71.609  44.464   9.616  1.00  0.00    -0.459 OA
BRANCH   8   9
ATOM      9  C   UNL     1      70.615  45.452   9.648  1.00  0.00     0.338 C 
ATOM     10  O   UNL     1      70.877  46.594  10.125  1.00  0.00    -0.246 OA
BRANCH   9  11
ATOM     11  C   UNL     1      69.255  45.148   9.156  1.00  0.00     0.067 A 
ATOM     12  C   UNL     1      69.038  44.047   8.316  1.00  0.00     0.066 A 
ATOM     13  C   UNL     1      67.768  43.777   7.801  1.00  0.00     0.162 A 
ATOM     14  C   UNL     1      68.171  45.985   9.488  1.00  0.00     0.066 A 
ATOM     15  C   UNL     1      66.689  44.639   8.106  1.00  0.00     0.200 A 
ATOM     16  C   UNL     1      66.901  45.739   8.957  1.00  0.00     0.162 A 
BRANCH  13  17
ATOM     17  O   UNL     1      67.622  42.641   7.004  1.00  0.00    -0.504 OA
ATOM     18  H   UNL     1      66.750  42.358   6.590  1.00  0.00     0.293 HD
ENDBRANCH  13  17
BRANCH  15  19
ATOM     19  O   UNL     1      65.408  44.438   7.581  1.00  0.00    -0.502 OA
ATOM     20  H   UNL     1      64.848  43.615   7.741  1.00  0.00     0.293 HD
ENDBRANCH  15  19
BRANCH  16  21
ATOM     21  O   UNL     1      65.859  46.606   9.288  1.00  0.00    -0.504 OA
ATOM     22  H   UNL     1      64.887  46.353   9.156  1.00  0.00     0.293 HD
ENDBRANCH  16  21
ENDBRANCH   9  11
ENDBRANCH   8   9
ENDBRANCH   7   8
ENDBRANCH   1   7
BRANCH   2  23
ATOM     23  O   UNL     1      73.411  42.838   6.845  1.00  0.00    -0.452 OA
BRANCH  23  24
ATOM     24  C   UNL     1      73.575  41.973   7.936  1.00  0.00     0.338 C 
ATOM     25  O   UNL     1      74.589  42.080   8.673  1.00  0.00    -0.246 OA
BRANCH  24  26
ATOM     26  C   UNL     1      72.540  40.954   8.221  1.00  0.00     0.067 A 
ATOM     27  C   UNL     1      71.229  41.334   8.564  1.00  0.00     0.066 A 
ATOM     28  C   UNL     1      72.873  39.590   8.205  1.00  0.00     0.066 A 
ATOM     29  C   UNL     1      70.270  40.364   8.901  1.00  0.00     0.162 A 
ATOM     30  C   UNL     1      71.918  38.621   8.529  1.00  0.00     0.162 A 
ATOM     31  C   UNL     1      70.615  39.002   8.880  1.00  0.00     0.200 A 
BRANCH  29  32
ATOM     32  O   UNL     1      68.981  40.749   9.261  1.00  0.00    -0.504 OA
ATOM     33  H   UNL     1      68.164  40.321   8.840  1.00  0.00     0.293 HD
ENDBRANCH  29  32
BRANCH  30  34
ATOM     34  O   UNL     1      72.288  37.278   8.503  1.00  0.00    -0.504 OA
ATOM     35  H   UNL     1      72.928  36.907   7.806  1.00  0.00     0.293 HD
ENDBRANCH  30  34
BRANCH  31  36
ATOM     36  O   UNL     1      69.683  38.021   9.211  1.00  0.00    -0.502 OA
ATOM     37  H   UNL     1      68.717  38.239   9.419  1.00  0.00     0.293 HD
ENDBRANCH  31  36
ENDBRANCH  24  26
ENDBRANCH  23  24
ENDBRANCH   2  23
BRANCH   3  38
ATOM     38  O   UNL     1      71.911  43.327   4.484  1.00  0.00    -0.450 OA
BRANCH  38  39
ATOM     39  C   UNL     1      71.008  42.334   4.890  1.00  0.00     0.338 C 
ATOM     40  O   UNL     1      69.839  42.650   5.243  1.00  0.00    -0.246 OA
BRANCH  39  41
ATOM     41  C   UNL     1      71.416  40.912   4.887  1.00  0.00     0.067 A 
ATOM     42  C   UNL     1      72.729  40.550   4.542  1.00  0.00     0.066 A 
ATOM     43  C   UNL     1      70.496  39.909   5.234  1.00  0.00     0.066 A 
ATOM     44  C   UNL     1      73.118  39.208   4.536  1.00  0.00     0.162 A 
ATOM     45  C   UNL     1      70.872  38.562   5.229  1.00  0.00     0.162 A 
ATOM     46  C   UNL     1      72.196  38.202   4.866  1.00  0.00     0.200 A 
BRANCH  44  47
ATOM     47  O   UNL     1      74.431  38.869   4.203  1.00  0.00    -0.504 OA
ATOM     48  H   UNL     1      75.042  38.391   4.861  1.00  0.00     0.293 HD
ENDBRANCH  44  47
BRANCH  45  49
ATOM     49  O   UNL     1      69.905  37.621   5.583  1.00  0.00    -0.504 OA
ATOM     50  H   UNL     1      69.903  37.112   6.456  1.00  0.00     0.293 HD
ENDBRANCH  45  49
BRANCH  46  51
ATOM     51  O   UNL     1      72.633  36.875   4.817  1.00  0.00    -0.502 OA
ATOM     52  H   UNL     1      72.410  36.238   4.061  1.00  0.00     0.293 HD
ENDBRANCH  46  51
ENDBRANCH  39  41
ENDBRANCH  38  39
ENDBRANCH   3  38
BRANCH   5  53
ATOM     53  O   UNL     1      73.349  47.199   5.835  1.00  0.00    -0.428 OA
BRANCH  53  54
ATOM     54  C   UNL     1      73.180  48.093   6.898  1.00  0.00     0.340 C 
ATOM     55  O   UNL     1      74.176  48.575   7.496  1.00  0.00    -0.246 OA
BRANCH  54  56
ATOM     56  C   UNL     1      71.820  48.473   7.311  1.00  0.00     0.067 A 
ATOM     57  C   UNL     1      70.699  47.963   6.644  1.00  0.00     0.066 A 
ATOM     58  C   UNL     1      71.636  49.344   8.391  1.00  0.00     0.066 A 
ATOM     59  C   UNL     1      69.402  48.285   7.063  1.00  0.00     0.162 A 
ATOM     60  C   UNL     1      70.354  49.702   8.808  1.00  0.00     0.162 A 
ATOM     61  C   UNL     1      69.221  49.165   8.161  1.00  0.00     0.200 A 
BRANCH  59  62
ATOM     62  O   UNL     1      68.336  47.707   6.367  1.00  0.00    -0.504 OA
ATOM     63  H   UNL     1      67.362  47.820   6.625  1.00  0.00     0.293 HD
ENDBRANCH  59  62
BRANCH  60  64
ATOM     64  O   UNL     1      70.225  50.601   9.866  1.00  0.00    -0.504 OA
ATOM     65  H   UNL     1      69.721  51.477   9.769  1.00  0.00     0.293 HD
ENDBRANCH  60  64
BRANCH  61  66
ATOM     66  O   UNL     1      67.948  49.519   8.632  1.00  0.00    -0.502 OA
ATOM     67  H   UNL     1      67.720  49.644   9.609  1.00  0.00     0.293 HD
ENDBRANCH  61  66
ENDBRANCH  54  56
ENDBRANCH  53  54
ENDBRANCH   5  53
BRANCH   4  68
ATOM     68  O   UNL     1      73.542  45.609   3.627  1.00  0.00    -0.448 OA
BRANCH  68  69
ATOM     69  C   UNL     1      72.315  45.917   3.033  1.00  0.00     0.339 C 
ATOM     70  O   UNL     1      71.399  46.465   3.709  1.00  0.00    -0.246 OA
BRANCH  69  71
ATOM     71  C   UNL     1      72.091  45.583   1.610  1.00  0.00     0.067 A 
ATOM     72  C   UNL     1      71.022  46.142   0.898  1.00  0.00     0.066 A 
ATOM     73  C   UNL     1      72.959  44.701   0.948  1.00  0.00     0.066 A 
ATOM     74  C   UNL     1      70.826  45.840  -0.457  1.00  0.00     0.162 A 
ATOM     75  C   UNL     1      72.775  44.396  -0.404  1.00  0.00     0.162 A 
ATOM     76  C   UNL     1      71.708  44.965  -1.114  1.00  0.00     0.200 A 
BRANCH  74  77
ATOM     77  O   UNL     1      69.765  46.414  -1.158  1.00  0.00    -0.504 OA
ATOM     78  H   UNL     1      69.238  45.887  -1.847  1.00  0.00     0.293 HD
ENDBRANCH  74  77
BRANCH  75  79
ATOM     79  O   UNL     1      73.669  43.524  -1.029  1.00  0.00    -0.504 OA
ATOM     80  H   UNL     1      73.370  42.847  -1.719  1.00  0.00     0.293 HD
ENDBRANCH  75  79
BRANCH  76  81
ATOM     81  O   UNL     1      71.531  44.655  -2.463  1.00  0.00    -0.502 OA
ATOM     82  H   UNL     1      70.713  44.937  -2.983  1.00  0.00     0.293 HD
ENDBRANCH  76  81
ENDBRANCH  69  71
ENDBRANCH  68  69
ENDBRANCH   4  68
TORSDOF 31
ENDMDL
MODEL 3
REMARK VINA RESULT:    -5.849      1.753      6.549
REMARK INTER + INTRA:         -15.581
REMARK INTER:                 -14.941
REMARK INTRA:                  -0.640
REMARK UNBOUND:                -1.696
REMARK SMILES O=C(OC[C@H]1O[C@H](OC(=O)c2cc(O)c(O)c(O)c2)[C@H](OC(=O)c2cc(O)c(O)c(O)c2)[C@@H](OC(=O)c2cc(O)c(O)c(O)c2)[C@H]1OC(=O)c1cc(O)c(O)c(O)c1)c1cc(O)c(O)c(O)c1
REMARK SMILES IDX 5 1 46 2 33 3 20 4 7 5 6 6 4 7 3 8 2 9 1 10 59 11 60 12
REMARK SMILES IDX 61 13 67 14 63 15 65 16 62 17 64 19 66 21 47 23 48 24 49 25
REMARK SMILES IDX 50 26 58 27 51 28 56 29 52 30 54 31 57 32 53 34 55 36 34 38
REMARK SMILES IDX 35 39 36 40 37 41 45 42 38 43 43 44 39 45 41 46 44 47 40 49
REMARK SMILES IDX 42 51 8 53 9 54 10 55 11 56 19 57 12 58 17 59 13 60 15 61
REMARK SMILES IDX 18 62 14 64 16 66 21 68 22 69 23 70 24 71 32 72 25 73 30 74
REMARK SMILES IDX 26 75 28 76 31 77 27 79 29 81
REMARK H PARENT 62 18 64 20 66 22 57 33 53 35 55 37 44 48 40 50 42 52 18 63
REMARK H PARENT 14 65 16 67 31 78 27 80 29 82
REMARK Flexibility Score: inf
ROOT
ATOM      1  C   UNL     1      69.866  43.406   9.242  1.00  0.00     0.205 C 
ATOM      2  C   UNL     1      70.665  44.633   9.716  1.00  0.00     0.254 C 
ATOM      3  C   UNL     1      72.136  44.390   9.360  1.00  0.00     0.267 C 
ATOM      4  C   UNL     1      72.267  44.144   7.846  1.00  0.00     0.290 C 
ATOM      5  C   UNL     1      71.294  43.022   7.416  1.00  0.00     0.357 C 
ATOM      6  O   UNL     1      69.958  43.280   7.830  1.00  0.00    -0.329 OA
ENDROOT
BRANCH   1   7
ATOM      7  C   UNL     1      68.382  43.481   9.647  1.00  0.00     0.269 C 
BRANCH   7   8
ATOM      8  O   UNL     1      67.637  42.526   8.899  1.00  0.00    -0.459 OA
BRANCH   8   9
ATOM      9  C   UNL     1      66.425  41.993   9.359  1.00  0.00     0.338 C 
ATOM     10  O   UNL     1      66.418  40.893   9.984  1.00  0.00    -0.246 OA
BRANCH   9  11
ATOM     11  C   UNL     1      65.156  42.698   9.085  1.00  0.00     0.067 A 
ATOM     12  C   UNL     1      65.141  43.827   8.255  1.00  0.00     0.066 A 
ATOM     13  C   UNL     1      63.959  44.536   8.027  1.00  0.00     0.162 A 
ATOM     14  C   UNL     1      63.956  42.271   9.688  1.00  0.00     0.066 A 
ATOM     15  C   UNL     1      62.763  44.127   8.663  1.00  0.00     0.200 A 
ATOM     16  C   UNL     1      62.772  42.988   9.488  1.00  0.00     0.162 A 
BRANCH  13  17
ATOM     17  O   UNL     1      64.015  45.626   7.158  1.00  0.00    -0.504 OA
ATOM     18  H   UNL     1      63.538  45.659   6.274  1.00  0.00     0.293 HD
ENDBRANCH  13  17
BRANCH  15  19
ATOM     19  O   UNL     1      61.562  44.827   8.504  1.00  0.00    -0.502 OA
ATOM     20  H   UNL     1      60.646  44.414   8.585  1.00  0.00     0.293 HD
ENDBRANCH  15  19
BRANCH  16  21
ATOM     21  O   UNL     1      61.610  42.550  10.125  1.00  0.00    -0.504 OA
ATOM     22  H   UNL     1      61.200  41.644   9.930  1.00  0.00     0.293 HD
ENDBRANCH  16  21
ENDBRANCH   9  11
ENDBRANCH   8   9
ENDBRANCH   7   8
ENDBRANCH   1   7
BRANCH   2  23
ATOM     23  O   UNL     1      70.213  45.809   9.043  1.00  0.00    -0.452 OA
BRANCH  23  24
ATOM     24  C   UNL     1      69.984  47.039   9.673  1.00  0.00     0.338 C 
ATOM     25  O   UNL     1      70.953  47.702  10.125  1.00  0.00    -0.246 OA
BRANCH  24  26
ATOM     26  C   UNL     1      68.601  47.555   9.784  1.00  0.00     0.067 A 
ATOM     27  C   UNL     1      67.515  46.675   9.948  1.00  0.00     0.066 A 
ATOM     28  C   UNL     1      68.352  48.932   9.670  1.00  0.00     0.066 A 
ATOM     29  C   UNL     1      66.198  47.165   9.984  1.00  0.00     0.162 A 
ATOM     30  C   UNL     1      67.044  49.425   9.715  1.00  0.00     0.162 A 
ATOM     31  C   UNL     1      65.963  48.545   9.869  1.00  0.00     0.200 A 
BRANCH  29  32
ATOM     32  O   UNL     1      65.127  46.286  10.125  1.00  0.00    -0.504 OA
ATOM     33  H   UNL     1      64.579  46.253  10.976  1.00  0.00     0.293 HD
ENDBRANCH  29  32
BRANCH  30  34
ATOM     34  O   UNL     1      66.839  50.798   9.596  1.00  0.00    -0.504 OA
ATOM     35  H   UNL     1      66.041  51.183   9.099  1.00  0.00     0.293 HD
ENDBRANCH  30  34
BRANCH  31  36
ATOM     36  O   UNL     1      64.667  49.057   9.899  1.00  0.00    -0.502 OA
ATOM     37  H   UNL     1      63.852  48.479   9.738  1.00  0.00     0.293 HD
ENDBRANCH  31  36
ENDBRANCH  24  26
ENDBRANCH  23  24
ENDBRANCH   2  23
BRANCH   3  38
ATOM     38  O   UNL     1      72.938  45.494   9.777  1.00  0.00    -0.450 OA
BRANCH  38  39
ATOM     39  C   UNL     1      73.604  46.329   8.869  1.00  0.00     0.338 C 
ATOM     40  O   UNL     1      74.816  46.119   8.590  1.00  0.00    -0.246 OA
BRANCH  39  41
ATOM     41  C   UNL     1      72.883  47.445   8.218  1.00  0.00     0.067 A 
ATOM     42  C   UNL     1      71.884  47.186   7.264  1.00  0.00     0.066 A 
ATOM     43  C   UNL     1      73.185  48.776   8.551  1.00  0.00     0.066 A 
ATOM     44  C   UNL     1      71.201  48.237   6.646  1.00  0.00     0.162 A 
ATOM     45  C   UNL     1      72.512  49.837   7.937  1.00  0.00     0.162 A 
ATOM     46  C   UNL     1      71.514  49.568   6.965  1.00  0.00     0.200 A 
BRANCH  44  47
ATOM     47  O   UNL     1      70.203  47.958   5.710  1.00  0.00    -0.504 OA
ATOM     48  H   UNL     1      70.378  48.017   4.710  1.00  0.00     0.293 HD
ENDBRANCH  44  47
BRANCH  45  49
ATOM     49  O   UNL     1      72.866  51.131   8.317  1.00  0.00    -0.504 OA
ATOM     50  H   UNL     1      73.332  51.792   7.711  1.00  0.00     0.293 HD
ENDBRANCH  45  49
BRANCH  46  51
ATOM     51  O   UNL     1      70.818  50.578   6.295  1.00  0.00    -0.502 OA
ATOM     52  H   UNL     1      69.853  50.492   5.995  1.00  0.00     0.293 HD
ENDBRANCH  46  51
ENDBRANCH  39  41
ENDBRANCH  38  39
ENDBRANCH   3  38
BRANCH   5  53
ATOM     53  O   UNL     1      71.744  41.758   7.903  1.00  0.00    -0.428 OA
BRANCH  53  54
ATOM     54  C   UNL     1      71.473  40.546   7.258  1.00  0.00     0.340 C 
ATOM     55  O   UNL     1      70.447  39.880   7.550  1.00  0.00    -0.246 OA
BRANCH  54  56
ATOM     56  C   UNL     1      72.400  40.056   6.226  1.00  0.00     0.067 A 
ATOM     57  C   UNL     1      72.808  38.716   6.206  1.00  0.00     0.066 A 
ATOM     58  C   UNL     1      72.872  40.930   5.240  1.00  0.00     0.066 A 
ATOM     59  C   UNL     1      73.653  38.234   5.198  1.00  0.00     0.162 A 
ATOM     60  C   UNL     1      73.737  40.479   4.243  1.00  0.00     0.162 A 
ATOM     61  C   UNL     1      74.125  39.123   4.199  1.00  0.00     0.200 A 
BRANCH  59  62
ATOM     62  O   UNL     1      73.986  36.876   5.230  1.00  0.00    -0.504 OA
ATOM     63  H   UNL     1      74.685  36.479   5.847  1.00  0.00     0.293 HD
ENDBRANCH  59  62
BRANCH  60  64
ATOM     64  O   UNL     1      74.208  41.398   3.305  1.00  0.00    -0.504 OA
ATOM     65  H   UNL     1      73.588  42.046   2.830  1.00  0.00     0.293 HD
ENDBRANCH  60  64
BRANCH  61  66
ATOM     66  O   UNL     1      74.966  38.699   3.160  1.00  0.00    -0.502 OA
ATOM     67  H   UNL     1      75.663  39.284   2.719  1.00  0.00     0.293 HD
ENDBRANCH  61  66
ENDBRANCH  54  56
ENDBRANCH  53  54
ENDBRANCH   5  53
BRANCH   4  68
ATOM     68  O   UNL     1      73.594  43.727   7.529  1.00  0.00    -0.448 OA
BRANCH  68  69
ATOM     69  C   UNL     1      74.160  43.807   6.254  1.00  0.00     0.339 C 
ATOM     70  O   UNL     1      75.121  43.052   5.935  1.00  0.00    -0.246 OA
BRANCH  69  71
ATOM     71  C   UNL     1      73.636  44.793   5.286  1.00  0.00     0.067 A 
ATOM     72  C   UNL     1      72.681  44.427   4.329  1.00  0.00     0.066 A 
ATOM     73  C   UNL     1      74.087  46.123   5.318  1.00  0.00     0.066 A 
ATOM     74  C   UNL     1      72.170  45.371   3.426  1.00  0.00     0.162 A 
ATOM     75  C   UNL     1      73.582  47.073   4.426  1.00  0.00     0.162 A 
ATOM     76  C   UNL     1      72.619  46.701   3.476  1.00  0.00     0.200 A 
BRANCH  74  77
ATOM     77  O   UNL     1      71.209  44.996   2.487  1.00  0.00    -0.504 OA
ATOM     78  H   UNL     1      70.672  44.141   2.590  1.00  0.00     0.293 HD
ENDBRANCH  74  77
BRANCH  75  79
ATOM     79  O   UNL     1      74.047  48.387   4.500  1.00  0.00    -0.504 OA
ATOM     80  H   UNL     1      73.438  49.184   4.375  1.00  0.00     0.293 HD
ENDBRANCH  75  79
BRANCH  76  81
ATOM     81  O   UNL     1      72.120  47.656   2.588  1.00  0.00    -0.502 OA
ATOM     82  H   UNL     1      71.137  47.877   2.525  1.00  0.00     0.293 HD
ENDBRANCH  76  81
ENDBRANCH  69  71
ENDBRANCH  68  69
ENDBRANCH   4  68
TORSDOF 31
ENDMDL
MODEL 4
REMARK VINA RESULT:    -5.684      2.606      6.292
REMARK INTER + INTRA:         -15.189
REMARK INTER:                  -8.777
REMARK INTRA:                  -6.412
REMARK UNBOUND:                -1.696
REMARK SMILES O=C(OC[C@H]1O[C@H](OC(=O)c2cc(O)c(O)c(O)c2)[C@H](OC(=O)c2cc(O)c(O)c(O)c2)[C@@H](OC(=O)c2cc(O)c(O)c(O)c2)[C@H]1OC(=O)c1cc(O)c(O)c(O)c1)c1cc(O)c(O)c(O)c1
REMARK SMILES IDX 5 1 46 2 33 3 20 4 7 5 6 6 4 7 3 8 2 9 1 10 59 11 60 12
REMARK SMILES IDX 61 13 67 14 63 15 65 16 62 17 64 19 66 21 47 23 48 24 49 25
REMARK SMILES IDX 50 26 58 27 51 28 56 29 52 30 54 31 57 32 53 34 55 36 34 38
REMARK SMILES IDX 35 39 36 40 37 41 45 42 38 43 43 44 39 45 41 46 44 47 40 49
REMARK SMILES IDX 42 51 8 53 9 54 10 55 11 56 19 57 12 58 17 59 13 60 15 61
REMARK SMILES IDX 18 62 14 64 16 66 21 68 22 69 23 70 24 71 32 72 25 73 30 74
REMARK SMILES IDX 26 75 28 76 31 77 27 79 29 81
REMARK H PARENT 62 18 64 20 66 22 57 33 53 35 55 37 44 48 40 50 42 52 18 63
REMARK H PARENT 14 65 16 67 31 78 27 80 29 82
REMARK Flexibility Score: inf
ROOT
ATOM      1  C   UNL     1      72.052  46.643   4.397  1.00  0.00     0.205 C 
ATOM      2  C   UNL     1      72.305  45.811   5.667  1.00  0.00     0.254 C 
ATOM      3  C   UNL     1      72.257  44.333   5.266  1.00  0.00     0.267 C 
ATOM      4  C   UNL     1      73.296  44.062   4.163  1.00  0.00     0.290 C 
ATOM      5  C   UNL     1      73.094  45.064   3.003  1.00  0.00     0.357 C 
ATOM      6  O   UNL     1      73.087  46.414   3.450  1.00  0.00    -0.329 OA
ENDROOT
BRANCH   1   7
ATOM      7  C   UNL     1      71.963  48.151   4.693  1.00  0.00     0.269 C 
BRANCH   7   8
ATOM      8  O   UNL     1      70.601  48.563   4.654  1.00  0.00    -0.459 OA
BRANCH   8   9
ATOM      9  C   UNL     1      69.955  49.124   5.765  1.00  0.00     0.338 C 
ATOM     10  O   UNL     1      70.215  50.312   6.111  1.00  0.00    -0.246 OA
BRANCH   9  11
ATOM     11  C   UNL     1      68.997  48.316   6.547  1.00  0.00     0.067 A 
ATOM     12  C   UNL     1      68.967  46.922   6.406  1.00  0.00     0.066 A 
ATOM     13  C   UNL     1      68.032  46.150   7.099  1.00  0.00     0.162 A 
ATOM     14  C   UNL     1      68.074  48.941   7.411  1.00  0.00     0.066 A 
ATOM     15  C   UNL     1      67.083  46.781   7.937  1.00  0.00     0.200 A 
ATOM     16  C   UNL     1      67.117  48.179   8.091  1.00  0.00     0.162 A 
BRANCH  13  17
ATOM     17  O   UNL     1      68.090  44.765   6.937  1.00  0.00    -0.504 OA
ATOM     18  H   UNL     1      68.742  44.173   7.424  1.00  0.00     0.293 HD
ENDBRANCH  13  17
BRANCH  15  19
ATOM     19  O   UNL     1      66.099  46.058   8.620  1.00  0.00    -0.502 OA
ATOM     20  H   UNL     1      65.753  46.291   9.537  1.00  0.00     0.293 HD
ENDBRANCH  15  19
BRANCH  16  21
ATOM     21  O   UNL     1      66.203  48.836   8.915  1.00  0.00    -0.504 OA
ATOM     22  H   UNL     1      65.892  48.441   9.794  1.00  0.00     0.293 HD
ENDBRANCH  16  21
ENDBRANCH   9  11
ENDBRANCH   8   9
ENDBRANCH   7   8
ENDBRANCH   1   7
BRANCH   2  23
ATOM     23  O   UNL     1      73.596  46.105   6.204  1.00  0.00    -0.452 OA
BRANCH  23  24
ATOM     24  C   UNL     1      73.826  46.520   7.522  1.00  0.00     0.338 C 
ATOM     25  O   UNL     1      74.809  46.064   8.160  1.00  0.00    -0.246 OA
BRANCH  24  26
ATOM     26  C   UNL     1      72.916  47.508   8.144  1.00  0.00     0.067 A 
ATOM     27  C   UNL     1      71.794  47.090   8.883  1.00  0.00     0.066 A 
ATOM     28  C   UNL     1      73.135  48.882   7.954  1.00  0.00     0.066 A 
ATOM     29  C   UNL     1      70.897  48.033   9.413  1.00  0.00     0.162 A 
ATOM     30  C   UNL     1      72.250  49.824   8.488  1.00  0.00     0.162 A 
ATOM     31  C   UNL     1      71.127  49.404   9.217  1.00  0.00     0.200 A 
BRANCH  29  32
ATOM     32  O   UNL     1      69.777  47.610  10.125  1.00  0.00    -0.504 OA
ATOM     33  H   UNL     1      69.456  46.650  10.086  1.00  0.00     0.293 HD
ENDBRANCH  29  32
BRANCH  30  34
ATOM     34  O   UNL     1      72.500  51.178   8.276  1.00  0.00    -0.504 OA
ATOM     35  H   UNL     1      73.379  51.612   8.541  1.00  0.00     0.293 HD
ENDBRANCH  30  34
BRANCH  31  36
ATOM     36  O   UNL     1      70.251  50.360   9.730  1.00  0.00    -0.502 OA
ATOM     37  H   UNL     1      69.250  50.215   9.762  1.00  0.00     0.293 HD
ENDBRANCH  31  36
ENDBRANCH  24  26
ENDBRANCH  23  24
ENDBRANCH   2  23
BRANCH   3  38
ATOM     38  O   UNL     1      72.481  43.501   6.404  1.00  0.00    -0.450 OA
BRANCH  38  39
ATOM     39  C   UNL     1      71.474  43.206   7.334  1.00  0.00     0.338 C 
ATOM     40  O   UNL     1      70.771  44.134   7.819  1.00  0.00    -0.246 OA
BRANCH  39  41
ATOM     41  C   UNL     1      71.220  41.805   7.735  1.00  0.00     0.067 A 
ATOM     42  C   UNL     1      72.272  40.997   8.202  1.00  0.00     0.066 A 
ATOM     43  C   UNL     1      69.925  41.268   7.659  1.00  0.00     0.066 A 
ATOM     44  C   UNL     1      72.036  39.673   8.581  1.00  0.00     0.162 A 
ATOM     45  C   UNL     1      69.676  39.943   8.031  1.00  0.00     0.162 A 
ATOM     46  C   UNL     1      70.745  39.129   8.489  1.00  0.00     0.200 A 
BRANCH  44  47
ATOM     47  O   UNL     1      73.091  38.890   9.054  1.00  0.00    -0.504 OA
ATOM     48  H   UNL     1      73.172  37.904   8.818  1.00  0.00     0.293 HD
ENDBRANCH  44  47
BRANCH  45  49
ATOM     49  O   UNL     1      68.365  39.479   7.927  1.00  0.00    -0.504 OA
ATOM     50  H   UNL     1      68.072  38.548   8.188  1.00  0.00     0.293 HD
ENDBRANCH  45  49
BRANCH  46  51
ATOM     51  O   UNL     1      70.574  37.791   8.855  1.00  0.00    -0.502 OA
ATOM     52  H   UNL     1      70.810  37.425   9.771  1.00  0.00     0.293 HD
ENDBRANCH  46  51
ENDBRANCH  39  41
ENDBRANCH  38  39
ENDBRANCH   3  38
BRANCH   5  53
ATOM     53  O   UNL     1      71.899  44.759   2.284  1.00  0.00    -0.428 OA
BRANCH  53  54
ATOM     54  C   UNL     1      71.531  45.402   1.097  1.00  0.00     0.340 C 
ATOM     55  O   UNL     1      70.624  46.273   1.094  1.00  0.00    -0.246 OA
BRANCH  54  56
ATOM     56  C   UNL     1      72.222  45.055  -0.155  1.00  0.00     0.067 A 
ATOM     57  C   UNL     1      73.247  45.866  -0.657  1.00  0.00     0.066 A 
ATOM     58  C   UNL     1      71.864  43.895  -0.850  1.00  0.00     0.066 A 
ATOM     59  C   UNL     1      73.939  45.515  -1.824  1.00  0.00     0.162 A 
ATOM     60  C   UNL     1      72.519  43.540  -2.030  1.00  0.00     0.162 A 
ATOM     61  C   UNL     1      73.575  44.336  -2.522  1.00  0.00     0.200 A 
BRANCH  59  62
ATOM     62  O   UNL     1      74.973  46.360  -2.240  1.00  0.00    -0.504 OA
ATOM     63  H   UNL     1      75.708  46.082  -2.880  1.00  0.00     0.293 HD
ENDBRANCH  59  62
BRANCH  60  64
ATOM     64  O   UNL     1      72.101  42.393  -2.705  1.00  0.00    -0.504 OA
ATOM     65  H   UNL     1      72.721  41.876  -3.319  1.00  0.00     0.293 HD
ENDBRANCH  60  64
BRANCH  61  66
ATOM     66  O   UNL     1      74.235  43.927  -3.691  1.00  0.00    -0.502 OA
ATOM     67  H   UNL     1      73.764  43.648  -4.541  1.00  0.00     0.293 HD
ENDBRANCH  61  66
ENDBRANCH  54  56
ENDBRANCH  53  54
ENDBRANCH   5  53
BRANCH   4  68
ATOM     68  O   UNL     1      73.132  42.743   3.646  1.00  0.00    -0.448 OA
BRANCH  68  69
ATOM     69  C   UNL     1      73.777  41.613   4.156  1.00  0.00     0.339 C 
ATOM     70  O   UNL     1      75.034  41.597   4.276  1.00  0.00    -0.246 OA
BRANCH  69  71
ATOM     71  C   UNL     1      72.978  40.430   4.539  1.00  0.00     0.067 A 
ATOM     72  C   UNL     1      73.564  39.352   5.214  1.00  0.00     0.066 A 
ATOM     73  C   UNL     1      71.608  40.376   4.237  1.00  0.00     0.066 A 
ATOM     74  C   UNL     1      72.798  38.241   5.596  1.00  0.00     0.162 A 
ATOM     75  C   UNL     1      70.834  39.275   4.616  1.00  0.00     0.162 A 
ATOM     76  C   UNL     1      71.426  38.202   5.299  1.00  0.00     0.200 A 
BRANCH  74  77
ATOM     77  O   UNL     1      73.392  37.180   6.280  1.00  0.00    -0.504 OA
ATOM     78  H   UNL     1      74.292  36.804   5.998  1.00  0.00     0.293 HD
ENDBRANCH  74  77
BRANCH  75  79
ATOM     79  O   UNL     1      69.472  39.266   4.307  1.00  0.00    -0.504 OA
ATOM     80  H   UNL     1      68.925  38.416   4.301  1.00  0.00     0.293 HD
ENDBRANCH  75  79
BRANCH  76  81
ATOM     81  O   UNL     1      70.646  37.107   5.674  1.00  0.00    -0.502 OA
ATOM     82  H   UNL     1      70.953  36.154   5.550  1.00  0.00     0.293 HD
ENDBRANCH  76  81
ENDBRANCH  69  71
ENDBRANCH  68  69
ENDBRANCH   4  68
TORSDOF 31
ENDMDL
MODEL 5
REMARK VINA RESULT:    -5.659      2.116      6.525
REMARK INTER + INTRA:         -15.129
REMARK INTER:                 -12.262
REMARK INTRA:                  -2.866
REMARK UNBOUND:                -1.696
REMARK SMILES O=C(OC[C@H]1O[C@H](OC(=O)c2cc(O)c(O)c(O)c2)[C@H](OC(=O)c2cc(O)c(O)c(O)c2)[C@@H](OC(=O)c2cc(O)c(O)c(O)c2)[C@H]1OC(=O)c1cc(O)c(O)c(O)c1)c1cc(O)c(O)c(O)c1
REMARK SMILES IDX 5 1 46 2 33 3 20 4 7 5 6 6 4 7 3 8 2 9 1 10 59 11 60 12
REMARK SMILES IDX 61 13 67 14 63 15 65 16 62 17 64 19 66 21 47 23 48 24 49 25
REMARK SMILES IDX 50 26 58 27 51 28 56 29 52 30 54 31 57 32 53 34 55 36 34 38
REMARK SMILES IDX 35 39 36 40 37 41 45 42 38 43 43 44 39 45 41 46 44 47 40 49
REMARK SMILES IDX 42 51 8 53 9 54 10 55 11 56 19 57 12 58 17 59 13 60 15 61
REMARK SMILES IDX 18 62 14 64 16 66 21 68 22 69 23 70 24 71 32 72 25 73 30 74
REMARK SMILES IDX 26 75 28 76 31 77 27 79 29 81
REMARK H PARENT 62 18 64 20 66 22 57 33 53 35 55 37 44 48 40 50 42 52 18 63
REMARK H PARENT 14 65 16 67 31 78 27 80 29 82
REMARK Flexibility Score: inf
ROOT
ATOM      1  C   UNL     1      72.632  43.849   7.534  1.00  0.00     0.205 C 
ATOM      2  C   UNL     1      72.113  45.284   7.333  1.00  0.00     0.254 C 
ATOM      3  C   UNL     1      72.610  45.766   5.966  1.00  0.00     0.267 C 
ATOM      4  C   UNL     1      72.124  44.801   4.870  1.00  0.00     0.290 C 
ATOM      5  C   UNL     1      72.522  43.353   5.239  1.00  0.00     0.357 C 
ATOM      6  O   UNL     1      72.084  42.990   6.543  1.00  0.00    -0.329 OA
ENDROOT
BRANCH   1   7
ATOM      7  C   UNL     1      72.292  43.293   8.928  1.00  0.00     0.269 C 
BRANCH   7   8
ATOM      8  O   UNL     1      71.451  42.151   8.792  1.00  0.00    -0.459 OA
BRANCH   8   9
ATOM      9  C   UNL     1      71.960  40.872   8.526  1.00  0.00     0.338 C 
ATOM     10  O   UNL     1      73.075  40.524   9.011  1.00  0.00    -0.246 OA
BRANCH   9  11
ATOM     11  C   UNL     1      71.210  39.947   7.652  1.00  0.00     0.067 A 
ATOM     12  C   UNL     1      71.372  40.000   6.261  1.00  0.00     0.066 A 
ATOM     13  C   UNL     1      70.632  39.168   5.419  1.00  0.00     0.162 A 
ATOM     14  C   UNL     1      70.291  39.031   8.203  1.00  0.00     0.066 A 
ATOM     15  C   UNL     1      69.684  38.275   5.971  1.00  0.00     0.200 A 
ATOM     16  C   UNL     1      69.526  38.210   7.368  1.00  0.00     0.162 A 
BRANCH  13  17
ATOM     17  O   UNL     1      70.877  39.252   4.048  1.00  0.00    -0.504 OA
ATOM     18  H   UNL     1      70.275  38.852   3.348  1.00  0.00     0.293 HD
ENDBRANCH  13  17
BRANCH  15  19
ATOM     19  O   UNL     1      68.886  37.451   5.170  1.00  0.00    -0.502 OA
ATOM     20  H   UNL     1      68.654  36.495   5.389  1.00  0.00     0.293 HD
ENDBRANCH  15  19
BRANCH  16  21
ATOM     21  O   UNL     1      68.608  37.336   7.950  1.00  0.00    -0.504 OA
ATOM     22  H   UNL     1      68.494  37.265   8.954  1.00  0.00     0.293 HD
ENDBRANCH  16  21
ENDBRANCH   9  11
ENDBRANCH   8   9
ENDBRANCH   7   8
ENDBRANCH   1   7
BRANCH   2  23
ATOM     23  O   UNL     1      70.685  45.301   7.340  1.00  0.00    -0.452 OA
BRANCH  23  24
ATOM     24  C   UNL     1      69.902  45.263   8.502  1.00  0.00     0.338 C 
ATOM     25  O   UNL     1      70.290  45.861   9.538  1.00  0.00    -0.246 OA
BRANCH  24  26
ATOM     26  C   UNL     1      68.614  44.534   8.489  1.00  0.00     0.067 A 
ATOM     27  C   UNL     1      68.583  43.127   8.452  1.00  0.00     0.066 A 
ATOM     28  C   UNL     1      67.403  45.244   8.459  1.00  0.00     0.066 A 
ATOM     29  C   UNL     1      67.358  42.442   8.370  1.00  0.00     0.162 A 
ATOM     30  C   UNL     1      66.182  44.566   8.388  1.00  0.00     0.162 A 
ATOM     31  C   UNL     1      66.154  43.165   8.342  1.00  0.00     0.200 A 
BRANCH  29  32
ATOM     32  O   UNL     1      67.336  41.051   8.311  1.00  0.00    -0.504 OA
ATOM     33  H   UNL     1      66.946  40.496   9.064  1.00  0.00     0.293 HD
ENDBRANCH  29  32
BRANCH  30  34
ATOM     34  O   UNL     1      65.003  45.308   8.358  1.00  0.00    -0.504 OA
ATOM     35  H   UNL     1      64.922  46.212   8.812  1.00  0.00     0.293 HD
ENDBRANCH  30  34
BRANCH  31  36
ATOM     36  O   UNL     1      64.926  42.510   8.259  1.00  0.00    -0.502 OA
ATOM     37  H   UNL     1      64.046  42.994   8.381  1.00  0.00     0.293 HD
ENDBRANCH  31  36
ENDBRANCH  24  26
ENDBRANCH  23  24
ENDBRANCH   2  23
BRANCH   3  38
ATOM     38  O   UNL     1      72.166  47.099   5.716  1.00  0.00    -0.450 OA
BRANCH  38  39
ATOM     39  C   UNL     1      72.145  48.087   6.710  1.00  0.00     0.338 C 
ATOM     40  O   UNL     1      73.222  48.624   7.090  1.00  0.00    -0.246 OA
BRANCH  39  41
ATOM     41  C   UNL     1      70.860  48.519   7.303  1.00  0.00     0.067 A 
ATOM     42  C   UNL     1      70.844  49.346   8.440  1.00  0.00     0.066 A 
ATOM     43  C   UNL     1      69.643  48.111   6.734  1.00  0.00     0.066 A 
ATOM     44  C   UNL     1      69.633  49.755   9.004  1.00  0.00     0.162 A 
ATOM     45  C   UNL     1      68.424  48.511   7.291  1.00  0.00     0.162 A 
ATOM     46  C   UNL     1      68.415  49.335   8.446  1.00  0.00     0.200 A 
BRANCH  44  47
ATOM     47  O   UNL     1      69.638  50.587  10.125  1.00  0.00    -0.504 OA
ATOM     48  H   UNL     1      70.348  50.504  10.848  1.00  0.00     0.293 HD
ENDBRANCH  44  47
BRANCH  45  49
ATOM     49  O   UNL     1      67.255  48.066   6.672  1.00  0.00    -0.504 OA
ATOM     50  H   UNL     1      67.229  47.350   5.960  1.00  0.00     0.293 HD
ENDBRANCH  45  49
BRANCH  46  51
ATOM     51  O   UNL     1      67.235  49.753   9.068  1.00  0.00    -0.502 OA
ATOM     52  H   UNL     1      67.213  50.288   9.929  1.00  0.00     0.293 HD
ENDBRANCH  46  51
ENDBRANCH  39  41
ENDBRANCH  38  39
ENDBRANCH   3  38
BRANCH   5  53
ATOM     53  O   UNL     1      73.931  43.174   5.106  1.00  0.00    -0.428 OA
BRANCH  53  54
ATOM     54  C   UNL     1      74.614  42.057   5.600  1.00  0.00     0.340 C 
ATOM     55  O   UNL     1      75.106  42.065   6.757  1.00  0.00    -0.246 OA
BRANCH  54  56
ATOM     56  C   UNL     1      74.748  40.861   4.752  1.00  0.00     0.067 A 
ATOM     57  C   UNL     1      74.785  39.581   5.318  1.00  0.00     0.066 A 
ATOM     58  C   UNL     1      74.825  40.998   3.361  1.00  0.00     0.066 A 
ATOM     59  C   UNL     1      74.865  38.438   4.513  1.00  0.00     0.162 A 
ATOM     60  C   UNL     1      74.934  39.874   2.541  1.00  0.00     0.162 A 
ATOM     61  C   UNL     1      74.939  38.581   3.104  1.00  0.00     0.200 A 
BRANCH  59  62
ATOM     62  O   UNL     1      74.862  37.195   5.154  1.00  0.00    -0.504 OA
ATOM     63  H   UNL     1      74.123  36.878   5.771  1.00  0.00     0.293 HD
ENDBRANCH  59  62
BRANCH  60  64
ATOM     64  O   UNL     1      75.044  40.065   1.163  1.00  0.00    -0.504 OA
ATOM     65  H   UNL     1      75.522  39.399   0.565  1.00  0.00     0.293 HD
ENDBRANCH  60  64
BRANCH  61  66
ATOM     66  O   UNL     1      75.012  37.475   2.244  1.00  0.00    -0.502 OA
ATOM     67  H   UNL     1      75.874  37.109   1.863  1.00  0.00     0.293 HD
ENDBRANCH  61  66
ENDBRANCH  54  56
ENDBRANCH  53  54
ENDBRANCH   5  53
BRANCH   4  68
ATOM     68  O   UNL     1      72.735  45.125   3.623  1.00  0.00    -0.448 OA
BRANCH  68  69
ATOM     69  C   UNL     1      72.213  46.042   2.705  1.00  0.00     0.339 C 
ATOM     70  O   UNL     1      71.913  47.211   3.075  1.00  0.00    -0.246 OA
BRANCH  69  71
ATOM     71  C   UNL     1      72.001  45.627   1.303  1.00  0.00     0.067 A 
ATOM     72  C   UNL     1      70.897  46.088   0.574  1.00  0.00     0.066 A 
ATOM     73  C   UNL     1      72.916  44.766   0.675  1.00  0.00     0.066 A 
ATOM     74  C   UNL     1      70.711  45.710  -0.764  1.00  0.00     0.162 A 
ATOM     75  C   UNL     1      72.742  44.386  -0.659  1.00  0.00     0.162 A 
ATOM     76  C   UNL     1      71.639  44.858  -1.385  1.00  0.00     0.200 A 
BRANCH  74  77
ATOM     77  O   UNL     1      69.614  46.187  -1.482  1.00  0.00    -0.504 OA
ATOM     78  H   UNL     1      69.715  46.911  -2.186  1.00  0.00     0.293 HD
ENDBRANCH  74  77
BRANCH  75  79
ATOM     79  O   UNL     1      73.681  43.538  -1.249  1.00  0.00    -0.504 OA
ATOM     80  H   UNL     1      73.452  42.938  -2.030  1.00  0.00     0.293 HD
ENDBRANCH  75  79
BRANCH  76  81
ATOM     81  O   UNL     1      71.473  44.473  -2.718  1.00  0.00    -0.502 OA
ATOM     82  H   UNL     1      70.921  43.673  -2.987  1.00  0.00     0.293 HD
ENDBRANCH  76  81
ENDBRANCH  69  71
ENDBRANCH  68  69
ENDBRANCH   4  68
TORSDOF 31
ENDMDL
MODEL 6
REMARK VINA RESULT:    -5.646      2.613      6.294
REMARK INTER + INTRA:         -15.100
REMARK INTER:                  -8.760
REMARK INTRA:                  -6.340
REMARK UNBOUND:                -1.696
REMARK SMILES O=C(OC[C@H]1O[C@H](OC(=O)c2cc(O)c(O)c(O)c2)[C@H](OC(=O)c2cc(O)c(O)c(O)c2)[C@@H](OC(=O)c2cc(O)c(O)c(O)c2)[C@H]1OC(=O)c1cc(O)c(O)c(O)c1)c1cc(O)c(O)c(O)c1
REMARK SMILES IDX 5 1 46 2 33 3 20 4 7 5 6 6 4 7 3 8 2 9 1 10 59 11 60 12
REMARK SMILES IDX 61 13 67 14 63 15 65 16 62 17 64 19 66 21 47 23 48 24 49 25
REMARK SMILES IDX 50 26 58 27 51 28 56 29 52 30 54 31 57 32 53 34 55 36 34 38
REMARK SMILES IDX 35 39 36 40 37 41 45 42 38 43 43 44 39 45 41 46 44 47 40 49
REMARK SMILES IDX 42 51 8 53 9 54 10 55 11 56 19 57 12 58 17 59 13 60 15 61
REMARK SMILES IDX 18 62 14 64 16 66 21 68 22 69 23 70 24 71 32 72 25 73 30 74
REMARK SMILES IDX 26 75 28 76 31 77 27 79 29 81
REMARK H PARENT 62 18 64 20 66 22 57 33 53 35 55 37 44 48 40 50 42 52 18 63
REMARK H PARENT 14 65 16 67 31 78 27 80 29 82
REMARK Flexibility Score: inf
ROOT
ATOM      1  C   UNL     1      72.045  46.637   4.395  1.00  0.00     0.205 C 
ATOM      2  C   UNL     1      72.304  45.812   5.668  1.00  0.00     0.254 C 
ATOM      3  C   UNL     1      72.253  44.332   5.274  1.00  0.00     0.267 C 
ATOM      4  C   UNL     1      73.286  44.055   4.166  1.00  0.00     0.290 C 
ATOM      5  C   UNL     1      73.077  45.050   3.002  1.00  0.00     0.357 C 
ATOM      6  O   UNL     1      73.074  46.403   3.443  1.00  0.00    -0.329 OA
ENDROOT
BRANCH   1   7
ATOM      7  C   UNL     1      71.958  48.147   4.683  1.00  0.00     0.269 C 
BRANCH   7   8
ATOM      8  O   UNL     1      70.596  48.560   4.647  1.00  0.00    -0.459 OA
BRANCH   8   9
ATOM      9  C   UNL     1      69.950  49.114   5.761  1.00  0.00     0.338 C 
ATOM     10  O   UNL     1      70.219  50.295   6.123  1.00  0.00    -0.246 OA
BRANCH   9  11
ATOM     11  C   UNL     1      68.982  48.305   6.531  1.00  0.00     0.067 A 
ATOM     12  C   UNL     1      68.061  48.927   7.384  1.00  0.00     0.066 A 
ATOM     13  C   UNL     1      67.175  48.174   8.156  1.00  0.00     0.162 A 
ATOM     14  C   UNL     1      69.003  46.897   6.448  1.00  0.00     0.066 A 
ATOM     15  C   UNL     1      67.222  46.761   8.101  1.00  0.00     0.200 A 
ATOM     16  C   UNL     1      68.137  46.132   7.237  1.00  0.00     0.162 A 
BRANCH  13  17
ATOM     17  O   UNL     1      66.261  48.866   8.952  1.00  0.00    -0.504 OA
ATOM     18  H   UNL     1      66.457  49.169   9.891  1.00  0.00     0.293 HD
ENDBRANCH  13  17
BRANCH  15  19
ATOM     19  O   UNL     1      66.386  45.960   8.886  1.00  0.00    -0.502 OA
ATOM     20  H   UNL     1      66.056  46.208   9.806  1.00  0.00     0.293 HD
ENDBRANCH  15  19
BRANCH  16  21
ATOM     21  O   UNL     1      68.206  44.741   7.148  1.00  0.00    -0.504 OA
ATOM     22  H   UNL     1      67.404  44.179   6.892  1.00  0.00     0.293 HD
ENDBRANCH  16  21
ENDBRANCH   9  11
ENDBRANCH   8   9
ENDBRANCH   7   8
ENDBRANCH   1   7
BRANCH   2  23
ATOM     23  O   UNL     1      73.599  46.107   6.195  1.00  0.00    -0.452 OA
BRANCH  23  24
ATOM     24  C   UNL     1      73.837  46.528   7.510  1.00  0.00     0.338 C 
ATOM     25  O   UNL     1      74.818  46.067   8.147  1.00  0.00    -0.246 OA
BRANCH  24  26
ATOM     26  C   UNL     1      72.939  47.529   8.129  1.00  0.00     0.067 A 
ATOM     27  C   UNL     1      71.817  47.126   8.877  1.00  0.00     0.066 A 
ATOM     28  C   UNL     1      73.168  48.900   7.927  1.00  0.00     0.066 A 
ATOM     29  C   UNL     1      70.930  48.079   9.404  1.00  0.00     0.162 A 
ATOM     30  C   UNL     1      72.293  49.853   8.458  1.00  0.00     0.162 A 
ATOM     31  C   UNL     1      71.171  49.448   9.196  1.00  0.00     0.200 A 
BRANCH  29  32
ATOM     32  O   UNL     1      69.811  47.672  10.125  1.00  0.00    -0.504 OA
ATOM     33  H   UNL     1      69.888  47.028  10.904  1.00  0.00     0.293 HD
ENDBRANCH  29  32
BRANCH  30  34
ATOM     34  O   UNL     1      72.553  51.203   8.235  1.00  0.00    -0.504 OA
ATOM     35  H   UNL     1      73.119  51.521   7.454  1.00  0.00     0.293 HD
ENDBRANCH  30  34
BRANCH  31  36
ATOM     36  O   UNL     1      70.306  50.414   9.706  1.00  0.00    -0.502 OA
ATOM     37  H   UNL     1      69.831  50.302  10.593  1.00  0.00     0.293 HD
ENDBRANCH  31  36
ENDBRANCH  24  26
ENDBRANCH  23  24
ENDBRANCH   2  23
BRANCH   3  38
ATOM     38  O   UNL     1      72.483  43.505   6.415  1.00  0.00    -0.450 OA
BRANCH  38  39
ATOM     39  C   UNL     1      71.511  43.292   7.402  1.00  0.00     0.338 C 
ATOM     40  O   UNL     1      70.946  44.276   7.954  1.00  0.00    -0.246 OA
BRANCH  39  41
ATOM     41  C   UNL     1      71.131  41.915   7.787  1.00  0.00     0.067 A 
ATOM     42  C   UNL     1      72.094  41.028   8.296  1.00  0.00     0.066 A 
ATOM     43  C   UNL     1      69.802  41.481   7.650  1.00  0.00     0.066 A 
ATOM     44  C   UNL     1      71.740  39.726   8.659  1.00  0.00     0.162 A 
ATOM     45  C   UNL     1      69.435  40.179   8.006  1.00  0.00     0.162 A 
ATOM     46  C   UNL     1      70.416  39.284   8.508  1.00  0.00     0.200 A 
BRANCH  44  47
ATOM     47  O   UNL     1      72.708  38.863   9.176  1.00  0.00    -0.504 OA
ATOM     48  H   UNL     1      72.978  38.890  10.157  1.00  0.00     0.293 HD
ENDBRANCH  44  47
BRANCH  45  49
ATOM     49  O   UNL     1      68.098  39.819   7.842  1.00  0.00    -0.504 OA
ATOM     50  H   UNL     1      67.543  40.054   7.031  1.00  0.00     0.293 HD
ENDBRANCH  45  49
BRANCH  46  51
ATOM     51  O   UNL     1      70.125  37.964   8.861  1.00  0.00    -0.502 OA
ATOM     52  H   UNL     1      70.683  37.419   9.509  1.00  0.00     0.293 HD
ENDBRANCH  46  51
ENDBRANCH  39  41
ENDBRANCH  38  39
ENDBRANCH   3  38
BRANCH   5  53
ATOM     53  O   UNL     1      71.878  44.743   2.292  1.00  0.00    -0.428 OA
BRANCH  53  54
ATOM     54  C   UNL     1      71.505  45.377   1.102  1.00  0.00     0.340 C 
ATOM     55  O   UNL     1      70.605  46.256   1.098  1.00  0.00    -0.246 OA
BRANCH  54  56
ATOM     56  C   UNL     1      72.182  45.013  -0.152  1.00  0.00     0.067 A 
ATOM     57  C   UNL     1      71.862  43.825  -0.821  1.00  0.00     0.066 A 
ATOM     58  C   UNL     1      73.150  45.866  -0.696  1.00  0.00     0.066 A 
ATOM     59  C   UNL     1      72.471  43.497  -2.039  1.00  0.00     0.162 A 
ATOM     60  C   UNL     1      73.790  45.545  -1.894  1.00  0.00     0.162 A 
ATOM     61  C   UNL     1      73.447  44.366  -2.589  1.00  0.00     0.200 A 
BRANCH  59  62
ATOM     62  O   UNL     1      72.070  42.310  -2.662  1.00  0.00    -0.504 OA
ATOM     63  H   UNL     1      71.808  42.243  -3.639  1.00  0.00     0.293 HD
ENDBRANCH  59  62
BRANCH  60  64
ATOM     64  O   UNL     1      74.772  46.410  -2.375  1.00  0.00    -0.504 OA
ATOM     65  H   UNL     1      75.761  46.239  -2.221  1.00  0.00     0.293 HD
ENDBRANCH  60  64
BRANCH  61  66
ATOM     66  O   UNL     1      74.086  44.096  -3.808  1.00  0.00    -0.502 OA
ATOM     67  H   UNL     1      73.626  43.689  -4.611  1.00  0.00     0.293 HD
ENDBRANCH  61  66
ENDBRANCH  54  56
ENDBRANCH  53  54
ENDBRANCH   5  53
BRANCH   4  68
ATOM     68  O   UNL     1      73.118  42.733   3.657  1.00  0.00    -0.448 OA
BRANCH  68  69
ATOM     69  C   UNL     1      73.700  41.594   4.219  1.00  0.00     0.339 C 
ATOM     70  O   UNL     1      74.952  41.529   4.372  1.00  0.00    -0.246 OA
BRANCH  69  71
ATOM     71  C   UNL     1      72.842  40.459   4.618  1.00  0.00     0.067 A 
ATOM     72  C   UNL     1      71.480  40.435   4.291  1.00  0.00     0.066 A 
ATOM     73  C   UNL     1      73.387  39.378   5.329  1.00  0.00     0.066 A 
ATOM     74  C   UNL     1      70.674  39.346   4.653  1.00  0.00     0.162 A 
ATOM     75  C   UNL     1      72.593  38.286   5.692  1.00  0.00     0.162 A 
ATOM     76  C   UNL     1      71.232  38.264   5.354  1.00  0.00     0.200 A 
BRANCH  74  77
ATOM     77  O   UNL     1      69.322  39.329   4.309  1.00  0.00    -0.504 OA
ATOM     78  H   UNL     1      68.984  38.806   3.507  1.00  0.00     0.293 HD
ENDBRANCH  74  77
BRANCH  75  79
ATOM     79  O   UNL     1      73.177  37.225   6.387  1.00  0.00    -0.504 OA
ATOM     80  H   UNL     1      72.706  36.752   7.146  1.00  0.00     0.293 HD
ENDBRANCH  75  79
BRANCH  76  81
ATOM     81  O   UNL     1      70.446  37.169   5.719  1.00  0.00    -0.502 OA
ATOM     82  H   UNL     1      70.316  36.892   6.680  1.00  0.00     0.293 HD
ENDBRANCH  76  81
ENDBRANCH  69  71
ENDBRANCH  68  69
ENDBRANCH   4  68
TORSDOF 31
ENDMDL
MODEL 7
REMARK VINA RESULT:    -5.521      1.626      7.601
REMARK INTER + INTRA:         -14.802
REMARK INTER:                 -12.875
REMARK INTRA:                  -1.927
REMARK UNBOUND:                -1.696
REMARK SMILES O=C(OC[C@H]1O[C@H](OC(=O)c2cc(O)c(O)c(O)c2)[C@H](OC(=O)c2cc(O)c(O)c(O)c2)[C@@H](OC(=O)c2cc(O)c(O)c(O)c2)[C@H]1OC(=O)c1cc(O)c(O)c(O)c1)c1cc(O)c(O)c(O)c1
REMARK SMILES IDX 5 1 46 2 33 3 20 4 7 5 6 6 4 7 3 8 2 9 1 10 59 11 60 12
REMARK SMILES IDX 61 13 67 14 63 15 65 16 62 17 64 19 66 21 47 23 48 24 49 25
REMARK SMILES IDX 50 26 58 27 51 28 56 29 52 30 54 31 57 32 53 34 55 36 34 38
REMARK SMILES IDX 35 39 36 40 37 41 45 42 38 43 43 44 39 45 41 46 44 47 40 49
REMARK SMILES IDX 42 51 8 53 9 54 10 55 11 56 19 57 12 58 17 59 13 60 15 61
REMARK SMILES IDX 18 62 14 64 16 66 21 68 22 69 23 70 24 71 32 72 25 73 30 74
REMARK SMILES IDX 26 75 28 76 31 77 27 79 29 81
REMARK H PARENT 62 18 64 20 66 22 57 33 53 35 55 37 44 48 40 50 42 52 18 63
REMARK H PARENT 14 65 16 67 31 78 27 80 29 82
REMARK Flexibility Score: inf
ROOT
ATOM      1  C   UNL     1      71.880  44.421   8.891  1.00  0.00     0.205 C 
ATOM      2  C   UNL     1      72.628  44.310   7.550  1.00  0.00     0.254 C 
ATOM      3  C   UNL     1      71.941  43.213   6.729  1.00  0.00     0.267 C 
ATOM      4  C   UNL     1      70.451  43.558   6.550  1.00  0.00     0.290 C 
ATOM      5  C   UNL     1      69.815  43.840   7.931  1.00  0.00     0.357 C 
ATOM      6  O   UNL     1      70.535  44.822   8.666  1.00  0.00    -0.329 OA
ENDROOT
BRANCH   1   7
ATOM      7  C   UNL     1      72.550  45.417   9.854  1.00  0.00     0.269 C 
BRANCH   7   8
ATOM      8  O   UNL     1      72.848  46.623   9.159  1.00  0.00    -0.459 OA
BRANCH   8   9
ATOM      9  C   UNL     1      72.196  47.832   9.439  1.00  0.00     0.338 C 
ATOM     10  O   UNL     1      72.781  48.719  10.125  1.00  0.00    -0.246 OA
BRANCH   9  11
ATOM     11  C   UNL     1      70.816  48.054   8.960  1.00  0.00     0.067 A 
ATOM     12  C   UNL     1      69.724  47.645   9.738  1.00  0.00     0.066 A 
ATOM     13  C   UNL     1      68.415  47.801   9.277  1.00  0.00     0.162 A 
ATOM     14  C   UNL     1      70.582  48.638   7.699  1.00  0.00     0.066 A 
ATOM     15  C   UNL     1      68.184  48.353   7.995  1.00  0.00     0.200 A 
ATOM     16  C   UNL     1      69.276  48.775   7.216  1.00  0.00     0.162 A 
BRANCH  13  17
ATOM     17  O   UNL     1      67.380  47.406  10.125  1.00  0.00    -0.504 OA
ATOM     18  H   UNL     1      66.513  47.908  10.217  1.00  0.00     0.293 HD
ENDBRANCH  13  17
BRANCH  15  19
ATOM     19  O   UNL     1      66.895  48.491   7.469  1.00  0.00    -0.502 OA
ATOM     20  H   UNL     1      66.410  47.773   6.953  1.00  0.00     0.293 HD
ENDBRANCH  15  19
BRANCH  16  21
ATOM     21  O   UNL     1      69.087  49.333   5.951  1.00  0.00    -0.504 OA
ATOM     22  H   UNL     1      68.717  50.267   5.826  1.00  0.00     0.293 HD
ENDBRANCH  16  21
ENDBRANCH   9  11
ENDBRANCH   8   9
ENDBRANCH   7   8
ENDBRANCH   1   7
BRANCH   2  23
ATOM     23  O   UNL     1      72.549  45.543   6.834  1.00  0.00    -0.452 OA
BRANCH  23  24
ATOM     24  C   UNL     1      73.300  45.839   5.688  1.00  0.00     0.338 C 
ATOM     25  O   UNL     1      74.553  45.736   5.717  1.00  0.00    -0.246 OA
BRANCH  24  26
ATOM     26  C   UNL     1      72.606  46.253   4.449  1.00  0.00     0.067 A 
ATOM     27  C   UNL     1      72.673  45.462   3.287  1.00  0.00     0.066 A 
ATOM     28  C   UNL     1      71.914  47.474   4.404  1.00  0.00     0.066 A 
ATOM     29  C   UNL     1      72.070  45.894   2.093  1.00  0.00     0.162 A 
ATOM     30  C   UNL     1      71.303  47.903   3.221  1.00  0.00     0.162 A 
ATOM     31  C   UNL     1      71.380  47.117   2.062  1.00  0.00     0.200 A 
BRANCH  29  32
ATOM     32  O   UNL     1      72.160  45.116   0.942  1.00  0.00    -0.504 OA
ATOM     33  H   UNL     1      72.894  45.264   0.259  1.00  0.00     0.293 HD
ENDBRANCH  29  32
BRANCH  30  34
ATOM     34  O   UNL     1      70.628  49.121   3.217  1.00  0.00    -0.504 OA
ATOM     35  H   UNL     1      70.269  49.536   2.362  1.00  0.00     0.293 HD
ENDBRANCH  30  34
BRANCH  31  36
ATOM     36  O   UNL     1      70.774  47.569   0.891  1.00  0.00    -0.502 OA
ATOM     37  H   UNL     1      71.266  47.610   0.007  1.00  0.00     0.293 HD
ENDBRANCH  31  36
ENDBRANCH  24  26
ENDBRANCH  23  24
ENDBRANCH   2  23
BRANCH   3  38
ATOM     38  O   UNL     1      72.590  43.054   5.468  1.00  0.00    -0.450 OA
BRANCH  38  39
ATOM     39  C   UNL     1      73.858  42.470   5.339  1.00  0.00     0.338 C 
ATOM     40  O   UNL     1      74.891  43.133   5.629  1.00  0.00    -0.246 OA
BRANCH  39  41
ATOM     41  C   UNL     1      73.988  41.068   4.883  1.00  0.00     0.067 A 
ATOM     42  C   UNL     1      74.256  40.782   3.533  1.00  0.00     0.066 A 
ATOM     43  C   UNL     1      73.849  40.009   5.795  1.00  0.00     0.066 A 
ATOM     44  C   UNL     1      74.378  39.460   3.098  1.00  0.00     0.162 A 
ATOM     45  C   UNL     1      73.965  38.682   5.371  1.00  0.00     0.162 A 
ATOM     46  C   UNL     1      74.223  38.399   4.004  1.00  0.00     0.200 A 
BRANCH  44  47
ATOM     47  O   UNL     1      74.657  39.197   1.755  1.00  0.00    -0.504 OA
ATOM     48  H   UNL     1      75.609  39.202   1.397  1.00  0.00     0.293 HD
ENDBRANCH  44  47
BRANCH  45  49
ATOM     49  O   UNL     1      73.815  37.682   6.332  1.00  0.00    -0.504 OA
ATOM     50  H   UNL     1      72.923  37.350   6.669  1.00  0.00     0.293 HD
ENDBRANCH  45  49
BRANCH  46  51
ATOM     51  O   UNL     1      74.328  37.097   3.507  1.00  0.00    -0.502 OA
ATOM     52  H   UNL     1      74.396  36.877   2.520  1.00  0.00     0.293 HD
ENDBRANCH  46  51
ENDBRANCH  39  41
ENDBRANCH  38  39
ENDBRANCH   3  38
BRANCH   5  53
ATOM     53  O   UNL     1      69.692  42.631   8.679  1.00  0.00    -0.428 OA
BRANCH  53  54
ATOM     54  C   UNL     1      68.461  42.085   9.060  1.00  0.00     0.340 C 
ATOM     55  O   UNL     1      68.408  40.984   9.666  1.00  0.00    -0.246 OA
BRANCH  54  56
ATOM     56  C   UNL     1      67.221  42.816   8.752  1.00  0.00     0.067 A 
ATOM     57  C   UNL     1      67.259  44.034   8.062  1.00  0.00     0.066 A 
ATOM     58  C   UNL     1      65.985  42.285   9.138  1.00  0.00     0.066 A 
ATOM     59  C   UNL     1      66.079  44.709   7.726  1.00  0.00     0.162 A 
ATOM     60  C   UNL     1      64.798  42.955   8.839  1.00  0.00     0.162 A 
ATOM     61  C   UNL     1      64.828  44.166   8.116  1.00  0.00     0.200 A 
BRANCH  59  62
ATOM     62  O   UNL     1      66.201  45.902   7.006  1.00  0.00    -0.504 OA
ATOM     63  H   UNL     1      67.088  46.318   6.745  1.00  0.00     0.293 HD
ENDBRANCH  59  62
BRANCH  60  64
ATOM     64  O   UNL     1      63.594  42.403   9.277  1.00  0.00    -0.504 OA
ATOM     65  H   UNL     1      63.243  41.523   8.913  1.00  0.00     0.293 HD
ENDBRANCH  60  64
BRANCH  61  66
ATOM     66  O   UNL     1      63.612  44.790   7.802  1.00  0.00    -0.502 OA
ATOM     67  H   UNL     1      63.457  45.343   6.969  1.00  0.00     0.293 HD
ENDBRANCH  61  66
ENDBRANCH  54  56
ENDBRANCH  53  54
ENDBRANCH   5  53
BRANCH   4  68
ATOM     68  O   UNL     1      69.760  42.460   5.958  1.00  0.00    -0.448 OA
BRANCH  68  69
ATOM     69  C   UNL     1      70.365  41.253   5.596  1.00  0.00     0.339 C 
ATOM     70  O   UNL     1      70.881  41.118   4.451  1.00  0.00    -0.246 OA
BRANCH  69  71
ATOM     71  C   UNL     1      70.384  40.131   6.557  1.00  0.00     0.067 A 
ATOM     72  C   UNL     1      71.279  40.119   7.635  1.00  0.00     0.066 A 
ATOM     73  C   UNL     1      69.492  39.057   6.406  1.00  0.00     0.066 A 
ATOM     74  C   UNL     1      71.279  39.063   8.558  1.00  0.00     0.162 A 
ATOM     75  C   UNL     1      69.481  38.001   7.322  1.00  0.00     0.162 A 
ATOM     76  C   UNL     1      70.374  38.000   8.404  1.00  0.00     0.200 A 
BRANCH  74  77
ATOM     77  O   UNL     1      72.166  39.071   9.634  1.00  0.00    -0.504 OA
ATOM     78  H   UNL     1      72.967  38.448   9.666  1.00  0.00     0.293 HD
ENDBRANCH  74  77
BRANCH  75  79
ATOM     79  O   UNL     1      68.569  36.958   7.143  1.00  0.00    -0.504 OA
ATOM     80  H   UNL     1      68.840  35.987   7.210  1.00  0.00     0.293 HD
ENDBRANCH  75  79
BRANCH  76  81
ATOM     81  O   UNL     1      70.356  36.941   9.314  1.00  0.00    -0.502 OA
ATOM     82  H   UNL     1      70.136  35.995   9.043  1.00  0.00     0.293 HD
ENDBRANCH  76  81
ENDBRANCH  69  71
ENDBRANCH  68  69
ENDBRANCH   4  68
TORSDOF 31
ENDMDL
MODEL 8
REMARK VINA RESULT:    -5.216      1.361      2.016
REMARK INTER + INTRA:         -14.079
REMARK INTER:                 -13.121
REMARK INTRA:                  -0.958
REMARK UNBOUND:                -1.696
REMARK SMILES O=C(OC[C@H]1O[C@H](OC(=O)c2cc(O)c(O)c(O)c2)[C@H](OC(=O)c2cc(O)c(O)c(O)c2)[C@@H](OC(=O)c2cc(O)c(O)c(O)c2)[C@H]1OC(=O)c1cc(O)c(O)c(O)c1)c1cc(O)c(O)c(O)c1
REMARK SMILES IDX 5 1 46 2 33 3 20 4 7 5 6 6 4 7 3 8 2 9 1 10 59 11 60 12
REMARK SMILES IDX 61 13 67 14 63 15 65 16 62 17 64 19 66 21 47 23 48 24 49 25
REMARK SMILES IDX 50 26 58 27 51 28 56 29 52 30 54 31 57 32 53 34 55 36 34 38
REMARK SMILES IDX 35 39 36 40 37 41 45 42 38 43 43 44 39 45 41 46 44 47 40 49
REMARK SMILES IDX 42 51 8 53 9 54 10 55 11 56 19 57 12 58 17 59 13 60 15 61
REMARK SMILES IDX 18 62 14 64 16 66 21 68 22 69 23 70 24 71 32 72 25 73 30 74
REMARK SMILES IDX 26 75 28 76 31 77 27 79 29 81
REMARK H PARENT 62 18 64 20 66 22 57 33 53 35 55 37 44 48 40 50 42 52 18 63
REMARK H PARENT 14 65 16 67 31 78 27 80 29 82
REMARK Flexibility Score: inf
ROOT
ATOM      1  C   UNL     1      72.648  45.050   7.484  1.00  0.00     0.205 C 
ATOM      2  C   UNL     1      71.227  45.296   8.024  1.00  0.00     0.254 C 
ATOM      3  C   UNL     1      70.588  43.927   8.279  1.00  0.00     0.267 C 
ATOM      4  C   UNL     1      71.464  43.121   9.257  1.00  0.00     0.290 C 
ATOM      5  C   UNL     1      72.919  43.079   8.736  1.00  0.00     0.357 C 
ATOM      6  O   UNL     1      73.431  44.377   8.461  1.00  0.00    -0.329 OA
ENDROOT
BRANCH   1   7
ATOM      7  C   UNL     1      73.355  46.356   7.081  1.00  0.00     0.269 C 
BRANCH   7   8
ATOM      8  O   UNL     1      73.224  46.553   5.676  1.00  0.00    -0.459 OA
BRANCH   8   9
ATOM      9  C   UNL     1      72.280  47.432   5.127  1.00  0.00     0.338 C 
ATOM     10  O   UNL     1      71.735  48.308   5.859  1.00  0.00    -0.246 OA
BRANCH   9  11
ATOM     11  C   UNL     1      71.900  47.312   3.705  1.00  0.00     0.067 A 
ATOM     12  C   UNL     1      71.263  48.376   3.051  1.00  0.00     0.066 A 
ATOM     13  C   UNL     1      70.850  48.258   1.722  1.00  0.00     0.162 A 
ATOM     14  C   UNL     1      72.133  46.112   3.002  1.00  0.00     0.066 A 
ATOM     15  C   UNL     1      71.052  47.041   1.029  1.00  0.00     0.200 A 
ATOM     16  C   UNL     1      71.701  45.975   1.678  1.00  0.00     0.162 A 
BRANCH  13  17
ATOM     17  O   UNL     1      70.258  49.374   1.128  1.00  0.00    -0.504 OA
ATOM     18  H   UNL     1      70.779  50.121   0.702  1.00  0.00     0.293 HD
ENDBRANCH  13  17
BRANCH  15  19
ATOM     19  O   UNL     1      70.619  46.857  -0.288  1.00  0.00    -0.502 OA
ATOM     20  H   UNL     1      71.106  46.305  -0.977  1.00  0.00     0.293 HD
ENDBRANCH  15  19
BRANCH  16  21
ATOM     21  O   UNL     1      71.926  44.763   1.025  1.00  0.00    -0.504 OA
ATOM     22  H   UNL     1      72.181  43.921   1.527  1.00  0.00     0.293 HD
ENDBRANCH  16  21
ENDBRANCH   9  11
ENDBRANCH   8   9
ENDBRANCH   7   8
ENDBRANCH   1   7
BRANCH   2  23
ATOM     23  O   UNL     1      71.284  46.018   9.256  1.00  0.00    -0.452 OA
BRANCH  23  24
ATOM     24  C   UNL     1      70.896  47.357   9.403  1.00  0.00     0.338 C 
ATOM     25  O   UNL     1      71.704  48.194   9.883  1.00  0.00    -0.246 OA
BRANCH  24  26
ATOM     26  C   UNL     1      69.544  47.776   8.972  1.00  0.00     0.067 A 
ATOM     27  C   UNL     1      68.797  48.694   9.732  1.00  0.00     0.066 A 
ATOM     28  C   UNL     1      68.968  47.215   7.820  1.00  0.00     0.066 A 
ATOM     29  C   UNL     1      67.487  49.035   9.355  1.00  0.00     0.162 A 
ATOM     30  C   UNL     1      67.668  47.560   7.435  1.00  0.00     0.162 A 
ATOM     31  C   UNL     1      66.922  48.468   8.201  1.00  0.00     0.200 A 
BRANCH  29  32
ATOM     32  O   UNL     1      66.746  49.928  10.125  1.00  0.00    -0.504 OA
ATOM     33  H   UNL     1      65.925  49.629  10.639  1.00  0.00     0.293 HD
ENDBRANCH  29  32
BRANCH  30  34
ATOM     34  O   UNL     1      67.131  46.980   6.288  1.00  0.00    -0.504 OA
ATOM     35  H   UNL     1      67.615  46.250   5.775  1.00  0.00     0.293 HD
ENDBRANCH  30  34
BRANCH  31  36
ATOM     36  O   UNL     1      65.624  48.788   7.805  1.00  0.00    -0.502 OA
ATOM     37  H   UNL     1      65.238  48.487   6.920  1.00  0.00     0.293 HD
ENDBRANCH  31  36
ENDBRANCH  24  26
ENDBRANCH  23  24
ENDBRANCH   2  23
BRANCH   3  38
ATOM     38  O   UNL     1      69.261  44.082   8.781  1.00  0.00    -0.450 OA
BRANCH  38  39
ATOM     39  C   UNL     1      68.174  43.354   8.279  1.00  0.00     0.338 C 
ATOM     40  O   UNL     1      68.373  42.344   7.550  1.00  0.00    -0.246 OA
BRANCH  39  41
ATOM     41  C   UNL     1      66.790  43.754   8.619  1.00  0.00     0.067 A 
ATOM     42  C   UNL     1      65.715  42.889   8.353  1.00  0.00     0.066 A 
ATOM     43  C   UNL     1      66.537  45.000   9.215  1.00  0.00     0.066 A 
ATOM     44  C   UNL     1      64.407  43.263   8.672  1.00  0.00     0.162 A 
ATOM     45  C   UNL     1      65.232  45.388   9.534  1.00  0.00     0.162 A 
ATOM     46  C   UNL     1      64.150  44.515   9.252  1.00  0.00     0.200 A 
BRANCH  44  47
ATOM     47  O   UNL     1      63.353  42.384   8.412  1.00  0.00    -0.504 OA
ATOM     48  H   UNL     1      62.922  42.325   7.493  1.00  0.00     0.293 HD
ENDBRANCH  44  47
BRANCH  45  49
ATOM     49  O   UNL     1      65.057  46.640  10.123  1.00  0.00    -0.504 OA
ATOM     50  H   UNL     1      65.073  47.512   9.615  1.00  0.00     0.293 HD
ENDBRANCH  45  49
BRANCH  46  51
ATOM     51  O   UNL     1      62.819  44.847   9.523  1.00  0.00    -0.502 OA
ATOM     52  H   UNL     1      62.052  44.187   9.460  1.00  0.00     0.293 HD
ENDBRANCH  46  51
ENDBRANCH  39  41
ENDBRANCH  38  39
ENDBRANCH   3  38
BRANCH   5  53
ATOM     53  O   UNL     1      73.012  42.240   7.585  1.00  0.00    -0.428 OA
BRANCH  53  54
ATOM     54  C   UNL     1      74.166  42.139   6.800  1.00  0.00     0.340 C 
ATOM     55  O   UNL     1      75.101  42.970   6.923  1.00  0.00    -0.246 OA
BRANCH  54  56
ATOM     56  C   UNL     1      74.281  41.041   5.827  1.00  0.00     0.067 A 
ATOM     57  C   UNL     1      74.234  39.705   6.244  1.00  0.00     0.066 A 
ATOM     58  C   UNL     1      74.426  41.328   4.465  1.00  0.00     0.066 A 
ATOM     59  C   UNL     1      74.296  38.657   5.317  1.00  0.00     0.162 A 
ATOM     60  C   UNL     1      74.519  40.300   3.526  1.00  0.00     0.162 A 
ATOM     61  C   UNL     1      74.439  38.953   3.937  1.00  0.00     0.200 A 
BRANCH  59  62
ATOM     62  O   UNL     1      74.207  37.352   5.811  1.00  0.00    -0.504 OA
ATOM     63  H   UNL     1      73.871  37.118   6.739  1.00  0.00     0.293 HD
ENDBRANCH  59  62
BRANCH  60  64
ATOM     64  O   UNL     1      74.698  40.639   2.185  1.00  0.00    -0.504 OA
ATOM     65  H   UNL     1      74.696  41.603   1.870  1.00  0.00     0.293 HD
ENDBRANCH  60  64
BRANCH  61  66
ATOM     66  O   UNL     1      74.498  37.948   2.960  1.00  0.00    -0.502 OA
ATOM     67  H   UNL     1      73.799  37.812   2.243  1.00  0.00     0.293 HD
ENDBRANCH  61  66
ENDBRANCH  54  56
ENDBRANCH  53  54
ENDBRANCH   5  53
BRANCH   4  68
ATOM     68  O   UNL     1      70.987  41.781   9.353  1.00  0.00    -0.448 OA
BRANCH  68  69
ATOM     69  C   UNL     1      71.603  40.682   8.747  1.00  0.00     0.339 C 
ATOM     70  O   UNL     1      72.789  40.371   9.047  1.00  0.00    -0.246 OA
BRANCH  69  71
ATOM     71  C   UNL     1      70.860  39.895   7.740  1.00  0.00     0.067 A 
ATOM     72  C   UNL     1      70.150  38.744   8.106  1.00  0.00     0.066 A 
ATOM     73  C   UNL     1      70.850  40.298   6.395  1.00  0.00     0.066 A 
ATOM     74  C   UNL     1      69.428  38.012   7.152  1.00  0.00     0.162 A 
ATOM     75  C   UNL     1      70.131  39.578   5.437  1.00  0.00     0.162 A 
ATOM     76  C   UNL     1      69.415  38.432   5.811  1.00  0.00     0.200 A 
BRANCH  74  77
ATOM     77  O   UNL     1      68.714  36.875   7.532  1.00  0.00    -0.504 OA
ATOM     78  H   UNL     1      67.749  36.736   7.251  1.00  0.00     0.293 HD
ENDBRANCH  74  77
BRANCH  75  79
ATOM     79  O   UNL     1      70.136  40.021   4.113  1.00  0.00    -0.504 OA
ATOM     80  H   UNL     1      70.715  40.789   3.802  1.00  0.00     0.293 HD
ENDBRANCH  75  79
BRANCH  76  81
ATOM     81  O   UNL     1      68.699  37.718   4.848  1.00  0.00    -0.502 OA
ATOM     82  H   UNL     1      69.023  37.614   3.898  1.00  0.00     0.293 HD
ENDBRANCH  76  81
ENDBRANCH  69  71
ENDBRANCH  68  69
ENDBRANCH   4  68
TORSDOF 31
ENDMDL
MODEL 9
REMARK VINA RESULT:    -4.913      2.144      6.620
REMARK INTER + INTRA:         -13.358
REMARK INTER:                 -11.393
REMARK INTRA:                  -1.965
REMARK UNBOUND:                -1.696
REMARK SMILES O=C(OC[C@H]1O[C@H](OC(=O)c2cc(O)c(O)c(O)c2)[C@H](OC(=O)c2cc(O)c(O)c(O)c2)[C@@H](OC(=O)c2cc(O)c(O)c(O)c2)[C@H]1OC(=O)c1cc(O)c(O)c(O)c1)c1cc(O)c(O)c(O)c1
REMARK SMILES IDX 5 1 46 2 33 3 20 4 7 5 6 6 4 7 3 8 2 9 1 10 59 11 60 12
REMARK SMILES IDX 61 13 67 14 63 15 65 16 62 17 64 19 66 21 47 23 48 24 49 25
REMARK SMILES IDX 50 26 58 27 51 28 56 29 52 30 54 31 57 32 53 34 55 36 34 38
REMARK SMILES IDX 35 39 36 40 37 41 45 42 38 43 43 44 39 45 41 46 44 47 40 49
REMARK SMILES IDX 42 51 8 53 9 54 10 55 11 56 19 57 12 58 17 59 13 60 15 61
REMARK SMILES IDX 18 62 14 64 16 66 21 68 22 69 23 70 24 71 32 72 25 73 30 74
REMARK SMILES IDX 26 75 28 76 31 77 27 79 29 81
REMARK H PARENT 62 18 64 20 66 22 57 33 53 35 55 37 44 48 40 50 42 52 18 63
REMARK H PARENT 14 65 16 67 31 78 27 80 29 82
REMARK Flexibility Score: inf
ROOT
ATOM      1  C   UNL     1      72.625  43.879   7.424  1.00  0.00     0.205 C 
ATOM      2  C   UNL     1      72.135  45.316   7.174  1.00  0.00     0.254 C 
ATOM      3  C   UNL     1      72.599  45.723   5.771  1.00  0.00     0.267 C 
ATOM      4  C   UNL     1      72.053  44.722   4.736  1.00  0.00     0.290 C 
ATOM      5  C   UNL     1      72.428  43.283   5.159  1.00  0.00     0.357 C 
ATOM      6  O   UNL     1      72.024  42.990   6.491  1.00  0.00    -0.329 OA
ENDROOT
BRANCH   1   7
ATOM      7  C   UNL     1      72.317  43.395   8.853  1.00  0.00     0.269 C 
BRANCH   7   8
ATOM      8  O   UNL     1      71.437  42.277   8.796  1.00  0.00    -0.459 OA
BRANCH   8   9
ATOM      9  C   UNL     1      71.875  40.996   8.432  1.00  0.00     0.338 C 
ATOM     10  O   UNL     1      73.020  40.596   8.790  1.00  0.00    -0.246 OA
BRANCH   9  11
ATOM     11  C   UNL     1      71.012  40.129   7.603  1.00  0.00     0.067 A 
ATOM     12  C   UNL     1      70.248  39.116   8.198  1.00  0.00     0.066 A 
ATOM     13  C   UNL     1      69.468  38.255   7.422  1.00  0.00     0.162 A 
ATOM     14  C   UNL     1      70.980  40.283   6.202  1.00  0.00     0.066 A 
ATOM     15  C   UNL     1      69.466  38.387   6.014  1.00  0.00     0.200 A 
ATOM     16  C   UNL     1      70.222  39.410   5.413  1.00  0.00     0.162 A 
BRANCH  13  17
ATOM     17  O   UNL     1      68.705  37.296   8.090  1.00  0.00    -0.504 OA
ATOM     18  H   UNL     1      67.947  37.521   8.712  1.00  0.00     0.293 HD
ENDBRANCH  13  17
BRANCH  15  19
ATOM     19  O   UNL     1      68.737  37.524   5.189  1.00  0.00    -0.502 OA
ATOM     20  H   UNL     1      68.827  36.520   5.192  1.00  0.00     0.293 HD
ENDBRANCH  15  19
BRANCH  16  21
ATOM     21  O   UNL     1      70.239  39.577   4.028  1.00  0.00    -0.504 OA
ATOM     22  H   UNL     1      70.401  40.479   3.598  1.00  0.00     0.293 HD
ENDBRANCH  16  21
ENDBRANCH   9  11
ENDBRANCH   8   9
ENDBRANCH   7   8
ENDBRANCH   1   7
BRANCH   2  23
ATOM     23  O   UNL     1      70.708  45.370   7.225  1.00  0.00    -0.452 OA
BRANCH  23  24
ATOM     24  C   UNL     1      69.960  45.336   8.410  1.00  0.00     0.338 C 
ATOM     25  O   UNL     1      70.378  45.939   9.432  1.00  0.00    -0.246 OA
BRANCH  24  26
ATOM     26  C   UNL     1      68.675  44.604   8.439  1.00  0.00     0.067 A 
ATOM     27  C   UNL     1      68.612  43.274   8.894  1.00  0.00     0.066 A 
ATOM     28  C   UNL     1      67.506  45.216   7.957  1.00  0.00     0.066 A 
ATOM     29  C   UNL     1      67.401  42.562   8.855  1.00  0.00     0.162 A 
ATOM     30  C   UNL     1      66.296  44.515   7.926  1.00  0.00     0.162 A 
ATOM     31  C   UNL     1      66.239  43.186   8.372  1.00  0.00     0.200 A 
BRANCH  29  32
ATOM     32  O   UNL     1      67.351  41.239   9.286  1.00  0.00    -0.504 OA
ATOM     33  H   UNL     1      68.015  40.549   8.955  1.00  0.00     0.293 HD
ENDBRANCH  29  32
BRANCH  30  34
ATOM     34  O   UNL     1      65.160  45.157   7.439  1.00  0.00    -0.504 OA
ATOM     35  H   UNL     1      65.215  45.917   6.769  1.00  0.00     0.293 HD
ENDBRANCH  30  34
BRANCH  31  36
ATOM     36  O   UNL     1      65.025  42.502   8.320  1.00  0.00    -0.502 OA
ATOM     37  H   UNL     1      64.137  42.964   8.468  1.00  0.00     0.293 HD
ENDBRANCH  31  36
ENDBRANCH  24  26
ENDBRANCH  23  24
ENDBRANCH   2  23
BRANCH   3  38
ATOM     38  O   UNL     1      72.179  47.054   5.474  1.00  0.00    -0.450 OA
BRANCH  38  39
ATOM     39  C   UNL     1      72.240  48.093   6.413  1.00  0.00     0.338 C 
ATOM     40  O   UNL     1      73.339  48.664   6.651  1.00  0.00    -0.246 OA
BRANCH  39  41
ATOM     41  C   UNL     1      71.014  48.536   7.113  1.00  0.00     0.067 A 
ATOM     42  C   UNL     1      69.746  48.201   6.606  1.00  0.00     0.066 A 
ATOM     43  C   UNL     1      71.103  49.292   8.293  1.00  0.00     0.066 A 
ATOM     44  C   UNL     1      68.585  48.619   7.262  1.00  0.00     0.162 A 
ATOM     45  C   UNL     1      69.949  49.720   8.957  1.00  0.00     0.162 A 
ATOM     46  C   UNL     1      68.672  49.389   8.433  1.00  0.00     0.200 A 
BRANCH  44  47
ATOM     47  O   UNL     1      67.335  48.265   6.750  1.00  0.00    -0.504 OA
ATOM     48  H   UNL     1      67.193  48.102   5.756  1.00  0.00     0.293 HD
ENDBRANCH  44  47
BRANCH  45  49
ATOM     49  O   UNL     1      70.115  50.468  10.123  1.00  0.00    -0.504 OA
ATOM     50  H   UNL     1      70.981  50.527  10.639  1.00  0.00     0.293 HD
ENDBRANCH  45  49
BRANCH  46  51
ATOM     51  O   UNL     1      67.478  49.802   9.031  1.00  0.00    -0.502 OA
ATOM     52  H   UNL     1      67.376  49.966  10.026  1.00  0.00     0.293 HD
ENDBRANCH  46  51
ENDBRANCH  39  41
ENDBRANCH  38  39
ENDBRANCH   3  38
BRANCH   5  53
ATOM     53  O   UNL     1      73.827  43.061   4.990  1.00  0.00    -0.428 OA
BRANCH  53  54
ATOM     54  C   UNL     1      74.490  41.927   5.471  1.00  0.00     0.340 C 
ATOM     55  O   UNL     1      75.065  41.945   6.589  1.00  0.00    -0.246 OA
BRANCH  54  56
ATOM     56  C   UNL     1      74.503  40.701   4.656  1.00  0.00     0.067 A 
ATOM     57  C   UNL     1      74.764  40.756   3.281  1.00  0.00     0.066 A 
ATOM     58  C   UNL     1      74.267  39.460   5.260  1.00  0.00     0.066 A 
ATOM     59  C   UNL     1      74.825  39.587   2.512  1.00  0.00     0.162 A 
ATOM     60  C   UNL     1      74.294  38.286   4.507  1.00  0.00     0.162 A 
ATOM     61  C   UNL     1      74.589  38.332   3.128  1.00  0.00     0.200 A 
BRANCH  59  62
ATOM     62  O   UNL     1      75.125  39.724   1.153  1.00  0.00    -0.504 OA
ATOM     63  H   UNL     1      74.559  39.338   0.405  1.00  0.00     0.293 HD
ENDBRANCH  59  62
BRANCH  60  64
ATOM     64  O   UNL     1      74.017  37.078   5.149  1.00  0.00    -0.504 OA
ATOM     65  H   UNL     1      74.599  36.257   5.022  1.00  0.00     0.293 HD
ENDBRANCH  60  64
BRANCH  61  66
ATOM     66  O   UNL     1      74.643  37.126   2.413  1.00  0.00    -0.502 OA
ATOM     67  H   UNL     1      74.878  36.233   2.823  1.00  0.00     0.293 HD
ENDBRANCH  61  66
ENDBRANCH  54  56
ENDBRANCH  53  54
ENDBRANCH   5  53
BRANCH   4  68
ATOM     68  O   UNL     1      72.631  44.973   3.456  1.00  0.00    -0.448 OA
BRANCH  68  69
ATOM     69  C   UNL     1      72.184  45.959   2.572  1.00  0.00     0.339 C 
ATOM     70  O   UNL     1      71.907  47.116   2.995  1.00  0.00    -0.246 OA
BRANCH  69  71
ATOM     71  C   UNL     1      72.024  45.633   1.139  1.00  0.00     0.067 A 
ATOM     72  C   UNL     1      72.977  44.859   0.465  1.00  0.00     0.066 A 
ATOM     73  C   UNL     1      70.901  46.092   0.432  1.00  0.00     0.066 A 
ATOM     74  C   UNL     1      72.811  44.533  -0.889  1.00  0.00     0.162 A 
ATOM     75  C   UNL     1      70.724  45.771  -0.917  1.00  0.00     0.162 A 
ATOM     76  C   UNL     1      71.678  44.988  -1.584  1.00  0.00     0.200 A 
BRANCH  74  77
ATOM     77  O   UNL     1      73.761  43.750  -1.544  1.00  0.00    -0.504 OA
ATOM     78  H   UNL     1      74.579  44.163  -1.981  1.00  0.00     0.293 HD
ENDBRANCH  74  77
BRANCH  75  79
ATOM     79  O   UNL     1      69.587  46.236  -1.580  1.00  0.00    -0.504 OA
ATOM     80  H   UNL     1      68.655  46.108  -1.211  1.00  0.00     0.293 HD
ENDBRANCH  75  79
BRANCH  76  81
ATOM     81  O   UNL     1      71.493  44.670  -2.931  1.00  0.00    -0.502 OA
ATOM     82  H   UNL     1      70.679  44.963  -3.451  1.00  0.00     0.293 HD
ENDBRANCH  76  81
ENDBRANCH  69  71
ENDBRANCH  68  69
ENDBRANCH   4  68
TORSDOF 31
ENDMDL
