MODEL 1
REMARK VINA RESULT:    -3.302      0.000      0.000
REMARK INTER + INTRA:          -8.009
REMARK INTER:                  -5.811
REMARK INTRA:                  -2.198
REMARK UNBOUND:                -2.198
REMARK SMILES CCCCCCC=CCCCCCCCC(=O)[O-]
REMARK SMILES IDX 10 1 11 2 12 3 13 4 14 5 15 6 16 7 17 8 18 9 9 10 8 11 7 12
REMARK SMILES IDX 6 13 5 14 4 15 3 16 2 17 1 18
REMARK H PARENT
REMARK Flexibility Score: inf
ROOT
ATOM      1  C   UNL     1      57.002  25.633  51.483  1.00  0.00     0.004 C 
ENDROOT
BRANCH   1   2
ATOM      2  C   UNL     1      57.774  26.913  51.834  1.00  0.00     0.000 C 
BRANCH   2   3
ATOM      3  C   UNL     1      57.549  28.000  50.777  1.00  0.00     0.000 C 
BRANCH   3   4
ATOM      4  C   UNL     1      58.877  28.657  50.376  1.00  0.00     0.000 C 
BRANCH   4   5
ATOM      5  C   UNL     1      59.724  27.766  49.454  1.00  0.00     0.006 C 
BRANCH   5   6
ATOM      6  C   UNL     1      61.096  27.431  50.055  1.00  0.00     0.053 C 
BRANCH   6   7
ATOM      7  C   UNL     1      61.300  25.950  50.095  1.00  0.00     0.041 C 
ATOM      8  O   UNL     1      62.452  25.473  50.275  1.00  0.00    -0.550 OA
ATOM      9  O   UNL     1      60.210  25.095  49.984  1.00  0.00    -0.550 OA
ENDBRANCH   6   7
ENDBRANCH   5   6
ENDBRANCH   4   5
ENDBRANCH   3   4
ENDBRANCH   2   3
ENDBRANCH   1   2
BRANCH   1  10
ATOM     10  C   UNL     1      56.479  25.649  50.042  1.00  0.00     0.027 C 
BRANCH  10  11
ATOM     11  C   UNL     1      55.023  25.251  49.981  1.00  0.00    -0.031 C 
ATOM     12  C   UNL     1      53.984  26.107  49.981  1.00  0.00    -0.031 C 
BRANCH  12  13
ATOM     13  C   UNL     1      54.100  27.606  50.107  1.00  0.00     0.027 C 
BRANCH  13  14
ATOM     14  C   UNL     1      53.459  28.130  51.400  1.00  0.00     0.004 C 
BRANCH  14  15
ATOM     15  C   UNL     1      54.207  27.648  52.652  1.00  0.00     0.000 C 
BRANCH  15  16
ATOM     16  C   UNL     1      54.395  28.792  53.656  1.00  0.00    -0.000 C 
BRANCH  16  17
ATOM     17  C   UNL     1      55.086  29.993  52.998  1.00  0.00    -0.003 C 
ATOM     18  C   UNL     1      56.523  30.137  53.489  1.00  0.00     0.004 C 
ENDBRANCH  16  17
ENDBRANCH  15  16
ENDBRANCH  14  15
ENDBRANCH  13  14
ENDBRANCH  12  13
ENDBRANCH  10  11
ENDBRANCH   1  10
TORSDOF 13
ENDMDL
MODEL 2
REMARK VINA RESULT:    -3.300      2.189      3.674
REMARK INTER + INTRA:          -8.006
REMARK INTER:                  -5.486
REMARK INTRA:                  -2.520
REMARK UNBOUND:                -2.198
REMARK SMILES CCCCCCC=CCCCCCCCC(=O)[O-]
REMARK SMILES IDX 10 1 11 2 12 3 13 4 14 5 15 6 16 7 17 8 18 9 9 10 8 11 7 12
REMARK SMILES IDX 6 13 5 14 4 15 3 16 2 17 1 18
REMARK H PARENT
REMARK Flexibility Score: inf
ROOT
ATOM      1  C   UNL     1      57.333  26.387  52.446  1.00  0.00     0.004 C 
ENDROOT
BRANCH   1   2
ATOM      2  C   UNL     1      57.272  25.167  51.515  1.00  0.00     0.000 C 
BRANCH   2   3
ATOM      3  C   UNL     1      58.001  25.444  50.196  1.00  0.00     0.000 C 
BRANCH   3   4
ATOM      4  C   UNL     1      59.517  25.546  50.418  1.00  0.00     0.000 C 
BRANCH   4   5
ATOM      5  C   UNL     1      60.156  26.697  49.625  1.00  0.00     0.006 C 
BRANCH   5   6
ATOM      6  C   UNL     1      59.340  27.995  49.707  1.00  0.00     0.053 C 
BRANCH   6   7
ATOM      7  C   UNL     1      59.902  28.899  50.759  1.00  0.00     0.041 C 
ATOM      8  O   UNL     1      59.181  29.281  51.717  1.00  0.00    -0.550 OA
ATOM      9  O   UNL     1      61.237  29.280  50.706  1.00  0.00    -0.550 OA
ENDBRANCH   6   7
ENDBRANCH   5   6
ENDBRANCH   4   5
ENDBRANCH   3   4
ENDBRANCH   2   3
ENDBRANCH   1   2
BRANCH   1  10
ATOM     10  C   UNL     1      55.999  27.139  52.504  1.00  0.00     0.027 C 
BRANCH  10  11
ATOM     11  C   UNL     1      55.821  28.038  51.303  1.00  0.00    -0.031 C 
ATOM     12  C   UNL     1      54.848  27.916  50.380  1.00  0.00    -0.031 C 
BRANCH  12  13
ATOM     13  C   UNL     1      53.810  26.821  50.359  1.00  0.00     0.027 C 
BRANCH  13  14
ATOM     14  C   UNL     1      54.209  25.662  49.432  1.00  0.00     0.004 C 
BRANCH  14  15
ATOM     15  C   UNL     1      53.991  24.294  50.095  1.00  0.00     0.000 C 
BRANCH  15  16
ATOM     16  C   UNL     1      53.321  24.447  51.466  1.00  0.00    -0.000 C 
BRANCH  16  17
ATOM     17  C   UNL     1      54.032  23.597  52.524  1.00  0.00    -0.003 C 
ATOM     18  C   UNL     1      54.140  24.344  53.850  1.00  0.00     0.004 C 
ENDBRANCH  16  17
ENDBRANCH  15  16
ENDBRANCH  14  15
ENDBRANCH  13  14
ENDBRANCH  12  13
ENDBRANCH  10  11
ENDBRANCH   1  10
TORSDOF 13
ENDMDL
MODEL 3
REMARK VINA RESULT:    -3.271      1.497      3.145
REMARK INTER + INTRA:          -7.955
REMARK INTER:                  -5.884
REMARK INTRA:                  -2.070
REMARK UNBOUND:                -2.198
REMARK SMILES CCCCCCC=CCCCCCCCC(=O)[O-]
REMARK SMILES IDX 10 1 11 2 12 3 13 4 14 5 15 6 16 7 17 8 18 9 9 10 8 11 7 12
REMARK SMILES IDX 6 13 5 14 4 15 3 16 2 17 1 18
REMARK H PARENT
REMARK Flexibility Score: inf
ROOT
ATOM      1  C   UNL     1      58.354  29.324  52.212  1.00  0.00     0.004 C 
ENDROOT
BRANCH   1   2
ATOM      2  C   UNL     1      59.562  28.569  51.637  1.00  0.00     0.000 C 
BRANCH   2   3
ATOM      3  C   UNL     1      59.434  28.401  50.119  1.00  0.00     0.000 C 
BRANCH   3   4
ATOM      4  C   UNL     1      60.407  27.331  49.602  1.00  0.00     0.000 C 
BRANCH   4   5
ATOM      5  C   UNL     1      59.809  25.916  49.648  1.00  0.00     0.006 C 
BRANCH   5   6
ATOM      6  C   UNL     1      60.282  25.115  50.868  1.00  0.00     0.053 C 
BRANCH   6   7
ATOM      7  C   UNL     1      61.337  24.132  50.469  1.00  0.00     0.041 C 
ATOM      8  O   UNL     1      61.020  22.956  50.151  1.00  0.00    -0.550 OA
ATOM      9  O   UNL     1      62.668  24.528  50.402  1.00  0.00    -0.550 OA
ENDBRANCH   6   7
ENDBRANCH   5   6
ENDBRANCH   4   5
ENDBRANCH   3   4
ENDBRANCH   2   3
ENDBRANCH   1   2
BRANCH   1  10
ATOM     10  C   UNL     1      57.025  28.651  51.850  1.00  0.00     0.027 C 
BRANCH  10  11
ATOM     11  C   UNL     1      56.919  27.274  52.463  1.00  0.00    -0.031 C 
ATOM     12  C   UNL     1      56.647  26.143  51.786  1.00  0.00    -0.031 C 
BRANCH  12  13
ATOM     13  C   UNL     1      56.341  26.072  50.311  1.00  0.00     0.027 C 
BRANCH  13  14
ATOM     14  C   UNL     1      55.101  25.213  50.017  1.00  0.00     0.004 C 
BRANCH  14  15
ATOM     15  C   UNL     1      53.872  26.071  49.682  1.00  0.00     0.000 C 
BRANCH  15  16
ATOM     16  C   UNL     1      52.935  26.185  50.891  1.00  0.00    -0.000 C 
BRANCH  16  17
ATOM     17  C   UNL     1      52.875  27.628  51.407  1.00  0.00    -0.003 C 
ATOM     18  C   UNL     1      53.574  28.586  50.446  1.00  0.00     0.004 C 
ENDBRANCH  16  17
ENDBRANCH  15  16
ENDBRANCH  14  15
ENDBRANCH  13  14
ENDBRANCH  12  13
ENDBRANCH  10  11
ENDBRANCH   1  10
TORSDOF 13
ENDMDL
MODEL 4
REMARK VINA RESULT:    -3.253      2.139      3.754
REMARK INTER + INTRA:          -7.924
REMARK INTER:                  -5.670
REMARK INTRA:                  -2.253
REMARK UNBOUND:                -2.198
REMARK SMILES CCCCCCC=CCCCCCCCC(=O)[O-]
REMARK SMILES IDX 10 1 11 2 12 3 13 4 14 5 15 6 16 7 17 8 18 9 9 10 8 11 7 12
REMARK SMILES IDX 6 13 5 14 4 15 3 16 2 17 1 18
REMARK H PARENT
REMARK Flexibility Score: inf
ROOT
ATOM      1  C   UNL     1      58.648  24.816  52.183  1.00  0.00     0.004 C 
ENDROOT
BRANCH   1   2
ATOM      2  C   UNL     1      59.612  24.827  50.988  1.00  0.00     0.000 C 
BRANCH   2   3
ATOM      3  C   UNL     1      59.116  25.772  49.888  1.00  0.00     0.000 C 
BRANCH   3   4
ATOM      4  C   UNL     1      60.105  26.926  49.669  1.00  0.00     0.000 C 
BRANCH   4   5
ATOM      5  C   UNL     1      59.409  28.292  49.567  1.00  0.00     0.006 C 
BRANCH   5   6
ATOM      6  C   UNL     1      58.443  28.550  50.732  1.00  0.00     0.053 C 
BRANCH   6   7
ATOM      7  C   UNL     1      59.204  28.806  51.994  1.00  0.00     0.041 C 
ATOM      8  O   UNL     1      60.117  29.673  52.019  1.00  0.00    -0.550 OA
ATOM      9  O   UNL     1      58.872  28.122  53.157  1.00  0.00    -0.550 OA
ENDBRANCH   6   7
ENDBRANCH   5   6
ENDBRANCH   4   5
ENDBRANCH   3   4
ENDBRANCH   2   3
ENDBRANCH   1   2
BRANCH   1  10
ATOM     10  C   UNL     1      57.213  25.167  51.772  1.00  0.00     0.027 C 
BRANCH  10  11
ATOM     11  C   UNL     1      56.269  25.091  52.949  1.00  0.00    -0.031 C 
ATOM     12  C   UNL     1      55.482  26.095  53.378  1.00  0.00    -0.031 C 
BRANCH  12  13
ATOM     13  C   UNL     1      55.457  27.484  52.791  1.00  0.00     0.027 C 
BRANCH  13  14
ATOM     14  C   UNL     1      54.263  27.693  51.847  1.00  0.00     0.004 C 
BRANCH  14  15
ATOM     15  C   UNL     1      54.649  27.485  50.375  1.00  0.00     0.000 C 
BRANCH  15  16
ATOM     16  C   UNL     1      53.685  26.511  49.686  1.00  0.00    -0.000 C 
BRANCH  16  17
ATOM     17  C   UNL     1      54.378  25.179  49.376  1.00  0.00    -0.003 C 
ATOM     18  C   UNL     1      53.883  24.072  50.302  1.00  0.00     0.004 C 
ENDBRANCH  16  17
ENDBRANCH  15  16
ENDBRANCH  14  15
ENDBRANCH  13  14
ENDBRANCH  12  13
ENDBRANCH  10  11
ENDBRANCH   1  10
TORSDOF 13
ENDMDL
MODEL 5
REMARK VINA RESULT:    -3.245      1.692      3.076
REMARK INTER + INTRA:          -7.908
REMARK INTER:                  -5.681
REMARK INTRA:                  -2.227
REMARK UNBOUND:                -2.198
REMARK SMILES CCCCCCC=CCCCCCCCC(=O)[O-]
REMARK SMILES IDX 10 1 11 2 12 3 13 4 14 5 15 6 16 7 17 8 18 9 9 10 8 11 7 12
REMARK SMILES IDX 6 13 5 14 4 15 3 16 2 17 1 18
REMARK H PARENT
REMARK Flexibility Score: inf
ROOT
ATOM      1  C   UNL     1      55.825  28.182  52.232  1.00  0.00     0.004 C 
ENDROOT
BRANCH   1   2
ATOM      2  C   UNL     1      56.795  27.003  52.402  1.00  0.00     0.000 C 
BRANCH   2   3
ATOM      3  C   UNL     1      57.944  27.084  51.391  1.00  0.00     0.000 C 
BRANCH   3   4
ATOM      4  C   UNL     1      58.087  25.766  50.617  1.00  0.00     0.000 C 
BRANCH   4   5
ATOM      5  C   UNL     1      59.443  25.642  49.904  1.00  0.00     0.006 C 
BRANCH   5   6
ATOM      6  C   UNL     1      60.077  27.006  49.600  1.00  0.00     0.053 C 
BRANCH   6   7
ATOM      7  C   UNL     1      61.538  26.984  49.920  1.00  0.00     0.041 C 
ATOM      8  O   UNL     1      62.178  28.062  50.037  1.00  0.00    -0.550 OA
ATOM      9  O   UNL     1      62.184  25.773  50.137  1.00  0.00    -0.550 OA
ENDBRANCH   6   7
ENDBRANCH   5   6
ENDBRANCH   4   5
ENDBRANCH   3   4
ENDBRANCH   2   3
ENDBRANCH   1   2
BRANCH   1  10
ATOM     10  C   UNL     1      55.445  28.411  50.764  1.00  0.00     0.027 C 
BRANCH  10  11
ATOM     11  C   UNL     1      54.014  28.010  50.497  1.00  0.00    -0.031 C 
ATOM     12  C   UNL     1      53.623  26.828  49.985  1.00  0.00    -0.031 C 
BRANCH  12  13
ATOM     13  C   UNL     1      54.555  25.731  49.534  1.00  0.00     0.027 C 
BRANCH  13  14
ATOM     14  C   UNL     1      54.097  24.346  50.018  1.00  0.00     0.004 C 
BRANCH  14  15
ATOM     15  C   UNL     1      53.447  24.407  51.408  1.00  0.00     0.000 C 
BRANCH  15  16
ATOM     16  C   UNL     1      54.488  24.189  52.512  1.00  0.00    -0.000 C 
BRANCH  16  17
ATOM     17  C   UNL     1      54.042  24.839  53.827  1.00  0.00    -0.003 C 
ATOM     18  C   UNL     1      53.103  26.014  53.569  1.00  0.00     0.004 C 
ENDBRANCH  16  17
ENDBRANCH  15  16
ENDBRANCH  14  15
ENDBRANCH  13  14
ENDBRANCH  12  13
ENDBRANCH  10  11
ENDBRANCH   1  10
TORSDOF 13
ENDMDL
MODEL 6
REMARK VINA RESULT:    -3.232      1.266      3.106
REMARK INTER + INTRA:          -7.886
REMARK INTER:                  -5.664
REMARK INTRA:                  -2.222
REMARK UNBOUND:                -2.198
REMARK SMILES CCCCCCC=CCCCCCCCC(=O)[O-]
REMARK SMILES IDX 10 1 11 2 12 3 13 4 14 5 15 6 16 7 17 8 18 9 9 10 8 11 7 12
REMARK SMILES IDX 6 13 5 14 4 15 3 16 2 17 1 18
REMARK H PARENT
REMARK Flexibility Score: inf
ROOT
ATOM      1  C   UNL     1      54.964  28.733  52.254  1.00  0.00     0.004 C 
ENDROOT
BRANCH   1   2
ATOM      2  C   UNL     1      56.446  28.711  52.658  1.00  0.00     0.000 C 
BRANCH   2   3
ATOM      3  C   UNL     1      57.351  28.603  51.426  1.00  0.00     0.000 C 
BRANCH   3   4
ATOM      4  C   UNL     1      58.818  28.412  51.839  1.00  0.00     0.000 C 
BRANCH   4   5
ATOM      5  C   UNL     1      59.803  28.913  50.772  1.00  0.00     0.006 C 
BRANCH   5   6
ATOM      6  C   UNL     1      59.742  28.089  49.478  1.00  0.00     0.053 C 
BRANCH   6   7
ATOM      7  C   UNL     1      60.399  26.760  49.676  1.00  0.00     0.041 C 
ATOM      8  O   UNL     1      59.719  25.702  49.620  1.00  0.00    -0.550 OA
ATOM      9  O   UNL     1      61.773  26.685  49.872  1.00  0.00    -0.550 OA
ENDBRANCH   6   7
ENDBRANCH   5   6
ENDBRANCH   4   5
ENDBRANCH   3   4
ENDBRANCH   2   3
ENDBRANCH   1   2
BRANCH   1  10
ATOM     10  C   UNL     1      54.779  28.719  50.733  1.00  0.00     0.027 C 
BRANCH  10  11
ATOM     11  C   UNL     1      53.385  28.280  50.352  1.00  0.00    -0.031 C 
ATOM     12  C   UNL     1      53.058  27.065  49.873  1.00  0.00    -0.031 C 
BRANCH  12  13
ATOM     13  C   UNL     1      54.042  25.960  49.578  1.00  0.00     0.027 C 
BRANCH  13  14
ATOM     14  C   UNL     1      53.962  24.823  50.608  1.00  0.00     0.004 C 
BRANCH  14  15
ATOM     15  C   UNL     1      55.005  24.981  51.724  1.00  0.00     0.000 C 
BRANCH  15  16
ATOM     16  C   UNL     1      56.399  25.243  51.140  1.00  0.00    -0.000 C 
BRANCH  16  17
ATOM     17  C   UNL     1      57.495  24.910  52.159  1.00  0.00    -0.003 C 
ATOM     18  C   UNL     1      57.015  25.160  53.585  1.00  0.00     0.004 C 
ENDBRANCH  16  17
ENDBRANCH  15  16
ENDBRANCH  14  15
ENDBRANCH  13  14
ENDBRANCH  12  13
ENDBRANCH  10  11
ENDBRANCH   1  10
TORSDOF 13
ENDMDL
MODEL 7
REMARK VINA RESULT:    -3.196     10.474     12.213
REMARK INTER + INTRA:          -7.822
REMARK INTER:                  -5.361
REMARK INTRA:                  -2.461
REMARK UNBOUND:                -2.198
REMARK SMILES CCCCCCC=CCCCCCCCC(=O)[O-]
REMARK SMILES IDX 10 1 11 2 12 3 13 4 14 5 15 6 16 7 17 8 18 9 9 10 8 11 7 12
REMARK SMILES IDX 6 13 5 14 4 15 3 16 2 17 1 18
REMARK H PARENT
REMARK Flexibility Score: inf
ROOT
ATOM      1  C   UNL     1      61.631  31.630  60.899  1.00  0.00     0.004 C 
ENDROOT
BRANCH   1   2
ATOM      2  C   UNL     1      61.166  30.451  61.766  1.00  0.00     0.000 C 
BRANCH   2   3
ATOM      3  C   UNL     1      62.221  29.340  61.797  1.00  0.00     0.000 C 
BRANCH   3   4
ATOM      4  C   UNL     1      63.626  29.911  61.556  1.00  0.00     0.000 C 
BRANCH   4   5
ATOM      5  C   UNL     1      64.451  29.062  60.577  1.00  0.00     0.006 C 
BRANCH   5   6
ATOM      6  C   UNL     1      64.266  29.497  59.117  1.00  0.00     0.053 C 
BRANCH   6   7
ATOM      7  C   UNL     1      65.588  29.565  58.421  1.00  0.00     0.041 C 
ATOM      8  O   UNL     1      65.704  29.154  57.237  1.00  0.00    -0.550 OA
ATOM      9  O   UNL     1      66.684  30.128  59.064  1.00  0.00    -0.550 OA
ENDBRANCH   6   7
ENDBRANCH   5   6
ENDBRANCH   4   5
ENDBRANCH   3   4
ENDBRANCH   2   3
ENDBRANCH   1   2
BRANCH   1  10
ATOM     10  C   UNL     1      61.114  31.530  59.459  1.00  0.00     0.027 C 
BRANCH  10  11
ATOM     11  C   UNL     1      61.008  32.893  58.816  1.00  0.00    -0.031 C 
ATOM     12  C   UNL     1      61.986  33.499  58.117  1.00  0.00    -0.031 C 
BRANCH  12  13
ATOM     13  C   UNL     1      63.373  32.942  57.913  1.00  0.00     0.027 C 
BRANCH  13  14
ATOM     14  C   UNL     1      64.435  33.733  58.693  1.00  0.00     0.004 C 
BRANCH  14  15
ATOM     15  C   UNL     1      64.826  33.036  60.004  1.00  0.00     0.000 C 
BRANCH  15  16
ATOM     16  C   UNL     1      64.418  33.880  61.218  1.00  0.00    -0.000 C 
BRANCH  16  17
ATOM     17  C   UNL     1      63.990  35.289  60.790  1.00  0.00    -0.003 C 
ATOM     18  C   UNL     1      62.544  35.569  61.185  1.00  0.00     0.004 C 
ENDBRANCH  16  17
ENDBRANCH  15  16
ENDBRANCH  14  15
ENDBRANCH  13  14
ENDBRANCH  12  13
ENDBRANCH  10  11
ENDBRANCH   1  10
TORSDOF 13
ENDMDL
MODEL 8
REMARK VINA RESULT:    -3.189      1.288      1.574
REMARK INTER + INTRA:          -7.810
REMARK INTER:                  -5.866
REMARK INTRA:                  -1.944
REMARK UNBOUND:                -2.198
REMARK SMILES CCCCCCC=CCCCCCCCC(=O)[O-]
REMARK SMILES IDX 10 1 11 2 12 3 13 4 14 5 15 6 16 7 17 8 18 9 9 10 8 11 7 12
REMARK SMILES IDX 6 13 5 14 4 15 3 16 2 17 1 18
REMARK H PARENT
REMARK Flexibility Score: inf
ROOT
ATOM      1  C   UNL     1      57.308  25.725  50.893  1.00  0.00     0.004 C 
ENDROOT
BRANCH   1   2
ATOM      2  C   UNL     1      57.851  26.417  52.152  1.00  0.00     0.000 C 
BRANCH   2   3
ATOM      3  C   UNL     1      58.337  27.836  51.834  1.00  0.00     0.000 C 
BRANCH   3   4
ATOM      4  C   UNL     1      58.097  28.180  50.357  1.00  0.00     0.000 C 
BRANCH   4   5
ATOM      5  C   UNL     1      59.400  28.482  49.600  1.00  0.00     0.006 C 
BRANCH   5   6
ATOM      6  C   UNL     1      60.318  27.257  49.493  1.00  0.00     0.053 C 
BRANCH   6   7
ATOM      7  C   UNL     1      61.679  27.578  50.025  1.00  0.00     0.041 C 
ATOM      8  O   UNL     1      62.707  27.140  49.443  1.00  0.00    -0.550 OA
ATOM      9  O   UNL     1      61.816  28.402  51.136  1.00  0.00    -0.550 OA
ENDBRANCH   6   7
ENDBRANCH   5   6
ENDBRANCH   4   5
ENDBRANCH   3   4
ENDBRANCH   2   3
ENDBRANCH   1   2
BRANCH   1  10
ATOM     10  C   UNL     1      55.854  25.270  51.064  1.00  0.00     0.027 C 
BRANCH  10  11
ATOM     11  C   UNL     1      55.002  25.699  49.893  1.00  0.00    -0.031 C 
ATOM     12  C   UNL     1      54.154  26.745  49.893  1.00  0.00    -0.031 C 
BRANCH  12  13
ATOM     13  C   UNL     1      53.870  27.626  51.084  1.00  0.00     0.027 C 
BRANCH  13  14
ATOM     14  C   UNL     1      54.646  28.950  51.024  1.00  0.00     0.004 C 
BRANCH  14  15
ATOM     15  C   UNL     1      53.888  30.094  51.714  1.00  0.00     0.000 C 
BRANCH  15  16
ATOM     16  C   UNL     1      54.280  30.200  53.193  1.00  0.00    -0.000 C 
BRANCH  16  17
ATOM     17  C   UNL     1      55.755  29.838  53.399  1.00  0.00    -0.003 C 
ATOM     18  C   UNL     1      55.922  28.824  54.526  1.00  0.00     0.004 C 
ENDBRANCH  16  17
ENDBRANCH  15  16
ENDBRANCH  14  15
ENDBRANCH  13  14
ENDBRANCH  12  13
ENDBRANCH  10  11
ENDBRANCH   1  10
TORSDOF 13
ENDMDL
MODEL 9
REMARK VINA RESULT:    -3.185      1.821      2.539
REMARK INTER + INTRA:          -7.804
REMARK INTER:                  -5.570
REMARK INTRA:                  -2.233
REMARK UNBOUND:                -2.198
REMARK SMILES CCCCCCC=CCCCCCCCC(=O)[O-]
REMARK SMILES IDX 10 1 11 2 12 3 13 4 14 5 15 6 16 7 17 8 18 9 9 10 8 11 7 12
REMARK SMILES IDX 6 13 5 14 4 15 3 16 2 17 1 18
REMARK H PARENT
REMARK Flexibility Score: inf
ROOT
ATOM      1  C   UNL     1      55.948  24.351  53.030  1.00  0.00     0.004 C 
ENDROOT
BRANCH   1   2
ATOM      2  C   UNL     1      57.094  25.351  52.818  1.00  0.00     0.000 C 
BRANCH   2   3
ATOM      3  C   UNL     1      58.167  24.771  51.890  1.00  0.00     0.000 C 
BRANCH   3   4
ATOM      4  C   UNL     1      58.095  25.417  50.499  1.00  0.00     0.000 C 
BRANCH   4   5
ATOM      5  C   UNL     1      59.481  25.779  49.942  1.00  0.00     0.006 C 
BRANCH   5   6
ATOM      6  C   UNL     1      59.629  27.279  49.655  1.00  0.00     0.053 C 
BRANCH   6   7
ATOM      7  C   UNL     1      60.653  27.885  50.563  1.00  0.00     0.041 C 
ATOM      8  O   UNL     1      61.155  27.205  51.496  1.00  0.00    -0.550 OA
ATOM      9  O   UNL     1      61.090  29.187  50.348  1.00  0.00    -0.550 OA
ENDBRANCH   6   7
ENDBRANCH   5   6
ENDBRANCH   4   5
ENDBRANCH   3   4
ENDBRANCH   2   3
ENDBRANCH   1   2
BRANCH   1  10
ATOM     10  C   UNL     1      54.596  24.917  52.581  1.00  0.00     0.027 C 
BRANCH  10  11
ATOM     11  C   UNL     1      54.006  24.104  51.452  1.00  0.00    -0.031 C 
ATOM     12  C   UNL     1      53.978  24.479  50.159  1.00  0.00    -0.031 C 
BRANCH  12  13
ATOM     13  C   UNL     1      54.476  25.803  49.633  1.00  0.00     0.027 C 
BRANCH  13  14
ATOM     14  C   UNL     1      53.451  26.929  49.835  1.00  0.00     0.004 C 
BRANCH  14  15
ATOM     15  C   UNL     1      54.102  28.210  50.379  1.00  0.00     0.000 C 
BRANCH  15  16
ATOM     16  C   UNL     1      55.570  27.966  50.749  1.00  0.00    -0.000 C 
BRANCH  16  17
ATOM     17  C   UNL     1      55.993  28.844  51.933  1.00  0.00    -0.003 C 
ATOM     18  C   UNL     1      55.184  28.510  53.183  1.00  0.00     0.004 C 
ENDBRANCH  16  17
ENDBRANCH  15  16
ENDBRANCH  14  15
ENDBRANCH  13  14
ENDBRANCH  12  13
ENDBRANCH  10  11
ENDBRANCH   1  10
TORSDOF 13
ENDMDL
