MODEL 1
REMARK VINA RESULT:    -4.763      0.000      0.000
REMARK INTER + INTRA:         -10.264
REMARK INTER:                  -8.662
REMARK INTRA:                  -1.602
REMARK UNBOUND:                -1.602
REMARK SMILES CCCCCCCCCCCCCCCC(=O)[O-]
REMARK SMILES IDX 9 1 10 2 11 3 12 4 13 5 14 6 15 7 16 8 17 9 18 10 8 11 7 12
REMARK SMILES IDX 6 13 5 14 4 15 3 16 2 17 1 18
REMARK H PARENT
REMARK Flexibility Score: inf
ROOT
ATOM      1  C   UNL     1       3.340 -12.493   3.737  1.00  0.00     0.000 C 
ENDROOT
BRANCH   1   2
ATOM      2  C   UNL     1       4.744 -13.080   3.966  1.00  0.00     0.000 C 
BRANCH   2   3
ATOM      3  C   UNL     1       4.779 -14.119   5.096  1.00  0.00     0.000 C 
BRANCH   3   4
ATOM      4  C   UNL     1       4.850 -13.437   6.468  1.00  0.00     0.000 C 
BRANCH   4   5
ATOM      5  C   UNL     1       5.951 -12.367   6.494  1.00  0.00     0.000 C 
BRANCH   5   6
ATOM      6  C   UNL     1       5.537 -11.110   7.275  1.00  0.00     0.006 C 
BRANCH   6   7
ATOM      7  C   UNL     1       4.134 -10.616   6.901  1.00  0.00     0.053 C 
BRANCH   7   8
ATOM      8  C   UNL     1       4.189  -9.200   6.423  1.00  0.00     0.041 C 
ATOM      9  O   UNL     1       5.199  -8.488   6.665  1.00  0.00    -0.550 OA
ATOM     10  O   UNL     1       3.146  -8.680   5.666  1.00  0.00    -0.550 OA
ENDBRANCH   7   8
ENDBRANCH   6   7
ENDBRANCH   5   6
ENDBRANCH   4   5
ENDBRANCH   3   4
ENDBRANCH   2   3
ENDBRANCH   1   2
BRANCH   1  11
ATOM     11  C   UNL     1       3.318 -11.080   3.121  1.00  0.00     0.000 C 
BRANCH  11  12
ATOM     12  C   UNL     1       3.058 -11.031   1.601  1.00  0.00    -0.000 C 
BRANCH  12  13
ATOM     13  C   UNL     1       4.261 -11.421   0.724  1.00  0.00    -0.000 C 
BRANCH  13  14
ATOM     14  C   UNL     1       4.159 -12.851   0.174  1.00  0.00    -0.000 C 
BRANCH  14  15
ATOM     15  C   UNL     1       5.529 -13.360  -0.288  1.00  0.00    -0.000 C 
BRANCH  15  16
ATOM     16  C   UNL     1       6.637 -12.363   0.070  1.00  0.00    -0.000 C 
BRANCH  16  17
ATOM     17  C   UNL     1       7.627 -12.977   1.067  1.00  0.00    -0.003 C 
ATOM     18  C   UNL     1       8.480 -14.055   0.402  1.00  0.00     0.004 C 
ENDBRANCH  16  17
ENDBRANCH  15  16
ENDBRANCH  14  15
ENDBRANCH  13  14
ENDBRANCH  12  13
ENDBRANCH  11  12
ENDBRANCH   1  11
TORSDOF 14
ENDMDL
MODEL 2
REMARK VINA RESULT:    -4.624      1.210      2.217
REMARK INTER + INTRA:         -10.010
REMARK INTER:                  -8.654
REMARK INTRA:                  -1.357
REMARK UNBOUND:                -1.602
REMARK SMILES CCCCCCCCCCCCCCCC(=O)[O-]
REMARK SMILES IDX 9 1 10 2 11 3 12 4 13 5 14 6 15 7 16 8 17 9 18 10 8 11 7 12
REMARK SMILES IDX 6 13 5 14 4 15 3 16 2 17 1 18
REMARK H PARENT
REMARK Flexibility Score: inf
ROOT
ATOM      1  C   UNL     1       4.872 -13.983   5.061  1.00  0.00     0.000 C 
ENDROOT
BRANCH   1   2
ATOM      2  C   UNL     1       4.885 -13.379   6.477  1.00  0.00     0.000 C 
BRANCH   2   3
ATOM      3  C   UNL     1       5.988 -12.328   6.668  1.00  0.00     0.000 C 
BRANCH   3   4
ATOM      4  C   UNL     1       5.385 -10.942   6.932  1.00  0.00     0.000 C 
BRANCH   4   5
ATOM      5  C   UNL     1       3.850 -10.993   6.895  1.00  0.00     0.000 C 
BRANCH   5   6
ATOM      6  C   UNL     1       3.259 -10.186   5.729  1.00  0.00     0.006 C 
BRANCH   6   7
ATOM      7  C   UNL     1       2.496  -8.942   6.198  1.00  0.00     0.053 C 
BRANCH   7   8
ATOM      8  C   UNL     1       3.414  -7.764   6.277  1.00  0.00     0.041 C 
ATOM      9  O   UNL     1       4.340  -7.625   5.436  1.00  0.00    -0.550 OA
ATOM     10  O   UNL     1       3.215  -6.792   7.250  1.00  0.00    -0.550 OA
ENDBRANCH   7   8
ENDBRANCH   6   7
ENDBRANCH   5   6
ENDBRANCH   4   5
ENDBRANCH   3   4
ENDBRANCH   2   3
ENDBRANCH   1   2
BRANCH   1  11
ATOM     11  C   UNL     1       3.633 -13.631   4.216  1.00  0.00     0.000 C 
BRANCH  11  12
ATOM     12  C   UNL     1       3.903 -12.713   3.005  1.00  0.00    -0.000 C 
BRANCH  12  13
ATOM     13  C   UNL     1       5.194 -13.026   2.229  1.00  0.00    -0.000 C 
BRANCH  13  14
ATOM     14  C   UNL     1       5.183 -12.463   0.801  1.00  0.00    -0.000 C 
BRANCH  14  15
ATOM     15  C   UNL     1       6.564 -12.595   0.148  1.00  0.00    -0.000 C 
BRANCH  15  16
ATOM     16  C   UNL     1       7.613 -13.057   1.167  1.00  0.00    -0.000 C 
BRANCH  16  17
ATOM     17  C   UNL     1       8.682 -13.928   0.498  1.00  0.00    -0.003 C 
ATOM     18  C   UNL     1       8.122 -15.299   0.126  1.00  0.00     0.004 C 
ENDBRANCH  16  17
ENDBRANCH  15  16
ENDBRANCH  14  15
ENDBRANCH  13  14
ENDBRANCH  12  13
ENDBRANCH  11  12
ENDBRANCH   1  11
TORSDOF 14
ENDMDL
MODEL 3
REMARK VINA RESULT:    -4.586      3.356      6.537
REMARK INTER + INTRA:          -9.942
REMARK INTER:                  -7.963
REMARK INTRA:                  -1.978
REMARK UNBOUND:                -1.602
REMARK SMILES CCCCCCCCCCCCCCCC(=O)[O-]
REMARK SMILES IDX 9 1 10 2 11 3 12 4 13 5 14 6 15 7 16 8 17 9 18 10 8 11 7 12
REMARK SMILES IDX 6 13 5 14 4 15 3 16 2 17 1 18
REMARK H PARENT
REMARK Flexibility Score: inf
ROOT
ATOM      1  C   UNL     1       4.953 -13.854   4.842  1.00  0.00     0.000 C 
ENDROOT
BRANCH   1   2
ATOM      2  C   UNL     1       3.577 -13.923   4.153  1.00  0.00     0.000 C 
BRANCH   2   3
ATOM      3  C   UNL     1       3.640 -13.569   2.660  1.00  0.00     0.000 C 
BRANCH   3   4
ATOM      4  C   UNL     1       4.970 -12.890   2.312  1.00  0.00     0.000 C 
BRANCH   4   5
ATOM      5  C   UNL     1       4.913 -12.250   0.917  1.00  0.00     0.000 C 
BRANCH   5   6
ATOM      6  C   UNL     1       6.197 -12.481   0.106  1.00  0.00     0.006 C 
BRANCH   6   7
ATOM      7  C   UNL     1       7.394 -12.857   0.989  1.00  0.00     0.053 C 
BRANCH   7   8
ATOM      8  C   UNL     1       8.056 -14.094   0.472  1.00  0.00     0.041 C 
ATOM      9  O   UNL     1       7.368 -15.015  -0.042  1.00  0.00    -0.550 OA
ATOM     10  O   UNL     1       9.440 -14.210   0.510  1.00  0.00    -0.550 OA
ENDBRANCH   7   8
ENDBRANCH   6   7
ENDBRANCH   5   6
ENDBRANCH   4   5
ENDBRANCH   3   4
ENDBRANCH   2   3
ENDBRANCH   1   2
BRANCH   1  11
ATOM     11  C   UNL     1       4.915 -13.453   6.329  1.00  0.00     0.000 C 
BRANCH  11  12
ATOM     12  C   UNL     1       5.468 -12.048   6.645  1.00  0.00    -0.000 C 
BRANCH  12  13
ATOM     13  C   UNL     1       4.415 -11.027   7.114  1.00  0.00    -0.000 C 
BRANCH  13  14
ATOM     14  C   UNL     1       4.472  -9.708   6.331  1.00  0.00    -0.000 C 
BRANCH  14  15
ATOM     15  C   UNL     1       3.768  -9.843   4.976  1.00  0.00    -0.000 C 
BRANCH  15  16
ATOM     16  C   UNL     1       2.419 -10.558   5.124  1.00  0.00    -0.000 C 
BRANCH  16  17
ATOM     17  C   UNL     1       1.630 -10.520   3.810  1.00  0.00    -0.003 C 
ATOM     18  C   UNL     1       2.494  -9.998   2.665  1.00  0.00     0.004 C 
ENDBRANCH  16  17
ENDBRANCH  15  16
ENDBRANCH  14  15
ENDBRANCH  13  14
ENDBRANCH  12  13
ENDBRANCH  11  12
ENDBRANCH   1  11
TORSDOF 14
ENDMDL
MODEL 4
REMARK VINA RESULT:    -4.581      3.120      6.756
REMARK INTER + INTRA:          -9.932
REMARK INTER:                  -8.350
REMARK INTRA:                  -1.583
REMARK UNBOUND:                -1.602
REMARK SMILES CCCCCCCCCCCCCCCC(=O)[O-]
REMARK SMILES IDX 9 1 10 2 11 3 12 4 13 5 14 6 15 7 16 8 17 9 18 10 8 11 7 12
REMARK SMILES IDX 6 13 5 14 4 15 3 16 2 17 1 18
REMARK H PARENT
REMARK Flexibility Score: inf
ROOT
ATOM      1  C   UNL     1       3.367 -14.136   4.611  1.00  0.00     0.000 C 
ENDROOT
BRANCH   1   2
ATOM      2  C   UNL     1       2.921 -13.081   3.582  1.00  0.00     0.000 C 
BRANCH   2   3
ATOM      3  C   UNL     1       4.065 -12.154   3.144  1.00  0.00     0.000 C 
BRANCH   3   4
ATOM      4  C   UNL     1       3.596 -11.178   2.059  1.00  0.00     0.000 C 
BRANCH   4   5
ATOM      5  C   UNL     1       4.198 -11.543   0.693  1.00  0.00     0.000 C 
BRANCH   5   6
ATOM      6  C   UNL     1       5.251 -12.657   0.790  1.00  0.00     0.006 C 
BRANCH   6   7
ATOM      7  C   UNL     1       6.566 -12.290   0.090  1.00  0.00     0.053 C 
BRANCH   7   8
ATOM      8  C   UNL     1       7.488 -13.467   0.060  1.00  0.00     0.041 C 
ATOM      9  O   UNL     1       8.494 -13.504   0.816  1.00  0.00    -0.550 OA
ATOM     10  O   UNL     1       7.209 -14.548  -0.768  1.00  0.00    -0.550 OA
ENDBRANCH   7   8
ENDBRANCH   6   7
ENDBRANCH   5   6
ENDBRANCH   4   5
ENDBRANCH   3   4
ENDBRANCH   2   3
ENDBRANCH   1   2
BRANCH   1  11
ATOM     11  C   UNL     1       4.846 -14.046   5.036  1.00  0.00     0.000 C 
BRANCH  11  12
ATOM     12  C   UNL     1       5.088 -13.495   6.456  1.00  0.00    -0.000 C 
BRANCH  12  13
ATOM     13  C   UNL     1       5.996 -12.254   6.525  1.00  0.00    -0.000 C 
BRANCH  13  14
ATOM     14  C   UNL     1       5.343 -11.077   7.262  1.00  0.00    -0.000 C 
BRANCH  14  15
ATOM     15  C   UNL     1       3.873 -10.921   6.855  1.00  0.00    -0.000 C 
BRANCH  15  16
ATOM     16  C   UNL     1       3.689  -9.741   5.892  1.00  0.00    -0.000 C 
BRANCH  16  17
ATOM     17  C   UNL     1       4.589  -8.565   6.287  1.00  0.00    -0.003 C 
ATOM     18  C   UNL     1       3.767  -7.304   6.542  1.00  0.00     0.004 C 
ENDBRANCH  16  17
ENDBRANCH  15  16
ENDBRANCH  14  15
ENDBRANCH  13  14
ENDBRANCH  12  13
ENDBRANCH  11  12
ENDBRANCH   1  11
TORSDOF 14
ENDMDL
MODEL 5
REMARK VINA RESULT:    -4.484      1.019      1.810
REMARK INTER + INTRA:          -9.757
REMARK INTER:                  -8.559
REMARK INTRA:                  -1.197
REMARK UNBOUND:                -1.602
REMARK SMILES CCCCCCCCCCCCCCCC(=O)[O-]
REMARK SMILES IDX 9 1 10 2 11 3 12 4 13 5 14 6 15 7 16 8 17 9 18 10 8 11 7 12
REMARK SMILES IDX 6 13 5 14 4 15 3 16 2 17 1 18
REMARK H PARENT
REMARK Flexibility Score: inf
ROOT
ATOM      1  C   UNL     1       2.874 -13.281   3.041  1.00  0.00     0.000 C 
ENDROOT
BRANCH   1   2
ATOM      2  C   UNL     1       3.320 -14.244   4.156  1.00  0.00     0.000 C 
BRANCH   2   3
ATOM      3  C   UNL     1       4.776 -14.021   4.590  1.00  0.00     0.000 C 
BRANCH   3   4
ATOM      4  C   UNL     1       4.852 -13.589   6.059  1.00  0.00     0.000 C 
BRANCH   4   5
ATOM      5  C   UNL     1       5.746 -12.350   6.223  1.00  0.00     0.000 C 
BRANCH   5   6
ATOM      6  C   UNL     1       5.215 -11.373   7.283  1.00  0.00     0.006 C 
BRANCH   6   7
ATOM      7  C   UNL     1       3.942 -10.646   6.833  1.00  0.00     0.053 C 
BRANCH   7   8
ATOM      8  C   UNL     1       4.289  -9.407   6.072  1.00  0.00     0.041 C 
ATOM      9  O   UNL     1       3.812  -9.214   4.923  1.00  0.00    -0.550 OA
ATOM     10  O   UNL     1       5.101  -8.439   6.651  1.00  0.00    -0.550 OA
ENDBRANCH   7   8
ENDBRANCH   6   7
ENDBRANCH   5   6
ENDBRANCH   4   5
ENDBRANCH   3   4
ENDBRANCH   2   3
ENDBRANCH   1   2
BRANCH   1  11
ATOM     11  C   UNL     1       3.840 -12.112   2.767  1.00  0.00     0.000 C 
BRANCH  11  12
ATOM     12  C   UNL     1       4.400 -12.047   1.331  1.00  0.00    -0.000 C 
BRANCH  12  13
ATOM     13  C   UNL     1       5.362 -13.189   0.957  1.00  0.00    -0.000 C 
BRANCH  13  14
ATOM     14  C   UNL     1       6.657 -12.689   0.302  1.00  0.00    -0.000 C 
BRANCH  14  15
ATOM     15  C   UNL     1       7.879 -13.054   1.152  1.00  0.00    -0.000 C 
BRANCH  15  16
ATOM     16  C   UNL     1       8.770 -14.071   0.427  1.00  0.00    -0.000 C 
BRANCH  16  17
ATOM     17  C   UNL     1       7.959 -14.891  -0.583  1.00  0.00    -0.003 C 
ATOM     18  C   UNL     1       8.125 -16.388  -0.336  1.00  0.00     0.004 C 
ENDBRANCH  16  17
ENDBRANCH  15  16
ENDBRANCH  14  15
ENDBRANCH  13  14
ENDBRANCH  12  13
ENDBRANCH  11  12
ENDBRANCH   1  11
TORSDOF 14
ENDMDL
MODEL 6
REMARK VINA RESULT:    -4.482      1.355      2.368
REMARK INTER + INTRA:          -9.752
REMARK INTER:                  -7.673
REMARK INTRA:                  -2.079
REMARK UNBOUND:                -1.602
REMARK SMILES CCCCCCCCCCCCCCCC(=O)[O-]
REMARK SMILES IDX 9 1 10 2 11 3 12 4 13 5 14 6 15 7 16 8 17 9 18 10 8 11 7 12
REMARK SMILES IDX 6 13 5 14 4 15 3 16 2 17 1 18
REMARK H PARENT
REMARK Flexibility Score: inf
ROOT
ATOM      1  C   UNL     1       3.893 -14.208   4.492  1.00  0.00     0.000 C 
ENDROOT
BRANCH   1   2
ATOM      2  C   UNL     1       4.877 -13.114   4.944  1.00  0.00     0.000 C 
BRANCH   2   3
ATOM      3  C   UNL     1       5.371 -13.315   6.384  1.00  0.00     0.000 C 
BRANCH   3   4
ATOM      4  C   UNL     1       5.537 -11.969   7.101  1.00  0.00     0.000 C 
BRANCH   4   5
ATOM      5  C   UNL     1       4.297 -11.085   6.904  1.00  0.00     0.000 C 
BRANCH   5   6
ATOM      6  C   UNL     1       4.653  -9.649   6.490  1.00  0.00     0.006 C 
BRANCH   6   7
ATOM      7  C   UNL     1       3.605  -9.022   5.563  1.00  0.00     0.053 C 
BRANCH   7   8
ATOM      8  C   UNL     1       2.285  -8.922   6.258  1.00  0.00     0.041 C 
ATOM      9  O   UNL     1       1.266  -9.477   5.768  1.00  0.00    -0.550 OA
ATOM     10  O   UNL     1       2.189  -8.259   7.475  1.00  0.00    -0.550 OA
ENDBRANCH   7   8
ENDBRANCH   6   7
ENDBRANCH   5   6
ENDBRANCH   4   5
ENDBRANCH   3   4
ENDBRANCH   2   3
ENDBRANCH   1   2
BRANCH   1  11
ATOM     11  C   UNL     1       2.550 -13.689   3.945  1.00  0.00     0.000 C 
BRANCH  11  12
ATOM     12  C   UNL     1       2.355 -12.161   4.025  1.00  0.00    -0.000 C 
BRANCH  12  13
ATOM     13  C   UNL     1       2.235 -11.450   2.665  1.00  0.00    -0.000 C 
BRANCH  13  14
ATOM     14  C   UNL     1       3.593 -11.016   2.096  1.00  0.00    -0.000 C 
BRANCH  14  15
ATOM     15  C   UNL     1       3.850 -11.666   0.732  1.00  0.00    -0.000 C 
BRANCH  15  16
ATOM     16  C   UNL     1       4.475 -13.057   0.894  1.00  0.00    -0.000 C 
BRANCH  16  17
ATOM     17  C   UNL     1       5.968 -12.953   1.225  1.00  0.00    -0.003 C 
ATOM     18  C   UNL     1       6.745 -12.322   0.072  1.00  0.00     0.004 C 
ENDBRANCH  16  17
ENDBRANCH  15  16
ENDBRANCH  14  15
ENDBRANCH  13  14
ENDBRANCH  12  13
ENDBRANCH  11  12
ENDBRANCH   1  11
TORSDOF 14
ENDMDL
MODEL 7
REMARK VINA RESULT:    -4.481      1.125      2.234
REMARK INTER + INTRA:          -9.751
REMARK INTER:                  -8.386
REMARK INTRA:                  -1.365
REMARK UNBOUND:                -1.602
REMARK SMILES CCCCCCCCCCCCCCCC(=O)[O-]
REMARK SMILES IDX 9 1 10 2 11 3 12 4 13 5 14 6 15 7 16 8 17 9 18 10 8 11 7 12
REMARK SMILES IDX 6 13 5 14 4 15 3 16 2 17 1 18
REMARK H PARENT
REMARK Flexibility Score: inf
ROOT
ATOM      1  C   UNL     1       2.808 -11.017   2.146  1.00  0.00     0.000 C 
ENDROOT
BRANCH   1   2
ATOM      2  C   UNL     1       3.463 -11.455   3.469  1.00  0.00     0.000 C 
BRANCH   2   3
ATOM      3  C   UNL     1       2.734 -12.632   4.134  1.00  0.00     0.000 C 
BRANCH   3   4
ATOM      4  C   UNL     1       3.579 -13.911   4.064  1.00  0.00     0.000 C 
BRANCH   4   5
ATOM      5  C   UNL     1       4.964 -13.689   4.692  1.00  0.00     0.000 C 
BRANCH   5   6
ATOM      6  C   UNL     1       4.906 -13.561   6.222  1.00  0.00     0.006 C 
BRANCH   6   7
ATOM      7  C   UNL     1       5.839 -12.469   6.760  1.00  0.00     0.053 C 
BRANCH   7   8
ATOM      8  C   UNL     1       5.079 -11.204   7.001  1.00  0.00     0.041 C 
ATOM      9  O   UNL     1       5.684 -10.101   7.053  1.00  0.00    -0.550 OA
ATOM     10  O   UNL     1       3.695 -11.235   7.117  1.00  0.00    -0.550 OA
ENDBRANCH   7   8
ENDBRANCH   6   7
ENDBRANCH   5   6
ENDBRANCH   4   5
ENDBRANCH   3   4
ENDBRANCH   2   3
ENDBRANCH   1   2
BRANCH   1  11
ATOM     11  C   UNL     1       3.609 -11.366   0.877  1.00  0.00     0.000 C 
BRANCH  11  12
ATOM     12  C   UNL     1       3.492 -12.831   0.409  1.00  0.00    -0.000 C 
BRANCH  12  13
ATOM     13  C   UNL     1       4.773 -13.668   0.571  1.00  0.00    -0.000 C 
BRANCH  13  14
ATOM     14  C   UNL     1       5.823 -13.368  -0.509  1.00  0.00    -0.000 C 
BRANCH  14  15
ATOM     15  C   UNL     1       6.808 -12.295  -0.034  1.00  0.00    -0.000 C 
BRANCH  15  16
ATOM     16  C   UNL     1       7.910 -12.907   0.841  1.00  0.00    -0.000 C 
BRANCH  16  17
ATOM     17  C   UNL     1       8.136 -14.381   0.487  1.00  0.00    -0.003 C 
ATOM     18  C   UNL     1       9.520 -14.595  -0.121  1.00  0.00     0.004 C 
ENDBRANCH  16  17
ENDBRANCH  15  16
ENDBRANCH  14  15
ENDBRANCH  13  14
ENDBRANCH  12  13
ENDBRANCH  11  12
ENDBRANCH   1  11
TORSDOF 14
ENDMDL
MODEL 8
REMARK VINA RESULT:    -4.363      2.779      5.181
REMARK INTER + INTRA:          -9.536
REMARK INTER:                  -7.615
REMARK INTRA:                  -1.922
REMARK UNBOUND:                -1.602
REMARK SMILES CCCCCCCCCCCCCCCC(=O)[O-]
REMARK SMILES IDX 9 1 10 2 11 3 12 4 13 5 14 6 15 7 16 8 17 9 18 10 8 11 7 12
REMARK SMILES IDX 6 13 5 14 4 15 3 16 2 17 1 18
REMARK H PARENT
REMARK Flexibility Score: inf
ROOT
ATOM      1  C   UNL     1       5.223 -10.851   6.868  1.00  0.00     0.000 C 
ENDROOT
BRANCH   1   2
ATOM      2  C   UNL     1       3.684 -10.845   6.903  1.00  0.00     0.000 C 
BRANCH   2   3
ATOM      3  C   UNL     1       3.082  -9.523   6.405  1.00  0.00     0.000 C 
BRANCH   3   4
ATOM      4  C   UNL     1       4.048  -8.803   5.455  1.00  0.00     0.000 C 
BRANCH   4   5
ATOM      5  C   UNL     1       4.087  -7.296   5.748  1.00  0.00     0.000 C 
BRANCH   5   6
ATOM      6  C   UNL     1       3.430  -6.937   7.090  1.00  0.00     0.006 C 
BRANCH   6   7
ATOM      7  C   UNL     1       3.457  -5.430   7.378  1.00  0.00     0.053 C 
BRANCH   7   8
ATOM      8  C   UNL     1       2.094  -4.841   7.207  1.00  0.00     0.041 C 
ATOM      9  O   UNL     1       1.166  -5.147   8.001  1.00  0.00    -0.550 OA
ATOM     10  O   UNL     1       1.858  -3.913   6.200  1.00  0.00    -0.550 OA
ENDBRANCH   7   8
ENDBRANCH   6   7
ENDBRANCH   5   6
ENDBRANCH   4   5
ENDBRANCH   3   4
ENDBRANCH   2   3
ENDBRANCH   1   2
BRANCH   1  11
ATOM     11  C   UNL     1       5.859 -12.204   6.492  1.00  0.00     0.000 C 
BRANCH  11  12
ATOM     12  C   UNL     1       4.895 -13.409   6.505  1.00  0.00    -0.000 C 
BRANCH  12  13
ATOM     13  C   UNL     1       4.578 -14.000   5.120  1.00  0.00    -0.000 C 
BRANCH  13  14
ATOM     14  C   UNL     1       5.102 -13.133   3.966  1.00  0.00    -0.000 C 
BRANCH  14  15
ATOM     15  C   UNL     1       4.017 -12.917   2.905  1.00  0.00    -0.000 C 
BRANCH  15  16
ATOM     16  C   UNL     1       3.285 -11.588   3.129  1.00  0.00    -0.000 C 
BRANCH  16  17
ATOM     17  C   UNL     1       1.885 -11.823   3.707  1.00  0.00    -0.003 C 
ATOM     18  C   UNL     1       1.008 -10.583   3.546  1.00  0.00     0.004 C 
ENDBRANCH  16  17
ENDBRANCH  15  16
ENDBRANCH  14  15
ENDBRANCH  13  14
ENDBRANCH  12  13
ENDBRANCH  11  12
ENDBRANCH   1  11
TORSDOF 14
ENDMDL
MODEL 9
REMARK VINA RESULT:    -4.352      2.653      4.719
REMARK INTER + INTRA:          -9.515
REMARK INTER:                  -7.919
REMARK INTRA:                  -1.596
REMARK UNBOUND:                -1.602
REMARK SMILES CCCCCCCCCCCCCCCC(=O)[O-]
REMARK SMILES IDX 9 1 10 2 11 3 12 4 13 5 14 6 15 7 16 8 17 9 18 10 8 11 7 12
REMARK SMILES IDX 6 13 5 14 4 15 3 16 2 17 1 18
REMARK H PARENT
REMARK Flexibility Score: inf
ROOT
ATOM      1  C   UNL     1       5.024 -13.493   6.502  1.00  0.00     0.000 C 
ENDROOT
BRANCH   1   2
ATOM      2  C   UNL     1       5.888 -12.219   6.464  1.00  0.00     0.000 C 
BRANCH   2   3
ATOM      3  C   UNL     1       5.253 -11.045   7.223  1.00  0.00     0.000 C 
BRANCH   3   4
ATOM      4  C   UNL     1       3.815 -10.797   6.748  1.00  0.00     0.000 C 
BRANCH   4   5
ATOM      5  C   UNL     1       3.793  -9.876   5.519  1.00  0.00     0.000 C 
BRANCH   5   6
ATOM      6  C   UNL     1       2.964  -8.603   5.749  1.00  0.00     0.006 C 
BRANCH   6   7
ATOM      7  C   UNL     1       3.832  -7.387   6.096  1.00  0.00     0.053 C 
BRANCH   7   8
ATOM      8  C   UNL     1       3.119  -6.495   7.062  1.00  0.00     0.041 C 
ATOM      9  O   UNL     1       2.178  -6.947   7.767  1.00  0.00    -0.550 OA
ATOM     10  O   UNL     1       3.526  -5.176   7.222  1.00  0.00    -0.550 OA
ENDBRANCH   7   8
ENDBRANCH   6   7
ENDBRANCH   5   6
ENDBRANCH   4   5
ENDBRANCH   3   4
ENDBRANCH   2   3
ENDBRANCH   1   2
BRANCH   1  11
ATOM     11  C   UNL     1       4.673 -14.082   5.122  1.00  0.00     0.000 C 
BRANCH  11  12
ATOM     12  C   UNL     1       4.867 -13.123   3.930  1.00  0.00    -0.000 C 
BRANCH  12  13
ATOM     13  C   UNL     1       3.573 -12.731   3.195  1.00  0.00    -0.000 C 
BRANCH  13  14
ATOM     14  C   UNL     1       2.309 -13.260   3.889  1.00  0.00    -0.000 C 
BRANCH  14  15
ATOM     15  C   UNL     1       1.589 -14.286   3.007  1.00  0.00    -0.000 C 
BRANCH  15  16
ATOM     16  C   UNL     1       1.898 -15.718   3.462  1.00  0.00    -0.000 C 
BRANCH  16  17
ATOM     17  C   UNL     1       1.201 -16.034   4.791  1.00  0.00    -0.003 C 
ATOM     18  C   UNL     1       0.508 -17.394   4.739  1.00  0.00     0.004 C 
ENDBRANCH  16  17
ENDBRANCH  15  16
ENDBRANCH  14  15
ENDBRANCH  13  14
ENDBRANCH  12  13
ENDBRANCH  11  12
ENDBRANCH   1  11
TORSDOF 14
ENDMDL
