MODEL 1
REMARK VINA RESULT:     5.895      0.000      0.000
REMARK INTER + INTRA:          10.110
REMARK INTER:                   8.652
REMARK INTRA:                   1.458
REMARK UNBOUND:                 1.458
REMARK SMILES O=c1c(O[C@H]2O[C@H](CO)[C@H](O)[C@@H](O)[C@@H]2O)c(-c2ccc(O)c(O)c2)oc2cc(O)cc(O)c12
REMARK SMILES IDX 4 1 3 2 16 3 25 4 2 5 26 6 1 7 33 8 27 9 31 10 28 11 30 12
REMARK SMILES IDX 17 13 18 14 19 15 20 16 24 17 22 18 21 19 23 21 32 23 29 25
REMARK SMILES IDX 5 27 14 28 6 29 12 30 7 31 10 32 15 33 13 35 8 37 9 38 11 40
REMARK H PARENT 21 20 23 22 32 24 29 26 15 34 13 36 9 39 11 41
REMARK Flexibility Score: inf
ROOT
ATOM      1  O   UNL     1     -23.098  26.179 -35.225  1.00  0.00    -0.454 OA
ENDROOT
BRANCH   1   2
ATOM      2  C   UNL     1     -23.642  26.547 -36.462  1.00  0.00     0.214 A 
ATOM      3  C   UNL     1     -24.939  26.156 -36.846  1.00  0.00     0.180 A 
ATOM      4  O   UNL     1     -25.454  26.613 -37.979  1.00  0.00    -0.452 OA
ATOM      5  C   UNL     1     -22.886  27.339 -37.332  1.00  0.00     0.239 A 
ATOM      6  C   UNL     1     -24.785  27.390 -38.825  1.00  0.00     0.146 A 
ATOM      7  O   UNL     1     -21.738  27.704 -36.964  1.00  0.00    -0.285 OA
ATOM      8  C   UNL     1     -23.437  27.755 -38.568  1.00  0.00     0.111 A 
ATOM      9  C   UNL     1     -25.435  27.839 -39.977  1.00  0.00     0.094 A 
ATOM     10  C   UNL     1     -22.749  28.543 -39.538  1.00  0.00     0.134 A 
ATOM     11  C   UNL     1     -24.770  28.659 -40.890  1.00  0.00     0.123 A 
ATOM     12  C   UNL     1     -23.438  29.007 -40.666  1.00  0.00     0.093 A 
BRANCH   3  13
ATOM     13  C   UNL     1     -25.762  25.240 -36.024  1.00  0.00     0.025 A 
ATOM     14  C   UNL     1     -25.564  25.185 -34.636  1.00  0.00     0.016 A 
ATOM     15  C   UNL     1     -26.330  24.324 -33.847  1.00  0.00     0.051 A 
ATOM     16  C   UNL     1     -27.314  23.516 -34.432  1.00  0.00     0.157 A 
ATOM     17  C   UNL     1     -26.769  24.448 -36.605  1.00  0.00     0.062 A 
ATOM     18  C   UNL     1     -27.536  23.582 -35.817  1.00  0.00     0.158 A 
BRANCH  16  19
ATOM     19  O   UNL     1     -28.074  22.653 -33.643  1.00  0.00    -0.504 OA
ATOM     20  H   UNL     1     -29.001  22.906 -33.322  1.00  0.00     0.293 HD
ENDBRANCH  16  19
BRANCH  18  21
ATOM     21  O   UNL     1     -28.514  22.798 -36.430  1.00  0.00    -0.504 OA
ATOM     22  H   UNL     1     -28.283  21.955 -36.942  1.00  0.00     0.293 HD
ENDBRANCH  18  21
ENDBRANCH   3  13
BRANCH  10  23
ATOM     23  O   UNL     1     -21.393  28.874 -39.455  1.00  0.00    -0.507 OA
ATOM     24  H   UNL     1     -20.637  28.206 -39.456  1.00  0.00     0.293 HD
ENDBRANCH  10  23
BRANCH  11  25
ATOM     25  O   UNL     1     -25.419  29.125 -42.030  1.00  0.00    -0.508 OA
ATOM     26  H   UNL     1     -25.092  28.890 -42.960  1.00  0.00     0.293 HD
ENDBRANCH  11  25
ENDBRANCH   1   2
BRANCH   1  27
ATOM     27  C   UNL     1     -23.700  26.531 -33.974  1.00  0.00     0.339 C 
ATOM     28  C   UNL     1     -23.725  28.065 -33.785  1.00  0.00     0.214 C 
ATOM     29  O   UNL     1     -23.055  25.874 -32.897  1.00  0.00    -0.332 OA
ATOM     30  C   UNL     1     -22.326  28.636 -33.450  1.00  0.00     0.180 C 
ATOM     31  C   UNL     1     -21.690  26.246 -32.807  1.00  0.00     0.179 C 
ATOM     32  C   UNL     1     -21.547  27.748 -32.448  1.00  0.00     0.177 C 
BRANCH  28  33
ATOM     33  O   UNL     1     -24.618  28.398 -32.752  1.00  0.00    -0.384 OA
ATOM     34  H   UNL     1     -24.268  27.986 -31.920  1.00  0.00     0.211 HD
ENDBRANCH  28  33
BRANCH  30  35
ATOM     35  O   UNL     1     -21.579  28.863 -34.622  1.00  0.00    -0.387 OA
ATOM     36  H   UNL     1     -21.990  29.617 -35.114  1.00  0.00     0.211 HD
ENDBRANCH  30  35
BRANCH  31  37
ATOM     37  C   UNL     1     -20.984  25.339 -31.788  1.00  0.00     0.191 C 
BRANCH  37  38
ATOM     38  O   UNL     1     -21.585  24.072 -31.748  1.00  0.00    -0.394 OA
ATOM     39  H   UNL     1     -20.843  23.415 -31.791  1.00  0.00     0.210 HD
ENDBRANCH  37  38
ENDBRANCH  31  37
BRANCH  32  40
ATOM     40  O   UNL     1     -21.957  28.015 -31.129  1.00  0.00    -0.387 OA
ATOM     41  H   UNL     1     -22.501  28.844 -31.138  1.00  0.00     0.211 HD
ENDBRANCH  32  40
ENDBRANCH   1  27
TORSDOF 12
ENDMDL
MODEL 2
REMARK VINA RESULT:     7.641     16.813     20.309
REMARK INTER + INTRA:          12.673
REMARK INTER:                  12.707
REMARK INTRA:                  -0.035
REMARK UNBOUND:                 1.458
REMARK SMILES O=c1c(O[C@H]2O[C@H](CO)[C@H](O)[C@@H](O)[C@@H]2O)c(-c2ccc(O)c(O)c2)oc2cc(O)cc(O)c12
REMARK SMILES IDX 4 1 3 2 16 3 25 4 2 5 26 6 1 7 33 8 27 9 31 10 28 11 30 12
REMARK SMILES IDX 17 13 18 14 19 15 20 16 24 17 22 18 21 19 23 21 32 23 29 25
REMARK SMILES IDX 5 27 14 28 6 29 12 30 7 31 10 32 15 33 13 35 8 37 9 38 11 40
REMARK H PARENT 21 20 23 22 32 24 29 26 15 34 13 36 9 39 11 41
REMARK Flexibility Score: inf
ROOT
ATOM      1  O   UNL     1     -34.311  11.484 -39.882  1.00  0.00    -0.454 OA
ENDROOT
BRANCH   1   2
ATOM      2  C   UNL     1     -35.361  11.086 -40.718  1.00  0.00     0.214 A 
ATOM      3  C   UNL     1     -35.139  10.288 -41.858  1.00  0.00     0.180 A 
ATOM      4  O   UNL     1     -36.173   9.847 -42.562  1.00  0.00    -0.452 OA
ATOM      5  C   UNL     1     -36.669  11.474 -40.405  1.00  0.00     0.239 A 
ATOM      6  C   UNL     1     -37.433  10.167 -42.288  1.00  0.00     0.146 A 
ATOM      7  O   UNL     1     -36.855  12.164 -39.369  1.00  0.00    -0.285 OA
ATOM      8  C   UNL     1     -37.746  11.045 -41.217  1.00  0.00     0.111 A 
ATOM      9  C   UNL     1     -38.448   9.621 -43.078  1.00  0.00     0.094 A 
ATOM     10  C   UNL     1     -39.112  11.399 -41.004  1.00  0.00     0.134 A 
ATOM     11  C   UNL     1     -39.785   9.928 -42.823  1.00  0.00     0.123 A 
ATOM     12  C   UNL     1     -40.109  10.809 -41.791  1.00  0.00     0.093 A 
BRANCH   3  13
ATOM     13  C   UNL     1     -33.779   9.918 -42.308  1.00  0.00     0.025 A 
ATOM     14  C   UNL     1     -33.470   9.942 -43.676  1.00  0.00     0.016 A 
ATOM     15  C   UNL     1     -32.191   9.594 -44.118  1.00  0.00     0.051 A 
ATOM     16  C   UNL     1     -31.200   9.229 -43.198  1.00  0.00     0.157 A 
ATOM     17  C   UNL     1     -32.774   9.578 -41.384  1.00  0.00     0.062 A 
ATOM     18  C   UNL     1     -31.493   9.225 -41.824  1.00  0.00     0.158 A 
BRANCH  16  19
ATOM     19  O   UNL     1     -29.926   8.875 -43.641  1.00  0.00    -0.504 OA
ATOM     20  H   UNL     1     -29.467   9.380 -44.390  1.00  0.00     0.293 HD
ENDBRANCH  16  19
BRANCH  18  21
ATOM     21  O   UNL     1     -30.527   8.876 -40.881  1.00  0.00    -0.504 OA
ATOM     22  H   UNL     1     -30.258   9.501 -40.130  1.00  0.00     0.293 HD
ENDBRANCH  18  21
ENDBRANCH   3  13
BRANCH  10  23
ATOM     23  O   UNL     1     -39.537  12.336 -40.057  1.00  0.00    -0.507 OA
ATOM     24  H   UNL     1     -39.857  13.268 -40.274  1.00  0.00     0.293 HD
ENDBRANCH  10  23
BRANCH  11  25
ATOM     25  O   UNL     1     -40.802   9.372 -43.596  1.00  0.00    -0.508 OA
ATOM     26  H   UNL     1     -41.035   9.743 -44.509  1.00  0.00     0.293 HD
ENDBRANCH  11  25
ENDBRANCH   1   2
BRANCH   1  27
ATOM     27  C   UNL     1     -34.516  11.956 -38.546  1.00  0.00     0.339 C 
ATOM     28  C   UNL     1     -33.448  13.006 -38.161  1.00  0.00     0.214 C 
ATOM     29  O   UNL     1     -34.556  10.878 -37.626  1.00  0.00    -0.332 OA
ATOM     30  C   UNL     1     -32.067  12.363 -37.889  1.00  0.00     0.180 C 
ATOM     31  C   UNL     1     -33.334  10.160 -37.617  1.00  0.00     0.179 C 
ATOM     32  C   UNL     1     -32.176  11.043 -37.085  1.00  0.00     0.177 C 
BRANCH  28  33
ATOM     33  O   UNL     1     -33.865  13.705 -37.016  1.00  0.00    -0.384 OA
ATOM     34  H   UNL     1     -34.638  14.268 -37.284  1.00  0.00     0.211 HD
ENDBRANCH  28  33
BRANCH  30  35
ATOM     35  O   UNL     1     -31.351  12.176 -39.086  1.00  0.00    -0.387 OA
ATOM     36  H   UNL     1     -30.400  12.399 -38.921  1.00  0.00     0.211 HD
ENDBRANCH  30  35
BRANCH  31  37
ATOM     37  C   UNL     1     -33.508   8.876 -36.793  1.00  0.00     0.191 C 
BRANCH  37  38
ATOM     38  O   UNL     1     -34.310   9.112 -35.666  1.00  0.00    -0.394 OA
ATOM     39  H   UNL     1     -35.134   8.576 -35.798  1.00  0.00     0.210 HD
ENDBRANCH  37  38
ENDBRANCH  31  37
BRANCH  32  40
ATOM     40  O   UNL     1     -32.307  11.311 -35.710  1.00  0.00    -0.387 OA
ATOM     41  H   UNL     1     -31.558  11.902 -35.439  1.00  0.00     0.211 HD
ENDBRANCH  32  40
ENDBRANCH   1  27
TORSDOF 12
ENDMDL
