MODEL 1
REMARK VINA RESULT:    -3.638      0.000      0.000
REMARK INTER + INTRA:          -4.399
REMARK INTER:                  -4.276
REMARK INTRA:                  -0.123
REMARK UNBOUND:                -0.123
REMARK SMILES O=C([O-])CCC(=O)[O-]
REMARK SMILES IDX 4 1 2 2 1 3 3 4 5 5 6 6 7 7 8 8
REMARK H PARENT
REMARK Flexibility Score: inf
ROOT
ATOM      1  C   UNL     1     -37.626  20.102 -28.846  1.00  0.00     0.059 C 
ENDROOT
BRANCH   1   2
ATOM      2  C   UNL     1     -38.336  18.996 -28.132  1.00  0.00     0.042 C 
ATOM      3  O   UNL     1     -37.682  18.044 -27.630  1.00  0.00    -0.550 OA
ATOM      4  O   UNL     1     -39.723  18.990 -28.064  1.00  0.00    -0.550 OA
ENDBRANCH   1   2
BRANCH   1   5
ATOM      5  C   UNL     1     -37.065  19.604 -30.180  1.00  0.00     0.059 C 
BRANCH   5   6
ATOM      6  C   UNL     1     -38.160  19.473 -31.191  1.00  0.00     0.042 C 
ATOM      7  O   UNL     1     -38.563  20.485 -31.824  1.00  0.00    -0.550 OA
ATOM      8  O   UNL     1     -38.770  18.243 -31.401  1.00  0.00    -0.550 OA
ENDBRANCH   5   6
ENDBRANCH   1   5
TORSDOF 3
ENDMDL
MODEL 2
REMARK VINA RESULT:    -3.609      0.122      3.488
REMARK INTER + INTRA:          -4.365
REMARK INTER:                  -4.254
REMARK INTRA:                  -0.111
REMARK UNBOUND:                -0.123
REMARK SMILES O=C([O-])CCC(=O)[O-]
REMARK SMILES IDX 4 1 2 2 1 3 3 4 5 5 6 6 7 7 8 8
REMARK H PARENT
REMARK Flexibility Score: inf
ROOT
ATOM      1  C   UNL     1     -37.131  19.711 -30.178  1.00  0.00     0.059 C 
ENDROOT
BRANCH   1   2
ATOM      2  C   UNL     1     -38.201  19.549 -31.210  1.00  0.00     0.042 C 
ATOM      3  O   UNL     1     -38.617  20.549 -31.854  1.00  0.00    -0.550 OA
ATOM      4  O   UNL     1     -38.776  18.304 -31.427  1.00  0.00    -0.550 OA
ENDBRANCH   1   2
BRANCH   1   5
ATOM      5  C   UNL     1     -37.733  20.177 -28.851  1.00  0.00     0.059 C 
BRANCH   5   6
ATOM      6  C   UNL     1     -38.456  19.052 -28.181  1.00  0.00     0.042 C 
ATOM      7  O   UNL     1     -37.811  18.089 -27.688  1.00  0.00    -0.550 OA
ATOM      8  O   UNL     1     -39.844  19.042 -28.143  1.00  0.00    -0.550 OA
ENDBRANCH   5   6
ENDBRANCH   1   5
TORSDOF 3
ENDMDL
MODEL 3
REMARK VINA RESULT:    -3.552      1.247      3.838
REMARK INTER + INTRA:          -4.298
REMARK INTER:                  -4.235
REMARK INTRA:                  -0.062
REMARK UNBOUND:                -0.123
REMARK SMILES O=C([O-])CCC(=O)[O-]
REMARK SMILES IDX 4 1 2 2 1 3 3 4 5 5 6 6 7 7 8 8
REMARK H PARENT
REMARK Flexibility Score: inf
ROOT
ATOM      1  C   UNL     1     -37.438  19.433 -30.416  1.00  0.00     0.059 C 
ENDROOT
BRANCH   1   2
ATOM      2  C   UNL     1     -37.657  20.605 -31.321  1.00  0.00     0.042 C 
ATOM      3  O   UNL     1     -38.774  20.774 -31.879  1.00  0.00    -0.550 OA
ATOM      4  O   UNL     1     -36.614  21.482 -31.587  1.00  0.00    -0.550 OA
ENDBRANCH   1   2
BRANCH   1   5
ATOM      5  C   UNL     1     -38.775  18.795 -30.035  1.00  0.00     0.059 C 
BRANCH   5   6
ATOM      6  C   UNL     1     -38.994  18.884 -28.557  1.00  0.00     0.042 C 
ATOM      7  O   UNL     1     -38.097  18.504 -27.760  1.00  0.00    -0.550 OA
ATOM      8  O   UNL     1     -40.207  19.343 -28.060  1.00  0.00    -0.550 OA
ENDBRANCH   5   6
ENDBRANCH   1   5
TORSDOF 3
ENDMDL
MODEL 4
REMARK VINA RESULT:    -3.540      1.274      1.554
REMARK INTER + INTRA:          -4.284
REMARK INTER:                  -4.218
REMARK INTRA:                  -0.066
REMARK UNBOUND:                -0.123
REMARK SMILES O=C([O-])CCC(=O)[O-]
REMARK SMILES IDX 4 1 2 2 1 3 3 4 5 5 6 6 7 7 8 8
REMARK H PARENT
REMARK Flexibility Score: inf
ROOT
ATOM      1  C   UNL     1     -38.761  18.769 -30.017  1.00  0.00     0.059 C 
ENDROOT
BRANCH   1   2
ATOM      2  C   UNL     1     -38.975  18.912 -28.543  1.00  0.00     0.042 C 
ATOM      3  O   UNL     1     -38.050  18.627 -27.738  1.00  0.00    -0.550 OA
ATOM      4  O   UNL     1     -40.213  19.310 -28.056  1.00  0.00    -0.550 OA
ENDBRANCH   1   2
BRANCH   1   5
ATOM      5  C   UNL     1     -37.381  19.300 -30.411  1.00  0.00     0.059 C 
BRANCH   5   6
ATOM      6  C   UNL     1     -37.515  20.516 -31.271  1.00  0.00     0.042 C 
ATOM      7  O   UNL     1     -36.544  21.307 -31.404  1.00  0.00    -0.550 OA
ATOM      8  O   UNL     1     -38.726  20.803 -31.888  1.00  0.00    -0.550 OA
ENDBRANCH   5   6
ENDBRANCH   1   5
TORSDOF 3
ENDMDL
MODEL 5
REMARK VINA RESULT:    -3.507      2.250      3.373
REMARK INTER + INTRA:          -4.245
REMARK INTER:                  -4.149
REMARK INTRA:                  -0.096
REMARK UNBOUND:                -0.123
REMARK SMILES O=C([O-])CCC(=O)[O-]
REMARK SMILES IDX 4 1 2 2 1 3 3 4 5 5 6 6 7 7 8 8
REMARK H PARENT
REMARK Flexibility Score: inf
ROOT
ATOM      1  C   UNL     1     -39.040  19.601 -29.523  1.00  0.00     0.059 C 
ENDROOT
BRANCH   1   2
ATOM      2  C   UNL     1     -39.004  21.087 -29.357  1.00  0.00     0.042 C 
ATOM      3  O   UNL     1     -37.970  21.650 -28.908  1.00  0.00    -0.550 OA
ATOM      4  O   UNL     1     -40.129  21.847 -29.651  1.00  0.00    -0.550 OA
ENDBRANCH   1   2
BRANCH   1   5
ATOM      5  C   UNL     1     -38.865  18.908 -28.171  1.00  0.00     0.059 C 
BRANCH   5   6
ATOM      6  C   UNL     1     -37.542  18.212 -28.107  1.00  0.00     0.042 C 
ATOM      7  O   UNL     1     -36.682  18.563 -27.257  1.00  0.00    -0.550 OA
ATOM      8  O   UNL     1     -37.239  17.208 -29.018  1.00  0.00    -0.550 OA
ENDBRANCH   5   6
ENDBRANCH   1   5
TORSDOF 3
ENDMDL
MODEL 6
REMARK VINA RESULT:    -3.493      2.231      2.644
REMARK INTER + INTRA:          -4.228
REMARK INTER:                  -4.136
REMARK INTRA:                  -0.092
REMARK UNBOUND:                -0.123
REMARK SMILES O=C([O-])CCC(=O)[O-]
REMARK SMILES IDX 4 1 2 2 1 3 3 4 5 5 6 6 7 7 8 8
REMARK H PARENT
REMARK Flexibility Score: inf
ROOT
ATOM      1  C   UNL     1     -38.855  18.960 -28.190  1.00  0.00     0.059 C 
ENDROOT
BRANCH   1   2
ATOM      2  C   UNL     1     -37.547  18.236 -28.142  1.00  0.00     0.042 C 
ATOM      3  O   UNL     1     -36.679  18.551 -27.284  1.00  0.00    -0.550 OA
ATOM      4  O   UNL     1     -37.264  17.248 -29.076  1.00  0.00    -0.550 OA
ENDBRANCH   1   2
BRANCH   1   5
ATOM      5  C   UNL     1     -39.029  19.663 -29.537  1.00  0.00     0.059 C 
BRANCH   5   6
ATOM      6  C   UNL     1     -39.031  21.148 -29.355  1.00  0.00     0.042 C 
ATOM      7  O   UNL     1     -38.036  21.725 -28.843  1.00  0.00    -0.550 OA
ATOM      8  O   UNL     1     -40.151  21.890 -29.706  1.00  0.00    -0.550 OA
ENDBRANCH   5   6
ENDBRANCH   1   5
TORSDOF 3
ENDMDL
MODEL 7
REMARK VINA RESULT:    -3.485      2.036      2.921
REMARK INTER + INTRA:          -4.220
REMARK INTER:                  -4.166
REMARK INTRA:                  -0.054
REMARK UNBOUND:                -0.123
REMARK SMILES O=C([O-])CCC(=O)[O-]
REMARK SMILES IDX 4 1 2 2 1 3 3 4 5 5 6 6 7 7 8 8
REMARK H PARENT
REMARK Flexibility Score: inf
ROOT
ATOM      1  C   UNL     1     -39.505  20.107 -28.871  1.00  0.00     0.059 C 
ENDROOT
BRANCH   1   2
ATOM      2  C   UNL     1     -39.526  21.562 -29.218  1.00  0.00     0.042 C 
ATOM      3  O   UNL     1     -40.473  22.037 -29.900  1.00  0.00    -0.550 OA
ATOM      4  O   UNL     1     -38.475  22.384 -28.834  1.00  0.00    -0.550 OA
ENDBRANCH   1   2
BRANCH   1   5
ATOM      5  C   UNL     1     -38.268  19.432 -29.465  1.00  0.00     0.059 C 
BRANCH   5   6
ATOM      6  C   UNL     1     -38.483  19.128 -30.914  1.00  0.00     0.042 C 
ATOM      7  O   UNL     1     -38.783  17.960 -31.278  1.00  0.00    -0.550 OA
ATOM      8  O   UNL     1     -38.307  20.122 -31.868  1.00  0.00    -0.550 OA
ENDBRANCH   5   6
ENDBRANCH   1   5
TORSDOF 3
ENDMDL
MODEL 8
REMARK VINA RESULT:    -3.477      1.402      1.962
REMARK INTER + INTRA:          -4.209
REMARK INTER:                  -4.111
REMARK INTRA:                  -0.099
REMARK UNBOUND:                -0.123
REMARK SMILES O=C([O-])CCC(=O)[O-]
REMARK SMILES IDX 4 1 2 2 1 3 3 4 5 5 6 6 7 7 8 8
REMARK H PARENT
REMARK Flexibility Score: inf
ROOT
ATOM      1  C   UNL     1     -37.322  18.619 -29.792  1.00  0.00     0.059 C 
ENDROOT
BRANCH   1   2
ATOM      2  C   UNL     1     -37.816  18.501 -28.385  1.00  0.00     0.042 C 
ATOM      3  O   UNL     1     -39.017  18.760 -28.112  1.00  0.00    -0.550 OA
ATOM      4  O   UNL     1     -36.937  18.155 -27.367  1.00  0.00    -0.550 OA
ENDBRANCH   1   2
BRANCH   1   5
ATOM      5  C   UNL     1     -38.472  18.980 -30.734  1.00  0.00     0.059 C 
BRANCH   5   6
ATOM      6  C   UNL     1     -38.449  20.443 -31.050  1.00  0.00     0.042 C 
ATOM      7  O   UNL     1     -37.686  20.884 -31.949  1.00  0.00    -0.550 OA
ATOM      8  O   UNL     1     -39.234  21.325 -30.320  1.00  0.00    -0.550 OA
ENDBRANCH   5   6
ENDBRANCH   1   5
TORSDOF 3
ENDMDL
MODEL 9
REMARK VINA RESULT:    -3.404      1.958      3.375
REMARK INTER + INTRA:          -4.124
REMARK INTER:                  -3.945
REMARK INTRA:                  -0.179
REMARK UNBOUND:                -0.123
REMARK SMILES O=C([O-])CCC(=O)[O-]
REMARK SMILES IDX 4 1 2 2 1 3 3 4 5 5 6 6 7 7 8 8
REMARK H PARENT
REMARK Flexibility Score: inf
ROOT
ATOM      1  C   UNL     1     -38.739  20.597 -30.449  1.00  0.00     0.059 C 
ENDROOT
BRANCH   1   2
ATOM      2  C   UNL     1     -37.660  21.403 -29.797  1.00  0.00     0.042 C 
ATOM      3  O   UNL     1     -36.450  21.166 -30.053  1.00  0.00    -0.550 OA
ATOM      4  O   UNL     1     -37.989  22.382 -28.868  1.00  0.00    -0.550 OA
ENDBRANCH   1   2
BRANCH   1   5
ATOM      5  C   UNL     1     -38.662  19.137 -30.000  1.00  0.00     0.059 C 
BRANCH   5   6
ATOM      6  C   UNL     1     -39.004  19.017 -28.548  1.00  0.00     0.042 C 
ATOM      7  O   UNL     1     -38.166  18.542 -27.737  1.00  0.00    -0.550 OA
ATOM      8  O   UNL     1     -40.265  19.385 -28.098  1.00  0.00    -0.550 OA
ENDBRANCH   5   6
ENDBRANCH   1   5
TORSDOF 3
ENDMDL
