MODEL 1
REMARK VINA RESULT:    -5.769      0.000      0.000
REMARK INTER + INTRA:          -5.769
REMARK INTER:                  -5.769
REMARK INTRA:                   0.000
REMARK UNBOUND:                 0.000
REMARK SMILES c1ccc2nc3ccccc3cc2c1
REMARK SMILES IDX 1 1 2 2 3 3 4 4 13 5 14 6 12 7 11 8 10 9 9 10 8 11 7 12 6 13
REMARK SMILES IDX 5 14
REMARK H PARENT
REMARK Flexibility Score: inf
ROOT
ATOM      1  C   UNL     1     143.927 184.365 153.474  1.00  0.00     0.001 A 
ATOM      2  C   UNL     1     144.597 183.138 153.535  1.00  0.00     0.002 A 
ATOM      3  C   UNL     1     144.704 182.455 154.750  1.00  0.00     0.029 A 
ATOM      4  C   UNL     1     144.139 182.998 155.911  1.00  0.00     0.071 A 
ATOM      5  C   UNL     1     143.463 184.237 155.852  1.00  0.00     0.001 A 
ATOM      6  C   UNL     1     143.360 184.916 154.628  1.00  0.00     0.010 A 
ATOM      7  C   UNL     1     142.904 184.766 157.023  1.00  0.00     0.020 A 
ATOM      8  C   UNL     1     143.023 184.064 158.230  1.00  0.00     0.001 A 
ATOM      9  C   UNL     1     142.475 184.566 159.420  1.00  0.00     0.010 A 
ATOM     10  C   UNL     1     142.609 183.844 160.611  1.00  0.00     0.001 A 
ATOM     11  C   UNL     1     143.288 182.622 160.620  1.00  0.00     0.002 A 
ATOM     12  C   UNL     1     143.837 182.113 159.438  1.00  0.00     0.029 A 
ATOM     13  C   UNL     1     143.710 182.827 158.242  1.00  0.00     0.071 A 
ATOM     14  N   UNL     1     144.244 182.334 157.094  1.00  0.00    -0.248 NA
ENDROOT
TORSDOF 0
ENDMDL
MODEL 2
REMARK VINA RESULT:    -5.684      2.947      4.605
REMARK INTER + INTRA:          -5.684
REMARK INTER:                  -5.684
REMARK INTRA:                   0.000
REMARK UNBOUND:                 0.000
REMARK SMILES c1ccc2nc3ccccc3cc2c1
REMARK SMILES IDX 1 1 2 2 3 3 4 4 13 5 14 6 12 7 11 8 10 9 9 10 8 11 7 12 6 13
REMARK SMILES IDX 5 14
REMARK H PARENT
REMARK Flexibility Score: inf
ROOT
ATOM      1  C   UNL     1     144.081 181.722 159.442  1.00  0.00     0.001 A 
ATOM      2  C   UNL     1     145.207 181.939 158.641  1.00  0.00     0.002 A 
ATOM      3  C   UNL     1     145.521 183.229 158.202  1.00  0.00     0.029 A 
ATOM      4  C   UNL     1     144.705 184.309 158.563  1.00  0.00     0.071 A 
ATOM      5  C   UNL     1     143.567 184.092 159.371  1.00  0.00     0.001 A 
ATOM      6  C   UNL     1     143.260 182.795 159.808  1.00  0.00     0.010 A 
ATOM      7  C   UNL     1     142.763 185.184 159.723  1.00  0.00     0.020 A 
ATOM      8  C   UNL     1     143.095 186.468 159.272  1.00  0.00     0.001 A 
ATOM      9  C   UNL     1     142.311 187.582 159.606  1.00  0.00     0.010 A 
ATOM     10  C   UNL     1     142.666 188.853 159.141  1.00  0.00     0.001 A 
ATOM     11  C   UNL     1     143.802 189.018 158.343  1.00  0.00     0.002 A 
ATOM     12  C   UNL     1     144.591 187.913 158.005  1.00  0.00     0.029 A 
ATOM     13  C   UNL     1     144.244 186.638 158.464  1.00  0.00     0.071 A 
ATOM     14  N   UNL     1     145.010 185.564 158.135  1.00  0.00    -0.248 NA
ENDROOT
TORSDOF 0
ENDMDL
MODEL 3
REMARK VINA RESULT:    -5.669      3.009      4.513
REMARK INTER + INTRA:          -5.669
REMARK INTER:                  -5.669
REMARK INTRA:                   0.000
REMARK UNBOUND:                 0.000
REMARK SMILES c1ccc2nc3ccccc3cc2c1
REMARK SMILES IDX 1 1 2 2 3 3 4 4 13 5 14 6 12 7 11 8 10 9 9 10 8 11 7 12 6 13
REMARK SMILES IDX 5 14
REMARK H PARENT
REMARK Flexibility Score: inf
ROOT
ATOM      1  C   UNL     1     142.905 188.872 159.400  1.00  0.00     0.001 A 
ATOM      2  C   UNL     1     144.047 189.034 158.608  1.00  0.00     0.002 A 
ATOM      3  C   UNL     1     144.802 187.920 158.226  1.00  0.00     0.029 A 
ATOM      4  C   UNL     1     144.416 186.638 158.637  1.00  0.00     0.071 A 
ATOM      5  C   UNL     1     143.264 186.473 159.438  1.00  0.00     0.001 A 
ATOM      6  C   UNL     1     142.511 187.595 159.816  1.00  0.00     0.010 A 
ATOM      7  C   UNL     1     142.891 185.183 159.840  1.00  0.00     0.020 A 
ATOM      8  C   UNL     1     143.663 184.081 159.446  1.00  0.00     0.001 A 
ATOM      9  C   UNL     1     143.318 182.778 159.831  1.00  0.00     0.010 A 
ATOM     10  C   UNL     1     144.105 181.696 159.423  1.00  0.00     0.001 A 
ATOM     11  C   UNL     1     145.238 181.909 158.631  1.00  0.00     0.002 A 
ATOM     12  C   UNL     1     145.590 183.206 158.241  1.00  0.00     0.029 A 
ATOM     13  C   UNL     1     144.809 184.294 158.644  1.00  0.00     0.071 A 
ATOM     14  N   UNL     1     145.150 185.555 158.267  1.00  0.00    -0.248 NA
ENDROOT
TORSDOF 0
ENDMDL
MODEL 4
REMARK VINA RESULT:    -5.663      4.755      6.515
REMARK INTER + INTRA:          -5.663
REMARK INTER:                  -5.663
REMARK INTRA:                   0.000
REMARK UNBOUND:                 0.000
REMARK SMILES c1ccc2nc3ccccc3cc2c1
REMARK SMILES IDX 1 1 2 2 3 3 4 4 13 5 14 6 12 7 11 8 10 9 9 10 8 11 7 12 6 13
REMARK SMILES IDX 5 14
REMARK H PARENT
REMARK Flexibility Score: inf
ROOT
ATOM      1  C   UNL     1     142.245 184.651 159.180  1.00  0.00     0.001 A 
ATOM      2  C   UNL     1     141.360 185.412 158.410  1.00  0.00     0.002 A 
ATOM      3  C   UNL     1     141.495 186.803 158.352  1.00  0.00     0.029 A 
ATOM      4  C   UNL     1     142.518 187.437 159.067  1.00  0.00     0.071 A 
ATOM      5  C   UNL     1     143.413 186.670 159.846  1.00  0.00     0.001 A 
ATOM      6  C   UNL     1     143.271 185.275 159.898  1.00  0.00     0.010 A 
ATOM      7  C   UNL     1     144.432 187.321 160.555  1.00  0.00     0.020 A 
ATOM      8  C   UNL     1     144.548 188.716 160.483  1.00  0.00     0.001 A 
ATOM      9  C   UNL     1     145.556 189.398 161.179  1.00  0.00     0.010 A 
ATOM     10  C   UNL     1     145.649 190.791 161.090  1.00  0.00     0.001 A 
ATOM     11  C   UNL     1     144.740 191.508 160.306  1.00  0.00     0.002 A 
ATOM     12  C   UNL     1     143.731 190.836 159.606  1.00  0.00     0.029 A 
ATOM     13  C   UNL     1     143.629 189.443 159.690  1.00  0.00     0.071 A 
ATOM     14  N   UNL     1     142.649 188.790 159.011  1.00  0.00    -0.248 NA
ENDROOT
TORSDOF 0
ENDMDL
MODEL 5
REMARK VINA RESULT:    -5.653      4.721      6.673
REMARK INTER + INTRA:          -5.653
REMARK INTER:                  -5.653
REMARK INTRA:                   0.000
REMARK UNBOUND:                 0.000
REMARK SMILES c1ccc2nc3ccccc3cc2c1
REMARK SMILES IDX 1 1 2 2 3 3 4 4 13 5 14 6 12 7 11 8 10 9 9 10 8 11 7 12 6 13
REMARK SMILES IDX 5 14
REMARK H PARENT
REMARK Flexibility Score: inf
ROOT
ATOM      1  C   UNL     1     145.570 190.814 161.033  1.00  0.00     0.001 A 
ATOM      2  C   UNL     1     144.646 191.504 160.241  1.00  0.00     0.002 A 
ATOM      3  C   UNL     1     143.650 190.805 159.551  1.00  0.00     0.029 A 
ATOM      4  C   UNL     1     143.577 189.411 159.651  1.00  0.00     0.071 A 
ATOM      5  C   UNL     1     144.509 188.712 160.449  1.00  0.00     0.001 A 
ATOM      6  C   UNL     1     145.505 189.420 161.139  1.00  0.00     0.010 A 
ATOM      7  C   UNL     1     144.421 187.316 160.538  1.00  0.00     0.020 A 
ATOM      8  C   UNL     1     143.415 186.636 159.837  1.00  0.00     0.001 A 
ATOM      9  C   UNL     1     143.299 185.240 159.905  1.00  0.00     0.010 A 
ATOM     10  C   UNL     1     142.286 184.587 159.195  1.00  0.00     0.001 A 
ATOM     11  C   UNL     1     141.386 185.321 158.418  1.00  0.00     0.002 A 
ATOM     12  C   UNL     1     141.493 186.715 158.344  1.00  0.00     0.029 A 
ATOM     13  C   UNL     1     142.503 187.377 159.050  1.00  0.00     0.071 A 
ATOM     14  N   UNL     1     142.609 188.731 158.979  1.00  0.00    -0.248 NA
ENDROOT
TORSDOF 0
ENDMDL
MODEL 6
REMARK VINA RESULT:    -5.631      0.897      2.145
REMARK INTER + INTRA:          -5.631
REMARK INTER:                  -5.631
REMARK INTRA:                   0.000
REMARK UNBOUND:                 0.000
REMARK SMILES c1ccc2nc3ccccc3cc2c1
REMARK SMILES IDX 1 1 2 2 3 3 4 4 13 5 14 6 12 7 11 8 10 9 9 10 8 11 7 12 6 13
REMARK SMILES IDX 5 14
REMARK H PARENT
REMARK Flexibility Score: inf
ROOT
ATOM      1  C   UNL     1     144.569 183.133 153.236  1.00  0.00     0.001 A 
ATOM      2  C   UNL     1     143.798 184.295 153.137  1.00  0.00     0.002 A 
ATOM      3  C   UNL     1     143.204 184.845 154.278  1.00  0.00     0.029 A 
ATOM      4  C   UNL     1     143.380 184.230 155.524  1.00  0.00     0.071 A 
ATOM      5  C   UNL     1     144.158 183.055 155.625  1.00  0.00     0.001 A 
ATOM      6  C   UNL     1     144.751 182.511 154.476  1.00  0.00     0.010 A 
ATOM      7  C   UNL     1     144.325 182.454 156.880  1.00  0.00     0.020 A 
ATOM      8  C   UNL     1     143.720 183.021 158.010  1.00  0.00     0.001 A 
ATOM      9  C   UNL     1     143.867 182.444 159.280  1.00  0.00     0.010 A 
ATOM     10  C   UNL     1     143.253 183.031 160.391  1.00  0.00     0.001 A 
ATOM     11  C   UNL     1     142.492 184.194 160.241  1.00  0.00     0.002 A 
ATOM     12  C   UNL     1     142.340 184.778 158.978  1.00  0.00     0.029 A 
ATOM     13  C   UNL     1     142.950 184.198 157.861  1.00  0.00     0.071 A 
ATOM     14  N   UNL     1     142.802 184.764 156.633  1.00  0.00    -0.248 NA
ENDROOT
TORSDOF 0
ENDMDL
MODEL 7
REMARK VINA RESULT:    -5.441      2.037      5.220
REMARK INTER + INTRA:          -5.441
REMARK INTER:                  -5.441
REMARK INTRA:                   0.000
REMARK UNBOUND:                 0.000
REMARK SMILES c1ccc2nc3ccccc3cc2c1
REMARK SMILES IDX 1 1 2 2 3 3 4 4 13 5 14 6 12 7 11 8 10 9 9 10 8 11 7 12 6 13
REMARK SMILES IDX 5 14
REMARK H PARENT
REMARK Flexibility Score: inf
ROOT
ATOM      1  C   UNL     1     143.033 187.061 160.256  1.00  0.00     0.001 A 
ATOM      2  C   UNL     1     142.668 188.040 159.325  1.00  0.00     0.002 A 
ATOM      3  C   UNL     1     142.719 187.761 157.955  1.00  0.00     0.029 A 
ATOM      4  C   UNL     1     143.137 186.500 157.512  1.00  0.00     0.071 A 
ATOM      5  C   UNL     1     143.506 185.511 158.451  1.00  0.00     0.001 A 
ATOM      6  C   UNL     1     143.452 185.798 159.823  1.00  0.00     0.010 A 
ATOM      7  C   UNL     1     143.921 184.254 157.990  1.00  0.00     0.020 A 
ATOM      8  C   UNL     1     143.965 183.997 156.613  1.00  0.00     0.001 A 
ATOM      9  C   UNL     1     144.376 182.750 156.119  1.00  0.00     0.010 A 
ATOM     10  C   UNL     1     144.410 182.521 154.740  1.00  0.00     0.001 A 
ATOM     11  C   UNL     1     144.036 183.531 153.849  1.00  0.00     0.002 A 
ATOM     12  C   UNL     1     143.624 184.778 154.332  1.00  0.00     0.029 A 
ATOM     13  C   UNL     1     143.587 185.018 155.710  1.00  0.00     0.071 A 
ATOM     14  N   UNL     1     143.188 186.229 156.180  1.00  0.00    -0.248 NA
ENDROOT
TORSDOF 0
ENDMDL
MODEL 8
REMARK VINA RESULT:    -5.438      2.075      3.236
REMARK INTER + INTRA:          -5.438
REMARK INTER:                  -5.438
REMARK INTRA:                   0.000
REMARK UNBOUND:                 0.000
REMARK SMILES c1ccc2nc3ccccc3cc2c1
REMARK SMILES IDX 1 1 2 2 3 3 4 4 13 5 14 6 12 7 11 8 10 9 9 10 8 11 7 12 6 13
REMARK SMILES IDX 5 14
REMARK H PARENT
REMARK Flexibility Score: inf
ROOT
ATOM      1  C   UNL     1     144.448 182.514 154.800  1.00  0.00     0.001 A 
ATOM      2  C   UNL     1     144.053 183.490 153.879  1.00  0.00     0.002 A 
ATOM      3  C   UNL     1     143.618 184.742 154.324  1.00  0.00     0.029 A 
ATOM      4  C   UNL     1     143.576 185.021 155.696  1.00  0.00     0.071 A 
ATOM      5  C   UNL     1     143.974 184.037 156.627  1.00  0.00     0.001 A 
ATOM      6  C   UNL     1     144.410 182.783 156.172  1.00  0.00     0.010 A 
ATOM      7  C   UNL     1     143.926 184.333 157.996  1.00  0.00     0.020 A 
ATOM      8  C   UNL     1     143.486 185.594 158.421  1.00  0.00     0.001 A 
ATOM      9  C   UNL     1     143.426 185.923 159.783  1.00  0.00     0.010 A 
ATOM     10  C   UNL     1     142.983 187.189 160.178  1.00  0.00     0.001 A 
ATOM     11  C   UNL     1     142.599 188.132 159.219  1.00  0.00     0.002 A 
ATOM     12  C   UNL     1     142.656 187.814 157.858  1.00  0.00     0.029 A 
ATOM     13  C   UNL     1     143.097 186.550 157.452  1.00  0.00     0.071 A 
ATOM     14  N   UNL     1     143.152 186.239 156.130  1.00  0.00    -0.248 NA
ENDROOT
TORSDOF 0
ENDMDL
MODEL 9
REMARK VINA RESULT:    -5.434      2.725      3.281
REMARK INTER + INTRA:          -5.434
REMARK INTER:                  -5.434
REMARK INTRA:                   0.000
REMARK UNBOUND:                 0.000
REMARK SMILES c1ccc2nc3ccccc3cc2c1
REMARK SMILES IDX 1 1 2 2 3 3 4 4 13 5 14 6 12 7 11 8 10 9 9 10 8 11 7 12 6 13
REMARK SMILES IDX 5 14
REMARK H PARENT
REMARK Flexibility Score: inf
ROOT
ATOM      1  C   UNL     1     144.758 183.204 154.749  1.00  0.00     0.001 A 
ATOM      2  C   UNL     1     143.567 182.757 155.331  1.00  0.00     0.002 A 
ATOM      3  C   UNL     1     143.134 183.293 156.548  1.00  0.00     0.029 A 
ATOM      4  C   UNL     1     143.894 184.280 157.188  1.00  0.00     0.071 A 
ATOM      5  C   UNL     1     145.097 184.732 156.602  1.00  0.00     0.001 A 
ATOM      6  C   UNL     1     145.524 184.189 155.381  1.00  0.00     0.010 A 
ATOM      7  C   UNL     1     145.845 185.721 157.256  1.00  0.00     0.020 A 
ATOM      8  C   UNL     1     145.393 186.244 158.475  1.00  0.00     0.001 A 
ATOM      9  C   UNL     1     146.118 187.233 159.155  1.00  0.00     0.010 A 
ATOM     10  C   UNL     1     145.643 187.738 160.370  1.00  0.00     0.001 A 
ATOM     11  C   UNL     1     144.446 187.259 160.911  1.00  0.00     0.002 A 
ATOM     12  C   UNL     1     143.715 186.273 160.240  1.00  0.00     0.029 A 
ATOM     13  C   UNL     1     144.182 185.761 159.025  1.00  0.00     0.071 A 
ATOM     14  N   UNL     1     143.474 184.801 158.372  1.00  0.00    -0.248 NA
ENDROOT
TORSDOF 0
ENDMDL
