MODEL 1
REMARK VINA RESULT:     4.890      0.000      0.000
REMARK INTER + INTRA:           5.961
REMARK INTER:                   6.034
REMARK INTRA:                  -0.073
REMARK UNBOUND:                -0.073
REMARK SMILES CCCCCC(=O)[O-]
REMARK SMILES IDX 4 1 5 2 6 3 7 4 8 5 3 6 2 7 1 8
REMARK H PARENT
REMARK Flexibility Score: inf
ROOT
ATOM      1  C   UNL     1      -1.235  -8.375  24.170  1.00  0.00     0.006 C 
ENDROOT
BRANCH   1   2
ATOM      2  C   UNL     1      -0.864  -9.108  25.462  1.00  0.00     0.053 C 
BRANCH   2   3
ATOM      3  C   UNL     1       0.291  -8.436  26.133  1.00  0.00     0.041 C 
ATOM      4  O   UNL     1       0.596  -7.251  25.835  1.00  0.00    -0.550 OA
ATOM      5  O   UNL     1       1.001  -9.100  27.125  1.00  0.00    -0.550 OA
ENDBRANCH   2   3
ENDBRANCH   1   2
BRANCH   1   6
ATOM      6  C   UNL     1      -2.752  -8.383  23.948  1.00  0.00     0.000 C 
BRANCH   6   7
ATOM      7  C   UNL     1      -3.195  -7.162  23.134  1.00  0.00    -0.003 C 
ATOM      8  C   UNL     1      -2.715  -7.258  21.689  1.00  0.00     0.004 C 
ENDBRANCH   6   7
ENDBRANCH   1   6
TORSDOF 4
ENDMDL
MODEL 2
REMARK VINA RESULT:     6.031      1.002      2.061
REMARK INTER + INTRA:           7.369
REMARK INTER:                   7.503
REMARK INTRA:                  -0.134
REMARK UNBOUND:                -0.073
REMARK SMILES CCCCCC(=O)[O-]
REMARK SMILES IDX 4 1 5 2 6 3 7 4 8 5 3 6 2 7 1 8
REMARK H PARENT
REMARK Flexibility Score: inf
ROOT
ATOM      1  C   UNL     1      -1.143  -8.351  24.115  1.00  0.00     0.006 C 
ENDROOT
BRANCH   1   2
ATOM      2  C   UNL     1      -0.830  -9.152  25.382  1.00  0.00     0.053 C 
BRANCH   2   3
ATOM      3  C   UNL     1       0.245  -8.480  26.175  1.00  0.00     0.041 C 
ATOM      4  O   UNL     1       0.859  -9.113  27.075  1.00  0.00    -0.550 OA
ATOM      5  O   UNL     1       0.606  -7.170  25.888  1.00  0.00    -0.550 OA
ENDBRANCH   2   3
ENDBRANCH   1   2
BRANCH   1   6
ATOM      6  C   UNL     1      -2.647  -8.079  23.993  1.00  0.00     0.000 C 
BRANCH   6   7
ATOM      7  C   UNL     1      -3.459  -9.106  24.791  1.00  0.00    -0.003 C 
ATOM      8  C   UNL     1      -4.947  -8.767  24.774  1.00  0.00     0.004 C 
ENDBRANCH   6   7
ENDBRANCH   1   6
TORSDOF 4
ENDMDL
MODEL 3
REMARK VINA RESULT:     6.219      2.052      2.806
REMARK INTER + INTRA:           7.601
REMARK INTER:                   7.654
REMARK INTRA:                  -0.054
REMARK UNBOUND:                -0.073
REMARK SMILES CCCCCC(=O)[O-]
REMARK SMILES IDX 4 1 5 2 6 3 7 4 8 5 3 6 2 7 1 8
REMARK H PARENT
REMARK Flexibility Score: inf
ROOT
ATOM      1  C   UNL     1      -1.977  -7.647  22.490  1.00  0.00     0.006 C 
ENDROOT
BRANCH   1   2
ATOM      2  C   UNL     1      -2.474  -8.174  23.839  1.00  0.00     0.053 C 
BRANCH   2   3
ATOM      3  C   UNL     1      -1.518  -9.180  24.394  1.00  0.00     0.041 C 
ATOM      4  O   UNL     1      -1.375 -10.297  23.830  1.00  0.00    -0.550 OA
ATOM      5  O   UNL     1      -0.745  -8.867  25.505  1.00  0.00    -0.550 OA
ENDBRANCH   2   3
ENDBRANCH   1   2
BRANCH   1   6
ATOM      6  C   UNL     1      -3.136  -7.089  21.655  1.00  0.00     0.000 C 
BRANCH   6   7
ATOM      7  C   UNL     1      -2.745  -6.976  20.177  1.00  0.00    -0.003 C 
ATOM      8  C   UNL     1      -3.832  -7.551  19.273  1.00  0.00     0.004 C 
ENDBRANCH   6   7
ENDBRANCH   1   6
TORSDOF 4
ENDMDL
MODEL 4
REMARK VINA RESULT:     6.795      9.693     10.456
REMARK INTER + INTRA:           8.311
REMARK INTER:                   8.459
REMARK INTRA:                  -0.148
REMARK UNBOUND:                -0.073
REMARK SMILES CCCCCC(=O)[O-]
REMARK SMILES IDX 4 1 5 2 6 3 7 4 8 5 3 6 2 7 1 8
REMARK H PARENT
REMARK Flexibility Score: inf
ROOT
ATOM      1  C   UNL     1      -4.713 -17.579  26.258  1.00  0.00     0.006 C 
ENDROOT
BRANCH   1   2
ATOM      2  C   UNL     1      -5.744 -18.460  25.547  1.00  0.00     0.053 C 
BRANCH   2   3
ATOM      3  C   UNL     1      -5.621 -18.319  24.063  1.00  0.00     0.041 C 
ATOM      4  O   UNL     1      -6.510 -18.790  23.306  1.00  0.00    -0.550 OA
ATOM      5  O   UNL     1      -4.550 -17.624  23.517  1.00  0.00    -0.550 OA
ENDBRANCH   2   3
ENDBRANCH   1   2
BRANCH   1   6
ATOM      6  C   UNL     1      -5.336 -16.250  26.700  1.00  0.00     0.000 C 
BRANCH   6   7
ATOM      7  C   UNL     1      -4.657 -15.065  26.003  1.00  0.00    -0.003 C 
ATOM      8  C   UNL     1      -5.596 -13.865  25.914  1.00  0.00     0.004 C 
ENDBRANCH   6   7
ENDBRANCH   1   6
TORSDOF 4
ENDMDL
MODEL 5
REMARK VINA RESULT:     7.745      9.007      9.688
REMARK INTER + INTRA:           9.483
REMARK INTER:                   9.628
REMARK INTRA:                  -0.145
REMARK UNBOUND:                -0.073
REMARK SMILES CCCCCC(=O)[O-]
REMARK SMILES IDX 4 1 5 2 6 3 7 4 8 5 3 6 2 7 1 8
REMARK H PARENT
REMARK Flexibility Score: inf
ROOT
ATOM      1  C   UNL     1      -4.727 -17.321  25.983  1.00  0.00     0.006 C 
ENDROOT
BRANCH   1   2
ATOM      2  C   UNL     1      -5.376 -16.157  26.736  1.00  0.00     0.053 C 
BRANCH   2   3
ATOM      3  C   UNL     1      -4.954 -14.849  26.147  1.00  0.00     0.041 C 
ATOM      4  O   UNL     1      -3.785 -14.703  25.701  1.00  0.00    -0.550 OA
ATOM      5  O   UNL     1      -5.865 -13.806  26.043  1.00  0.00    -0.550 OA
ENDBRANCH   2   3
ENDBRANCH   1   2
BRANCH   1   6
ATOM      6  C   UNL     1      -5.753 -18.416  25.671  1.00  0.00     0.000 C 
BRANCH   6   7
ATOM      7  C   UNL     1      -5.824 -18.690  24.165  1.00  0.00    -0.003 C 
ATOM      8  C   UNL     1      -5.031 -17.652  23.376  1.00  0.00     0.004 C 
ENDBRANCH   6   7
ENDBRANCH   1   6
TORSDOF 4
ENDMDL
MODEL 6
REMARK VINA RESULT:     7.766     13.075     13.441
REMARK INTER + INTRA:           9.509
REMARK INTER:                   9.552
REMARK INTRA:                  -0.043
REMARK UNBOUND:                -0.073
REMARK SMILES CCCCCC(=O)[O-]
REMARK SMILES IDX 4 1 5 2 6 3 7 4 8 5 3 6 2 7 1 8
REMARK H PARENT
REMARK Flexibility Score: inf
ROOT
ATOM      1  C   UNL     1       4.914 -16.775  16.307  1.00  0.00     0.006 C 
ENDROOT
BRANCH   1   2
ATOM      2  C   UNL     1       4.776 -17.379  17.708  1.00  0.00     0.053 C 
BRANCH   2   3
ATOM      3  C   UNL     1       4.096 -16.417  18.629  1.00  0.00     0.041 C 
ATOM      4  O   UNL     1       3.087 -16.778  19.291  1.00  0.00    -0.550 OA
ATOM      5  O   UNL     1       4.606 -15.136  18.797  1.00  0.00    -0.550 OA
ENDBRANCH   2   3
ENDBRANCH   1   2
BRANCH   1   6
ATOM      6  C   UNL     1       4.732 -17.845  15.225  1.00  0.00     0.000 C 
BRANCH   6   7
ATOM      7  C   UNL     1       4.785 -17.226  13.824  1.00  0.00    -0.003 C 
ATOM      8  C   UNL     1       4.283 -18.207  12.768  1.00  0.00     0.004 C 
ENDBRANCH   6   7
ENDBRANCH   1   6
TORSDOF 4
ENDMDL
