MODEL 1
REMARK VINA RESULT:    -5.874      0.000      0.000
REMARK INTER + INTRA:          -6.046
REMARK INTER:                  -6.046
REMARK INTRA:                   0.000
REMARK UNBOUND:                 0.000
REMARK SMILES Nc1ncnc2nc[nH]c12
REMARK SMILES IDX 8 1 7 2 6 3 5 4 4 5 3 6 2 7 10 8 9 9 1 11
REMARK H PARENT 9 10 1 12 1 13
REMARK Flexibility Score: inf
ROOT
ATOM      1  C   UNL     1     -38.841  18.718 -10.829  1.00  0.00     0.199 A 
ATOM      2  N   UNL     1     -38.015  19.120 -11.834  1.00  0.00    -0.217 NA
ATOM      3  C   UNL     1     -36.824  19.184 -11.215  1.00  0.00     0.182 A 
ATOM      4  N   UNL     1     -35.643  19.540 -11.774  1.00  0.00    -0.215 NA
ATOM      5  C   UNL     1     -34.530  19.546 -10.980  1.00  0.00     0.226 A 
ATOM      6  N   UNL     1     -34.618  19.199  -9.655  1.00  0.00    -0.217 NA
ATOM      7  C   UNL     1     -35.809  18.840  -9.090  1.00  0.00     0.152 A 
ATOM      8  C   UNL     1     -36.933  18.839  -9.912  1.00  0.00     0.127 A 
ATOM      9  N   UNL     1     -38.209  18.539  -9.642  1.00  0.00    -0.340 N 
ATOM     10  H   UNL     1     -38.631  18.234  -8.736  1.00  0.00     0.168 HD
ENDROOT
BRANCH   7  11
ATOM     11  N   UNL     1     -35.877  18.482  -7.710  1.00  0.00    -0.382 N 
ATOM     12  H   UNL     1     -35.883  17.484  -7.406  1.00  0.00     0.158 HD
ATOM     13  H   UNL     1     -35.923  19.226  -6.978  1.00  0.00     0.158 HD
ENDBRANCH   7  11
TORSDOF 1
ENDMDL
MODEL 2
REMARK VINA RESULT:    -5.844      1.520      2.935
REMARK INTER + INTRA:          -6.015
REMARK INTER:                  -6.015
REMARK INTRA:                   0.000
REMARK UNBOUND:                 0.000
REMARK SMILES Nc1ncnc2nc[nH]c12
REMARK SMILES IDX 8 1 7 2 6 3 5 4 4 5 3 6 2 7 10 8 9 9 1 11
REMARK H PARENT 9 10 1 12 1 13
REMARK Flexibility Score: inf
ROOT
ATOM      1  C   UNL     1     -35.897  18.879  -8.243  1.00  0.00     0.199 A 
ATOM      2  N   UNL     1     -36.782  18.969  -9.274  1.00  0.00    -0.217 NA
ATOM      3  C   UNL     1     -35.998  19.367 -10.289  1.00  0.00     0.182 A 
ATOM      4  N   UNL     1     -36.388  19.610 -11.563  1.00  0.00    -0.215 NA
ATOM      5  C   UNL     1     -35.439  20.010 -12.463  1.00  0.00     0.226 A 
ATOM      6  N   UNL     1     -34.131  20.158 -12.075  1.00  0.00    -0.217 NA
ATOM      7  C   UNL     1     -33.736  19.913 -10.790  1.00  0.00     0.152 A 
ATOM      8  C   UNL     1     -34.714  19.507  -9.887  1.00  0.00     0.127 A 
ATOM      9  N   UNL     1     -34.625  19.202  -8.586  1.00  0.00    -0.340 N 
ATOM     10  H   UNL     1     -33.782  19.206  -7.971  1.00  0.00     0.168 HD
ENDROOT
BRANCH   7  11
ATOM     11  N   UNL     1     -32.369  20.074 -10.411  1.00  0.00    -0.382 N 
ATOM     12  H   UNL     1     -31.696  20.602 -11.010  1.00  0.00     0.158 HD
ATOM     13  H   UNL     1     -32.022  19.658  -9.518  1.00  0.00     0.158 HD
ENDBRANCH   7  11
TORSDOF 1
ENDMDL
MODEL 3
REMARK VINA RESULT:    -5.792      1.274      3.038
REMARK INTER + INTRA:          -5.961
REMARK INTER:                  -5.961
REMARK INTRA:                   0.000
REMARK UNBOUND:                 0.000
REMARK SMILES Nc1ncnc2nc[nH]c12
REMARK SMILES IDX 8 1 7 2 6 3 5 4 4 5 3 6 2 7 10 8 9 9 1 11
REMARK H PARENT 9 10 1 12 1 13
REMARK Flexibility Score: inf
ROOT
ATOM      1  C   UNL     1     -33.575  20.451 -11.168  1.00  0.00     0.199 A 
ATOM      2  N   UNL     1     -34.203  19.756 -12.155  1.00  0.00    -0.217 NA
ATOM      3  C   UNL     1     -35.265  19.243 -11.512  1.00  0.00     0.182 A 
ATOM      4  N   UNL     1     -36.230  18.458 -12.046  1.00  0.00    -0.215 NA
ATOM      5  C   UNL     1     -37.239  18.030 -11.228  1.00  0.00     0.226 A 
ATOM      6  N   UNL     1     -37.264  18.393  -9.905  1.00  0.00    -0.217 NA
ATOM      7  C   UNL     1     -36.291  19.186  -9.365  1.00  0.00     0.152 A 
ATOM      8  C   UNL     1     -35.271  19.612 -10.210  1.00  0.00     0.127 A 
ATOM      9  N   UNL     1     -34.203  20.382  -9.967  1.00  0.00    -0.340 N 
ATOM     10  H   UNL     1     -33.912  20.831  -9.070  1.00  0.00     0.168 HD
ENDROOT
BRANCH   7  11
ATOM     11  N   UNL     1     -36.338  19.551  -7.986  1.00  0.00    -0.382 N 
ATOM     12  H   UNL     1     -36.455  18.834  -7.236  1.00  0.00     0.158 HD
ATOM     13  H   UNL     1     -36.257  20.554  -7.707  1.00  0.00     0.158 HD
ENDBRANCH   7  11
TORSDOF 1
ENDMDL
MODEL 4
REMARK VINA RESULT:    -5.638      1.160      3.090
REMARK INTER + INTRA:          -5.803
REMARK INTER:                  -5.803
REMARK INTRA:                   0.000
REMARK UNBOUND:                 0.000
REMARK SMILES Nc1ncnc2nc[nH]c12
REMARK SMILES IDX 8 1 7 2 6 3 5 4 4 5 3 6 2 7 10 8 9 9 1 11
REMARK H PARENT 9 10 1 12 1 13
REMARK Flexibility Score: inf
ROOT
ATOM      1  C   UNL     1     -35.558  19.323  -8.485  1.00  0.00     0.199 A 
ATOM      2  N   UNL     1     -34.969  18.898  -9.637  1.00  0.00    -0.217 NA
ATOM      3  C   UNL     1     -36.006  18.863 -10.491  1.00  0.00     0.182 A 
ATOM      4  N   UNL     1     -35.965  18.500 -11.795  1.00  0.00    -0.215 NA
ATOM      5  C   UNL     1     -37.132  18.528 -12.509  1.00  0.00     0.226 A 
ATOM      6  N   UNL     1     -38.305  18.914 -11.910  1.00  0.00    -0.217 NA
ATOM      7  C   UNL     1     -38.347  19.280 -10.594  1.00  0.00     0.152 A 
ATOM      8  C   UNL     1     -37.152  19.246  -9.882  1.00  0.00     0.127 A 
ATOM      9  N   UNL     1     -36.892  19.544  -8.603  1.00  0.00    -0.340 N 
ATOM     10  H   UNL     1     -37.550  19.871  -7.862  1.00  0.00     0.168 HD
ENDROOT
BRANCH   7  11
ATOM     11  N   UNL     1     -39.579  19.678  -9.994  1.00  0.00    -0.382 N 
ATOM     12  H   UNL     1     -39.896  19.276  -9.084  1.00  0.00     0.158 HD
ATOM     13  H   UNL     1     -40.187  20.384 -10.465  1.00  0.00     0.158 HD
ENDBRANCH   7  11
TORSDOF 1
ENDMDL
MODEL 5
REMARK VINA RESULT:    -5.512      1.284      3.959
REMARK INTER + INTRA:          -5.673
REMARK INTER:                  -5.673
REMARK INTRA:                   0.000
REMARK UNBOUND:                 0.000
REMARK SMILES Nc1ncnc2nc[nH]c12
REMARK SMILES IDX 8 1 7 2 6 3 5 4 4 5 3 6 2 7 10 8 9 9 1 11
REMARK H PARENT 9 10 1 12 1 13
REMARK Flexibility Score: inf
ROOT
ATOM      1  C   UNL     1     -33.891  19.576 -11.121  1.00  0.00     0.199 A 
ATOM      2  N   UNL     1     -34.629  19.497  -9.981  1.00  0.00    -0.217 NA
ATOM      3  C   UNL     1     -35.822  19.083 -10.441  1.00  0.00     0.182 A 
ATOM      4  N   UNL     1     -36.932  18.843  -9.704  1.00  0.00    -0.215 NA
ATOM      5  C   UNL     1     -38.060  18.426 -10.355  1.00  0.00     0.226 A 
ATOM      6  N   UNL     1     -38.056  18.258 -11.717  1.00  0.00    -0.217 NA
ATOM      7  C   UNL     1     -36.936  18.500 -12.462  1.00  0.00     0.152 A 
ATOM      8  C   UNL     1     -35.797  18.924 -11.784  1.00  0.00     0.127 A 
ATOM      9  N   UNL     1     -34.576  19.233 -12.241  1.00  0.00    -0.340 N 
ATOM     10  H   UNL     1     -34.223  19.215 -13.223  1.00  0.00     0.168 HD
ENDROOT
BRANCH   7  11
ATOM     11  N   UNL     1     -36.956  18.318 -13.877  1.00  0.00    -0.382 N 
ATOM     12  H   UNL     1     -36.976  19.131 -14.531  1.00  0.00     0.158 HD
ATOM     13  H   UNL     1     -36.951  17.354 -14.281  1.00  0.00     0.158 HD
ENDBRANCH   7  11
TORSDOF 1
ENDMDL
MODEL 6
REMARK VINA RESULT:    -5.496      1.963      3.718
REMARK INTER + INTRA:          -5.657
REMARK INTER:                  -5.657
REMARK INTRA:                   0.000
REMARK UNBOUND:                 0.000
REMARK SMILES Nc1ncnc2nc[nH]c12
REMARK SMILES IDX 8 1 7 2 6 3 5 4 4 5 3 6 2 7 10 8 9 9 1 11
REMARK H PARENT 9 10 1 12 1 13
REMARK Flexibility Score: inf
ROOT
ATOM      1  C   UNL     1     -36.526  19.515 -10.194  1.00  0.00     0.199 A 
ATOM      2  N   UNL     1     -35.221  19.501  -9.808  1.00  0.00    -0.217 NA
ATOM      3  C   UNL     1     -34.600  20.010 -10.885  1.00  0.00     0.182 A 
ATOM      4  N   UNL     1     -33.268  20.214 -11.027  1.00  0.00    -0.215 NA
ATOM      5  C   UNL     1     -32.820  20.745 -12.205  1.00  0.00     0.226 A 
ATOM      6  N   UNL     1     -33.702  21.059 -13.208  1.00  0.00    -0.217 NA
ATOM      7  C   UNL     1     -35.045  20.853 -13.065  1.00  0.00     0.152 A 
ATOM      8  C   UNL     1     -35.486  20.312 -11.861  1.00  0.00     0.127 A 
ATOM      9  N   UNL     1     -36.721  20.005 -11.444  1.00  0.00    -0.340 N 
ATOM     10  H   UNL     1     -37.627  20.114 -11.951  1.00  0.00     0.168 HD
ENDROOT
BRANCH   7  11
ATOM     11  N   UNL     1     -35.944  21.188 -14.123  1.00  0.00    -0.382 N 
ATOM     12  H   UNL     1     -36.979  21.148 -13.991  1.00  0.00     0.158 HD
ATOM     13  H   UNL     1     -35.571  21.478 -15.054  1.00  0.00     0.158 HD
ENDBRANCH   7  11
TORSDOF 1
ENDMDL
MODEL 7
REMARK VINA RESULT:    -5.472      1.521      2.877
REMARK INTER + INTRA:          -5.632
REMARK INTER:                  -5.632
REMARK INTRA:                   0.000
REMARK UNBOUND:                 0.000
REMARK SMILES Nc1ncnc2nc[nH]c12
REMARK SMILES IDX 8 1 7 2 6 3 5 4 4 5 3 6 2 7 10 8 9 9 1 11
REMARK H PARENT 9 10 1 12 1 13
REMARK Flexibility Score: inf
ROOT
ATOM      1  C   UNL     1     -38.119  18.846 -13.757  1.00  0.00     0.199 A 
ATOM      2  N   UNL     1     -38.730  18.736 -12.545  1.00  0.00    -0.217 NA
ATOM      3  C   UNL     1     -37.694  18.816 -11.695  1.00  0.00     0.182 A 
ATOM      4  N   UNL     1     -37.753  18.760 -10.343  1.00  0.00    -0.215 NA
ATOM      5  C   UNL     1     -36.582  18.860  -9.642  1.00  0.00     0.226 A 
ATOM      6  N   UNL     1     -35.388  19.013 -10.299  1.00  0.00    -0.217 NA
ATOM      7  C   UNL     1     -35.327  19.070 -11.663  1.00  0.00     0.152 A 
ATOM      8  C   UNL     1     -36.526  18.966 -12.362  1.00  0.00     0.127 A 
ATOM      9  N   UNL     1     -36.772  18.988 -13.678  1.00  0.00    -0.340 N 
ATOM     10  H   UNL     1     -36.096  19.091 -14.467  1.00  0.00     0.168 HD
ENDROOT
BRANCH   7  11
ATOM     11  N   UNL     1     -34.073  19.231 -12.325  1.00  0.00    -0.382 N 
ATOM     12  H   UNL     1     -33.906  20.014 -12.994  1.00  0.00     0.158 HD
ATOM     13  H   UNL     1     -33.296  18.555 -12.146  1.00  0.00     0.158 HD
ENDBRANCH   7  11
TORSDOF 1
ENDMDL
MODEL 8
REMARK VINA RESULT:    -5.453     14.330     16.423
REMARK INTER + INTRA:          -5.612
REMARK INTER:                  -5.612
REMARK INTRA:                   0.000
REMARK UNBOUND:                 0.000
REMARK SMILES Nc1ncnc2nc[nH]c12
REMARK SMILES IDX 8 1 7 2 6 3 5 4 4 5 3 6 2 7 10 8 9 9 1 11
REMARK H PARENT 9 10 1 12 1 13
REMARK Flexibility Score: inf
ROOT
ATOM      1  C   UNL     1     -24.954  15.253   2.830  1.00  0.00     0.199 A 
ATOM      2  N   UNL     1     -25.596  15.890   3.848  1.00  0.00    -0.217 NA
ATOM      3  C   UNL     1     -26.519  16.614   3.194  1.00  0.00     0.182 A 
ATOM      4  N   UNL     1     -27.437  17.442   3.748  1.00  0.00    -0.215 NA
ATOM      5  C   UNL     1     -28.299  18.099   2.914  1.00  0.00     0.226 A 
ATOM      6  N   UNL     1     -28.229  17.917   1.556  1.00  0.00    -0.217 NA
ATOM      7  C   UNL     1     -27.304  17.081   0.995  1.00  0.00     0.152 A 
ATOM      8  C   UNL     1     -26.433  16.421   1.857  1.00  0.00     0.127 A 
ATOM      9  N   UNL     1     -25.442  15.558   1.601  1.00  0.00    -0.340 N 
ATOM     10  H   UNL     1     -25.114  15.196   0.679  1.00  0.00     0.168 HD
ENDROOT
BRANCH   7  11
ATOM     11  N   UNL     1     -27.250  16.908  -0.420  1.00  0.00    -0.382 N 
ATOM     12  H   UNL     1     -26.457  16.406  -0.878  1.00  0.00     0.158 HD
ATOM     13  H   UNL     1     -28.014  17.287  -1.024  1.00  0.00     0.158 HD
ENDBRANCH   7  11
TORSDOF 1
ENDMDL
MODEL 9
REMARK VINA RESULT:    -5.316      1.351      3.364
REMARK INTER + INTRA:          -5.472
REMARK INTER:                  -5.472
REMARK INTRA:                   0.000
REMARK UNBOUND:                 0.000
REMARK SMILES Nc1ncnc2nc[nH]c12
REMARK SMILES IDX 8 1 7 2 6 3 5 4 4 5 3 6 2 7 10 8 9 9 1 11
REMARK H PARENT 9 10 1 12 1 13
REMARK Flexibility Score: inf
ROOT
ATOM      1  C   UNL     1     -34.507  20.892 -12.731  1.00  0.00     0.199 A 
ATOM      2  N   UNL     1     -33.699  20.305 -11.805  1.00  0.00    -0.217 NA
ATOM      3  C   UNL     1     -34.586  19.798 -10.933  1.00  0.00     0.182 A 
ATOM      4  N   UNL     1     -34.303  19.103  -9.806  1.00  0.00    -0.215 NA
ATOM      5  C   UNL     1     -35.347  18.665  -9.039  1.00  0.00     0.226 A 
ATOM      6  N   UNL     1     -36.642  18.928  -9.410  1.00  0.00    -0.217 NA
ATOM      7  C   UNL     1     -36.929  19.630 -10.547  1.00  0.00     0.152 A 
ATOM      8  C   UNL     1     -35.855  20.069 -11.316  1.00  0.00     0.127 A 
ATOM      9  N   UNL     1     -35.830  20.765 -12.459  1.00  0.00    -0.340 N 
ATOM     10  H   UNL     1     -36.632  21.129 -13.020  1.00  0.00     0.168 HD
ENDROOT
BRANCH   7  11
ATOM     11  N   UNL     1     -38.284  19.891 -10.912  1.00  0.00    -0.382 N 
ATOM     12  H   UNL     1     -38.550  20.101 -11.900  1.00  0.00     0.158 HD
ATOM     13  H   UNL     1     -39.034  19.876 -10.186  1.00  0.00     0.158 HD
ENDBRANCH   7  11
TORSDOF 1
ENDMDL
