MODEL 1
REMARK VINA RESULT:    -4.078      0.000      0.000
REMARK INTER + INTRA:          -5.630
REMARK INTER:                  -5.270
REMARK INTRA:                  -0.360
REMARK UNBOUND:                -0.360
REMARK SMILES CCCCCCC(=O)[O-]
REMARK SMILES IDX 5 1 6 2 7 3 8 4 9 5 4 6 3 7 2 8 1 9
REMARK H PARENT
REMARK Flexibility Score: inf
ROOT
ATOM      1  C   UNL     1      53.950  14.499   1.503  1.00  0.00     0.006 C 
ENDROOT
BRANCH   1   2
ATOM      2  C   UNL     1      52.809  15.516   1.603  1.00  0.00     0.053 C 
BRANCH   2   3
ATOM      3  C   UNL     1      53.342  16.869   1.955  1.00  0.00     0.041 C 
ATOM      4  O   UNL     1      52.855  17.510   2.923  1.00  0.00    -0.550 OA
ATOM      5  O   UNL     1      54.345  17.443   1.184  1.00  0.00    -0.550 OA
ENDBRANCH   2   3
ENDBRANCH   1   2
BRANCH   1   6
ATOM      6  C   UNL     1      54.268  14.169   0.040  1.00  0.00     0.000 C 
BRANCH   6   7
ATOM      7  C   UNL     1      53.087  14.530  -0.874  1.00  0.00    -0.000 C 
BRANCH   7   8
ATOM      8  C   UNL     1      53.465  15.564  -1.946  1.00  0.00    -0.003 C 
ATOM      9  C   UNL     1      52.544  16.784  -1.940  1.00  0.00     0.004 C 
ENDBRANCH   7   8
ENDBRANCH   6   7
ENDBRANCH   1   6
TORSDOF 5
ENDMDL
MODEL 2
REMARK VINA RESULT:    -4.059      2.515      4.097
REMARK INTER + INTRA:          -5.605
REMARK INTER:                  -5.255
REMARK INTRA:                  -0.350
REMARK UNBOUND:                -0.360
REMARK SMILES CCCCCCC(=O)[O-]
REMARK SMILES IDX 5 1 6 2 7 3 8 4 9 5 4 6 3 7 2 8 1 9
REMARK H PARENT
REMARK Flexibility Score: inf
ROOT
ATOM      1  C   UNL     1      55.613  17.106  -0.872  1.00  0.00     0.006 C 
ENDROOT
BRANCH   1   2
ATOM      2  C   UNL     1      54.247  17.794  -0.957  1.00  0.00     0.053 C 
BRANCH   2   3
ATOM      3  C   UNL     1      53.187  16.807  -1.334  1.00  0.00     0.041 C 
ATOM      4  O   UNL     1      53.123  15.693  -0.751  1.00  0.00    -0.550 OA
ATOM      5  O   UNL     1      52.301  17.099  -2.362  1.00  0.00    -0.550 OA
ENDBRANCH   2   3
ENDBRANCH   1   2
BRANCH   1   6
ATOM      6  C   UNL     1      56.056  16.938   0.587  1.00  0.00     0.000 C 
BRANCH   6   7
ATOM      7  C   UNL     1      55.254  17.862   1.514  1.00  0.00    -0.000 C 
BRANCH   7   8
ATOM      8  C   UNL     1      54.468  17.087   2.584  1.00  0.00    -0.003 C 
ATOM      9  C   UNL     1      52.976  17.419   2.578  1.00  0.00     0.004 C 
ENDBRANCH   7   8
ENDBRANCH   6   7
ENDBRANCH   1   6
TORSDOF 5
ENDMDL
MODEL 3
REMARK VINA RESULT:    -4.051      1.384      3.127
REMARK INTER + INTRA:          -5.595
REMARK INTER:                  -5.157
REMARK INTRA:                  -0.437
REMARK UNBOUND:                -0.360
REMARK SMILES CCCCCCC(=O)[O-]
REMARK SMILES IDX 5 1 6 2 7 3 8 4 9 5 4 6 3 7 2 8 1 9
REMARK H PARENT
REMARK Flexibility Score: inf
ROOT
ATOM      1  C   UNL     1      53.493  15.594  -2.008  1.00  0.00     0.006 C 
ENDROOT
BRANCH   1   2
ATOM      2  C   UNL     1      52.562  16.803  -1.870  1.00  0.00     0.053 C 
BRANCH   2   3
ATOM      3  C   UNL     1      52.844  17.539  -0.598  1.00  0.00     0.041 C 
ATOM      4  O   UNL     1      54.033  17.768  -0.250  1.00  0.00    -0.550 OA
ATOM      5  O   UNL     1      51.797  17.929   0.225  1.00  0.00    -0.550 OA
ENDBRANCH   2   3
ENDBRANCH   1   2
BRANCH   1   6
ATOM      6  C   UNL     1      53.032  14.438  -1.111  1.00  0.00     0.000 C 
BRANCH   6   7
ATOM      7  C   UNL     1      54.233  13.720  -0.479  1.00  0.00    -0.000 C 
BRANCH   7   8
ATOM      8  C   UNL     1      54.664  14.352   0.854  1.00  0.00    -0.003 C 
ATOM      9  C   UNL     1      53.477  14.768   1.721  1.00  0.00     0.004 C 
ENDBRANCH   7   8
ENDBRANCH   6   7
ENDBRANCH   1   6
TORSDOF 5
ENDMDL
MODEL 4
REMARK VINA RESULT:    -4.046      2.076      2.990
REMARK INTER + INTRA:          -5.588
REMARK INTER:                  -5.192
REMARK INTRA:                  -0.396
REMARK UNBOUND:                -0.360
REMARK SMILES CCCCCCC(=O)[O-]
REMARK SMILES IDX 5 1 6 2 7 3 8 4 9 5 4 6 3 7 2 8 1 9
REMARK H PARENT
REMARK Flexibility Score: inf
ROOT
ATOM      1  C   UNL     1      54.402  16.809   2.285  1.00  0.00     0.006 C 
ENDROOT
BRANCH   1   2
ATOM      2  C   UNL     1      55.143  17.830   1.415  1.00  0.00     0.053 C 
BRANCH   2   3
ATOM      3  C   UNL     1      56.102  17.139   0.497  1.00  0.00     0.041 C 
ATOM      4  O   UNL     1      57.135  16.586   0.960  1.00  0.00    -0.550 OA
ATOM      5  O   UNL     1      55.880  17.147  -0.873  1.00  0.00    -0.550 OA
ENDBRANCH   2   3
ENDBRANCH   1   2
BRANCH   1   6
ATOM      6  C   UNL     1      53.406  15.995   1.450  1.00  0.00     0.000 C 
BRANCH   6   7
ATOM      7  C   UNL     1      53.814  14.515   1.398  1.00  0.00    -0.000 C 
BRANCH   7   8
ATOM      8  C   UNL     1      54.182  14.055  -0.022  1.00  0.00    -0.003 C 
ATOM      9  C   UNL     1      53.281  14.668  -1.093  1.00  0.00     0.004 C 
ENDBRANCH   7   8
ENDBRANCH   6   7
ENDBRANCH   1   6
TORSDOF 5
ENDMDL
MODEL 5
REMARK VINA RESULT:    -4.042      2.515      3.133
REMARK INTER + INTRA:          -5.583
REMARK INTER:                  -5.197
REMARK INTRA:                  -0.387
REMARK UNBOUND:                -0.360
REMARK SMILES CCCCCCC(=O)[O-]
REMARK SMILES IDX 5 1 6 2 7 3 8 4 9 5 4 6 3 7 2 8 1 9
REMARK H PARENT
REMARK Flexibility Score: inf
ROOT
ATOM      1  C   UNL     1      54.647  17.176   2.631  1.00  0.00     0.006 C 
ENDROOT
BRANCH   1   2
ATOM      2  C   UNL     1      53.145  17.476   2.575  1.00  0.00     0.053 C 
BRANCH   2   3
ATOM      3  C   UNL     1      52.514  16.772   1.415  1.00  0.00     0.041 C 
ATOM      4  O   UNL     1      52.564  15.516   1.332  1.00  0.00    -0.550 OA
ATOM      5  O   UNL     1      51.914  17.506   0.401  1.00  0.00    -0.550 OA
ENDBRANCH   2   3
ENDBRANCH   1   2
BRANCH   1   6
ATOM      6  C   UNL     1      55.410  17.984   1.574  1.00  0.00     0.000 C 
BRANCH   6   7
ATOM      7  C   UNL     1      56.599  17.183   1.024  1.00  0.00    -0.000 C 
BRANCH   7   8
ATOM      8  C   UNL     1      56.270  16.469  -0.296  1.00  0.00    -0.003 C 
ATOM      9  C   UNL     1      55.179  17.179  -1.096  1.00  0.00     0.004 C 
ENDBRANCH   7   8
ENDBRANCH   6   7
ENDBRANCH   1   6
TORSDOF 5
ENDMDL
MODEL 6
REMARK VINA RESULT:    -4.036      1.690      2.456
REMARK INTER + INTRA:          -5.576
REMARK INTER:                  -5.173
REMARK INTRA:                  -0.403
REMARK UNBOUND:                -0.360
REMARK SMILES CCCCCCC(=O)[O-]
REMARK SMILES IDX 5 1 6 2 7 3 8 4 9 5 4 6 3 7 2 8 1 9
REMARK H PARENT
REMARK Flexibility Score: inf
ROOT
ATOM      1  C   UNL     1      55.216  17.889   1.335  1.00  0.00     0.006 C 
ENDROOT
BRANCH   1   2
ATOM      2  C   UNL     1      54.560  17.052   2.438  1.00  0.00     0.053 C 
BRANCH   2   3
ATOM      3  C   UNL     1      53.082  16.963   2.218  1.00  0.00     0.041 C 
ATOM      4  O   UNL     1      52.348  17.962   2.436  1.00  0.00    -0.550 OA
ATOM      5  O   UNL     1      52.511  15.762   1.820  1.00  0.00    -0.550 OA
ENDBRANCH   2   3
ENDBRANCH   1   2
BRANCH   1   6
ATOM      6  C   UNL     1      55.239  17.126   0.005  1.00  0.00     0.000 C 
BRANCH   6   7
ATOM      7  C   UNL     1      54.439  17.873  -1.072  1.00  0.00    -0.000 C 
BRANCH   7   8
ATOM      8  C   UNL     1      53.173  17.114  -1.500  1.00  0.00    -0.003 C 
ATOM      9  C   UNL     1      53.408  15.612  -1.653  1.00  0.00     0.004 C 
ENDBRANCH   7   8
ENDBRANCH   6   7
ENDBRANCH   1   6
TORSDOF 5
ENDMDL
MODEL 7
REMARK VINA RESULT:    -4.024      2.399      3.828
REMARK INTER + INTRA:          -5.559
REMARK INTER:                  -5.121
REMARK INTRA:                  -0.438
REMARK UNBOUND:                -0.360
REMARK SMILES CCCCCCC(=O)[O-]
REMARK SMILES IDX 5 1 6 2 7 3 8 4 9 5 4 6 3 7 2 8 1 9
REMARK H PARENT
REMARK Flexibility Score: inf
ROOT
ATOM      1  C   UNL     1      53.641  15.617  -1.679  1.00  0.00     0.006 C 
ENDROOT
BRANCH   1   2
ATOM      2  C   UNL     1      53.225  14.388  -0.864  1.00  0.00     0.053 C 
BRANCH   2   3
ATOM      3  C   UNL     1      54.242  14.091   0.192  1.00  0.00     0.041 C 
ATOM      4  O   UNL     1      55.356  13.596  -0.123  1.00  0.00    -0.550 OA
ATOM      5  O   UNL     1      53.941  14.316   1.529  1.00  0.00    -0.550 OA
ENDBRANCH   2   3
ENDBRANCH   1   2
BRANCH   1   6
ATOM      6  C   UNL     1      53.335  16.912  -0.917  1.00  0.00     0.000 C 
BRANCH   6   7
ATOM      7  C   UNL     1      54.617  17.719  -0.667  1.00  0.00    -0.000 C 
BRANCH   7   8
ATOM      8  C   UNL     1      55.062  17.680   0.803  1.00  0.00    -0.003 C 
ATOM      9  C   UNL     1      56.450  17.067   0.984  1.00  0.00     0.004 C 
ENDBRANCH   7   8
ENDBRANCH   6   7
ENDBRANCH   1   6
TORSDOF 5
ENDMDL
MODEL 8
REMARK VINA RESULT:    -4.021      1.971      3.239
REMARK INTER + INTRA:          -5.556
REMARK INTER:                  -5.263
REMARK INTRA:                  -0.293
REMARK UNBOUND:                -0.360
REMARK SMILES CCCCCCC(=O)[O-]
REMARK SMILES IDX 5 1 6 2 7 3 8 4 9 5 4 6 3 7 2 8 1 9
REMARK H PARENT
REMARK Flexibility Score: inf
ROOT
ATOM      1  C   UNL     1      54.194  17.857  -0.917  1.00  0.00     0.006 C 
ENDROOT
BRANCH   1   2
ATOM      2  C   UNL     1      55.535  17.117  -0.953  1.00  0.00     0.053 C 
BRANCH   2   3
ATOM      3  C   UNL     1      56.070  16.937   0.433  1.00  0.00     0.041 C 
ATOM      4  O   UNL     1      55.489  17.477   1.412  1.00  0.00    -0.550 OA
ATOM      5  O   UNL     1      57.237  16.213   0.639  1.00  0.00    -0.550 OA
ENDBRANCH   2   3
ENDBRANCH   1   2
BRANCH   1   6
ATOM      6  C   UNL     1      53.059  16.966  -1.437  1.00  0.00     0.000 C 
BRANCH   6   7
ATOM      7  C   UNL     1      53.594  15.594  -1.874  1.00  0.00    -0.000 C 
BRANCH   7   8
ATOM      8  C   UNL     1      53.130  14.459  -0.948  1.00  0.00    -0.003 C 
ATOM      9  C   UNL     1      54.292  13.634  -0.396  1.00  0.00     0.004 C 
ENDBRANCH   7   8
ENDBRANCH   6   7
ENDBRANCH   1   6
TORSDOF 5
ENDMDL
MODEL 9
REMARK VINA RESULT:    -4.015      2.671      3.944
REMARK INTER + INTRA:          -5.548
REMARK INTER:                  -5.188
REMARK INTRA:                  -0.361
REMARK UNBOUND:                -0.360
REMARK SMILES CCCCCCC(=O)[O-]
REMARK SMILES IDX 5 1 6 2 7 3 8 4 9 5 4 6 3 7 2 8 1 9
REMARK H PARENT
REMARK Flexibility Score: inf
ROOT
ATOM      1  C   UNL     1      52.877  15.961   1.212  1.00  0.00     0.006 C 
ENDROOT
BRANCH   1   2
ATOM      2  C   UNL     1      53.681  14.706   1.566  1.00  0.00     0.053 C 
BRANCH   2   3
ATOM      3  C   UNL     1      54.380  14.173   0.354  1.00  0.00     0.041 C 
ATOM      4  O   UNL     1      53.765  14.081  -0.741  1.00  0.00    -0.550 OA
ATOM      5  O   UNL     1      55.693  13.733   0.447  1.00  0.00    -0.550 OA
ENDBRANCH   2   3
ENDBRANCH   1   2
BRANCH   1   6
ATOM      6  C   UNL     1      53.144  17.088   2.217  1.00  0.00     0.000 C 
BRANCH   6   7
ATOM      7  C   UNL     1      54.641  17.191   2.542  1.00  0.00    -0.000 C 
BRANCH   7   8
ATOM      8  C   UNL     1      55.431  17.941   1.458  1.00  0.00    -0.003 C 
ATOM      9  C   UNL     1      56.647  17.159   0.965  1.00  0.00     0.004 C 
ENDBRANCH   7   8
ENDBRANCH   6   7
ENDBRANCH   1   6
TORSDOF 5
ENDMDL
