MODEL 1
REMARK VINA RESULT:    -4.179      0.000      0.000
REMARK INTER + INTRA:          -4.842
REMARK INTER:                  -4.790
REMARK INTRA:                  -0.052
REMARK UNBOUND:                -0.052
REMARK SMILES O=C([O-])c1cc(O)c(O)c(O)c1
REMARK SMILES IDX 4 1 5 2 12 3 6 4 10 5 8 6 2 7 1 8 3 9 7 10 11 12 9 14
REMARK H PARENT 7 11 11 13 9 15
REMARK Flexibility Score: inf
ROOT
ATOM      1  C   UNL     1      39.291  56.345  17.095  1.00  0.00     0.005 A 
ATOM      2  C   UNL     1      39.830  56.335  18.391  1.00  0.00     0.060 A 
ATOM      3  C   UNL     1      40.077  55.887  16.027  1.00  0.00     0.060 A 
ATOM      4  C   UNL     1      41.130  55.875  18.619  1.00  0.00     0.162 A 
ATOM      5  C   UNL     1      41.382  55.423  16.239  1.00  0.00     0.162 A 
ATOM      6  C   UNL     1      41.918  55.416  17.549  1.00  0.00     0.200 A 
ENDROOT
BRANCH   1   7
ATOM      7  C   UNL     1      37.914  56.831  16.854  1.00  0.00     0.072 C 
ATOM      8  O   UNL     1      37.321  57.531  17.718  1.00  0.00    -0.545 OA
ATOM      9  O   UNL     1      37.255  56.524  15.669  1.00  0.00    -0.545 OA
ENDBRANCH   1   7
BRANCH   4  10
ATOM     10  O   UNL     1      41.622  55.883  19.925  1.00  0.00    -0.504 OA
ATOM     11  H   UNL     1      41.181  55.361  20.672  1.00  0.00     0.293 HD
ENDBRANCH   4  10
BRANCH   5  12
ATOM     12  O   UNL     1      42.101  54.983  15.126  1.00  0.00    -0.504 OA
ATOM     13  H   UNL     1      42.992  54.510  15.176  1.00  0.00     0.293 HD
ENDBRANCH   5  12
BRANCH   6  14
ATOM     14  O   UNL     1      43.212  54.965  17.822  1.00  0.00    -0.502 OA
ATOM     15  H   UNL     1      43.809  54.509  17.147  1.00  0.00     0.293 HD
ENDBRANCH   6  14
TORSDOF 4
ENDMDL
MODEL 2
REMARK VINA RESULT:    -4.172      0.074      2.445
REMARK INTER + INTRA:          -4.834
REMARK INTER:                  -4.782
REMARK INTRA:                  -0.052
REMARK UNBOUND:                -0.052
REMARK SMILES O=C([O-])c1cc(O)c(O)c(O)c1
REMARK SMILES IDX 4 1 5 2 12 3 6 4 10 5 8 6 2 7 1 8 3 9 7 10 11 12 9 14
REMARK H PARENT 7 11 11 13 9 15
REMARK Flexibility Score: inf
ROOT
ATOM      1  C   UNL     1      39.336  56.352  17.139  1.00  0.00     0.005 A 
ATOM      2  C   UNL     1      40.111  55.886  16.067  1.00  0.00     0.060 A 
ATOM      3  C   UNL     1      39.886  56.347  18.430  1.00  0.00     0.060 A 
ATOM      4  C   UNL     1      41.413  55.421  16.276  1.00  0.00     0.162 A 
ATOM      5  C   UNL     1      41.189  55.884  18.656  1.00  0.00     0.162 A 
ATOM      6  C   UNL     1      41.964  55.415  17.569  1.00  0.00     0.200 A 
ENDROOT
BRANCH   1   7
ATOM      7  C   UNL     1      37.958  56.844  16.917  1.00  0.00     0.072 C 
ATOM      8  O   UNL     1      37.389  57.570  17.775  1.00  0.00    -0.545 OA
ATOM      9  O   UNL     1      37.270  56.513  15.754  1.00  0.00    -0.545 OA
ENDBRANCH   1   7
BRANCH   4  10
ATOM     10  O   UNL     1      42.145  54.968  15.178  1.00  0.00    -0.504 OA
ATOM     11  H   UNL     1      42.609  54.067  15.172  1.00  0.00     0.293 HD
ENDBRANCH   4  10
BRANCH   5  12
ATOM     12  O   UNL     1      41.665  55.910  19.968  1.00  0.00    -0.504 OA
ATOM     13  H   UNL     1      41.198  56.375  20.734  1.00  0.00     0.293 HD
ENDBRANCH   5  12
BRANCH   6  14
ATOM     14  O   UNL     1      43.269  54.943  17.733  1.00  0.00    -0.502 OA
ATOM     15  H   UNL     1      43.630  54.108  17.294  1.00  0.00     0.293 HD
ENDBRANCH   6  14
TORSDOF 4
ENDMDL
MODEL 3
REMARK VINA RESULT:    -4.063      1.377      4.062
REMARK INTER + INTRA:          -4.709
REMARK INTER:                  -4.663
REMARK INTRA:                  -0.046
REMARK UNBOUND:                -0.052
REMARK SMILES O=C([O-])c1cc(O)c(O)c(O)c1
REMARK SMILES IDX 4 1 5 2 12 3 6 4 10 5 8 6 2 7 1 8 3 9 7 10 11 12 9 14
REMARK H PARENT 7 11 11 13 9 15
REMARK Flexibility Score: inf
ROOT
ATOM      1  C   UNL     1      41.938  55.010  16.206  1.00  0.00     0.005 A 
ATOM      2  C   UNL     1      42.344  55.169  17.540  1.00  0.00     0.060 A 
ATOM      3  C   UNL     1      40.660  55.445  15.826  1.00  0.00     0.060 A 
ATOM      4  C   UNL     1      41.490  55.753  18.481  1.00  0.00     0.162 A 
ATOM      5  C   UNL     1      39.792  56.032  16.756  1.00  0.00     0.162 A 
ATOM      6  C   UNL     1      40.208  56.189  18.100  1.00  0.00     0.200 A 
ENDROOT
BRANCH   1   7
ATOM      7  C   UNL     1      42.843  54.392  15.211  1.00  0.00     0.072 C 
ATOM      8  O   UNL     1      42.527  53.315  14.638  1.00  0.00    -0.545 OA
ATOM      9  O   UNL     1      44.057  54.992  14.893  1.00  0.00    -0.545 OA
ENDBRANCH   1   7
BRANCH   4  10
ATOM     10  O   UNL     1      41.937  55.891  19.795  1.00  0.00    -0.504 OA
ATOM     11  H   UNL     1      41.427  56.428  20.486  1.00  0.00     0.293 HD
ENDBRANCH   4  10
BRANCH   5  12
ATOM     12  O   UNL     1      38.537  56.440  16.302  1.00  0.00    -0.504 OA
ATOM     13  H   UNL     1      38.075  56.059  15.488  1.00  0.00     0.293 HD
ENDBRANCH   5  12
BRANCH   6  14
ATOM     14  O   UNL     1      39.387  56.767  19.072  1.00  0.00    -0.502 OA
ATOM     15  H   UNL     1      39.124  56.314  19.935  1.00  0.00     0.293 HD
ENDBRANCH   6  14
TORSDOF 4
ENDMDL
MODEL 4
REMARK VINA RESULT:    -4.054      2.580      5.134
REMARK INTER + INTRA:          -4.698
REMARK INTER:                  -4.653
REMARK INTRA:                  -0.046
REMARK UNBOUND:                -0.052
REMARK SMILES O=C([O-])c1cc(O)c(O)c(O)c1
REMARK SMILES IDX 4 1 5 2 12 3 6 4 10 5 8 6 2 7 1 8 3 9 7 10 11 12 9 14
REMARK H PARENT 7 11 11 13 9 15
REMARK Flexibility Score: inf
ROOT
ATOM      1  C   UNL     1      43.745  54.344  15.628  1.00  0.00     0.005 A 
ATOM      2  C   UNL     1      43.670  54.768  16.964  1.00  0.00     0.060 A 
ATOM      3  C   UNL     1      42.626  54.510  14.798  1.00  0.00     0.060 A 
ATOM      4  C   UNL     1      42.501  55.348  17.465  1.00  0.00     0.162 A 
ATOM      5  C   UNL     1      41.447  55.089  15.284  1.00  0.00     0.162 A 
ATOM      6  C   UNL     1      41.380  55.514  16.632  1.00  0.00     0.200 A 
ENDROOT
BRANCH   1   7
ATOM      7  C   UNL     1      44.984  53.731  15.099  1.00  0.00     0.072 C 
ATOM      8  O   UNL     1      44.998  52.524  14.739  1.00  0.00    -0.545 OA
ATOM      9  O   UNL     1      46.150  54.479  14.991  1.00  0.00    -0.545 OA
ENDBRANCH   1   7
BRANCH   4  10
ATOM     10  O   UNL     1      42.474  55.754  18.799  1.00  0.00    -0.504 OA
ATOM     11  H   UNL     1      41.622  56.059  19.255  1.00  0.00     0.293 HD
ENDBRANCH   4  10
BRANCH   5  12
ATOM     12  O   UNL     1      40.377  55.221  14.396  1.00  0.00    -0.504 OA
ATOM     13  H   UNL     1      39.804  56.048  14.317  1.00  0.00     0.293 HD
ENDBRANCH   5  12
BRANCH   6  14
ATOM     14  O   UNL     1      40.231  56.098  17.173  1.00  0.00    -0.502 OA
ATOM     15  H   UNL     1      39.371  56.237  16.663  1.00  0.00     0.293 HD
ENDBRANCH   6  14
TORSDOF 4
ENDMDL
MODEL 5
REMARK VINA RESULT:    -3.981      2.537      5.556
REMARK INTER + INTRA:          -4.614
REMARK INTER:                  -4.568
REMARK INTRA:                  -0.046
REMARK UNBOUND:                -0.052
REMARK SMILES O=C([O-])c1cc(O)c(O)c(O)c1
REMARK SMILES IDX 4 1 5 2 12 3 6 4 10 5 8 6 2 7 1 8 3 9 7 10 11 12 9 14
REMARK H PARENT 7 11 11 13 9 15
REMARK Flexibility Score: inf
ROOT
ATOM      1  C   UNL     1      43.759  54.417  15.685  1.00  0.00     0.005 A 
ATOM      2  C   UNL     1      42.662  54.579  14.825  1.00  0.00     0.060 A 
ATOM      3  C   UNL     1      43.634  54.802  17.028  1.00  0.00     0.060 A 
ATOM      4  C   UNL     1      41.460  55.115  15.296  1.00  0.00     0.162 A 
ATOM      5  C   UNL     1      42.436  55.341  17.515  1.00  0.00     0.162 A 
ATOM      6  C   UNL     1      41.334  55.501  16.642  1.00  0.00     0.200 A 
ENDROOT
BRANCH   1   7
ATOM      7  C   UNL     1      45.031  53.848  15.186  1.00  0.00     0.072 C 
ATOM      8  O   UNL     1      46.102  54.507  15.264  1.00  0.00    -0.545 OA
ATOM      9  O   UNL     1      45.063  52.576  14.625  1.00  0.00    -0.545 OA
ENDBRANCH   1   7
BRANCH   4  10
ATOM     10  O   UNL     1      40.396  55.257  14.403  1.00  0.00    -0.504 OA
ATOM     11  H   UNL     1      39.564  54.682  14.458  1.00  0.00     0.293 HD
ENDBRANCH   4  10
BRANCH   5  12
ATOM     12  O   UNL     1      42.390  55.700  18.864  1.00  0.00    -0.504 OA
ATOM     13  H   UNL     1      42.581  56.629  19.211  1.00  0.00     0.293 HD
ENDBRANCH   5  12
BRANCH   6  14
ATOM     14  O   UNL     1      40.115  56.033  17.070  1.00  0.00    -0.502 OA
ATOM     15  H   UNL     1      39.598  56.742  16.570  1.00  0.00     0.293 HD
ENDBRANCH   6  14
TORSDOF 4
ENDMDL
MODEL 6
REMARK VINA RESULT:    -3.950      2.817      4.069
REMARK INTER + INTRA:          -4.580
REMARK INTER:                  -4.534
REMARK INTRA:                  -0.046
REMARK UNBOUND:                -0.052
REMARK SMILES O=C([O-])c1cc(O)c(O)c(O)c1
REMARK SMILES IDX 4 1 5 2 12 3 6 4 10 5 8 6 2 7 1 8 3 9 7 10 11 12 9 14
REMARK H PARENT 7 11 11 13 9 15
REMARK Flexibility Score: inf
ROOT
ATOM      1  C   UNL     1      42.729  55.171  16.802  1.00  0.00     0.005 A 
ATOM      2  C   UNL     1      43.930  55.870  17.003  1.00  0.00     0.060 A 
ATOM      3  C   UNL     1      42.717  54.079  15.922  1.00  0.00     0.060 A 
ATOM      4  C   UNL     1      45.099  55.487  16.339  1.00  0.00     0.162 A 
ATOM      5  C   UNL     1      43.879  53.682  15.248  1.00  0.00     0.162 A 
ATOM      6  C   UNL     1      45.086  54.392  15.456  1.00  0.00     0.200 A 
ENDROOT
BRANCH   1   7
ATOM      7  C   UNL     1      41.493  55.578  17.506  1.00  0.00     0.072 C 
ATOM      8  O   UNL     1      41.428  55.537  18.764  1.00  0.00    -0.545 OA
ATOM      9  O   UNL     1      40.383  56.012  16.789  1.00  0.00    -0.545 OA
ENDBRANCH   1   7
BRANCH   4  10
ATOM     10  O   UNL     1      46.268  56.211  16.572  1.00  0.00    -0.504 OA
ATOM     11  H   UNL     1      46.954  55.925  17.260  1.00  0.00     0.293 HD
ENDBRANCH   4  10
BRANCH   5  12
ATOM     12  O   UNL     1      43.787  52.586  14.389  1.00  0.00    -0.504 OA
ATOM     13  H   UNL     1      43.901  52.638  13.387  1.00  0.00     0.293 HD
ENDBRANCH   5  12
BRANCH   6  14
ATOM     14  O   UNL     1      46.277  54.043  14.813  1.00  0.00    -0.502 OA
ATOM     15  H   UNL     1      46.733  54.613  14.115  1.00  0.00     0.293 HD
ENDBRANCH   6  14
TORSDOF 4
ENDMDL
MODEL 7
REMARK VINA RESULT:    -3.949      2.826      4.434
REMARK INTER + INTRA:          -4.578
REMARK INTER:                  -4.532
REMARK INTRA:                  -0.046
REMARK UNBOUND:                -0.052
REMARK SMILES O=C([O-])c1cc(O)c(O)c(O)c1
REMARK SMILES IDX 4 1 5 2 12 3 6 4 10 5 8 6 2 7 1 8 3 9 7 10 11 12 9 14
REMARK H PARENT 7 11 11 13 9 15
REMARK Flexibility Score: inf
ROOT
ATOM      1  C   UNL     1      42.739  55.171  16.821  1.00  0.00     0.005 A 
ATOM      2  C   UNL     1      42.748  54.056  15.970  1.00  0.00     0.060 A 
ATOM      3  C   UNL     1      43.926  55.897  17.004  1.00  0.00     0.060 A 
ATOM      4  C   UNL     1      43.919  53.668  15.312  1.00  0.00     0.162 A 
ATOM      5  C   UNL     1      45.108  55.522  16.353  1.00  0.00     0.162 A 
ATOM      6  C   UNL     1      45.109  54.396  15.497  1.00  0.00     0.200 A 
ENDROOT
BRANCH   1   7
ATOM      7  C   UNL     1      41.498  55.580  17.516  1.00  0.00     0.072 C 
ATOM      8  O   UNL     1      41.426  55.546  18.773  1.00  0.00    -0.545 OA
ATOM      9  O   UNL     1      40.393  56.011  16.790  1.00  0.00    -0.545 OA
ENDBRANCH   1   7
BRANCH   4  10
ATOM     10  O   UNL     1      43.879  52.552  14.476  1.00  0.00    -0.504 OA
ATOM     11  H   UNL     1      43.630  52.620  13.496  1.00  0.00     0.293 HD
ENDBRANCH   4  10
BRANCH   5  12
ATOM     12  O   UNL     1      46.248  56.294  16.586  1.00  0.00    -0.504 OA
ATOM     13  H   UNL     1      47.168  55.912  16.750  1.00  0.00     0.293 HD
ENDBRANCH   5  12
BRANCH   6  14
ATOM     14  O   UNL     1      46.257  53.974  14.820  1.00  0.00    -0.502 OA
ATOM     15  H   UNL     1      47.013  53.461  15.250  1.00  0.00     0.293 HD
ENDBRANCH   6  14
TORSDOF 4
ENDMDL
MODEL 8
REMARK VINA RESULT:    -3.768      4.183      6.811
REMARK INTER + INTRA:          -4.370
REMARK INTER:                  -4.319
REMARK INTRA:                  -0.051
REMARK UNBOUND:                -0.052
REMARK SMILES O=C([O-])c1cc(O)c(O)c(O)c1
REMARK SMILES IDX 4 1 5 2 12 3 6 4 10 5 8 6 2 7 1 8 3 9 7 10 11 12 9 14
REMARK H PARENT 7 11 11 13 9 15
REMARK Flexibility Score: inf
ROOT
ATOM      1  C   UNL     1      46.417  55.264  15.780  1.00  0.00     0.005 A 
ATOM      2  C   UNL     1      45.461  55.993  16.504  1.00  0.00     0.060 A 
ATOM      3  C   UNL     1      46.004  54.140  15.048  1.00  0.00     0.060 A 
ATOM      4  C   UNL     1      44.117  55.609  16.499  1.00  0.00     0.162 A 
ATOM      5  C   UNL     1      44.662  53.742  15.033  1.00  0.00     0.162 A 
ATOM      6  C   UNL     1      43.704  54.483  15.766  1.00  0.00     0.200 A 
ENDROOT
BRANCH   1   7
ATOM      7  C   UNL     1      47.839  55.671  15.785  1.00  0.00     0.072 C 
ATOM      8  O   UNL     1      48.601  55.354  14.833  1.00  0.00    -0.545 OA
ATOM      9  O   UNL     1      48.357  56.412  16.843  1.00  0.00    -0.545 OA
ENDBRANCH   1   7
BRANCH   4  10
ATOM     10  O   UNL     1      43.203  56.366  17.233  1.00  0.00    -0.504 OA
ATOM     11  H   UNL     1      42.297  56.629  16.863  1.00  0.00     0.293 HD
ENDBRANCH   4  10
BRANCH   5  12
ATOM     12  O   UNL     1      44.330  52.613  14.282  1.00  0.00    -0.504 OA
ATOM     13  H   UNL     1      45.003  52.026  13.812  1.00  0.00     0.293 HD
ENDBRANCH   5  12
BRANCH   6  14
ATOM     14  O   UNL     1      42.351  54.135  15.789  1.00  0.00    -0.502 OA
ATOM     15  H   UNL     1      42.003  53.226  16.059  1.00  0.00     0.293 HD
ENDBRANCH   6  14
TORSDOF 4
ENDMDL
MODEL 9
REMARK VINA RESULT:    -3.762      4.157      7.112
REMARK INTER + INTRA:          -4.364
REMARK INTER:                  -4.314
REMARK INTRA:                  -0.050
REMARK UNBOUND:                -0.052
REMARK SMILES O=C([O-])c1cc(O)c(O)c(O)c1
REMARK SMILES IDX 4 1 5 2 12 3 6 4 10 5 8 6 2 7 1 8 3 9 7 10 11 12 9 14
REMARK H PARENT 7 11 11 13 9 15
REMARK Flexibility Score: inf
ROOT
ATOM      1  C   UNL     1      46.386  55.261  15.808  1.00  0.00     0.005 A 
ATOM      2  C   UNL     1      45.993  54.142  15.058  1.00  0.00     0.060 A 
ATOM      3  C   UNL     1      45.415  55.973  16.527  1.00  0.00     0.060 A 
ATOM      4  C   UNL     1      44.655  53.739  15.025  1.00  0.00     0.162 A 
ATOM      5  C   UNL     1      44.070  55.583  16.505  1.00  0.00     0.162 A 
ATOM      6  C   UNL     1      43.681  54.454  15.746  1.00  0.00     0.200 A 
ENDROOT
BRANCH   1   7
ATOM      7  C   UNL     1      47.803  55.686  15.843  1.00  0.00     0.072 C 
ATOM      8  O   UNL     1      48.557  55.487  14.853  1.00  0.00    -0.545 OA
ATOM      9  O   UNL     1      48.323  56.314  16.969  1.00  0.00    -0.545 OA
ENDBRANCH   1   7
BRANCH   4  10
ATOM     10  O   UNL     1      44.312  52.620  14.265  1.00  0.00    -0.504 OA
ATOM     11  H   UNL     1      44.057  51.736  14.690  1.00  0.00     0.293 HD
ENDBRANCH   4  10
BRANCH   5  12
ATOM     12  O   UNL     1      43.163  56.343  17.246  1.00  0.00    -0.504 OA
ATOM     13  H   UNL     1      42.171  56.385  17.060  1.00  0.00     0.293 HD
ENDBRANCH   5  12
BRANCH   6  14
ATOM     14  O   UNL     1      42.356  54.016  15.685  1.00  0.00    -0.502 OA
ATOM     15  H   UNL     1      41.966  53.301  16.282  1.00  0.00     0.293 HD
ENDBRANCH   6  14
TORSDOF 4
ENDMDL
