MODEL 1
REMARK VINA RESULT:    -4.364      0.000      0.000
REMARK INTER + INTRA:          -5.211
REMARK INTER:                  -5.129
REMARK INTRA:                  -0.082
REMARK UNBOUND:                -0.082
REMARK SMILES O=C([O-])CCC(=O)[O-]
REMARK SMILES IDX 4 1 2 2 1 3 3 4 5 5 6 6 7 7 8 8
REMARK H PARENT
REMARK Flexibility Score: inf
ROOT
ATOM      1  C   UNL     1      -3.343  26.386  55.296  1.00  0.00     0.059 C 
ENDROOT
BRANCH   1   2
ATOM      2  C   UNL     1      -2.563  26.382  54.020  1.00  0.00     0.042 C 
ATOM      3  O   UNL     1      -1.305  26.341  54.046  1.00  0.00    -0.550 OA
ATOM      4  O   UNL     1      -3.227  26.373  52.800  1.00  0.00    -0.550 OA
ENDBRANCH   1   2
BRANCH   1   5
ATOM      5  C   UNL     1      -4.433  27.459  55.255  1.00  0.00     0.059 C 
BRANCH   5   6
ATOM      6  C   UNL     1      -4.133  28.549  56.234  1.00  0.00     0.042 C 
ATOM      7  O   UNL     1      -5.041  28.991  56.987  1.00  0.00    -0.550 OA
ATOM      8  O   UNL     1      -2.865  29.112  56.281  1.00  0.00    -0.550 OA
ENDBRANCH   5   6
ENDBRANCH   1   5
TORSDOF 3
ENDMDL
MODEL 2
REMARK VINA RESULT:    -4.354      0.117      3.901
REMARK INTER + INTRA:          -5.200
REMARK INTER:                  -5.122
REMARK INTRA:                  -0.078
REMARK UNBOUND:                -0.082
REMARK SMILES O=C([O-])CCC(=O)[O-]
REMARK SMILES IDX 4 1 2 2 1 3 3 4 5 5 6 6 7 7 8 8
REMARK H PARENT
REMARK Flexibility Score: inf
ROOT
ATOM      1  C   UNL     1      -4.413  27.421  55.287  1.00  0.00     0.059 C 
ENDROOT
BRANCH   1   2
ATOM      2  C   UNL     1      -4.142  28.560  56.217  1.00  0.00     0.042 C 
ATOM      3  O   UNL     1      -5.056  29.001  56.963  1.00  0.00    -0.550 OA
ATOM      4  O   UNL     1      -2.866  29.104  56.297  1.00  0.00    -0.550 OA
ENDBRANCH   1   2
BRANCH   1   5
ATOM      5  C   UNL     1      -3.272  26.404  55.338  1.00  0.00     0.059 C 
BRANCH   5   6
ATOM      6  C   UNL     1      -2.572  26.334  54.018  1.00  0.00     0.042 C 
ATOM      7  O   UNL     1      -3.229  26.432  52.947  1.00  0.00    -0.550 OA
ATOM      8  O   UNL     1      -1.202  26.112  53.968  1.00  0.00    -0.550 OA
ENDBRANCH   5   6
ENDBRANCH   1   5
TORSDOF 3
ENDMDL
MODEL 3
REMARK VINA RESULT:    -4.325      2.274      4.856
REMARK INTER + INTRA:          -5.166
REMARK INTER:                  -5.133
REMARK INTRA:                  -0.033
REMARK UNBOUND:                -0.082
REMARK SMILES O=C([O-])CCC(=O)[O-]
REMARK SMILES IDX 4 1 2 2 1 3 3 4 5 5 6 6 7 7 8 8
REMARK H PARENT
REMARK Flexibility Score: inf
ROOT
ATOM      1  C   UNL     1      -3.558  29.771  57.380  1.00  0.00     0.059 C 
ENDROOT
BRANCH   1   2
ATOM      2  C   UNL     1      -4.224  30.710  58.335  1.00  0.00     0.042 C 
ATOM      3  O   UNL     1      -4.221  31.949  58.111  1.00  0.00    -0.550 OA
ATOM      4  O   UNL     1      -4.891  30.212  59.447  1.00  0.00    -0.550 OA
ENDBRANCH   1   2
BRANCH   1   5
ATOM      5  C   UNL     1      -4.598  28.915  56.657  1.00  0.00     0.059 C 
BRANCH   5   6
ATOM      6  C   UNL     1      -3.928  27.863  55.830  1.00  0.00     0.042 C 
ATOM      7  O   UNL     1      -4.607  27.140  55.054  1.00  0.00    -0.550 OA
ATOM      8  O   UNL     1      -2.562  27.647  55.954  1.00  0.00    -0.550 OA
ENDBRANCH   5   6
ENDBRANCH   1   5
TORSDOF 3
ENDMDL
MODEL 4
REMARK VINA RESULT:    -4.322      2.292      3.321
REMARK INTER + INTRA:          -5.162
REMARK INTER:                  -5.130
REMARK INTRA:                  -0.032
REMARK UNBOUND:                -0.082
REMARK SMILES O=C([O-])CCC(=O)[O-]
REMARK SMILES IDX 4 1 2 2 1 3 3 4 5 5 6 6 7 7 8 8
REMARK H PARENT
REMARK Flexibility Score: inf
ROOT
ATOM      1  C   UNL     1      -4.577  28.962  56.641  1.00  0.00     0.059 C 
ENDROOT
BRANCH   1   2
ATOM      2  C   UNL     1      -3.921  27.879  55.845  1.00  0.00     0.042 C 
ATOM      3  O   UNL     1      -4.607  27.155  55.075  1.00  0.00    -0.550 OA
ATOM      4  O   UNL     1      -2.546  27.700  55.914  1.00  0.00    -0.550 OA
ENDBRANCH   1   2
BRANCH   1   5
ATOM      5  C   UNL     1      -3.528  29.790  57.385  1.00  0.00     0.059 C 
BRANCH   5   6
ATOM      6  C   UNL     1      -4.188  30.750  58.324  1.00  0.00     0.042 C 
ATOM      7  O   UNL     1      -4.168  31.986  58.083  1.00  0.00    -0.550 OA
ATOM      8  O   UNL     1      -4.780  30.285  59.491  1.00  0.00    -0.550 OA
ENDBRANCH   5   6
ENDBRANCH   1   5
TORSDOF 3
ENDMDL
MODEL 5
REMARK VINA RESULT:    -4.317      0.086      3.901
REMARK INTER + INTRA:          -5.156
REMARK INTER:                  -5.073
REMARK INTRA:                  -0.083
REMARK UNBOUND:                -0.082
REMARK SMILES O=C([O-])CCC(=O)[O-]
REMARK SMILES IDX 4 1 2 2 1 3 3 4 5 5 6 6 7 7 8 8
REMARK H PARENT
REMARK Flexibility Score: inf
ROOT
ATOM      1  C   UNL     1      -4.359  27.477  55.263  1.00  0.00     0.059 C 
ENDROOT
BRANCH   1   2
ATOM      2  C   UNL     1      -4.046  28.575  56.230  1.00  0.00     0.042 C 
ATOM      3  O   UNL     1      -2.901  29.100  56.243  1.00  0.00    -0.550 OA
ATOM      4  O   UNL     1      -5.033  29.053  57.082  1.00  0.00    -0.550 OA
ENDBRANCH   1   2
BRANCH   1   5
ATOM      5  C   UNL     1      -3.291  26.386  55.326  1.00  0.00     0.059 C 
BRANCH   5   6
ATOM      6  C   UNL     1      -2.495  26.356  54.060  1.00  0.00     0.042 C 
ATOM      7  O   UNL     1      -1.236  26.327  54.103  1.00  0.00    -0.550 OA
ATOM      8  O   UNL     1      -3.141  26.412  52.832  1.00  0.00    -0.550 OA
ENDBRANCH   5   6
ENDBRANCH   1   5
TORSDOF 3
ENDMDL
MODEL 6
REMARK VINA RESULT:    -4.299      2.208      4.876
REMARK INTER + INTRA:          -5.135
REMARK INTER:                  -5.096
REMARK INTRA:                  -0.040
REMARK UNBOUND:                -0.082
REMARK SMILES O=C([O-])CCC(=O)[O-]
REMARK SMILES IDX 4 1 2 2 1 3 3 4 5 5 6 6 7 7 8 8
REMARK H PARENT
REMARK Flexibility Score: inf
ROOT
ATOM      1  C   UNL     1      -3.598  29.741  57.228  1.00  0.00     0.059 C 
ENDROOT
BRANCH   1   2
ATOM      2  C   UNL     1      -4.262  30.625  58.235  1.00  0.00     0.042 C 
ATOM      3  O   UNL     1      -4.799  30.126  59.260  1.00  0.00    -0.550 OA
ATOM      4  O   UNL     1      -4.246  32.003  58.069  1.00  0.00    -0.550 OA
ENDBRANCH   1   2
BRANCH   1   5
ATOM      5  C   UNL     1      -4.607  28.762  56.625  1.00  0.00     0.059 C 
BRANCH   5   6
ATOM      6  C   UNL     1      -3.901  27.654  55.911  1.00  0.00     0.042 C 
ATOM      7  O   UNL     1      -2.752  27.293  56.281  1.00  0.00    -0.550 OA
ATOM      8  O   UNL     1      -4.489  27.053  54.806  1.00  0.00    -0.550 OA
ENDBRANCH   5   6
ENDBRANCH   1   5
TORSDOF 3
ENDMDL
MODEL 7
REMARK VINA RESULT:    -4.117      0.880      1.547
REMARK INTER + INTRA:          -4.922
REMARK INTER:                  -4.851
REMARK INTRA:                  -0.071
REMARK UNBOUND:                -0.082
REMARK SMILES O=C([O-])CCC(=O)[O-]
REMARK SMILES IDX 4 1 2 2 1 3 3 4 5 5 6 6 7 7 8 8
REMARK H PARENT
REMARK Flexibility Score: inf
ROOT
ATOM      1  C   UNL     1      -3.256  26.324  55.110  1.00  0.00     0.059 C 
ENDROOT
BRANCH   1   2
ATOM      2  C   UNL     1      -2.444  26.292  53.855  1.00  0.00     0.042 C 
ATOM      3  O   UNL     1      -3.008  26.384  52.732  1.00  0.00    -0.550 OA
ATOM      4  O   UNL     1      -1.059  26.212  53.924  1.00  0.00    -0.550 OA
ENDBRANCH   1   2
BRANCH   1   5
ATOM      5  C   UNL     1      -3.015  27.628  55.872  1.00  0.00     0.059 C 
BRANCH   5   6
ATOM      6  C   UNL     1      -4.310  28.325  56.142  1.00  0.00     0.042 C 
ATOM      7  O   UNL     1      -5.373  27.920  55.600  1.00  0.00    -0.550 OA
ATOM      8  O   UNL     1      -4.337  29.452  56.954  1.00  0.00    -0.550 OA
ENDBRANCH   5   6
ENDBRANCH   1   5
TORSDOF 3
ENDMDL
MODEL 8
REMARK VINA RESULT:    -4.074      1.198      3.973
REMARK INTER + INTRA:          -4.871
REMARK INTER:                  -4.824
REMARK INTRA:                  -0.047
REMARK UNBOUND:                -0.082
REMARK SMILES O=C([O-])CCC(=O)[O-]
REMARK SMILES IDX 4 1 2 2 1 3 3 4 5 5 6 6 7 7 8 8
REMARK H PARENT
REMARK Flexibility Score: inf
ROOT
ATOM      1  C   UNL     1      -3.285  26.757  55.825  1.00  0.00     0.059 C 
ENDROOT
BRANCH   1   2
ATOM      2  C   UNL     1      -4.184  27.953  55.834  1.00  0.00     0.042 C 
ATOM      3  O   UNL     1      -5.397  27.836  55.515  1.00  0.00    -0.550 OA
ATOM      4  O   UNL     1      -3.695  29.186  56.244  1.00  0.00    -0.550 OA
ENDBRANCH   1   2
BRANCH   1   5
ATOM      5  C   UNL     1      -2.939  26.357  54.391  1.00  0.00     0.059 C 
BRANCH   5   6
ATOM      6  C   UNL     1      -1.462  26.169  54.241  1.00  0.00     0.042 C 
ATOM      7  O   UNL     1      -0.959  25.990  53.100  1.00  0.00    -0.550 OA
ATOM      8  O   UNL     1      -0.648  26.139  55.365  1.00  0.00    -0.550 OA
ENDBRANCH   5   6
ENDBRANCH   1   5
TORSDOF 3
ENDMDL
MODEL 9
REMARK VINA RESULT:    -3.677      2.084      2.808
REMARK INTER + INTRA:          -4.404
REMARK INTER:                  -4.368
REMARK INTRA:                  -0.037
REMARK UNBOUND:                -0.082
REMARK SMILES O=C([O-])CCC(=O)[O-]
REMARK SMILES IDX 4 1 2 2 1 3 3 4 5 5 6 6 7 7 8 8
REMARK H PARENT
REMARK Flexibility Score: inf
ROOT
ATOM      1  C   UNL     1      -1.726  26.411  55.360  1.00  0.00     0.059 C 
ENDROOT
BRANCH   1   2
ATOM      2  C   UNL     1      -0.304  26.501  55.814  1.00  0.00     0.042 C 
ATOM      3  O   UNL     1       0.620  26.029  55.100  1.00  0.00    -0.550 OA
ATOM      4  O   UNL     1       0.007  27.151  57.001  1.00  0.00    -0.550 OA
ENDBRANCH   1   2
BRANCH   1   5
ATOM      5  C   UNL     1      -2.604  27.380  56.153  1.00  0.00     0.059 C 
BRANCH   5   6
ATOM      6  C   UNL     1      -3.962  27.483  55.534  1.00  0.00     0.042 C 
ATOM      7  O   UNL     1      -4.842  28.220  56.055  1.00  0.00    -0.550 OA
ATOM      8  O   UNL     1      -4.274  26.727  54.411  1.00  0.00    -0.550 OA
ENDBRANCH   5   6
ENDBRANCH   1   5
TORSDOF 3
ENDMDL
