MODEL 1
REMARK VINA RESULT:    -6.212      0.000      0.000
REMARK INTER + INTRA:          -7.490
REMARK INTER:                  -7.302
REMARK INTRA:                  -0.188
REMARK UNBOUND:                -0.188
REMARK SMILES O=c1c(O)c(-c2ccc(O)c(O)c2)oc2cc(O)ccc12
REMARK SMILES IDX 5 1 3 2 2 3 1 4 21 5 15 6 14 7 16 8 17 9 19 10 20 11 6 12
REMARK SMILES IDX 7 13 8 14 9 15 13 16 11 17 10 18 12 20 4 22 18 24
REMARK H PARENT 10 19 12 21 4 23 18 25
REMARK Flexibility Score: inf
ROOT
ATOM      1  C   UNL     1      55.962 -40.803 -26.107  1.00  0.00     0.180 A 
ATOM      2  C   UNL     1      56.202 -42.191 -26.187  1.00  0.00     0.208 A 
ATOM      3  C   UNL     1      56.359 -42.779 -27.451  1.00  0.00     0.235 A 
ATOM      4  O   UNL     1      56.563 -44.020 -27.549  1.00  0.00    -0.285 OA
ATOM      5  C   UNL     1      56.295 -41.974 -28.599  1.00  0.00     0.069 A 
ATOM      6  C   UNL     1      56.077 -40.589 -28.435  1.00  0.00     0.142 A 
ATOM      7  O   UNL     1      55.924 -40.074 -27.219  1.00  0.00    -0.452 OA
ATOM      8  C   UNL     1      56.017 -39.751 -29.554  1.00  0.00     0.094 A 
ATOM      9  C   UNL     1      56.171 -40.280 -30.840  1.00  0.00     0.119 A 
ATOM     10  C   UNL     1      56.386 -41.655 -31.007  1.00  0.00     0.047 A 
ATOM     11  C   UNL     1      56.449 -42.500 -29.895  1.00  0.00     0.020 A 
ENDROOT
BRANCH   1  12
ATOM     12  C   UNL     1      55.768 -40.112 -24.812  1.00  0.00     0.025 A 
ATOM     13  C   UNL     1      56.679 -39.121 -24.415  1.00  0.00     0.016 A 
ATOM     14  C   UNL     1      56.503 -38.441 -23.207  1.00  0.00     0.051 A 
ATOM     15  C   UNL     1      55.409 -38.730 -22.386  1.00  0.00     0.157 A 
ATOM     16  C   UNL     1      54.656 -40.386 -23.995  1.00  0.00     0.062 A 
ATOM     17  C   UNL     1      54.478 -39.704 -22.782  1.00  0.00     0.158 A 
BRANCH  15  18
ATOM     18  O   UNL     1      55.261 -38.036 -21.185  1.00  0.00    -0.504 OA
ATOM     19  H   UNL     1      54.689 -38.389 -20.427  1.00  0.00     0.293 HD
ENDBRANCH  15  18
BRANCH  17  20
ATOM     20  O   UNL     1      53.376 -39.986 -21.976  1.00  0.00    -0.504 OA
ATOM     21  H   UNL     1      53.211 -39.488 -21.110  1.00  0.00     0.293 HD
ENDBRANCH  17  20
ENDBRANCH   1  12
BRANCH   2  22
ATOM     22  O   UNL     1      56.309 -42.958 -25.024  1.00  0.00    -0.502 OA
ATOM     23  H   UNL     1      56.843 -42.650 -24.219  1.00  0.00     0.293 HD
ENDBRANCH   2  22
BRANCH   9  24
ATOM     24  O   UNL     1      56.108 -39.432 -31.942  1.00  0.00    -0.508 OA
ATOM     25  H   UNL     1      55.230 -39.234 -32.409  1.00  0.00     0.293 HD
ENDBRANCH   9  24
TORSDOF 5
ENDMDL
MODEL 2
REMARK VINA RESULT:    -5.939     14.784     16.494
REMARK INTER + INTRA:          -7.169
REMARK INTER:                  -7.026
REMARK INTRA:                  -0.143
REMARK UNBOUND:                -0.188
REMARK SMILES O=c1c(O)c(-c2ccc(O)c(O)c2)oc2cc(O)ccc12
REMARK SMILES IDX 5 1 3 2 2 3 1 4 21 5 15 6 14 7 16 8 17 9 19 10 20 11 6 12
REMARK SMILES IDX 7 13 8 14 9 15 13 16 11 17 10 18 12 20 4 22 18 24
REMARK H PARENT 10 19 12 21 4 23 18 25
REMARK Flexibility Score: inf
ROOT
ATOM      1  C   UNL     1      46.842 -29.072 -30.527  1.00  0.00     0.180 A 
ATOM      2  C   UNL     1      46.830 -30.161 -29.630  1.00  0.00     0.208 A 
ATOM      3  C   UNL     1      45.596 -30.630 -29.153  1.00  0.00     0.235 A 
ATOM      4  O   UNL     1      45.560 -31.595 -28.342  1.00  0.00    -0.285 OA
ATOM      5  C   UNL     1      44.410 -30.022 -29.593  1.00  0.00     0.069 A 
ATOM      6  C   UNL     1      44.505 -28.954 -30.510  1.00  0.00     0.142 A 
ATOM      7  O   UNL     1      45.694 -28.534 -30.930  1.00  0.00    -0.452 OA
ATOM      8  C   UNL     1      43.345 -28.328 -30.980  1.00  0.00     0.094 A 
ATOM      9  C   UNL     1      42.087 -28.756 -30.543  1.00  0.00     0.119 A 
ATOM     10  C   UNL     1      41.988 -29.816 -29.631  1.00  0.00     0.047 A 
ATOM     11  C   UNL     1      43.142 -30.448 -29.157  1.00  0.00     0.020 A 
ENDROOT
BRANCH   1  12
ATOM     12  C   UNL     1      48.102 -28.508 -31.060  1.00  0.00     0.025 A 
ATOM     13  C   UNL     1      49.026 -27.925 -30.178  1.00  0.00     0.016 A 
ATOM     14  C   UNL     1      50.231 -27.405 -30.656  1.00  0.00     0.051 A 
ATOM     15  C   UNL     1      50.539 -27.472 -32.019  1.00  0.00     0.157 A 
ATOM     16  C   UNL     1      48.424 -28.593 -32.427  1.00  0.00     0.062 A 
ATOM     17  C   UNL     1      49.634 -28.073 -32.909  1.00  0.00     0.158 A 
BRANCH  15  18
ATOM     18  O   UNL     1      51.749 -26.943 -32.467  1.00  0.00    -0.504 OA
ATOM     19  H   UNL     1      52.022 -25.987 -32.272  1.00  0.00     0.293 HD
ENDBRANCH  15  18
BRANCH  17  20
ATOM     20  O   UNL     1      49.941 -28.157 -34.266  1.00  0.00    -0.504 OA
ATOM     21  H   UNL     1      49.926 -27.341 -34.865  1.00  0.00     0.293 HD
ENDBRANCH  17  20
ENDBRANCH   1  12
BRANCH   2  22
ATOM     22  O   UNL     1      48.024 -30.777 -29.249  1.00  0.00    -0.502 OA
ATOM     23  H   UNL     1      48.046 -31.684 -28.797  1.00  0.00     0.293 HD
ENDBRANCH   2  22
BRANCH   9  24
ATOM     24  O   UNL     1      40.942 -28.122 -31.020  1.00  0.00    -0.508 OA
ATOM     25  H   UNL     1      40.203 -27.823 -30.395  1.00  0.00     0.293 HD
ENDBRANCH   9  24
TORSDOF 5
ENDMDL
MODEL 3
REMARK VINA RESULT:    -5.781     15.711     17.068
REMARK INTER + INTRA:          -6.984
REMARK INTER:                  -6.708
REMARK INTRA:                  -0.275
REMARK UNBOUND:                -0.188
REMARK SMILES O=c1c(O)c(-c2ccc(O)c(O)c2)oc2cc(O)ccc12
REMARK SMILES IDX 5 1 3 2 2 3 1 4 21 5 15 6 14 7 16 8 17 9 19 10 20 11 6 12
REMARK SMILES IDX 7 13 8 14 9 15 13 16 11 17 10 18 12 20 4 22 18 24
REMARK H PARENT 10 19 12 21 4 23 18 25
REMARK Flexibility Score: inf
ROOT
ATOM      1  C   UNL     1      45.518 -28.147 -30.280  1.00  0.00     0.180 A 
ATOM      2  C   UNL     1      46.064 -27.348 -29.253  1.00  0.00     0.208 A 
ATOM      3  C   UNL     1      47.396 -26.923 -29.363  1.00  0.00     0.235 A 
ATOM      4  O   UNL     1      47.910 -26.217 -28.452  1.00  0.00    -0.285 OA
ATOM      5  C   UNL     1      48.145 -27.282 -30.494  1.00  0.00     0.069 A 
ATOM      6  C   UNL     1      47.520 -28.062 -31.491  1.00  0.00     0.142 A 
ATOM      7  O   UNL     1      46.258 -28.452 -31.344  1.00  0.00    -0.452 OA
ATOM      8  C   UNL     1      48.229 -28.432 -32.639  1.00  0.00     0.094 A 
ATOM      9  C   UNL     1      49.559 -28.034 -32.805  1.00  0.00     0.119 A 
ATOM     10  C   UNL     1      50.184 -27.259 -31.817  1.00  0.00     0.047 A 
ATOM     11  C   UNL     1      49.483 -26.884 -30.667  1.00  0.00     0.020 A 
ENDROOT
BRANCH   1  12
ATOM     12  C   UNL     1      44.127 -28.650 -30.229  1.00  0.00     0.025 A 
ATOM     13  C   UNL     1      43.159 -28.091 -31.078  1.00  0.00     0.016 A 
ATOM     14  C   UNL     1      41.845 -28.564 -31.062  1.00  0.00     0.051 A 
ATOM     15  C   UNL     1      41.481 -29.612 -30.211  1.00  0.00     0.157 A 
ATOM     16  C   UNL     1      43.764 -29.718 -29.390  1.00  0.00     0.062 A 
ATOM     17  C   UNL     1      42.445 -30.196 -29.373  1.00  0.00     0.158 A 
BRANCH  15  18
ATOM     18  O   UNL     1      40.161 -30.063 -30.216  1.00  0.00    -0.504 OA
ATOM     19  H   UNL     1      39.905 -30.981 -29.874  1.00  0.00     0.293 HD
ENDBRANCH  15  18
BRANCH  17  20
ATOM     20  O   UNL     1      42.094 -31.251 -28.532  1.00  0.00    -0.504 OA
ATOM     21  H   UNL     1      42.024 -31.130 -27.529  1.00  0.00     0.293 HD
ENDBRANCH  17  20
ENDBRANCH   1  12
BRANCH   2  22
ATOM     22  O   UNL     1      45.279 -26.966 -28.162  1.00  0.00    -0.502 OA
ATOM     23  H   UNL     1      44.716 -26.123 -28.169  1.00  0.00     0.293 HD
ENDBRANCH   2  22
BRANCH   9  24
ATOM     24  O   UNL     1      50.250 -28.411 -33.954  1.00  0.00    -0.508 OA
ATOM     25  H   UNL     1      51.140 -27.992 -34.197  1.00  0.00     0.293 HD
ENDBRANCH   9  24
TORSDOF 5
ENDMDL
MODEL 4
REMARK VINA RESULT:    -5.736     13.235     14.850
REMARK INTER + INTRA:          -6.930
REMARK INTER:                  -7.070
REMARK INTRA:                   0.140
REMARK UNBOUND:                -0.188
REMARK SMILES O=c1c(O)c(-c2ccc(O)c(O)c2)oc2cc(O)ccc12
REMARK SMILES IDX 5 1 3 2 2 3 1 4 21 5 15 6 14 7 16 8 17 9 19 10 20 11 6 12
REMARK SMILES IDX 7 13 8 14 9 15 13 16 11 17 10 18 12 20 4 22 18 24
REMARK H PARENT 10 19 12 21 4 23 18 25
REMARK Flexibility Score: inf
ROOT
ATOM      1  C   UNL     1      48.233 -29.189 -30.761  1.00  0.00     0.180 A 
ATOM      2  C   UNL     1      48.333 -28.591 -32.034  1.00  0.00     0.208 A 
ATOM      3  C   UNL     1      49.596 -28.185 -32.493  1.00  0.00     0.235 A 
ATOM      4  O   UNL     1      49.709 -27.637 -33.624  1.00  0.00    -0.285 OA
ATOM      5  C   UNL     1      50.725 -28.401 -31.689  1.00  0.00     0.069 A 
ATOM      6  C   UNL     1      50.545 -29.029 -30.437  1.00  0.00     0.142 A 
ATOM      7  O   UNL     1      49.331 -29.389 -30.036  1.00  0.00    -0.452 OA
ATOM      8  C   UNL     1      51.648 -29.272 -29.611  1.00  0.00     0.094 A 
ATOM      9  C   UNL     1      52.931 -28.893 -30.017  1.00  0.00     0.119 A 
ATOM     10  C   UNL     1      53.114 -28.268 -31.259  1.00  0.00     0.047 A 
ATOM     11  C   UNL     1      52.018 -28.023 -32.092  1.00  0.00     0.020 A 
ENDROOT
BRANCH   1  12
ATOM     12  C   UNL     1      46.936 -29.627 -30.198  1.00  0.00     0.025 A 
ATOM     13  C   UNL     1      45.805 -28.810 -30.351  1.00  0.00     0.016 A 
ATOM     14  C   UNL     1      44.566 -29.213 -29.847  1.00  0.00     0.051 A 
ATOM     15  C   UNL     1      44.434 -30.443 -29.196  1.00  0.00     0.157 A 
ATOM     16  C   UNL     1      46.796 -30.874 -29.563  1.00  0.00     0.062 A 
ATOM     17  C   UNL     1      45.553 -31.281 -29.056  1.00  0.00     0.158 A 
BRANCH  15  18
ATOM     18  O   UNL     1      43.185 -30.818 -28.701  1.00  0.00    -0.504 OA
ATOM     19  H   UNL     1      42.410 -30.167 -28.651  1.00  0.00     0.293 HD
ENDBRANCH  15  18
BRANCH  17  20
ATOM     20  O   UNL     1      45.425 -32.516 -28.422  1.00  0.00    -0.504 OA
ATOM     21  H   UNL     1      44.610 -33.101 -28.557  1.00  0.00     0.293 HD
ENDBRANCH  17  20
ENDBRANCH   1  12
BRANCH   2  22
ATOM     22  O   UNL     1      47.198 -28.433 -32.832  1.00  0.00    -0.502 OA
ATOM     23  H   UNL     1      47.186 -27.824 -33.643  1.00  0.00     0.293 HD
ENDBRANCH   2  22
BRANCH   9  24
ATOM     24  O   UNL     1      54.017 -29.142 -29.182  1.00  0.00    -0.508 OA
ATOM     25  H   UNL     1      54.404 -28.419 -28.587  1.00  0.00     0.293 HD
ENDBRANCH   9  24
TORSDOF 5
ENDMDL
MODEL 5
REMARK VINA RESULT:    -5.727      2.608      3.286
REMARK INTER + INTRA:          -6.919
REMARK INTER:                  -6.602
REMARK INTRA:                  -0.317
REMARK UNBOUND:                -0.188
REMARK SMILES O=c1c(O)c(-c2ccc(O)c(O)c2)oc2cc(O)ccc12
REMARK SMILES IDX 5 1 3 2 2 3 1 4 21 5 15 6 14 7 16 8 17 9 19 10 20 11 6 12
REMARK SMILES IDX 7 13 8 14 9 15 13 16 11 17 10 18 12 20 4 22 18 24
REMARK H PARENT 10 19 12 21 4 23 18 25
REMARK Flexibility Score: inf
ROOT
ATOM      1  C   UNL     1      54.221 -40.671 -27.924  1.00  0.00     0.180 A 
ATOM      2  C   UNL     1      52.908 -41.158 -28.098  1.00  0.00     0.208 A 
ATOM      3  C   UNL     1      52.426 -41.355 -29.401  1.00  0.00     0.235 A 
ATOM      4  O   UNL     1      51.252 -41.779 -29.581  1.00  0.00    -0.285 OA
ATOM      5  C   UNL     1      53.263 -41.084 -30.494  1.00  0.00     0.069 A 
ATOM      6  C   UNL     1      54.572 -40.623 -30.238  1.00  0.00     0.142 A 
ATOM      7  O   UNL     1      54.987 -40.441 -28.988  1.00  0.00    -0.452 OA
ATOM      8  C   UNL     1      55.440 -40.351 -31.301  1.00  0.00     0.094 A 
ATOM      9  C   UNL     1      55.017 -40.533 -32.622  1.00  0.00     0.119 A 
ATOM     10  C   UNL     1      53.717 -40.989 -32.881  1.00  0.00     0.047 A 
ATOM     11  C   UNL     1      52.843 -41.264 -31.825  1.00  0.00     0.020 A 
ENDROOT
BRANCH   1  12
ATOM     12  C   UNL     1      54.796 -40.420 -26.584  1.00  0.00     0.025 A 
ATOM     13  C   UNL     1      54.612 -39.168 -25.977  1.00  0.00     0.016 A 
ATOM     14  C   UNL     1      55.127 -38.916 -24.703  1.00  0.00     0.051 A 
ATOM     15  C   UNL     1      55.820 -39.914 -24.010  1.00  0.00     0.157 A 
ATOM     16  C   UNL     1      55.473 -41.429 -25.876  1.00  0.00     0.062 A 
ATOM     17  C   UNL     1      55.991 -41.178 -24.596  1.00  0.00     0.158 A 
BRANCH  15  18
ATOM     18  O   UNL     1      56.325 -39.632 -22.741  1.00  0.00    -0.504 OA
ATOM     19  H   UNL     1      57.265 -39.890 -22.466  1.00  0.00     0.293 HD
ENDBRANCH  15  18
BRANCH  17  20
ATOM     20  O   UNL     1      56.667 -42.183 -23.905  1.00  0.00    -0.504 OA
ATOM     21  H   UNL     1      56.647 -43.147 -24.216  1.00  0.00     0.293 HD
ENDBRANCH  17  20
ENDBRANCH   1  12
BRANCH   2  22
ATOM     22  O   UNL     1      52.116 -41.465 -26.989  1.00  0.00    -0.502 OA
ATOM     23  H   UNL     1      52.211 -42.337 -26.480  1.00  0.00     0.293 HD
ENDBRANCH   2  22
BRANCH   9  24
ATOM     24  O   UNL     1      55.894 -40.258 -33.668  1.00  0.00    -0.508 OA
ATOM     25  H   UNL     1      55.563 -40.142 -34.619  1.00  0.00     0.293 HD
ENDBRANCH   9  24
TORSDOF 5
ENDMDL
MODEL 6
REMARK VINA RESULT:    -5.680     12.648     14.594
REMARK INTER + INTRA:          -6.865
REMARK INTER:                  -6.544
REMARK INTRA:                  -0.320
REMARK UNBOUND:                -0.188
REMARK SMILES O=c1c(O)c(-c2ccc(O)c(O)c2)oc2cc(O)ccc12
REMARK SMILES IDX 5 1 3 2 2 3 1 4 21 5 15 6 14 7 16 8 17 9 19 10 20 11 6 12
REMARK SMILES IDX 7 13 8 14 9 15 13 16 11 17 10 18 12 20 4 22 18 24
REMARK H PARENT 10 19 12 21 4 23 18 25
REMARK Flexibility Score: inf
ROOT
ATOM      1  C   UNL     1      47.066 -30.688 -28.729  1.00  0.00     0.180 A 
ATOM      2  C   UNL     1      46.941 -30.191 -27.415  1.00  0.00     0.208 A 
ATOM      3  C   UNL     1      46.701 -31.096 -26.369  1.00  0.00     0.235 A 
ATOM      4  O   UNL     1      46.574 -30.674 -25.187  1.00  0.00    -0.285 OA
ATOM      5  C   UNL     1      46.612 -32.467 -26.651  1.00  0.00     0.069 A 
ATOM      6  C   UNL     1      46.773 -32.889 -27.988  1.00  0.00     0.142 A 
ATOM      7  O   UNL     1      46.990 -31.999 -28.950  1.00  0.00    -0.452 OA
ATOM      8  C   UNL     1      46.701 -34.249 -28.308  1.00  0.00     0.094 A 
ATOM      9  C   UNL     1      46.468 -35.198 -27.306  1.00  0.00     0.119 A 
ATOM     10  C   UNL     1      46.307 -34.783 -25.977  1.00  0.00     0.047 A 
ATOM     11  C   UNL     1      46.378 -33.426 -25.648  1.00  0.00     0.020 A 
ENDROOT
BRANCH   1  12
ATOM     12  C   UNL     1      47.301 -29.798 -29.888  1.00  0.00     0.025 A 
ATOM     13  C   UNL     1      48.617 -29.494 -30.269  1.00  0.00     0.016 A 
ATOM     14  C   UNL     1      48.863 -28.673 -31.372  1.00  0.00     0.051 A 
ATOM     15  C   UNL     1      47.800 -28.154 -32.119  1.00  0.00     0.157 A 
ATOM     16  C   UNL     1      46.234 -29.293 -30.653  1.00  0.00     0.062 A 
ATOM     17  C   UNL     1      46.479 -28.468 -31.761  1.00  0.00     0.158 A 
BRANCH  15  18
ATOM     18  O   UNL     1      48.077 -27.335 -33.213  1.00  0.00    -0.504 OA
ATOM     19  H   UNL     1      48.014 -27.672 -34.167  1.00  0.00     0.293 HD
ENDBRANCH  15  18
BRANCH  17  20
ATOM     20  O   UNL     1      45.415 -27.967 -32.510  1.00  0.00    -0.504 OA
ATOM     21  H   UNL     1      44.466 -27.976 -32.155  1.00  0.00     0.293 HD
ENDBRANCH  17  20
ENDBRANCH   1  12
BRANCH   2  22
ATOM     22  O   UNL     1      47.083 -28.825 -27.160  1.00  0.00    -0.502 OA
ATOM     23  H   UNL     1      47.077 -28.132 -27.899  1.00  0.00     0.293 HD
ENDBRANCH   2  22
BRANCH   9  24
ATOM     24  O   UNL     1      46.400 -36.548 -27.642  1.00  0.00    -0.508 OA
ATOM     25  H   UNL     1      45.740 -36.889 -28.331  1.00  0.00     0.293 HD
ENDBRANCH   9  24
TORSDOF 5
ENDMDL
MODEL 7
REMARK VINA RESULT:    -5.630      1.372      1.382
REMARK INTER + INTRA:          -6.805
REMARK INTER:                  -6.499
REMARK INTRA:                  -0.306
REMARK UNBOUND:                -0.188
REMARK SMILES O=c1c(O)c(-c2ccc(O)c(O)c2)oc2cc(O)ccc12
REMARK SMILES IDX 5 1 3 2 2 3 1 4 21 5 15 6 14 7 16 8 17 9 19 10 20 11 6 12
REMARK SMILES IDX 7 13 8 14 9 15 13 16 11 17 10 18 12 20 4 22 18 24
REMARK H PARENT 10 19 12 21 4 23 18 25
REMARK Flexibility Score: inf
ROOT
ATOM      1  C   UNL     1      55.227 -40.957 -25.435  1.00  0.00     0.180 A 
ATOM      2  C   UNL     1      55.886 -42.205 -25.424  1.00  0.00     0.208 A 
ATOM      3  C   UNL     1      55.954 -42.945 -26.614  1.00  0.00     0.235 A 
ATOM      4  O   UNL     1      56.528 -44.068 -26.626  1.00  0.00    -0.285 OA
ATOM      5  C   UNL     1      55.387 -42.421 -27.786  1.00  0.00     0.069 A 
ATOM      6  C   UNL     1      54.767 -41.154 -27.722  1.00  0.00     0.142 A 
ATOM      7  O   UNL     1      54.716 -40.490 -26.572  1.00  0.00    -0.452 OA
ATOM      8  C   UNL     1      54.199 -40.593 -28.871  1.00  0.00     0.094 A 
ATOM      9  C   UNL     1      54.241 -41.283 -30.087  1.00  0.00     0.119 A 
ATOM     10  C   UNL     1      54.855 -42.541 -30.155  1.00  0.00     0.047 A 
ATOM     11  C   UNL     1      55.426 -43.109 -29.012  1.00  0.00     0.020 A 
ENDROOT
BRANCH   1  12
ATOM     12  C   UNL     1      55.097 -40.126 -24.218  1.00  0.00     0.025 A 
ATOM     13  C   UNL     1      56.140 -39.257 -23.860  1.00  0.00     0.016 A 
ATOM     14  C   UNL     1      56.030 -38.447 -22.727  1.00  0.00     0.051 A 
ATOM     15  C   UNL     1      54.872 -38.482 -21.943  1.00  0.00     0.157 A 
ATOM     16  C   UNL     1      53.925 -40.143 -23.440  1.00  0.00     0.062 A 
ATOM     17  C   UNL     1      53.813 -39.331 -22.302  1.00  0.00     0.158 A 
BRANCH  15  18
ATOM     18  O   UNL     1      54.793 -37.664 -20.816  1.00  0.00    -0.504 OA
ATOM     19  H   UNL     1      53.906 -37.420 -20.391  1.00  0.00     0.293 HD
ENDBRANCH  15  18
BRANCH  17  20
ATOM     20  O   UNL     1      52.649 -39.359 -21.534  1.00  0.00    -0.504 OA
ATOM     21  H   UNL     1      52.679 -39.492 -20.530  1.00  0.00     0.293 HD
ENDBRANCH  17  20
ENDBRANCH   1  12
BRANCH   2  22
ATOM     22  O   UNL     1      56.483 -42.678 -24.253  1.00  0.00    -0.502 OA
ATOM     23  H   UNL     1      56.055 -42.563 -23.342  1.00  0.00     0.293 HD
ENDBRANCH   2  22
BRANCH   9  24
ATOM     24  O   UNL     1      53.671 -40.709 -31.221  1.00  0.00    -0.508 OA
ATOM     25  H   UNL     1      52.688 -40.462 -31.252  1.00  0.00     0.293 HD
ENDBRANCH   9  24
TORSDOF 5
ENDMDL
MODEL 8
REMARK VINA RESULT:    -5.563     15.342     16.517
REMARK INTER + INTRA:          -6.726
REMARK INTER:                  -6.554
REMARK INTRA:                  -0.172
REMARK UNBOUND:                -0.188
REMARK SMILES O=c1c(O)c(-c2ccc(O)c(O)c2)oc2cc(O)ccc12
REMARK SMILES IDX 5 1 3 2 2 3 1 4 21 5 15 6 14 7 16 8 17 9 19 10 20 11 6 12
REMARK SMILES IDX 7 13 8 14 9 15 13 16 11 17 10 18 12 20 4 22 18 24
REMARK H PARENT 10 19 12 21 4 23 18 25
REMARK Flexibility Score: inf
ROOT
ATOM      1  C   UNL     1      45.564 -29.072 -29.985  1.00  0.00     0.180 A 
ATOM      2  C   UNL     1      46.360 -29.499 -28.901  1.00  0.00     0.208 A 
ATOM      3  C   UNL     1      47.756 -29.498 -29.045  1.00  0.00     0.235 A 
ATOM      4  O   UNL     1      48.488 -29.886 -28.095  1.00  0.00    -0.285 OA
ATOM      5  C   UNL     1      48.325 -29.053 -30.249  1.00  0.00     0.069 A 
ATOM      6  C   UNL     1      47.462 -28.618 -31.277  1.00  0.00     0.142 A 
ATOM      7  O   UNL     1      46.144 -28.644 -31.104  1.00  0.00    -0.452 OA
ATOM      8  C   UNL     1      47.990 -28.158 -32.488  1.00  0.00     0.094 A 
ATOM      9  C   UNL     1      49.374 -28.129 -32.688  1.00  0.00     0.119 A 
ATOM     10  C   UNL     1      50.235 -28.562 -31.669  1.00  0.00     0.047 A 
ATOM     11  C   UNL     1      49.716 -29.022 -30.455  1.00  0.00     0.020 A 
ENDROOT
BRANCH   1  12
ATOM     12  C   UNL     1      44.085 -29.062 -29.918  1.00  0.00     0.025 A 
ATOM     13  C   UNL     1      43.391 -30.277 -29.810  1.00  0.00     0.016 A 
ATOM     14  C   UNL     1      41.996 -30.290 -29.724  1.00  0.00     0.051 A 
ATOM     15  C   UNL     1      41.276 -29.091 -29.730  1.00  0.00     0.157 A 
ATOM     16  C   UNL     1      43.360 -27.856 -29.901  1.00  0.00     0.062 A 
ATOM     17  C   UNL     1      41.960 -27.868 -29.814  1.00  0.00     0.158 A 
BRANCH  15  18
ATOM     18  O   UNL     1      39.884 -29.136 -29.645  1.00  0.00    -0.504 OA
ATOM     19  H   UNL     1      39.405 -29.767 -29.014  1.00  0.00     0.293 HD
ENDBRANCH  15  18
BRANCH  17  20
ATOM     20  O   UNL     1      41.249 -26.668 -29.805  1.00  0.00    -0.504 OA
ATOM     21  H   UNL     1      40.733 -26.351 -30.616  1.00  0.00     0.293 HD
ENDBRANCH  17  20
ENDBRANCH   1  12
BRANCH   2  22
ATOM     22  O   UNL     1      45.766 -29.889 -27.699  1.00  0.00    -0.502 OA
ATOM     23  H   UNL     1      45.251 -29.242 -27.113  1.00  0.00     0.293 HD
ENDBRANCH   2  22
BRANCH   9  24
ATOM     24  O   UNL     1      49.884 -27.668 -33.899  1.00  0.00    -0.508 OA
ATOM     25  H   UNL     1      50.844 -27.356 -33.985  1.00  0.00     0.293 HD
ENDBRANCH   9  24
TORSDOF 5
ENDMDL
MODEL 9
REMARK VINA RESULT:    -5.509      3.287      6.749
REMARK INTER + INTRA:          -6.663
REMARK INTER:                  -6.340
REMARK INTRA:                  -0.323
REMARK UNBOUND:                -0.188
REMARK SMILES O=c1c(O)c(-c2ccc(O)c(O)c2)oc2cc(O)ccc12
REMARK SMILES IDX 5 1 3 2 2 3 1 4 21 5 15 6 14 7 16 8 17 9 19 10 20 11 6 12
REMARK SMILES IDX 7 13 8 14 9 15 13 16 11 17 10 18 12 20 4 22 18 24
REMARK H PARENT 10 19 12 21 4 23 18 25
REMARK Flexibility Score: inf
ROOT
ATOM      1  C   UNL     1      54.306 -40.585 -28.020  1.00  0.00     0.180 A 
ATOM      2  C   UNL     1      55.387 -39.930 -28.647  1.00  0.00     0.208 A 
ATOM      3  C   UNL     1      56.335 -39.272 -27.848  1.00  0.00     0.235 A 
ATOM      4  O   UNL     1      57.304 -38.670 -28.386  1.00  0.00    -0.285 OA
ATOM      5  C   UNL     1      56.197 -39.298 -26.452  1.00  0.00     0.069 A 
ATOM      6  C   UNL     1      55.101 -39.995 -25.899  1.00  0.00     0.142 A 
ATOM      7  O   UNL     1      54.221 -40.598 -26.692  1.00  0.00    -0.452 OA
ATOM      8  C   UNL     1      54.935 -40.053 -24.511  1.00  0.00     0.094 A 
ATOM      9  C   UNL     1      55.850 -39.419 -23.664  1.00  0.00     0.119 A 
ATOM     10  C   UNL     1      56.939 -38.724 -24.209  1.00  0.00     0.047 A 
ATOM     11  C   UNL     1      57.114 -38.662 -25.595  1.00  0.00     0.020 A 
ENDROOT
BRANCH   1  12
ATOM     12  C   UNL     1      53.257 -41.286 -28.793  1.00  0.00     0.025 A 
ATOM     13  C   UNL     1      53.369 -42.667 -29.016  1.00  0.00     0.016 A 
ATOM     14  C   UNL     1      52.379 -43.353 -29.725  1.00  0.00     0.051 A 
ATOM     15  C   UNL     1      51.257 -42.673 -30.209  1.00  0.00     0.157 A 
ATOM     16  C   UNL     1      52.117 -40.608 -29.262  1.00  0.00     0.062 A 
ATOM     17  C   UNL     1      51.122 -41.295 -29.974  1.00  0.00     0.158 A 
BRANCH  15  18
ATOM     18  O   UNL     1      50.287 -43.384 -30.915  1.00  0.00    -0.504 OA
ATOM     19  H   UNL     1      50.018 -44.327 -30.659  1.00  0.00     0.293 HD
ENDBRANCH  15  18
BRANCH  17  20
ATOM     20  O   UNL     1      49.998 -40.614 -30.441  1.00  0.00    -0.504 OA
ATOM     21  H   UNL     1      50.052 -39.976 -31.225  1.00  0.00     0.293 HD
ENDBRANCH  17  20
ENDBRANCH   1  12
BRANCH   2  22
ATOM     22  O   UNL     1      55.524 -39.964 -30.036  1.00  0.00    -0.502 OA
ATOM     23  H   UNL     1      54.842 -40.412 -30.638  1.00  0.00     0.293 HD
ENDBRANCH   2  22
BRANCH   9  24
ATOM     24  O   UNL     1      55.669 -39.486 -22.285  1.00  0.00    -0.508 OA
ATOM     25  H   UNL     1      54.957 -40.078 -21.873  1.00  0.00     0.293 HD
ENDBRANCH   9  24
TORSDOF 5
ENDMDL
