MODEL 1
REMARK VINA RESULT:    -0.037      0.000      0.000
REMARK INTER + INTRA:          -1.420
REMARK INTER:                  -0.047
REMARK INTRA:                  -1.373
REMARK UNBOUND:                -1.373
REMARK SMILES O[C@@H]1OC[C@@H](Cc2ccc3c(c2)OCO3)[C@@H]1Cc1ccc2c(c1)OCO2
REMARK SMILES IDX 4 1 5 2 16 3 2 4 3 5 6 6 7 7 12 8 8 9 11 10 9 11 10 12 13 13
REMARK SMILES IDX 15 14 14 15 17 16 18 17 23 18 19 19 22 20 20 21 21 22 24 23
REMARK SMILES IDX 26 24 25 25 1 26
REMARK H PARENT 1 27
REMARK Flexibility Score: inf
ROOT
ATOM      1  C   UNL     1     -23.674 -13.875 -16.495  1.00  0.00     0.168 C 
ATOM      2  C   UNL     1     -23.026 -14.856 -15.534  1.00  0.00     0.028 C 
ATOM      3  C   UNL     1     -24.205 -15.704 -15.075  1.00  0.00     0.055 C 
ATOM      4  C   UNL     1     -25.284 -15.425 -16.147  1.00  0.00     0.250 C 
ATOM      5  O   UNL     1     -24.778 -14.505 -17.089  1.00  0.00    -0.352 OA
ENDROOT
BRANCH   2   6
ATOM      6  C   UNL     1     -22.288 -14.116 -14.395  1.00  0.00     0.042 C 
BRANCH   6   7
ATOM      7  C   UNL     1     -20.909 -14.673 -14.157  1.00  0.00    -0.044 A 
ATOM      8  C   UNL     1     -19.948 -13.908 -13.460  1.00  0.00     0.054 A 
ATOM      9  C   UNL     1     -20.550 -15.944 -14.680  1.00  0.00     0.008 A 
ATOM     10  C   UNL     1     -18.669 -14.438 -13.320  1.00  0.00     0.166 A 
ATOM     11  C   UNL     1     -19.248 -16.445 -14.510  1.00  0.00     0.051 A 
ATOM     12  C   UNL     1     -18.334 -15.653 -13.821  1.00  0.00     0.165 A 
ATOM     13  O   UNL     1     -17.569 -13.878 -12.699  1.00  0.00    -0.454 OA
ATOM     14  O   UNL     1     -17.009 -15.921 -13.537  1.00  0.00    -0.454 OA
ATOM     15  C   UNL     1     -16.480 -14.805 -12.807  1.00  0.00     0.468 C 
ENDBRANCH   6   7
ENDBRANCH   2   6
BRANCH   3  16
ATOM     16  C   UNL     1     -23.816 -17.197 -14.905  1.00  0.00     0.044 C 
BRANCH  16  17
ATOM     17  C   UNL     1     -24.195 -17.734 -13.547  1.00  0.00    -0.044 A 
ATOM     18  C   UNL     1     -23.347 -17.508 -12.438  1.00  0.00     0.054 A 
ATOM     19  C   UNL     1     -25.384 -18.490 -13.375  1.00  0.00     0.008 A 
ATOM     20  C   UNL     1     -23.728 -18.030 -11.205  1.00  0.00     0.166 A 
ATOM     21  C   UNL     1     -25.730 -19.001 -12.111  1.00  0.00     0.051 A 
ATOM     22  C   UNL     1     -24.869 -18.744 -11.049  1.00  0.00     0.165 A 
ATOM     23  O   UNL     1     -23.072 -17.936  -9.993  1.00  0.00    -0.454 OA
ATOM     24  O   UNL     1     -24.991 -19.136  -9.729  1.00  0.00    -0.454 OA
ATOM     25  C   UNL     1     -23.854 -18.632  -9.013  1.00  0.00     0.468 C 
ENDBRANCH  16  17
ENDBRANCH   3  16
BRANCH   4  26
ATOM     26  O   UNL     1     -25.681 -16.590 -16.818  1.00  0.00    -0.368 OA
ATOM     27  H   UNL     1     -26.658 -16.682 -16.669  1.00  0.00     0.213 HD
ENDBRANCH   4  26
TORSDOF 5
ENDMDL
MODEL 2
REMARK VINA RESULT:     1.102      1.209      6.078
REMARK INTER + INTRA:           0.019
REMARK INTER:                   0.763
REMARK INTRA:                  -0.744
REMARK UNBOUND:                -1.373
REMARK SMILES O[C@@H]1OC[C@@H](Cc2ccc3c(c2)OCO3)[C@@H]1Cc1ccc2c(c1)OCO2
REMARK SMILES IDX 4 1 5 2 16 3 2 4 3 5 6 6 7 7 12 8 8 9 11 10 9 11 10 12 13 13
REMARK SMILES IDX 15 14 14 15 17 16 18 17 23 18 19 19 22 20 20 21 21 22 24 23
REMARK SMILES IDX 26 24 25 25 1 26
REMARK H PARENT 1 27
REMARK Flexibility Score: inf
ROOT
ATOM      1  C   UNL     1     -24.777 -16.874 -16.355  1.00  0.00     0.168 C 
ATOM      2  C   UNL     1     -23.841 -16.140 -15.412  1.00  0.00     0.028 C 
ATOM      3  C   UNL     1     -23.022 -15.273 -16.359  1.00  0.00     0.055 C 
ATOM      4  C   UNL     1     -23.870 -15.258 -17.652  1.00  0.00     0.250 C 
ATOM      5  O   UNL     1     -25.024 -16.048 -17.461  1.00  0.00    -0.352 OA
ENDROOT
BRANCH   2   6
ATOM      6  C   UNL     1     -23.007 -17.133 -14.570  1.00  0.00     0.042 C 
BRANCH   6   7
ATOM      7  C   UNL     1     -23.757 -17.619 -13.358  1.00  0.00    -0.044 A 
ATOM      8  C   UNL     1     -23.171 -17.520 -12.077  1.00  0.00     0.054 A 
ATOM      9  C   UNL     1     -25.031 -18.231 -13.503  1.00  0.00     0.008 A 
ATOM     10  C   UNL     1     -23.876 -18.041 -10.995  1.00  0.00     0.166 A 
ATOM     11  C   UNL     1     -25.712 -18.738 -12.382  1.00  0.00     0.051 A 
ATOM     12  C   UNL     1     -25.093 -18.623 -11.142  1.00  0.00     0.165 A 
ATOM     13  O   UNL     1     -23.508 -18.075  -9.664  1.00  0.00    -0.454 OA
ATOM     14  O   UNL     1     -25.553 -19.047  -9.910  1.00  0.00    -0.454 OA
ATOM     15  C   UNL     1     -24.565 -18.706  -8.928  1.00  0.00     0.468 C 
ENDBRANCH   6   7
ENDBRANCH   2   6
BRANCH   3  16
ATOM     16  C   UNL     1     -22.720 -13.876 -15.754  1.00  0.00     0.044 C 
BRANCH  16  17
ATOM     17  C   UNL     1     -21.681 -13.940 -14.662  1.00  0.00    -0.044 A 
ATOM     18  C   UNL     1     -20.307 -13.876 -14.990  1.00  0.00     0.054 A 
ATOM     19  C   UNL     1     -22.069 -14.093 -13.305  1.00  0.00     0.008 A 
ATOM     20  C   UNL     1     -19.382 -13.950 -13.953  1.00  0.00     0.166 A 
ATOM     21  C   UNL     1     -21.100 -14.166 -12.288  1.00  0.00     0.051 A 
ATOM     22  C   UNL     1     -19.762 -14.089 -12.659  1.00  0.00     0.165 A 
ATOM     23  O   UNL     1     -18.003 -13.905 -14.027  1.00  0.00    -0.454 OA
ATOM     24  O   UNL     1     -18.641 -14.137 -11.853  1.00  0.00    -0.454 OA
ATOM     25  C   UNL     1     -17.485 -14.018 -12.695  1.00  0.00     0.468 C 
ENDBRANCH  16  17
ENDBRANCH   3  16
BRANCH   4  26
ATOM     26  O   UNL     1     -24.262 -13.963 -18.016  1.00  0.00    -0.368 OA
ATOM     27  H   UNL     1     -23.467 -13.382 -17.891  1.00  0.00     0.213 HD
ENDBRANCH   4  26
TORSDOF 5
ENDMDL
