MODEL 1
REMARK VINA RESULT:    -4.317      0.000      0.000
REMARK INTER + INTRA:          -6.997
REMARK INTER:                  -5.957
REMARK INTRA:                  -1.040
REMARK UNBOUND:                -1.040
REMARK SMILES CCCCc1cccc(O)c1CCCC
REMARK SMILES IDX 5 1 11 2 9 3 8 4 7 5 6 6 4 7 3 8 2 9 1 10 12 11 13 12 14 13
REMARK SMILES IDX 15 14 10 15
REMARK H PARENT 10 16
REMARK Flexibility Score: inf
ROOT
ATOM      1  C   UNL     1     128.505 145.972 120.798  1.00  0.00    -0.041 A 
ATOM      2  C   UNL     1     129.543 146.092 121.770  1.00  0.00    -0.003 A 
ATOM      3  C   UNL     1     129.216 146.553 123.067  1.00  0.00     0.119 A 
ATOM      4  C   UNL     1     127.889 146.843 123.402  1.00  0.00     0.046 A 
ATOM      5  C   UNL     1     126.875 146.682 122.463  1.00  0.00     0.004 A 
ATOM      6  C   UNL     1     127.178 146.251 121.174  1.00  0.00     0.004 A 
ENDROOT
BRANCH   1   7
ATOM      7  C   UNL     1     128.751 145.557 119.360  1.00  0.00     0.036 C 
BRANCH   7   8
ATOM      8  C   UNL     1     127.943 144.304 118.991  1.00  0.00     0.004 C 
BRANCH   8   9
ATOM      9  C   UNL     1     128.389 143.061 119.777  1.00  0.00    -0.003 C 
ATOM     10  C   UNL     1     127.283 142.495 120.666  1.00  0.00     0.004 C 
ENDBRANCH   8   9
ENDBRANCH   7   8
ENDBRANCH   1   7
BRANCH   2  11
ATOM     11  C   UNL     1     130.985 145.707 121.484  1.00  0.00     0.040 C 
BRANCH  11  12
ATOM     12  C   UNL     1     131.757 146.878 120.850  1.00  0.00     0.005 C 
BRANCH  12  13
ATOM     13  C   UNL     1     132.804 146.412 119.828  1.00  0.00    -0.003 C 
ATOM     14  C   UNL     1     132.959 144.892 119.796  1.00  0.00     0.004 C 
ENDBRANCH  12  13
ENDBRANCH  11  12
ENDBRANCH   2  11
BRANCH   3  15
ATOM     15  O   UNL     1     130.217 146.724 124.025  1.00  0.00    -0.508 OA
ATOM     16  H   UNL     1     130.780 145.948 124.352  1.00  0.00     0.293 HD
ENDBRANCH   3  15
TORSDOF 7
ENDMDL
MODEL 2
REMARK VINA RESULT:    -4.281      1.866      2.881
REMARK INTER + INTRA:          -6.948
REMARK INTER:                  -6.205
REMARK INTRA:                  -0.743
REMARK UNBOUND:                -1.040
REMARK SMILES CCCCc1cccc(O)c1CCCC
REMARK SMILES IDX 5 1 11 2 9 3 8 4 7 5 6 6 4 7 3 8 2 9 1 10 12 11 13 12 14 13
REMARK SMILES IDX 15 14 10 15
REMARK H PARENT 10 16
REMARK Flexibility Score: inf
ROOT
ATOM      1  C   UNL     1     130.477 146.137 120.953  1.00  0.00    -0.041 A 
ATOM      2  C   UNL     1     131.847 146.532 121.015  1.00  0.00    -0.003 A 
ATOM      3  C   UNL     1     132.456 146.695 122.282  1.00  0.00     0.119 A 
ATOM      4  C   UNL     1     131.737 146.429 123.453  1.00  0.00     0.046 A 
ATOM      5  C   UNL     1     130.415 146.002 123.385  1.00  0.00     0.004 A 
ATOM      6  C   UNL     1     129.790 145.857 122.149  1.00  0.00     0.004 A 
ENDROOT
BRANCH   1   7
ATOM      7  C   UNL     1     129.705 146.001 119.655  1.00  0.00     0.036 C 
BRANCH   7   8
ATOM      8  C   UNL     1     129.108 144.595 119.501  1.00  0.00     0.004 C 
BRANCH   8   9
ATOM      9  C   UNL     1     127.638 144.623 119.055  1.00  0.00    -0.003 C 
ATOM     10  C   UNL     1     126.932 145.928 119.420  1.00  0.00     0.004 C 
ENDBRANCH   8   9
ENDBRANCH   7   8
ENDBRANCH   1   7
BRANCH   2  11
ATOM     11  C   UNL     1     132.698 146.749 119.775  1.00  0.00     0.040 C 
BRANCH  11  12
ATOM     12  C   UNL     1     133.549 145.505 119.461  1.00  0.00     0.005 C 
BRANCH  12  13
ATOM     13  C   UNL     1     134.823 145.844 118.674  1.00  0.00    -0.003 C 
ATOM     14  C   UNL     1     135.811 146.682 119.485  1.00  0.00     0.004 C 
ENDBRANCH  12  13
ENDBRANCH  11  12
ENDBRANCH   2  11
BRANCH   3  15
ATOM     15  O   UNL     1     133.781 147.125 122.376  1.00  0.00    -0.508 OA
ATOM     16  H   UNL     1     134.302 147.059 123.241  1.00  0.00     0.293 HD
ENDBRANCH   3  15
TORSDOF 7
ENDMDL
MODEL 3
REMARK VINA RESULT:    -4.192      1.939      4.585
REMARK INTER + INTRA:          -6.825
REMARK INTER:                  -5.353
REMARK INTRA:                  -1.473
REMARK UNBOUND:                -1.040
REMARK SMILES CCCCc1cccc(O)c1CCCC
REMARK SMILES IDX 5 1 11 2 9 3 8 4 7 5 6 6 4 7 3 8 2 9 1 10 12 11 13 12 14 13
REMARK SMILES IDX 15 14 10 15
REMARK H PARENT 10 16
REMARK Flexibility Score: inf
ROOT
ATOM      1  C   UNL     1     129.509 145.214 119.664  1.00  0.00    -0.041 A 
ATOM      2  C   UNL     1     130.218 144.003 119.930  1.00  0.00    -0.003 A 
ATOM      3  C   UNL     1     131.624 144.053 120.079  1.00  0.00     0.119 A 
ATOM      4  C   UNL     1     132.302 145.275 120.013  1.00  0.00     0.046 A 
ATOM      5  C   UNL     1     131.600 146.457 119.798  1.00  0.00     0.004 A 
ATOM      6  C   UNL     1     130.218 146.428 119.626  1.00  0.00     0.004 A 
ENDROOT
BRANCH   1   7
ATOM      7  C   UNL     1     128.014 145.268 119.416  1.00  0.00     0.036 C 
BRANCH   7   8
ATOM      8  C   UNL     1     127.314 146.202 120.413  1.00  0.00     0.004 C 
BRANCH   8   9
ATOM      9  C   UNL     1     127.253 145.614 121.832  1.00  0.00    -0.003 C 
ATOM     10  C   UNL     1     128.111 146.390 122.831  1.00  0.00     0.004 C 
ENDBRANCH   8   9
ENDBRANCH   7   8
ENDBRANCH   1   7
BRANCH   2  11
ATOM     11  C   UNL     1     129.523 142.663 120.098  1.00  0.00     0.040 C 
BRANCH  11  12
ATOM     12  C   UNL     1     129.154 142.409 121.571  1.00  0.00     0.005 C 
BRANCH  12  13
ATOM     13  C   UNL     1     127.721 141.884 121.740  1.00  0.00    -0.003 C 
ATOM     14  C   UNL     1     126.918 141.937 120.441  1.00  0.00     0.004 C 
ENDBRANCH  12  13
ENDBRANCH  11  12
ENDBRANCH   2  11
BRANCH   3  15
ATOM     15  O   UNL     1     132.350 142.879 120.294  1.00  0.00    -0.508 OA
ATOM     16  H   UNL     1     132.121 142.241 121.046  1.00  0.00     0.293 HD
ENDBRANCH   3  15
TORSDOF 7
ENDMDL
MODEL 4
REMARK VINA RESULT:    -4.114     11.635     14.739
REMARK INTER + INTRA:          -6.717
REMARK INTER:                  -5.638
REMARK INTRA:                  -1.079
REMARK UNBOUND:                -1.040
REMARK SMILES CCCCc1cccc(O)c1CCCC
REMARK SMILES IDX 5 1 11 2 9 3 8 4 7 5 6 6 4 7 3 8 2 9 1 10 12 11 13 12 14 13
REMARK SMILES IDX 15 14 10 15
REMARK H PARENT 10 16
REMARK Flexibility Score: inf
ROOT
ATOM      1  C   UNL     1     143.761 145.965 121.045  1.00  0.00    -0.041 A 
ATOM      2  C   UNL     1     144.527 144.761 121.057  1.00  0.00    -0.003 A 
ATOM      3  C   UNL     1     144.901 144.199 122.301  1.00  0.00     0.119 A 
ATOM      4  C   UNL     1     144.486 144.791 123.499  1.00  0.00     0.046 A 
ATOM      5  C   UNL     1     143.702 145.941 123.481  1.00  0.00     0.004 A 
ATOM      6  C   UNL     1     143.343 146.522 122.267  1.00  0.00     0.004 A 
ENDROOT
BRANCH   1   7
ATOM      7  C   UNL     1     143.367 146.691 119.774  1.00  0.00     0.036 C 
BRANCH   7   8
ATOM      8  C   UNL     1     141.842 146.820 119.651  1.00  0.00     0.004 C 
BRANCH   8   9
ATOM      9  C   UNL     1     141.158 145.477 119.350  1.00  0.00    -0.003 C 
ATOM     10  C   UNL     1     140.193 145.043 120.453  1.00  0.00     0.004 C 
ENDBRANCH   8   9
ENDBRANCH   7   8
ENDBRANCH   1   7
BRANCH   2  11
ATOM     11  C   UNL     1     144.929 144.029 119.787  1.00  0.00     0.040 C 
BRANCH  11  12
ATOM     12  C   UNL     1     143.936 142.899 119.459  1.00  0.00     0.005 C 
BRANCH  12  13
ATOM     13  C   UNL     1     144.584 141.754 118.668  1.00  0.00    -0.003 C 
ATOM     14  C   UNL     1     145.798 141.159 119.381  1.00  0.00     0.004 C 
ENDBRANCH  12  13
ENDBRANCH  11  12
ENDBRANCH   2  11
BRANCH   3  15
ATOM     15  O   UNL     1     145.688 143.047 122.344  1.00  0.00    -0.508 OA
ATOM     16  H   UNL     1     146.402 142.863 121.649  1.00  0.00     0.293 HD
ENDBRANCH   3  15
TORSDOF 7
ENDMDL
MODEL 5
REMARK VINA RESULT:    -4.016      2.596      4.605
REMARK INTER + INTRA:          -6.582
REMARK INTER:                  -5.189
REMARK INTRA:                  -1.393
REMARK UNBOUND:                -1.040
REMARK SMILES CCCCc1cccc(O)c1CCCC
REMARK SMILES IDX 5 1 11 2 9 3 8 4 7 5 6 6 4 7 3 8 2 9 1 10 12 11 13 12 14 13
REMARK SMILES IDX 15 14 10 15
REMARK H PARENT 10 16
REMARK Flexibility Score: inf
ROOT
ATOM      1  C   UNL     1     128.610 144.521 122.911  1.00  0.00    -0.041 A 
ATOM      2  C   UNL     1     128.005 143.418 122.237  1.00  0.00    -0.003 A 
ATOM      3  C   UNL     1     127.976 142.157 122.878  1.00  0.00     0.119 A 
ATOM      4  C   UNL     1     128.491 142.006 124.170  1.00  0.00     0.046 A 
ATOM      5  C   UNL     1     129.040 143.096 124.840  1.00  0.00     0.004 A 
ATOM      6  C   UNL     1     129.099 144.341 124.218  1.00  0.00     0.004 A 
ENDROOT
BRANCH   1   7
ATOM      7  C   UNL     1     128.761 145.897 122.292  1.00  0.00     0.036 C 
BRANCH   7   8
ATOM      8  C   UNL     1     130.234 146.230 122.016  1.00  0.00     0.004 C 
BRANCH   8   9
ATOM      9  C   UNL     1     130.540 146.361 120.516  1.00  0.00    -0.003 C 
ATOM     10  C   UNL     1     131.515 145.296 120.015  1.00  0.00     0.004 C 
ENDBRANCH   8   9
ENDBRANCH   7   8
ENDBRANCH   1   7
BRANCH   2  11
ATOM     11  C   UNL     1     127.353 143.546 120.871  1.00  0.00     0.040 C 
BRANCH  11  12
ATOM     12  C   UNL     1     128.385 143.358 119.743  1.00  0.00     0.005 C 
BRANCH  12  13
ATOM     13  C   UNL     1     128.149 144.310 118.561  1.00  0.00    -0.003 C 
ATOM     14  C   UNL     1     127.260 145.498 118.930  1.00  0.00     0.004 C 
ENDBRANCH  12  13
ENDBRANCH  11  12
ENDBRANCH   2  11
BRANCH   3  15
ATOM     15  O   UNL     1     127.432 141.049 122.225  1.00  0.00    -0.508 OA
ATOM     16  H   UNL     1     127.794 140.723 121.338  1.00  0.00     0.293 HD
ENDBRANCH   3  15
TORSDOF 7
ENDMDL
MODEL 6
REMARK VINA RESULT:    -4.007      1.697      3.695
REMARK INTER + INTRA:          -6.569
REMARK INTER:                  -5.251
REMARK INTRA:                  -1.318
REMARK UNBOUND:                -1.040
REMARK SMILES CCCCc1cccc(O)c1CCCC
REMARK SMILES IDX 5 1 11 2 9 3 8 4 7 5 6 6 4 7 3 8 2 9 1 10 12 11 13 12 14 13
REMARK SMILES IDX 15 14 10 15
REMARK H PARENT 10 16
REMARK Flexibility Score: inf
ROOT
ATOM      1  C   UNL     1     130.031 146.133 121.934  1.00  0.00    -0.041 A 
ATOM      2  C   UNL     1     128.646 145.940 122.216  1.00  0.00    -0.003 A 
ATOM      3  C   UNL     1     128.217 145.929 123.565  1.00  0.00     0.119 A 
ATOM      4  C   UNL     1     129.131 146.150 124.601  1.00  0.00     0.046 A 
ATOM      5  C   UNL     1     130.473 146.383 124.317  1.00  0.00     0.004 A 
ATOM      6  C   UNL     1     130.920 146.375 122.998  1.00  0.00     0.004 A 
ENDROOT
BRANCH   1   7
ATOM      7  C   UNL     1     130.611 146.092 120.534  1.00  0.00     0.036 C 
BRANCH   7   8
ATOM      8  C   UNL     1     131.780 145.100 120.439  1.00  0.00     0.004 C 
BRANCH   8   9
ATOM      9  C   UNL     1     131.326 143.638 120.571  1.00  0.00    -0.003 C 
ATOM     10  C   UNL     1     131.167 142.942 119.220  1.00  0.00     0.004 C 
ENDBRANCH   8   9
ENDBRANCH   7   8
ENDBRANCH   1   7
BRANCH   2  11
ATOM     11  C   UNL     1     127.598 145.782 121.127  1.00  0.00     0.040 C 
BRANCH  11  12
ATOM     12  C   UNL     1     127.314 144.296 120.841  1.00  0.00     0.005 C 
BRANCH  12  13
ATOM     13  C   UNL     1     127.646 143.898 119.395  1.00  0.00    -0.003 C 
ATOM     14  C   UNL     1     127.811 145.108 118.475  1.00  0.00     0.004 C 
ENDBRANCH  12  13
ENDBRANCH  11  12
ENDBRANCH   2  11
BRANCH   3  15
ATOM     15  O   UNL     1     126.876 145.696 123.875  1.00  0.00    -0.508 OA
ATOM     16  H   UNL     1     126.480 145.970 124.765  1.00  0.00     0.293 HD
ENDBRANCH   3  15
TORSDOF 7
ENDMDL
MODEL 7
REMARK VINA RESULT:    -4.003      1.449      3.828
REMARK INTER + INTRA:          -6.565
REMARK INTER:                  -5.503
REMARK INTRA:                  -1.062
REMARK UNBOUND:                -1.040
REMARK SMILES CCCCc1cccc(O)c1CCCC
REMARK SMILES IDX 5 1 11 2 9 3 8 4 7 5 6 6 4 7 3 8 2 9 1 10 12 11 13 12 14 13
REMARK SMILES IDX 15 14 10 15
REMARK H PARENT 10 16
REMARK Flexibility Score: inf
ROOT
ATOM      1  C   UNL     1     129.036 145.989 120.438  1.00  0.00    -0.041 A 
ATOM      2  C   UNL     1     129.330 146.170 121.823  1.00  0.00    -0.003 A 
ATOM      3  C   UNL     1     130.669 146.410 122.213  1.00  0.00     0.119 A 
ATOM      4  C   UNL     1     131.679 146.514 121.251  1.00  0.00     0.046 A 
ATOM      5  C   UNL     1     131.379 146.381 119.899  1.00  0.00     0.004 A 
ATOM      6  C   UNL     1     130.072 146.122 119.495  1.00  0.00     0.004 A 
ENDROOT
BRANCH   1   7
ATOM      7  C   UNL     1     127.652 145.657 119.915  1.00  0.00     0.036 C 
BRANCH   7   8
ATOM      8  C   UNL     1     127.649 144.334 119.136  1.00  0.00     0.004 C 
BRANCH   8   9
ATOM      9  C   UNL     1     127.471 143.110 120.048  1.00  0.00    -0.003 C 
ATOM     10  C   UNL     1     128.771 142.337 120.262  1.00  0.00     0.004 C 
ENDBRANCH   8   9
ENDBRANCH   7   8
ENDBRANCH   1   7
BRANCH   2  11
ATOM     11  C   UNL     1     128.259 146.154 122.900  1.00  0.00     0.040 C 
BRANCH  11  12
ATOM     12  C   UNL     1     128.039 144.730 123.444  1.00  0.00     0.005 C 
BRANCH  12  13
ATOM     13  C   UNL     1     128.349 144.616 124.944  1.00  0.00    -0.003 C 
ATOM     14  C   UNL     1     127.219 145.153 125.821  1.00  0.00     0.004 C 
ENDBRANCH  12  13
ENDBRANCH  11  12
ENDBRANCH   2  11
BRANCH   3  15
ATOM     15  O   UNL     1     130.995 146.545 123.564  1.00  0.00    -0.508 OA
ATOM     16  H   UNL     1     131.376 147.405 123.937  1.00  0.00     0.293 HD
ENDBRANCH   3  15
TORSDOF 7
ENDMDL
MODEL 8
REMARK VINA RESULT:    -3.928      1.435      4.324
REMARK INTER + INTRA:          -6.461
REMARK INTER:                  -5.717
REMARK INTRA:                  -0.744
REMARK UNBOUND:                -1.040
REMARK SMILES CCCCc1cccc(O)c1CCCC
REMARK SMILES IDX 5 1 11 2 9 3 8 4 7 5 6 6 4 7 3 8 2 9 1 10 12 11 13 12 14 13
REMARK SMILES IDX 15 14 10 15
REMARK H PARENT 10 16
REMARK Flexibility Score: inf
ROOT
ATOM      1  C   UNL     1     130.120 146.084 121.638  1.00  0.00    -0.041 A 
ATOM      2  C   UNL     1     128.728 145.945 121.923  1.00  0.00    -0.003 A 
ATOM      3  C   UNL     1     128.301 145.953 123.272  1.00  0.00     0.119 A 
ATOM      4  C   UNL     1     129.225 146.140 124.306  1.00  0.00     0.046 A 
ATOM      5  C   UNL     1     130.575 146.320 124.020  1.00  0.00     0.004 A 
ATOM      6  C   UNL     1     131.019 146.292 122.700  1.00  0.00     0.004 A 
ENDROOT
BRANCH   1   7
ATOM      7  C   UNL     1     130.696 146.019 120.237  1.00  0.00     0.036 C 
BRANCH   7   8
ATOM      8  C   UNL     1     132.047 146.743 120.151  1.00  0.00     0.004 C 
BRANCH   8   9
ATOM      9  C   UNL     1     133.198 145.803 119.760  1.00  0.00    -0.003 C 
ATOM     10  C   UNL     1     134.341 146.529 119.053  1.00  0.00     0.004 C 
ENDBRANCH   8   9
ENDBRANCH   7   8
ENDBRANCH   1   7
BRANCH   2  11
ATOM     11  C   UNL     1     127.674 145.827 120.835  1.00  0.00     0.040 C 
BRANCH  11  12
ATOM     12  C   UNL     1     127.285 144.357 120.596  1.00  0.00     0.005 C 
BRANCH  12  13
ATOM     13  C   UNL     1     127.725 143.846 119.216  1.00  0.00    -0.003 C 
ATOM     14  C   UNL     1     127.893 144.973 118.197  1.00  0.00     0.004 C 
ENDBRANCH  12  13
ENDBRANCH  11  12
ENDBRANCH   2  11
BRANCH   3  15
ATOM     15  O   UNL     1     126.952 145.773 123.584  1.00  0.00    -0.508 OA
ATOM     16  H   UNL     1     126.223 146.292 123.111  1.00  0.00     0.293 HD
ENDBRANCH   3  15
TORSDOF 7
ENDMDL
MODEL 9
REMARK VINA RESULT:    -3.898      1.409      4.083
REMARK INTER + INTRA:          -6.420
REMARK INTER:                  -5.134
REMARK INTRA:                  -1.285
REMARK UNBOUND:                -1.040
REMARK SMILES CCCCc1cccc(O)c1CCCC
REMARK SMILES IDX 5 1 11 2 9 3 8 4 7 5 6 6 4 7 3 8 2 9 1 10 12 11 13 12 14 13
REMARK SMILES IDX 15 14 10 15
REMARK H PARENT 10 16
REMARK Flexibility Score: inf
ROOT
ATOM      1  C   UNL     1     131.119 146.190 120.511  1.00  0.00    -0.041 A 
ATOM      2  C   UNL     1     131.135 146.321 121.932  1.00  0.00    -0.003 A 
ATOM      3  C   UNL     1     132.379 146.468 122.591  1.00  0.00     0.119 A 
ATOM      4  C   UNL     1     133.568 146.529 121.856  1.00  0.00     0.046 A 
ATOM      5  C   UNL     1     133.541 146.444 120.468  1.00  0.00     0.004 A 
ATOM      6  C   UNL     1     132.330 146.277 119.801  1.00  0.00     0.004 A 
ENDROOT
BRANCH   1   7
ATOM      7  C   UNL     1     129.853 145.956 119.709  1.00  0.00     0.036 C 
BRANCH   7   8
ATOM      8  C   UNL     1     129.638 144.464 119.421  1.00  0.00     0.004 C 
BRANCH   8   9
ATOM      9  C   UNL     1     128.213 144.153 118.940  1.00  0.00    -0.003 C 
ATOM     10  C   UNL     1     127.310 145.387 118.927  1.00  0.00     0.004 C 
ENDBRANCH   8   9
ENDBRANCH   7   8
ENDBRANCH   1   7
BRANCH   2  11
ATOM     11  C   UNL     1     129.869 146.350 122.770  1.00  0.00     0.040 C 
BRANCH  11  12
ATOM     12  C   UNL     1     129.389 144.925 123.100  1.00  0.00     0.005 C 
BRANCH  12  13
ATOM     13  C   UNL     1     127.919 144.692 122.719  1.00  0.00    -0.003 C 
ATOM     14  C   UNL     1     127.137 145.997 122.570  1.00  0.00     0.004 C 
ENDBRANCH  12  13
ENDBRANCH  11  12
ENDBRANCH   2  11
BRANCH   3  15
ATOM     15  O   UNL     1     132.431 146.553 123.984  1.00  0.00    -0.508 OA
ATOM     16  H   UNL     1     133.311 146.610 124.482  1.00  0.00     0.293 HD
ENDBRANCH   3  15
TORSDOF 7
ENDMDL
