MODEL 1
REMARK VINA RESULT:     2.274      0.000      0.000
REMARK INTER + INTRA:           2.565
REMARK INTER:                   4.267
REMARK INTRA:                  -1.702
REMARK UNBOUND:                -1.702
REMARK SMILES CCCCCCCCC=CCCCCCCCC(=O)[O-]
REMARK SMILES IDX 10 1 9 2 11 3 12 4 13 5 14 6 15 7 16 8 17 9 18 10 19 11
REMARK SMILES IDX 20 12 8 13 7 14 6 15 5 16 4 17 3 18 2 19 1 20
REMARK H PARENT
REMARK Flexibility Score: inf
ROOT
ATOM      1  C   UNL     1       4.729 132.453 154.115  1.00  0.00    -0.031 C 
ATOM      2  C   UNL     1       3.678 131.622 154.237  1.00  0.00    -0.031 C 
ENDROOT
BRANCH   1   3
ATOM      3  C   UNL     1       4.755 133.873 154.628  1.00  0.00     0.027 C 
BRANCH   3   4
ATOM      4  C   UNL     1       4.325 134.894 153.556  1.00  0.00     0.004 C 
BRANCH   4   5
ATOM      5  C   UNL     1       3.957 136.275 154.127  1.00  0.00     0.000 C 
BRANCH   5   6
ATOM      6  C   UNL     1       3.632 136.232 155.630  1.00  0.00     0.000 C 
BRANCH   6   7
ATOM      7  C   UNL     1       2.256 135.610 155.918  1.00  0.00     0.000 C 
BRANCH   7   8
ATOM      8  C   UNL     1       1.505 136.331 157.050  1.00  0.00     0.006 C 
BRANCH   8   9
ATOM      9  C   UNL     1       2.400 137.336 157.788  1.00  0.00     0.053 C 
BRANCH   9  10
ATOM     10  C   UNL     1       1.962 137.531 159.207  1.00  0.00     0.041 C 
ATOM     11  O   UNL     1       1.479 136.569 159.860  1.00  0.00    -0.550 OA
ATOM     12  O   UNL     1       2.115 138.769 159.818  1.00  0.00    -0.550 OA
ENDBRANCH   9  10
ENDBRANCH   8   9
ENDBRANCH   7   8
ENDBRANCH   6   7
ENDBRANCH   5   6
ENDBRANCH   4   5
ENDBRANCH   3   4
ENDBRANCH   1   3
BRANCH   2  13
ATOM     13  C   UNL     1       2.369 132.019 154.876  1.00  0.00     0.027 C 
BRANCH  13  14
ATOM     14  C   UNL     1       1.446 132.708 153.860  1.00  0.00     0.004 C 
BRANCH  14  15
ATOM     15  C   UNL     1       1.628 132.164 152.434  1.00  0.00     0.000 C 
BRANCH  15  16
ATOM     16  C   UNL     1       1.712 133.282 151.380  1.00  0.00     0.000 C 
BRANCH  16  17
ATOM     17  C   UNL     1       3.151 133.541 150.909  1.00  0.00    -0.000 C 
BRANCH  17  18
ATOM     18  C   UNL     1       3.778 132.314 150.224  1.00  0.00    -0.000 C 
BRANCH  18  19
ATOM     19  C   UNL     1       5.068 131.848 150.917  1.00  0.00    -0.003 C 
ATOM     20  C   UNL     1       6.085 132.976 151.090  1.00  0.00     0.004 C 
ENDBRANCH  18  19
ENDBRANCH  17  18
ENDBRANCH  16  17
ENDBRANCH  15  16
ENDBRANCH  14  15
ENDBRANCH  13  14
ENDBRANCH   2  13
TORSDOF 15
ENDMDL
MODEL 2
REMARK VINA RESULT:     2.392      3.397      7.287
REMARK INTER + INTRA:           2.788
REMARK INTER:                   3.568
REMARK INTRA:                  -0.780
REMARK UNBOUND:                -1.702
REMARK SMILES CCCCCCCCC=CCCCCCCCC(=O)[O-]
REMARK SMILES IDX 10 1 9 2 11 3 12 4 13 5 14 6 15 7 16 8 17 9 18 10 19 11
REMARK SMILES IDX 20 12 8 13 7 14 6 15 5 16 4 17 3 18 2 19 1 20
REMARK H PARENT
REMARK Flexibility Score: inf
ROOT
ATOM      1  C   UNL     1       3.861 132.430 154.872  1.00  0.00    -0.031 C 
ATOM      2  C   UNL     1       4.579 133.474 154.417  1.00  0.00    -0.031 C 
ENDROOT
BRANCH   1   3
ATOM      3  C   UNL     1       2.406 132.191 154.544  1.00  0.00     0.027 C 
BRANCH   3   4
ATOM      4  C   UNL     1       2.196 131.768 153.076  1.00  0.00     0.004 C 
BRANCH   4   5
ATOM      5  C   UNL     1       1.018 132.478 152.388  1.00  0.00     0.000 C 
BRANCH   5   6
ATOM      6  C   UNL     1       1.458 133.337 151.190  1.00  0.00     0.000 C 
BRANCH   6   7
ATOM      7  C   UNL     1       2.981 133.323 150.982  1.00  0.00     0.000 C 
BRANCH   7   8
ATOM      8  C   UNL     1       3.391 132.664 149.653  1.00  0.00     0.006 C 
BRANCH   8   9
ATOM      9  C   UNL     1       4.676 131.837 149.791  1.00  0.00     0.053 C 
BRANCH   9  10
ATOM     10  C   UNL     1       5.286 131.982 151.151  1.00  0.00     0.041 C 
ATOM     11  O   UNL     1       5.062 131.122 152.043  1.00  0.00    -0.550 OA
ATOM     12  O   UNL     1       6.127 133.054 151.425  1.00  0.00    -0.550 OA
ENDBRANCH   9  10
ENDBRANCH   8   9
ENDBRANCH   7   8
ENDBRANCH   6   7
ENDBRANCH   5   6
ENDBRANCH   4   5
ENDBRANCH   3   4
ENDBRANCH   1   3
BRANCH   2  13
ATOM     13  C   UNL     1       4.007 134.565 153.545  1.00  0.00     0.027 C 
BRANCH  13  14
ATOM     14  C   UNL     1       4.192 135.945 154.195  1.00  0.00     0.004 C 
BRANCH  14  15
ATOM     15  C   UNL     1       3.724 135.975 155.659  1.00  0.00     0.000 C 
BRANCH  15  16
ATOM     16  C   UNL     1       2.221 135.678 155.807  1.00  0.00     0.000 C 
BRANCH  16  17
ATOM     17  C   UNL     1       1.637 136.235 157.114  1.00  0.00    -0.000 C 
BRANCH  17  18
ATOM     18  C   UNL     1       2.509 137.347 157.724  1.00  0.00    -0.000 C 
BRANCH  18  19
ATOM     19  C   UNL     1       1.894 137.943 159.000  1.00  0.00    -0.003 C 
ATOM     20  C   UNL     1       1.495 136.875 160.018  1.00  0.00     0.004 C 
ENDBRANCH  18  19
ENDBRANCH  17  18
ENDBRANCH  16  17
ENDBRANCH  15  16
ENDBRANCH  14  15
ENDBRANCH  13  14
ENDBRANCH   2  13
TORSDOF 15
ENDMDL
MODEL 3
REMARK VINA RESULT:     2.747      3.521      7.369
REMARK INTER + INTRA:           3.454
REMARK INTER:                   2.579
REMARK INTRA:                   0.876
REMARK UNBOUND:                -1.702
REMARK SMILES CCCCCCCCC=CCCCCCCCC(=O)[O-]
REMARK SMILES IDX 10 1 9 2 11 3 12 4 13 5 14 6 15 7 16 8 17 9 18 10 19 11
REMARK SMILES IDX 20 12 8 13 7 14 6 15 5 16 4 17 3 18 2 19 1 20
REMARK H PARENT
REMARK Flexibility Score: inf
ROOT
ATOM      1  C   UNL     1       4.602 134.180 153.275  1.00  0.00    -0.031 C 
ATOM      2  C   UNL     1       4.248 135.479 153.279  1.00  0.00    -0.031 C 
ENDROOT
BRANCH   1   3
ATOM      3  C   UNL     1       4.661 133.310 154.508  1.00  0.00     0.027 C 
BRANCH   3   4
ATOM      4  C   UNL     1       3.907 131.978 154.324  1.00  0.00     0.004 C 
BRANCH   4   5
ATOM      5  C   UNL     1       2.388 132.089 154.541  1.00  0.00     0.000 C 
BRANCH   5   6
ATOM      6  C   UNL     1       1.665 132.760 153.361  1.00  0.00     0.000 C 
BRANCH   6   7
ATOM      7  C   UNL     1       2.013 132.114 152.011  1.00  0.00     0.000 C 
BRANCH   7   8
ATOM      8  C   UNL     1       2.727 133.085 151.056  1.00  0.00     0.006 C 
BRANCH   8   9
ATOM      9  C   UNL     1       3.773 132.376 150.185  1.00  0.00     0.053 C 
BRANCH   9  10
ATOM     10  C   UNL     1       5.043 132.125 150.938  1.00  0.00     0.041 C 
ATOM     11  O   UNL     1       5.974 132.971 150.912  1.00  0.00    -0.550 OA
ATOM     12  O   UNL     1       5.185 130.969 151.695  1.00  0.00    -0.550 OA
ENDBRANCH   9  10
ENDBRANCH   8   9
ENDBRANCH   7   8
ENDBRANCH   6   7
ENDBRANCH   5   6
ENDBRANCH   4   5
ENDBRANCH   3   4
ENDBRANCH   1   3
BRANCH   2  13
ATOM     13  C   UNL     1       3.898 136.245 154.533  1.00  0.00     0.027 C 
BRANCH  13  14
ATOM     14  C   UNL     1       3.506 135.290 155.671  1.00  0.00     0.004 C 
BRANCH  14  15
ATOM     15  C   UNL     1       2.006 135.351 156.002  1.00  0.00     0.000 C 
BRANCH  15  16
ATOM     16  C   UNL     1       1.620 136.628 156.769  1.00  0.00     0.000 C 
BRANCH  16  17
ATOM     17  C   UNL     1       2.750 137.132 157.680  1.00  0.00    -0.000 C 
BRANCH  17  18
ATOM     18  C   UNL     1       2.257 138.150 158.723  1.00  0.00    -0.000 C 
BRANCH  18  19
ATOM     19  C   UNL     1       1.412 137.499 159.829  1.00  0.00    -0.003 C 
ATOM     20  C   UNL     1       1.817 136.051 160.105  1.00  0.00     0.004 C 
ENDBRANCH  18  19
ENDBRANCH  17  18
ENDBRANCH  16  17
ENDBRANCH  15  16
ENDBRANCH  14  15
ENDBRANCH  13  14
ENDBRANCH   2  13
TORSDOF 15
ENDMDL
MODEL 4
REMARK VINA RESULT:     2.755      2.198      6.467
REMARK INTER + INTRA:           3.469
REMARK INTER:                   4.378
REMARK INTRA:                  -0.909
REMARK UNBOUND:                -1.702
REMARK SMILES CCCCCCCCC=CCCCCCCCC(=O)[O-]
REMARK SMILES IDX 10 1 9 2 11 3 12 4 13 5 14 6 15 7 16 8 17 9 18 10 19 11
REMARK SMILES IDX 20 12 8 13 7 14 6 15 5 16 4 17 3 18 2 19 1 20
REMARK H PARENT
REMARK Flexibility Score: inf
ROOT
ATOM      1  C   UNL     1       5.207 132.993 153.295  1.00  0.00    -0.031 C 
ATOM      2  C   UNL     1       4.655 134.036 153.943  1.00  0.00    -0.031 C 
ENDROOT
BRANCH   1   3
ATOM      3  C   UNL     1       5.624 133.017 151.844  1.00  0.00     0.027 C 
BRANCH   3   4
ATOM      4  C   UNL     1       5.044 131.832 151.046  1.00  0.00     0.004 C 
BRANCH   4   5
ATOM      5  C   UNL     1       3.908 132.228 150.087  1.00  0.00     0.000 C 
BRANCH   5   6
ATOM      6  C   UNL     1       2.996 133.324 150.663  1.00  0.00     0.000 C 
BRANCH   6   7
ATOM      7  C   UNL     1       1.693 132.759 151.251  1.00  0.00     0.000 C 
BRANCH   7   8
ATOM      8  C   UNL     1       1.626 132.897 152.782  1.00  0.00     0.006 C 
BRANCH   8   9
ATOM      9  C   UNL     1       2.282 131.710 153.499  1.00  0.00     0.053 C 
BRANCH   9  10
ATOM     10  C   UNL     1       2.446 131.969 154.965  1.00  0.00     0.041 C 
ATOM     11  O   UNL     1       1.630 132.709 155.574  1.00  0.00    -0.550 OA
ATOM     12  O   UNL     1       3.486 131.369 155.665  1.00  0.00    -0.550 OA
ENDBRANCH   9  10
ENDBRANCH   8   9
ENDBRANCH   7   8
ENDBRANCH   6   7
ENDBRANCH   5   6
ENDBRANCH   4   5
ENDBRANCH   3   4
ENDBRANCH   1   3
BRANCH   2  13
ATOM     13  C   UNL     1       4.348 135.360 153.285  1.00  0.00     0.027 C 
BRANCH  13  14
ATOM     14  C   UNL     1       3.974 136.421 154.330  1.00  0.00     0.004 C 
BRANCH  14  15
ATOM     15  C   UNL     1       3.573 135.805 155.680  1.00  0.00     0.000 C 
BRANCH  15  16
ATOM     16  C   UNL     1       2.067 135.941 155.969  1.00  0.00     0.000 C 
BRANCH  16  17
ATOM     17  C   UNL     1       1.778 136.288 157.437  1.00  0.00    -0.000 C 
BRANCH  17  18
ATOM     18  C   UNL     1       2.317 137.673 157.834  1.00  0.00    -0.000 C 
BRANCH  18  19
ATOM     19  C   UNL     1       1.979 138.043 159.287  1.00  0.00    -0.003 C 
ATOM     20  C   UNL     1       1.470 136.850 160.096  1.00  0.00     0.004 C 
ENDBRANCH  18  19
ENDBRANCH  17  18
ENDBRANCH  16  17
ENDBRANCH  15  16
ENDBRANCH  14  15
ENDBRANCH  13  14
ENDBRANCH   2  13
TORSDOF 15
ENDMDL
MODEL 5
REMARK VINA RESULT:     2.811      3.659      7.502
REMARK INTER + INTRA:           3.574
REMARK INTER:                   4.033
REMARK INTRA:                  -0.460
REMARK UNBOUND:                -1.702
REMARK SMILES CCCCCCCCC=CCCCCCCCC(=O)[O-]
REMARK SMILES IDX 10 1 9 2 11 3 12 4 13 5 14 6 15 7 16 8 17 9 18 10 19 11
REMARK SMILES IDX 20 12 8 13 7 14 6 15 5 16 4 17 3 18 2 19 1 20
REMARK H PARENT
REMARK Flexibility Score: inf
ROOT
ATOM      1  C   UNL     1       4.531 134.246 153.585  1.00  0.00    -0.031 C 
ATOM      2  C   UNL     1       4.059 135.445 153.973  1.00  0.00    -0.031 C 
ENDROOT
BRANCH   1   3
ATOM      3  C   UNL     1       4.853 133.113 154.530  1.00  0.00     0.027 C 
BRANCH   3   4
ATOM      4  C   UNL     1       3.961 131.878 154.293  1.00  0.00     0.004 C 
BRANCH   4   5
ATOM      5  C   UNL     1       2.505 132.067 154.752  1.00  0.00     0.000 C 
BRANCH   5   6
ATOM      6  C   UNL     1       1.626 132.739 153.684  1.00  0.00     0.000 C 
BRANCH   6   7
ATOM      7  C   UNL     1       1.732 132.050 152.314  1.00  0.00     0.000 C 
BRANCH   7   8
ATOM      8  C   UNL     1       2.096 133.030 151.185  1.00  0.00     0.006 C 
BRANCH   8   9
ATOM      9  C   UNL     1       3.600 133.331 151.144  1.00  0.00     0.053 C 
BRANCH   9  10
ATOM     10  C   UNL     1       4.380 132.182 150.582  1.00  0.00     0.041 C 
ATOM     11  O   UNL     1       4.238 131.847 149.378  1.00  0.00    -0.550 OA
ATOM     12  O   UNL     1       5.287 131.500 151.384  1.00  0.00    -0.550 OA
ENDBRANCH   9  10
ENDBRANCH   8   9
ENDBRANCH   7   8
ENDBRANCH   6   7
ENDBRANCH   5   6
ENDBRANCH   4   5
ENDBRANCH   3   4
ENDBRANCH   1   3
BRANCH   2  13
ATOM     13  C   UNL     1       3.825 135.825 155.415  1.00  0.00     0.027 C 
BRANCH  13  14
ATOM     14  C   UNL     1       2.419 135.409 155.873  1.00  0.00     0.004 C 
BRANCH  14  15
ATOM     15  C   UNL     1       1.767 136.449 156.798  1.00  0.00     0.000 C 
BRANCH  15  16
ATOM     16  C   UNL     1       2.802 137.262 157.596  1.00  0.00     0.000 C 
BRANCH  16  17
ATOM     17  C   UNL     1       2.151 138.177 158.644  1.00  0.00    -0.000 C 
BRANCH  17  18
ATOM     18  C   UNL     1       1.339 137.393 159.690  1.00  0.00    -0.000 C 
BRANCH  18  19
ATOM     19  C   UNL     1       2.048 136.107 160.143  1.00  0.00    -0.003 C 
ATOM     20  C   UNL     1       1.266 134.844 159.784  1.00  0.00     0.004 C 
ENDBRANCH  18  19
ENDBRANCH  17  18
ENDBRANCH  16  17
ENDBRANCH  15  16
ENDBRANCH  14  15
ENDBRANCH  13  14
ENDBRANCH   2  13
TORSDOF 15
ENDMDL
MODEL 6
REMARK VINA RESULT:     2.812      0.774      2.690
REMARK INTER + INTRA:           3.577
REMARK INTER:                   4.515
REMARK INTRA:                  -0.938
REMARK UNBOUND:                -1.702
REMARK SMILES CCCCCCCCC=CCCCCCCCC(=O)[O-]
REMARK SMILES IDX 10 1 9 2 11 3 12 4 13 5 14 6 15 7 16 8 17 9 18 10 19 11
REMARK SMILES IDX 20 12 8 13 7 14 6 15 5 16 4 17 3 18 2 19 1 20
REMARK H PARENT
REMARK Flexibility Score: inf
ROOT
ATOM      1  C   UNL     1       5.012 133.645 153.235  1.00  0.00    -0.031 C 
ATOM      2  C   UNL     1       5.288 132.541 152.516  1.00  0.00    -0.031 C 
ENDROOT
BRANCH   1   3
ATOM      3  C   UNL     1       4.613 134.973 152.636  1.00  0.00     0.027 C 
BRANCH   3   4
ATOM      4  C   UNL     1       4.220 136.007 153.710  1.00  0.00     0.004 C 
BRANCH   4   5
ATOM      5  C   UNL     1       3.983 135.396 155.102  1.00  0.00     0.000 C 
BRANCH   5   6
ATOM      6  C   UNL     1       3.197 136.331 156.037  1.00  0.00     0.000 C 
BRANCH   6   7
ATOM      7  C   UNL     1       1.797 135.791 156.370  1.00  0.00     0.000 C 
BRANCH   7   8
ATOM      8  C   UNL     1       1.164 136.492 157.584  1.00  0.00     0.006 C 
BRANCH   8   9
ATOM      9  C   UNL     1       2.059 137.610 158.136  1.00  0.00     0.053 C 
BRANCH   9  10
ATOM     10  C   UNL     1       1.894 137.772 159.616  1.00  0.00     0.041 C 
ATOM     11  O   UNL     1       1.495 136.808 160.320  1.00  0.00    -0.550 OA
ATOM     12  O   UNL     1       2.211 138.981 160.222  1.00  0.00    -0.550 OA
ENDBRANCH   9  10
ENDBRANCH   8   9
ENDBRANCH   7   8
ENDBRANCH   6   7
ENDBRANCH   5   6
ENDBRANCH   4   5
ENDBRANCH   3   4
ENDBRANCH   1   3
BRANCH   2  13
ATOM     13  C   UNL     1       5.270 132.502 151.006  1.00  0.00     0.027 C 
BRANCH  13  14
ATOM     14  C   UNL     1       3.876 132.126 150.482  1.00  0.00     0.004 C 
BRANCH  14  15
ATOM     15  C   UNL     1       2.860 133.270 150.632  1.00  0.00     0.000 C 
BRANCH  15  16
ATOM     16  C   UNL     1       1.667 132.889 151.526  1.00  0.00     0.000 C 
BRANCH  16  17
ATOM     17  C   UNL     1       2.099 132.146 152.799  1.00  0.00    -0.000 C 
BRANCH  17  18
ATOM     18  C   UNL     1       1.628 132.852 154.083  1.00  0.00    -0.000 C 
BRANCH  18  19
ATOM     19  C   UNL     1       2.339 132.325 155.339  1.00  0.00    -0.003 C 
ATOM     20  C   UNL     1       3.510 131.399 155.010  1.00  0.00     0.004 C 
ENDBRANCH  18  19
ENDBRANCH  17  18
ENDBRANCH  16  17
ENDBRANCH  15  16
ENDBRANCH  14  15
ENDBRANCH  13  14
ENDBRANCH   2  13
TORSDOF 15
ENDMDL
MODEL 7
REMARK VINA RESULT:     2.965      0.855      3.305
REMARK INTER + INTRA:           3.864
REMARK INTER:                   3.689
REMARK INTRA:                   0.174
REMARK UNBOUND:                -1.702
REMARK SMILES CCCCCCCCC=CCCCCCCCC(=O)[O-]
REMARK SMILES IDX 10 1 9 2 11 3 12 4 13 5 14 6 15 7 16 8 17 9 18 10 19 11
REMARK SMILES IDX 20 12 8 13 7 14 6 15 5 16 4 17 3 18 2 19 1 20
REMARK H PARENT
REMARK Flexibility Score: inf
ROOT
ATOM      1  C   UNL     1       1.454 132.216 152.678  1.00  0.00    -0.031 C 
ATOM      2  C   UNL     1       1.607 132.889 151.523  1.00  0.00    -0.031 C 
ENDROOT
BRANCH   1   3
ATOM      3  C   UNL     1       2.591 131.828 153.594  1.00  0.00     0.027 C 
BRANCH   3   4
ATOM      4  C   UNL     1       2.259 132.074 155.079  1.00  0.00     0.004 C 
BRANCH   4   5
ATOM      5  C   UNL     1       1.537 133.407 155.341  1.00  0.00     0.000 C 
BRANCH   5   6
ATOM      6  C   UNL     1       2.499 134.535 155.751  1.00  0.00     0.000 C 
BRANCH   6   7
ATOM      7  C   UNL     1       1.767 135.746 156.351  1.00  0.00     0.000 C 
BRANCH   7   8
ATOM      8  C   UNL     1       2.706 136.678 157.135  1.00  0.00     0.006 C 
BRANCH   8   9
ATOM      9  C   UNL     1       1.947 137.823 157.818  1.00  0.00     0.053 C 
BRANCH   9  10
ATOM     10  C   UNL     1       1.812 137.597 159.293  1.00  0.00     0.041 C 
ATOM     11  O   UNL     1       1.938 138.557 160.096  1.00  0.00    -0.550 OA
ATOM     12  O   UNL     1       1.518 136.328 159.777  1.00  0.00    -0.550 OA
ENDBRANCH   9  10
ENDBRANCH   8   9
ENDBRANCH   7   8
ENDBRANCH   6   7
ENDBRANCH   5   6
ENDBRANCH   4   5
ENDBRANCH   3   4
ENDBRANCH   1   3
BRANCH   2  13
ATOM     13  C   UNL     1       2.949 133.314 150.975  1.00  0.00     0.027 C 
BRANCH  13  14
ATOM     14  C   UNL     1       3.776 132.095 150.537  1.00  0.00     0.004 C 
BRANCH  14  15
ATOM     15  C   UNL     1       5.081 131.949 151.335  1.00  0.00     0.000 C 
BRANCH  15  16
ATOM     16  C   UNL     1       5.481 133.247 152.058  1.00  0.00     0.000 C 
BRANCH  16  17
ATOM     17  C   UNL     1       5.151 133.213 153.558  1.00  0.00    -0.000 C 
BRANCH  17  18
ATOM     18  C   UNL     1       4.592 134.552 154.070  1.00  0.00    -0.000 C 
BRANCH  18  19
ATOM     19  C   UNL     1       4.282 135.535 152.931  1.00  0.00    -0.003 C 
ATOM     20  C   UNL     1       4.557 136.989 153.315  1.00  0.00     0.004 C 
ENDBRANCH  18  19
ENDBRANCH  17  18
ENDBRANCH  16  17
ENDBRANCH  15  16
ENDBRANCH  14  15
ENDBRANCH  13  14
ENDBRANCH   2  13
TORSDOF 15
ENDMDL
MODEL 8
REMARK VINA RESULT:     3.593      2.349      6.251
REMARK INTER + INTRA:           5.042
REMARK INTER:                   4.130
REMARK INTRA:                   0.912
REMARK UNBOUND:                -1.702
REMARK SMILES CCCCCCCCC=CCCCCCCCC(=O)[O-]
REMARK SMILES IDX 10 1 9 2 11 3 12 4 13 5 14 6 15 7 16 8 17 9 18 10 19 11
REMARK SMILES IDX 20 12 8 13 7 14 6 15 5 16 4 17 3 18 2 19 1 20
REMARK H PARENT
REMARK Flexibility Score: inf
ROOT
ATOM      1  C   UNL     1       2.604 131.514 153.141  1.00  0.00    -0.031 C 
ATOM      2  C   UNL     1       2.508 131.747 154.463  1.00  0.00    -0.031 C 
ENDROOT
BRANCH   1   3
ATOM      3  C   UNL     1       1.869 132.302 152.083  1.00  0.00     0.027 C 
BRANCH   3   4
ATOM      4  C   UNL     1       2.829 133.003 151.100  1.00  0.00     0.004 C 
BRANCH   4   5
ATOM      5  C   UNL     1       4.093 132.187 150.779  1.00  0.00     0.000 C 
BRANCH   5   6
ATOM      6  C   UNL     1       5.362 132.777 151.416  1.00  0.00     0.000 C 
BRANCH   6   7
ATOM      7  C   UNL     1       5.423 132.543 152.934  1.00  0.00     0.000 C 
BRANCH   7   8
ATOM      8  C   UNL     1       5.016 133.787 153.743  1.00  0.00     0.006 C 
BRANCH   8   9
ATOM      9  C   UNL     1       4.327 134.844 152.869  1.00  0.00     0.053 C 
BRANCH   9  10
ATOM     10  C   UNL     1       4.370 136.201 153.502  1.00  0.00     0.041 C 
ATOM     11  O   UNL     1       4.355 136.317 154.755  1.00  0.00    -0.550 OA
ATOM     12  O   UNL     1       4.457 137.336 152.706  1.00  0.00    -0.550 OA
ENDBRANCH   9  10
ENDBRANCH   8   9
ENDBRANCH   7   8
ENDBRANCH   6   7
ENDBRANCH   5   6
ENDBRANCH   4   5
ENDBRANCH   3   4
ENDBRANCH   1   3
BRANCH   2  13
ATOM     13  C   UNL     1       1.618 132.811 155.061  1.00  0.00     0.027 C 
BRANCH  13  14
ATOM     14  C   UNL     1       2.450 133.984 155.603  1.00  0.00     0.004 C 
BRANCH  14  15
ATOM     15  C   UNL     1       1.656 134.870 156.576  1.00  0.00     0.000 C 
BRANCH  15  16
ATOM     16  C   UNL     1       1.947 136.369 156.385  1.00  0.00     0.000 C 
BRANCH  16  17
ATOM     17  C   UNL     1       2.773 136.961 157.537  1.00  0.00    -0.000 C 
BRANCH  17  18
ATOM     18  C   UNL     1       2.017 138.062 158.301  1.00  0.00    -0.000 C 
BRANCH  18  19
ATOM     19  C   UNL     1       1.827 137.723 159.787  1.00  0.00    -0.003 C 
ATOM     20  C   UNL     1       1.406 136.271 160.013  1.00  0.00     0.004 C 
ENDBRANCH  18  19
ENDBRANCH  17  18
ENDBRANCH  16  17
ENDBRANCH  15  16
ENDBRANCH  14  15
ENDBRANCH  13  14
ENDBRANCH   2  13
TORSDOF 15
ENDMDL
MODEL 9
REMARK VINA RESULT:     4.163      1.569      3.761
REMARK INTER + INTRA:           6.112
REMARK INTER:                   6.177
REMARK INTRA:                  -0.065
REMARK UNBOUND:                -1.702
REMARK SMILES CCCCCCCCC=CCCCCCCCC(=O)[O-]
REMARK SMILES IDX 10 1 9 2 11 3 12 4 13 5 14 6 15 7 16 8 17 9 18 10 19 11
REMARK SMILES IDX 20 12 8 13 7 14 6 15 5 16 4 17 3 18 2 19 1 20
REMARK H PARENT
REMARK Flexibility Score: inf
ROOT
ATOM      1  C   UNL     1       5.226 132.598 152.708  1.00  0.00    -0.031 C 
ATOM      2  C   UNL     1       4.475 132.395 151.610  1.00  0.00    -0.031 C 
ENDROOT
BRANCH   1   3
ATOM      3  C   UNL     1       4.895 133.597 153.792  1.00  0.00     0.027 C 
BRANCH   3   4
ATOM      4  C   UNL     1       4.570 134.993 153.225  1.00  0.00     0.004 C 
BRANCH   4   5
ATOM      5  C   UNL     1       3.953 135.953 154.257  1.00  0.00     0.000 C 
BRANCH   5   6
ATOM      6  C   UNL     1       3.513 135.240 155.547  1.00  0.00     0.000 C 
BRANCH   6   7
ATOM      7  C   UNL     1       2.344 135.952 156.245  1.00  0.00     0.000 C 
BRANCH   7   8
ATOM      8  C   UNL     1       2.814 137.002 157.266  1.00  0.00     0.006 C 
BRANCH   8   9
ATOM      9  C   UNL     1       1.637 137.690 157.970  1.00  0.00     0.053 C 
BRANCH   9  10
ATOM     10  C   UNL     1       1.756 137.602 159.461  1.00  0.00     0.041 C 
ATOM     11  O   UNL     1       1.484 136.527 160.057  1.00  0.00    -0.550 OA
ATOM     12  O   UNL     1       2.195 138.701 160.189  1.00  0.00    -0.550 OA
ENDBRANCH   9  10
ENDBRANCH   8   9
ENDBRANCH   7   8
ENDBRANCH   6   7
ENDBRANCH   5   6
ENDBRANCH   4   5
ENDBRANCH   3   4
ENDBRANCH   1   3
BRANCH   2  13
ATOM     13  C   UNL     1       3.217 133.171 151.303  1.00  0.00     0.027 C 
BRANCH  13  14
ATOM     14  C   UNL     1       1.997 132.535 151.986  1.00  0.00     0.004 C 
BRANCH  14  15
ATOM     15  C   UNL     1       2.371 131.759 153.260  1.00  0.00     0.000 C 
BRANCH  15  16
ATOM     16  C   UNL     1       1.969 132.503 154.545  1.00  0.00     0.000 C 
BRANCH  16  17
ATOM     17  C   UNL     1       2.370 131.740 155.817  1.00  0.00    -0.000 C 
BRANCH  17  18
ATOM     18  C   UNL     1       1.280 131.787 156.903  1.00  0.00    -0.000 C 
BRANCH  18  19
ATOM     19  C   UNL     1       1.833 131.489 158.305  1.00  0.00    -0.003 C 
ATOM     20  C   UNL     1       1.277 132.433 159.372  1.00  0.00     0.004 C 
ENDBRANCH  18  19
ENDBRANCH  17  18
ENDBRANCH  16  17
ENDBRANCH  15  16
ENDBRANCH  14  15
ENDBRANCH  13  14
ENDBRANCH   2  13
TORSDOF 15
ENDMDL
