MODEL 1
REMARK VINA RESULT:    -3.745      0.000      0.000
REMARK INTER + INTRA:          -3.854
REMARK INTER:                  -3.854
REMARK INTRA:                   0.000
REMARK UNBOUND:                 0.000
REMARK SMILES O=c1ccc2cc(O)ccc2o1
REMARK SMILES IDX 9 1 10 2 11 3 5 4 4 5 3 6 2 7 1 8 12 9 6 10 7 11 8 12
REMARK H PARENT 8 13
REMARK Flexibility Score: inf
ROOT
ATOM      1  C   UNL     1      15.383  -2.638  12.810  1.00  0.00     0.050 A 
ATOM      2  C   UNL     1      14.428  -3.487  12.240  1.00  0.00     0.052 A 
ATOM      3  C   UNL     1      13.258  -2.955  11.686  1.00  0.00     0.138 A 
ATOM      4  C   UNL     1      13.046  -1.559  11.704  1.00  0.00     0.021 A 
ATOM      5  C   UNL     1      11.869  -1.056  11.144  1.00  0.00     0.019 A 
ATOM      6  C   UNL     1      10.944  -1.941  10.587  1.00  0.00     0.094 A 
ATOM      7  C   UNL     1      11.222  -3.312  10.606  1.00  0.00     0.336 A 
ATOM      8  O   UNL     1      10.400  -4.125  10.108  1.00  0.00    -0.246 OA
ATOM      9  O   UNL     1      12.351  -3.764  11.145  1.00  0.00    -0.423 OA
ATOM     10  C   UNL     1      14.007  -0.712  12.276  1.00  0.00     0.058 A 
ATOM     11  C   UNL     1      15.175  -1.251  12.829  1.00  0.00     0.116 A 
ENDROOT
BRANCH  11  12
ATOM     12  O   UNL     1      16.123  -0.400  13.394  1.00  0.00    -0.508 OA
ATOM     13  H   UNL     1      15.888   0.220  14.159  1.00  0.00     0.293 HD
ENDBRANCH  11  12
TORSDOF 1
ENDMDL
MODEL 2
REMARK VINA RESULT:    -3.514      0.829      4.780
REMARK INTER + INTRA:          -3.617
REMARK INTER:                  -3.617
REMARK INTRA:                   0.000
REMARK UNBOUND:                 0.000
REMARK SMILES O=c1ccc2cc(O)ccc2o1
REMARK SMILES IDX 9 1 10 2 11 3 5 4 4 5 3 6 2 7 1 8 12 9 6 10 7 11 8 12
REMARK H PARENT 8 13
REMARK Flexibility Score: inf
ROOT
ATOM      1  C   UNL     1      11.179  -1.804  10.754  1.00  0.00     0.050 A 
ATOM      2  C   UNL     1      12.091  -0.861  11.238  1.00  0.00     0.052 A 
ATOM      3  C   UNL     1      13.308  -1.279  11.786  1.00  0.00     0.138 A 
ATOM      4  C   UNL     1      13.612  -2.657  11.848  1.00  0.00     0.021 A 
ATOM      5  C   UNL     1      14.836  -3.045  12.401  1.00  0.00     0.019 A 
ATOM      6  C   UNL     1      15.715  -2.069  12.872  1.00  0.00     0.094 A 
ATOM      7  C   UNL     1      15.346  -0.723  12.778  1.00  0.00     0.336 A 
ATOM      8  O   UNL     1      16.125   0.171  13.198  1.00  0.00    -0.246 OA
ATOM      9  O   UNL     1      14.175  -0.381  12.247  1.00  0.00    -0.423 OA
ATOM     10  C   UNL     1      12.695  -3.599  11.360  1.00  0.00     0.058 A 
ATOM     11  C   UNL     1      11.478  -3.172  10.813  1.00  0.00     0.116 A 
ENDROOT
BRANCH  11  12
ATOM     12  O   UNL     1      10.574  -4.117  10.331  1.00  0.00    -0.508 OA
ATOM     13  H   UNL     1      10.852  -5.076  10.157  1.00  0.00     0.293 HD
ENDBRANCH  11  12
TORSDOF 1
ENDMDL
MODEL 3
REMARK VINA RESULT:    -2.222      1.333      2.168
REMARK INTER + INTRA:          -2.287
REMARK INTER:                  -2.287
REMARK INTRA:                   0.000
REMARK UNBOUND:                 0.000
REMARK SMILES O=c1ccc2cc(O)ccc2o1
REMARK SMILES IDX 9 1 10 2 11 3 5 4 4 5 3 6 2 7 1 8 12 9 6 10 7 11 8 12
REMARK H PARENT 8 13
REMARK Flexibility Score: inf
ROOT
ATOM      1  C   UNL     1      14.448  -0.890  12.481  1.00  0.00     0.050 A 
ATOM      2  C   UNL     1      13.214  -0.618  11.881  1.00  0.00     0.052 A 
ATOM      3  C   UNL     1      12.419  -1.665  11.403  1.00  0.00     0.138 A 
ATOM      4  C   UNL     1      12.867  -2.999  11.530  1.00  0.00     0.021 A 
ATOM      5  C   UNL     1      12.052  -4.025  11.043  1.00  0.00     0.019 A 
ATOM      6  C   UNL     1      10.830  -3.705  10.452  1.00  0.00     0.094 A 
ATOM      7  C   UNL     1      10.452  -2.361  10.361  1.00  0.00     0.336 A 
ATOM      8  O   UNL     1       9.352  -2.054   9.831  1.00  0.00    -0.246 OA
ATOM      9  O   UNL     1      11.246  -1.404  10.832  1.00  0.00    -0.423 OA
ATOM     10  C   UNL     1      14.105  -3.267  12.133  1.00  0.00     0.058 A 
ATOM     11  C   UNL     1      14.895  -2.213  12.608  1.00  0.00     0.116 A 
ENDROOT
BRANCH  11  12
ATOM     12  O   UNL     1      16.123  -2.492  13.206  1.00  0.00    -0.508 OA
ATOM     13  H   UNL     1      16.272  -3.341  13.739  1.00  0.00     0.293 HD
ENDBRANCH  11  12
TORSDOF 1
ENDMDL
