MODEL 1
REMARK VINA RESULT:    -4.075      0.000      0.000
REMARK INTER + INTRA:          -6.596
REMARK INTER:                  -6.220
REMARK INTRA:                  -0.376
REMARK UNBOUND:                -0.376
REMARK SMILES CC1=CCC[C@@H](C)C(=O)C[C@@H](C(C)C)C(=O)C1
REMARK SMILES IDX 8 1 9 2 6 3 7 4 5 5 4 6 3 7 2 8 1 9 10 11 11 12 15 13 16 14
REMARK SMILES IDX 17 15 12 17 13 18 14 19
REMARK H PARENT
REMARK Flexibility Score: 70.00
ROOT
ATOM      1  C   UNL     1       4.688 -25.005  23.617  1.00  0.00     0.136 C 
ATOM      2  O   UNL     1       4.806 -24.409  22.556  1.00  0.00    -0.299 OA
ENDROOT
BRANCH   1   3
ATOM      3  C   UNL     1       5.927 -25.423  24.397  1.00  0.00     0.053 C 
ATOM      4  C   UNL     1       5.616 -26.517  25.432  1.00  0.00     0.016 C 
BRANCH   3   5
ATOM      5  C   UNL     1       6.634 -24.218  25.058  1.00  0.00     0.015 C 
BRANCH   5   6
ATOM      6  C   UNL     1       6.333 -24.049  26.567  1.00  0.00     0.028 C 
BRANCH   6   7
ATOM      7  C   UNL     1       5.551 -22.780  26.821  1.00  0.00    -0.028 C 
ATOM      8  C   UNL     1       4.204 -22.696  26.944  1.00  0.00    -0.070 CG0
ATOM      9  C   UNL     1       3.589 -21.323  27.050  1.00  0.00     0.039 C 
ATOM     10  G   UNL     1       3.287 -23.909  26.983  1.00  0.00     0.000 G0
ENDBRANCH   6   7
ENDBRANCH   5   6
ENDBRANCH   3   5
ENDBRANCH   1   3
BRANCH   1  11
ATOM     11  C   UNL     1       3.297 -25.344  24.107  1.00  0.00     0.087 C 
BRANCH  11  12
ATOM     12  C   UNL     1       2.455 -24.080  24.433  1.00  0.00     0.066 C 
BRANCH  12  13
ATOM     13  C   UNL     1       2.185 -23.954  25.930  1.00  0.00     0.140 C 
ATOM     14  O   UNL     1       1.027 -23.904  26.316  1.00  0.00    -0.299 OA
BRANCH  13  15
ATOM     15  C   UNL     1       3.272 -23.912  26.988  1.00  0.00     0.106 CG0
ATOM     16  G   UNL     1       4.215 -22.719  26.923  1.00  0.00     0.000 G0
ENDBRANCH  13  15
ENDBRANCH  12  13
BRANCH  12  17
ATOM     17  C   UNL     1       1.133 -23.970  23.611  1.00  0.00    -0.006 C 
ATOM     18  C   UNL     1       0.797 -22.509  23.271  1.00  0.00     0.008 C 
ATOM     19  C   UNL     1       1.105 -24.821  22.329  1.00  0.00     0.008 C 
ENDBRANCH  12  17
ENDBRANCH  11  12
ENDBRANCH   1  11
TORSDOF 1
ENDMDL
MODEL 2
REMARK VINA RESULT:    -4.013      2.251      4.830
REMARK INTER + INTRA:          -6.500
REMARK INTER:                  -6.182
REMARK INTRA:                  -0.319
REMARK UNBOUND:                -0.376
REMARK SMILES CC1=CCC[C@@H](C)C(=O)C[C@@H](C(C)C)C(=O)C1
REMARK SMILES IDX 8 1 9 2 6 3 7 4 5 5 4 6 3 7 2 8 1 9 10 11 11 12 15 13 16 14
REMARK SMILES IDX 17 15 12 17 13 18 14 19
REMARK H PARENT
REMARK Flexibility Score: 70.00
ROOT
ATOM      1  C   UNL     1       0.798 -23.096  24.906  1.00  0.00     0.136 C 
ATOM      2  O   UNL     1       1.455 -22.067  24.828  1.00  0.00    -0.299 OA
ENDROOT
BRANCH   1   3
ATOM      3  C   UNL     1      -0.049 -23.549  23.725  1.00  0.00     0.053 C 
ATOM      4  C   UNL     1      -1.004 -24.693  24.103  1.00  0.00     0.016 C 
BRANCH   3   5
ATOM      5  C   UNL     1       0.815 -23.929  22.500  1.00  0.00     0.015 C 
BRANCH   5   6
ATOM      6  C   UNL     1       1.535 -25.295  22.625  1.00  0.00     0.028 C 
BRANCH   6   7
ATOM      7  C   UNL     1       3.007 -25.103  22.908  1.00  0.00    -0.028 C 
ATOM      8  C   UNL     1       3.613 -25.306  24.103  1.00  0.00    -0.070 CG0
ATOM      9  C   UNL     1       5.066 -24.923  24.233  1.00  0.00     0.039 C 
ATOM     10  G   UNL     1       2.905 -25.898  25.313  1.00  0.00     0.000 G0
ENDBRANCH   6   7
ENDBRANCH   5   6
ENDBRANCH   3   5
ENDBRANCH   1   3
BRANCH   1  11
ATOM     11  C   UNL     1       0.820 -23.873  26.203  1.00  0.00     0.087 C 
BRANCH  11  12
ATOM     12  C   UNL     1       2.215 -23.853  26.888  1.00  0.00     0.066 C 
BRANCH  12  13
ATOM     13  C   UNL     1       2.997 -25.134  26.611  1.00  0.00     0.140 C 
ATOM     14  O   UNL     1       3.725 -25.578  27.486  1.00  0.00    -0.299 OA
BRANCH  13  15
ATOM     15  C   UNL     1       2.910 -25.918  25.315  1.00  0.00     0.106 CG0
ATOM     16  G   UNL     1       3.619 -25.301  24.118  1.00  0.00     0.000 G0
ENDBRANCH  13  15
ENDBRANCH  12  13
BRANCH  12  17
ATOM     17  C   UNL     1       2.166 -23.541  28.417  1.00  0.00    -0.006 C 
ATOM     18  C   UNL     1       2.744 -22.151  28.730  1.00  0.00     0.008 C 
ATOM     19  C   UNL     1       0.771 -23.679  29.053  1.00  0.00     0.008 C 
ENDBRANCH  12  17
ENDBRANCH  11  12
ENDBRANCH   1  11
TORSDOF 1
ENDMDL
MODEL 3
REMARK VINA RESULT:    -4.002      2.095      4.444
REMARK INTER + INTRA:          -6.484
REMARK INTER:                  -6.162
REMARK INTRA:                  -0.322
REMARK UNBOUND:                -0.376
REMARK SMILES CC1=CCC[C@@H](C)C(=O)C[C@@H](C(C)C)C(=O)C1
REMARK SMILES IDX 8 1 9 2 6 3 7 4 5 5 4 6 3 7 2 8 1 9 10 11 11 12 15 13 16 14
REMARK SMILES IDX 17 15 12 17 13 18 14 19
REMARK H PARENT
REMARK Flexibility Score: 70.00
ROOT
ATOM      1  C   UNL     1       1.352 -24.607  22.984  1.00  0.00     0.136 C 
ATOM      2  O   UNL     1       1.284 -24.383  21.783  1.00  0.00    -0.299 OA
ENDROOT
BRANCH   1   3
ATOM      3  C   UNL     1       0.230 -25.361  23.682  1.00  0.00     0.053 C 
ATOM      4  C   UNL     1      -0.448 -26.381  22.752  1.00  0.00     0.016 C 
BRANCH   3   5
ATOM      5  C   UNL     1      -0.811 -24.407  24.311  1.00  0.00     0.015 C 
BRANCH   5   6
ATOM      6  C   UNL     1      -0.287 -23.598  25.522  1.00  0.00     0.028 C 
BRANCH   6   7
ATOM      7  C   UNL     1       0.001 -24.509  26.694  1.00  0.00    -0.028 C 
ATOM      8  C   UNL     1       1.213 -24.688  27.273  1.00  0.00    -0.070 CG0
ATOM      9  C   UNL     1       1.338 -25.748  28.339  1.00  0.00     0.039 C 
ATOM     10  G   UNL     1       2.448 -23.878  26.905  1.00  0.00     0.000 G0
ENDBRANCH   6   7
ENDBRANCH   5   6
ENDBRANCH   3   5
ENDBRANCH   1   3
BRANCH   1  11
ATOM     11  C   UNL     1       2.548 -24.087  23.751  1.00  0.00     0.087 C 
BRANCH  11  12
ATOM     12  C   UNL     1       3.185 -25.166  24.669  1.00  0.00     0.066 C 
BRANCH  12  13
ATOM     13  C   UNL     1       3.476 -24.619  26.063  1.00  0.00     0.140 C 
ATOM     14  O   UNL     1       4.602 -24.747  26.520  1.00  0.00    -0.299 OA
BRANCH  13  15
ATOM     15  C   UNL     1       2.457 -23.892  26.921  1.00  0.00     0.106 CG0
ATOM     16  G   UNL     1       1.208 -24.684  27.279  1.00  0.00     0.000 G0
ENDBRANCH  13  15
ENDBRANCH  12  13
BRANCH  12  17
ATOM     17  C   UNL     1       4.445 -25.855  24.059  1.00  0.00    -0.006 C 
ATOM     18  C   UNL     1       4.102 -27.222  23.445  1.00  0.00     0.008 C 
ATOM     19  C   UNL     1       5.205 -25.000  23.029  1.00  0.00     0.008 C 
ENDBRANCH  12  17
ENDBRANCH  11  12
ENDBRANCH   1  11
TORSDOF 1
ENDMDL
MODEL 4
REMARK VINA RESULT:    -3.925      1.701      2.024
REMARK INTER + INTRA:          -6.367
REMARK INTER:                  -5.936
REMARK INTRA:                  -0.431
REMARK UNBOUND:                -0.376
REMARK SMILES CC1=CCC[C@@H](C)C(=O)C[C@@H](C(C)C)C(=O)C1
REMARK SMILES IDX 8 1 9 2 6 3 7 4 5 5 4 6 3 7 2 8 1 9 10 11 11 12 15 13 16 14
REMARK SMILES IDX 17 15 12 17 13 18 14 19
REMARK H PARENT
REMARK Flexibility Score: 70.00
ROOT
ATOM      1  C   UNL     1       2.823 -25.329  22.923  1.00  0.00     0.136 C 
ATOM      2  O   UNL     1       2.438 -24.366  22.276  1.00  0.00    -0.299 OA
ENDROOT
BRANCH   1   3
ATOM      3  C   UNL     1       4.262 -25.806  22.795  1.00  0.00     0.053 C 
ATOM      4  C   UNL     1       4.458 -27.217  23.375  1.00  0.00     0.016 C 
BRANCH   3   5
ATOM      5  C   UNL     1       5.265 -24.807  23.417  1.00  0.00     0.015 C 
BRANCH   5   6
ATOM      6  C   UNL     1       5.616 -25.092  24.897  1.00  0.00     0.028 C 
BRANCH   6   7
ATOM      7  C   UNL     1       5.049 -24.021  25.801  1.00  0.00    -0.028 C 
ATOM      8  C   UNL     1       3.907 -24.125  26.524  1.00  0.00    -0.070 CG0
ATOM      9  C   UNL     1       3.421 -22.899  27.256  1.00  0.00     0.039 C 
ATOM     10  G   UNL     1       3.098 -25.408  26.636  1.00  0.00     0.000 G0
ENDBRANCH   6   7
ENDBRANCH   5   6
ENDBRANCH   3   5
ENDBRANCH   1   3
BRANCH   1  11
ATOM     11  C   UNL     1       1.831 -26.047  23.812  1.00  0.00     0.087 C 
BRANCH  11  12
ATOM     12  C   UNL     1       1.137 -25.095  24.825  1.00  0.00     0.066 C 
BRANCH  12  13
ATOM     13  C   UNL     1       1.627 -25.333  26.250  1.00  0.00     0.140 C 
ATOM     14  O   UNL     1       0.801 -25.488  27.136  1.00  0.00    -0.299 OA
BRANCH  13  15
ATOM     15  C   UNL     1       3.091 -25.418  26.642  1.00  0.00     0.106 CG0
ATOM     16  G   UNL     1       3.888 -24.128  26.512  1.00  0.00     0.000 G0
ENDBRANCH  13  15
ENDBRANCH  12  13
BRANCH  12  17
ATOM     17  C   UNL     1      -0.422 -25.119  24.753  1.00  0.00    -0.006 C 
ATOM     18  C   UNL     1      -0.971 -23.925  23.956  1.00  0.00     0.008 C 
ATOM     19  C   UNL     1      -1.015 -26.428  24.202  1.00  0.00     0.008 C 
ENDBRANCH  12  17
ENDBRANCH  11  12
ENDBRANCH   1  11
TORSDOF 1
ENDMDL
MODEL 5
REMARK VINA RESULT:    -3.910     10.561     11.853
REMARK INTER + INTRA:          -6.343
REMARK INTER:                  -5.929
REMARK INTRA:                  -0.415
REMARK UNBOUND:                -0.376
REMARK SMILES CC1=CCC[C@@H](C)C(=O)C[C@@H](C(C)C)C(=O)C1
REMARK SMILES IDX 8 1 9 2 6 3 7 4 5 5 4 6 3 7 2 8 1 9 10 11 11 12 15 13 16 14
REMARK SMILES IDX 17 15 12 17 13 18 14 19
REMARK H PARENT
REMARK Flexibility Score: 70.00
ROOT
ATOM      1  C   UNL     1      10.173 -15.377  18.135  1.00  0.00     0.136 C 
ATOM      2  O   UNL     1       9.282 -14.757  18.699  1.00  0.00    -0.299 OA
ENDROOT
BRANCH   1   3
ATOM      3  C   UNL     1      11.568 -14.778  18.029  1.00  0.00     0.053 C 
ATOM      4  C   UNL     1      12.427 -15.496  16.975  1.00  0.00     0.016 C 
BRANCH   3   5
ATOM      5  C   UNL     1      12.289 -14.734  19.396  1.00  0.00     0.015 C 
BRANCH   5   6
ATOM      6  C   UNL     1      13.231 -15.935  19.661  1.00  0.00     0.028 C 
BRANCH   6   7
ATOM      7  C   UNL     1      12.693 -16.805  20.774  1.00  0.00    -0.028 C 
ATOM      8  C   UNL     1      11.962 -17.935  20.607  1.00  0.00    -0.070 CG0
ATOM      9  C   UNL     1      11.388 -18.593  21.836  1.00  0.00     0.039 C 
ATOM     10  G   UNL     1      11.695 -18.569  19.250  1.00  0.00     0.000 G0
ENDBRANCH   6   7
ENDBRANCH   5   6
ENDBRANCH   3   5
ENDBRANCH   1   3
BRANCH   1  11
ATOM     11  C   UNL     1       9.843 -16.720  17.522  1.00  0.00     0.087 C 
BRANCH  11  12
ATOM     12  C   UNL     1       9.238 -17.715  18.549  1.00  0.00     0.066 C 
BRANCH  12  13
ATOM     13  C   UNL     1      10.222 -18.825  18.907  1.00  0.00     0.140 C 
ATOM     14  O   UNL     1       9.828 -19.982  18.903  1.00  0.00    -0.299 OA
BRANCH  13  15
ATOM     15  C   UNL     1      11.682 -18.589  19.246  1.00  0.00     0.106 CG0
ATOM     16  G   UNL     1      11.953 -17.945  20.598  1.00  0.00     0.000 G0
ENDBRANCH  13  15
ENDBRANCH  12  13
BRANCH  12  17
ATOM     17  C   UNL     1       7.855 -18.302  18.125  1.00  0.00    -0.006 C 
ATOM     18  C   UNL     1       6.855 -18.298  19.292  1.00  0.00     0.008 C 
ATOM     19  C   UNL     1       7.223 -17.623  16.896  1.00  0.00     0.008 C 
ENDBRANCH  12  17
ENDBRANCH  11  12
ENDBRANCH   1  11
TORSDOF 1
ENDMDL
MODEL 6
REMARK VINA RESULT:    -3.903      9.998     11.454
REMARK INTER + INTRA:          -6.333
REMARK INTER:                  -5.797
REMARK INTRA:                  -0.536
REMARK UNBOUND:                -0.376
REMARK SMILES CC1=CCC[C@@H](C)C(=O)C[C@@H](C(C)C)C(=O)C1
REMARK SMILES IDX 8 1 9 2 6 3 7 4 5 5 4 6 3 7 2 8 1 9 10 11 11 12 15 13 16 14
REMARK SMILES IDX 17 15 12 17 13 18 14 19
REMARK H PARENT
REMARK Flexibility Score: 70.00
ROOT
ATOM      1  C   UNL     1       8.998 -15.642  20.782  1.00  0.00     0.136 C 
ATOM      2  O   UNL     1       8.986 -14.455  21.078  1.00  0.00    -0.299 OA
ENDROOT
BRANCH   1   3
ATOM      3  C   UNL     1       8.981 -16.699  21.876  1.00  0.00     0.053 C 
ATOM      4  C   UNL     1       7.783 -16.531  22.825  1.00  0.00     0.016 C 
BRANCH   3   5
ATOM      5  C   UNL     1      10.310 -16.744  22.664  1.00  0.00     0.015 C 
BRANCH   5   6
ATOM      6  C   UNL     1      11.361 -17.725  22.089  1.00  0.00     0.028 C 
BRANCH   6   7
ATOM      7  C   UNL     1      12.421 -16.980  21.308  1.00  0.00    -0.028 C 
ATOM      8  C   UNL     1      12.766 -17.221  20.020  1.00  0.00    -0.070 CG0
ATOM      9  C   UNL     1      13.946 -16.474  19.452  1.00  0.00     0.039 C 
ATOM     10  G   UNL     1      12.025 -18.202  19.122  1.00  0.00     0.000 G0
ENDBRANCH   6   7
ENDBRANCH   5   6
ENDBRANCH   3   5
ENDBRANCH   1   3
BRANCH   1  11
ATOM     11  C   UNL     1       9.067 -16.022  19.320  1.00  0.00     0.087 C 
BRANCH  11  12
ATOM     12  C   UNL     1       9.423 -17.519  19.107  1.00  0.00     0.066 C 
BRANCH  12  13
ATOM     13  C   UNL     1      10.775 -17.685  18.420  1.00  0.00     0.140 C 
ATOM     14  O   UNL     1      10.880 -17.364  17.246  1.00  0.00    -0.299 OA
BRANCH  13  15
ATOM     15  C   UNL     1      12.022 -18.205  19.113  1.00  0.00     0.106 CG0
ATOM     16  G   UNL     1      12.744 -17.210  20.010  1.00  0.00     0.000 G0
ENDBRANCH  13  15
ENDBRANCH  12  13
BRANCH  12  17
ATOM     17  C   UNL     1       8.313 -18.336  18.374  1.00  0.00    -0.006 C 
ATOM     18  C   UNL     1       7.526 -19.225  19.350  1.00  0.00     0.008 C 
ATOM     19  C   UNL     1       7.336 -17.485  17.544  1.00  0.00     0.008 C 
ENDBRANCH  12  17
ENDBRANCH  11  12
ENDBRANCH   1  11
TORSDOF 1
ENDMDL
MODEL 7
REMARK VINA RESULT:    -3.828      8.238      9.821
REMARK INTER + INTRA:          -6.218
REMARK INTER:                  -5.630
REMARK INTRA:                  -0.588
REMARK UNBOUND:                -0.376
REMARK SMILES CC1=CCC[C@@H](C)C(=O)C[C@@H](C(C)C)C(=O)C1
REMARK SMILES IDX 8 1 9 2 6 3 7 4 5 5 4 6 3 7 2 8 1 9 10 11 11 12 15 13 16 14
REMARK SMILES IDX 17 15 12 17 13 18 14 19
REMARK H PARENT
REMARK Flexibility Score: 70.00
ROOT
ATOM      1  C   UNL     1       7.911 -17.620  19.624  1.00  0.00     0.136 C 
ATOM      2  O   UNL     1       6.985 -17.914  18.881  1.00  0.00    -0.299 OA
ENDROOT
BRANCH   1   3
ATOM      3  C   UNL     1       9.291 -17.340  19.045  1.00  0.00     0.053 C 
ATOM      4  C   UNL     1       9.262 -16.209  18.005  1.00  0.00     0.016 C 
BRANCH   3   5
ATOM      5  C   UNL     1       9.949 -18.612  18.464  1.00  0.00     0.015 C 
BRANCH   5   6
ATOM      6  C   UNL     1      10.958 -19.301  19.415  1.00  0.00     0.028 C 
BRANCH   6   7
ATOM      7  C   UNL     1      10.271 -20.348  20.262  1.00  0.00    -0.028 C 
ATOM      8  C   UNL     1      10.148 -20.315  21.611  1.00  0.00    -0.070 CG0
ATOM      9  C   UNL     1       9.558 -21.520  22.297  1.00  0.00     0.039 C 
ATOM     10  G   UNL     1      10.573 -19.128  22.463  1.00  0.00     0.000 G0
ENDBRANCH   6   7
ENDBRANCH   5   6
ENDBRANCH   3   5
ENDBRANCH   1   3
BRANCH   1  11
ATOM     11  C   UNL     1       7.659 -17.582  21.115  1.00  0.00     0.087 C 
BRANCH  11  12
ATOM     12  C   UNL     1       8.893 -17.085  21.917  1.00  0.00     0.066 C 
BRANCH  12  13
ATOM     13  C   UNL     1       9.435 -18.167  22.846  1.00  0.00     0.140 C 
ATOM     14  O   UNL     1       8.929 -18.299  23.951  1.00  0.00    -0.299 OA
BRANCH  13  15
ATOM     15  C   UNL     1      10.555 -19.122  22.476  1.00  0.00     0.106 CG0
ATOM     16  G   UNL     1      10.157 -20.305  21.606  1.00  0.00     0.000 G0
ENDBRANCH  13  15
ENDBRANCH  12  13
BRANCH  12  17
ATOM     17  C   UNL     1       8.652 -15.749  22.688  1.00  0.00    -0.006 C 
ATOM     18  C   UNL     1       9.392 -14.573  22.029  1.00  0.00     0.008 C 
ATOM     19  C   UNL     1       7.170 -15.384  22.887  1.00  0.00     0.008 C 
ENDBRANCH  12  17
ENDBRANCH  11  12
ENDBRANCH   1  11
TORSDOF 1
ENDMDL
MODEL 8
REMARK VINA RESULT:    -3.735      1.618      3.789
REMARK INTER + INTRA:          -6.076
REMARK INTER:                  -5.689
REMARK INTRA:                  -0.387
REMARK UNBOUND:                -0.376
REMARK SMILES CC1=CCC[C@@H](C)C(=O)C[C@@H](C(C)C)C(=O)C1
REMARK SMILES IDX 8 1 9 2 6 3 7 4 5 5 4 6 3 7 2 8 1 9 10 11 11 12 15 13 16 14
REMARK SMILES IDX 17 15 12 17 13 18 14 19
REMARK H PARENT
REMARK Flexibility Score: 70.00
ROOT
ATOM      1  C   UNL     1       1.626 -23.619  25.328  1.00  0.00     0.136 C 
ATOM      2  O   UNL     1       0.682 -22.842  25.342  1.00  0.00    -0.299 OA
ENDROOT
BRANCH   1   3
ATOM      3  C   UNL     1       2.076 -24.293  26.616  1.00  0.00     0.053 C 
ATOM      4  C   UNL     1       0.941 -24.384  27.649  1.00  0.00     0.016 C 
BRANCH   3   5
ATOM      5  C   UNL     1       3.325 -23.615  27.224  1.00  0.00     0.015 C 
BRANCH   5   6
ATOM      6  C   UNL     1       4.611 -24.476  27.169  1.00  0.00     0.028 C 
BRANCH   6   7
ATOM      7  C   UNL     1       5.656 -23.826  26.291  1.00  0.00    -0.028 C 
ATOM      8  C   UNL     1       6.115 -24.319  25.115  1.00  0.00    -0.070 CG0
ATOM      9  C   UNL     1       7.265 -23.606  24.450  1.00  0.00     0.039 C 
ATOM     10  G   UNL     1       5.530 -25.548  24.435  1.00  0.00     0.000 G0
ENDBRANCH   6   7
ENDBRANCH   5   6
ENDBRANCH   3   5
ENDBRANCH   1   3
BRANCH   1  11
ATOM     11  C   UNL     1       2.348 -23.858  24.020  1.00  0.00     0.087 C 
BRANCH  11  12
ATOM     12  C   UNL     1       2.904 -25.303  23.899  1.00  0.00     0.066 C 
BRANCH  12  13
ATOM     13  C   UNL     1       4.371 -25.310  23.481  1.00  0.00     0.140 C 
ATOM     14  O   UNL     1       4.649 -25.087  22.312  1.00  0.00    -0.299 OA
BRANCH  13  15
ATOM     15  C   UNL     1       5.526 -25.552  24.436  1.00  0.00     0.106 CG0
ATOM     16  G   UNL     1       6.093 -24.315  25.116  1.00  0.00     0.000 G0
ENDBRANCH  13  15
ENDBRANCH  12  13
BRANCH  12  17
ATOM     17  C   UNL     1       2.052 -26.236  22.982  1.00  0.00    -0.006 C 
ATOM     18  C   UNL     1       2.154 -27.706  23.418  1.00  0.00     0.008 C 
ATOM     19  C   UNL     1       0.572 -25.832  22.859  1.00  0.00     0.008 C 
ENDBRANCH  12  17
ENDBRANCH  11  12
ENDBRANCH   1  11
TORSDOF 1
ENDMDL
MODEL 9
REMARK VINA RESULT:    -3.681     10.074     11.423
REMARK INTER + INTRA:          -5.995
REMARK INTER:                  -5.683
REMARK INTRA:                  -0.312
REMARK UNBOUND:                -0.376
REMARK SMILES CC1=CCC[C@@H](C)C(=O)C[C@@H](C(C)C)C(=O)C1
REMARK SMILES IDX 8 1 9 2 6 3 7 4 5 5 4 6 3 7 2 8 1 9 10 11 11 12 15 13 16 14
REMARK SMILES IDX 17 15 12 17 13 18 14 19
REMARK H PARENT
REMARK Flexibility Score: 70.00
ROOT
ATOM      1  C   UNL     1      10.320 -19.590  20.786  1.00  0.00     0.136 C 
ATOM      2  O   UNL     1       9.797 -20.620  20.383  1.00  0.00    -0.299 OA
ENDROOT
BRANCH   1   3
ATOM      3  C   UNL     1      11.784 -19.591  21.201  1.00  0.00     0.053 C 
ATOM      4  C   UNL     1      12.100 -18.475  22.210  1.00  0.00     0.016 C 
BRANCH   3   5
ATOM      5  C   UNL     1      12.734 -19.524  19.984  1.00  0.00     0.015 C 
BRANCH   5   6
ATOM      6  C   UNL     1      13.449 -18.162  19.804  1.00  0.00     0.028 C 
BRANCH   6   7
ATOM      7  C   UNL     1      13.068 -17.525  18.488  1.00  0.00    -0.028 C 
ATOM      8  C   UNL     1      12.179 -16.514  18.330  1.00  0.00    -0.070 CG0
ATOM      9  C   UNL     1      11.817 -16.103  16.925  1.00  0.00     0.039 C 
ATOM     10  G   UNL     1      11.533 -15.775  19.493  1.00  0.00     0.000 G0
ENDBRANCH   6   7
ENDBRANCH   5   6
ENDBRANCH   3   5
ENDBRANCH   1   3
BRANCH   1  11
ATOM     11  C   UNL     1       9.470 -18.343  20.897  1.00  0.00     0.087 C 
BRANCH  11  12
ATOM     12  C   UNL     1       9.482 -17.494  19.596  1.00  0.00     0.066 C 
BRANCH  12  13
ATOM     13  C   UNL     1      10.097 -16.117  19.826  1.00  0.00     0.140 C 
ATOM     14  O   UNL     1       9.404 -15.241  20.322  1.00  0.00    -0.299 OA
BRANCH  13  15
ATOM     15  C   UNL     1      11.537 -15.764  19.501  1.00  0.00     0.106 CG0
ATOM     16  G   UNL     1      12.156 -16.518  18.334  1.00  0.00     0.000 G0
ENDBRANCH  13  15
ENDBRANCH  12  13
BRANCH  12  17
ATOM     17  C   UNL     1       8.089 -17.381  18.900  1.00  0.00    -0.006 C 
ATOM     18  C   UNL     1       8.218 -17.405  17.368  1.00  0.00     0.008 C 
ATOM     19  C   UNL     1       7.062 -18.435  19.351  1.00  0.00     0.008 C 
ENDBRANCH  12  17
ENDBRANCH  11  12
ENDBRANCH   1  11
TORSDOF 1
ENDMDL
