MODEL 1
REMARK VINA RESULT:    -5.607      0.000      0.000
REMARK INTER + INTRA:          -8.987
REMARK INTER:                  -7.574
REMARK INTRA:                  -1.414
REMARK UNBOUND:                -1.414
REMARK SMILES CC(=O)CCC=C(C)CCC=C(C)C
REMARK SMILES IDX 7 1 6 2 8 3 9 4 10 5 11 6 13 7 12 8 14 9 5 10 4 11 2 12 3 13
REMARK SMILES IDX 1 14
REMARK H PARENT
REMARK Flexibility Score: inf
ROOT
ATOM      1  C   UNL     1     -12.629 -38.358  36.981  1.00  0.00    -0.077 C 
ATOM      2  C   UNL     1     -12.737 -39.703  37.060  1.00  0.00    -0.028 C 
ATOM      3  C   UNL     1     -11.661 -37.778  35.982  1.00  0.00     0.039 C 
ENDROOT
BRANCH   1   4
ATOM      4  C   UNL     1     -13.412 -37.411  37.874  1.00  0.00     0.034 C 
BRANCH   4   5
ATOM      5  C   UNL     1     -12.496 -36.661  38.853  1.00  0.00     0.032 C 
BRANCH   5   6
ATOM      6  C   UNL     1     -11.887 -37.588  39.877  1.00  0.00    -0.028 C 
ATOM      7  C   UNL     1     -10.110 -38.820  41.043  1.00  0.00     0.039 C 
ATOM      8  C   UNL     1     -10.563 -37.826  40.004  1.00  0.00    -0.080 C 
ATOM      9  C   UNL     1      -9.534 -37.119  39.153  1.00  0.00     0.039 C 
ENDBRANCH   5   6
ENDBRANCH   4   5
ENDBRANCH   1   4
BRANCH   2  10
ATOM     10  C   UNL     1     -13.701 -40.444  37.956  1.00  0.00     0.035 C 
BRANCH  10  11
ATOM     11  C   UNL     1     -13.085 -41.735  38.510  1.00  0.00     0.079 C 
BRANCH  11  12
ATOM     12  C   UNL     1     -12.598 -41.554  39.924  1.00  0.00     0.130 C 
ATOM     13  O   UNL     1     -11.505 -41.992  40.247  1.00  0.00    -0.300 OA
ATOM     14  C   UNL     1     -13.419 -40.811  40.934  1.00  0.00     0.087 C 
ENDBRANCH  11  12
ENDBRANCH  10  11
ENDBRANCH   2  10
TORSDOF 6
ENDMDL
MODEL 2
REMARK VINA RESULT:    -5.586      1.976      3.429
REMARK INTER + INTRA:          -8.958
REMARK INTER:                  -7.771
REMARK INTRA:                  -1.187
REMARK UNBOUND:                -1.414
REMARK SMILES CC(=O)CCC=C(C)CCC=C(C)C
REMARK SMILES IDX 7 1 6 2 8 3 9 4 10 5 11 6 13 7 12 8 14 9 5 10 4 11 2 12 3 13
REMARK SMILES IDX 1 14
REMARK H PARENT
REMARK Flexibility Score: inf
ROOT
ATOM      1  C   UNL     1     -10.837 -37.430  37.705  1.00  0.00    -0.077 C 
ATOM      2  C   UNL     1     -11.095 -38.086  38.858  1.00  0.00    -0.028 C 
ATOM      3  C   UNL     1      -9.690 -36.453  37.682  1.00  0.00     0.039 C 
ENDROOT
BRANCH   1   4
ATOM      4  C   UNL     1     -11.672 -37.607  36.448  1.00  0.00     0.034 C 
BRANCH   4   5
ATOM      5  C   UNL     1     -12.510 -36.356  36.139  1.00  0.00     0.032 C 
BRANCH   5   6
ATOM      6  C   UNL     1     -13.593 -36.136  37.168  1.00  0.00    -0.028 C 
ATOM      7  C   UNL     1     -14.772 -35.016  39.009  1.00  0.00     0.039 C 
ATOM      8  C   UNL     1     -13.657 -35.071  37.997  1.00  0.00    -0.080 C 
ATOM      9  C   UNL     1     -12.661 -33.937  37.925  1.00  0.00     0.039 C 
ENDBRANCH   5   6
ENDBRANCH   4   5
ENDBRANCH   1   4
BRANCH   2  10
ATOM     10  C   UNL     1     -12.162 -39.141  39.035  1.00  0.00     0.035 C 
BRANCH  10  11
ATOM     11  C   UNL     1     -13.164 -38.758  40.132  1.00  0.00     0.079 C 
BRANCH  11  12
ATOM     12  C   UNL     1     -13.208 -39.793  41.226  1.00  0.00     0.130 C 
ATOM     13  O   UNL     1     -12.947 -39.469  42.374  1.00  0.00    -0.300 OA
ATOM     14  C   UNL     1     -13.604 -41.209  40.934  1.00  0.00     0.087 C 
ENDBRANCH  11  12
ENDBRANCH  10  11
ENDBRANCH   2  10
TORSDOF 6
ENDMDL
MODEL 3
REMARK VINA RESULT:    -5.576      1.840      3.109
REMARK INTER + INTRA:          -8.946
REMARK INTER:                  -7.711
REMARK INTRA:                  -1.235
REMARK UNBOUND:                -1.414
REMARK SMILES CC(=O)CCC=C(C)CCC=C(C)C
REMARK SMILES IDX 7 1 6 2 8 3 9 4 10 5 11 6 13 7 12 8 14 9 5 10 4 11 2 12 3 13
REMARK SMILES IDX 1 14
REMARK H PARENT
REMARK Flexibility Score: inf
ROOT
ATOM      1  C   UNL     1     -14.268 -36.117  38.303  1.00  0.00    -0.077 C 
ATOM      2  C   UNL     1     -14.051 -37.278  38.960  1.00  0.00    -0.028 C 
ATOM      3  C   UNL     1     -14.765 -34.933  39.092  1.00  0.00     0.039 C 
ENDROOT
BRANCH   1   4
ATOM      4  C   UNL     1     -14.068 -35.965  36.804  1.00  0.00     0.034 C 
BRANCH   4   5
ATOM      5  C   UNL     1     -12.791 -35.176  36.476  1.00  0.00     0.032 C 
BRANCH   5   6
ATOM      6  C   UNL     1     -11.681 -36.078  35.991  1.00  0.00    -0.028 C 
ATOM      7  C   UNL     1      -9.589 -37.360  36.112  1.00  0.00     0.039 C 
ATOM      8  C   UNL     1     -10.650 -36.503  36.754  1.00  0.00    -0.080 C 
ATOM      9  C   UNL     1     -10.543 -36.160  38.221  1.00  0.00     0.039 C 
ENDBRANCH   5   6
ENDBRANCH   4   5
ENDBRANCH   1   4
BRANCH   2  10
ATOM     10  C   UNL     1     -13.495 -38.536  38.336  1.00  0.00     0.035 C 
BRANCH  10  11
ATOM     11  C   UNL     1     -12.529 -39.260  39.283  1.00  0.00     0.079 C 
BRANCH  11  12
ATOM     12  C   UNL     1     -12.979 -40.671  39.560  1.00  0.00     0.130 C 
ATOM     13  O   UNL     1     -12.844 -41.527  38.698  1.00  0.00    -0.300 OA
ATOM     14  C   UNL     1     -13.557 -41.051  40.889  1.00  0.00     0.087 C 
ENDBRANCH  11  12
ENDBRANCH  10  11
ENDBRANCH   2  10
TORSDOF 6
ENDMDL
MODEL 4
REMARK VINA RESULT:    -5.562      2.438      5.043
REMARK INTER + INTRA:          -8.926
REMARK INTER:                  -7.488
REMARK INTRA:                  -1.438
REMARK UNBOUND:                -1.414
REMARK SMILES CC(=O)CCC=C(C)CCC=C(C)C
REMARK SMILES IDX 7 1 6 2 8 3 9 4 10 5 11 6 13 7 12 8 14 9 5 10 4 11 2 12 3 13
REMARK SMILES IDX 1 14
REMARK H PARENT
REMARK Flexibility Score: inf
ROOT
ATOM      1  C   UNL     1     -11.165 -38.524  41.463  1.00  0.00    -0.077 C 
ATOM      2  C   UNL     1     -10.439 -38.388  40.331  1.00  0.00    -0.028 C 
ATOM      3  C   UNL     1     -10.429 -38.617  42.775  1.00  0.00     0.039 C 
ENDROOT
BRANCH   1   4
ATOM      4  C   UNL     1     -12.681 -38.620  41.467  1.00  0.00     0.034 C 
BRANCH   4   5
ATOM      5  C   UNL     1     -13.160 -40.073  41.607  1.00  0.00     0.032 C 
BRANCH   5   6
ATOM      6  C   UNL     1     -13.369 -40.729  40.263  1.00  0.00    -0.028 C 
ATOM      7  C   UNL     1     -12.871 -42.200  38.360  1.00  0.00     0.039 C 
ATOM      8  C   UNL     1     -12.561 -41.676  39.739  1.00  0.00    -0.080 C 
ATOM      9  C   UNL     1     -11.378 -42.231  40.496  1.00  0.00     0.039 C 
ENDBRANCH   5   6
ENDBRANCH   4   5
ENDBRANCH   1   4
BRANCH   2  10
ATOM     10  C   UNL     1     -11.017 -38.216  38.947  1.00  0.00     0.035 C 
BRANCH  10  11
ATOM     11  C   UNL     1     -11.122 -36.736  38.556  1.00  0.00     0.079 C 
BRANCH  11  12
ATOM     12  C   UNL     1     -12.553 -36.328  38.316  1.00  0.00     0.130 C 
ATOM     13  O   UNL     1     -12.835 -35.142  38.227  1.00  0.00    -0.300 OA
ATOM     14  C   UNL     1     -13.631 -37.354  38.148  1.00  0.00     0.087 C 
ENDBRANCH  11  12
ENDBRANCH  10  11
ENDBRANCH   2  10
TORSDOF 6
ENDMDL
MODEL 5
REMARK VINA RESULT:    -5.548      2.975      5.367
REMARK INTER + INTRA:          -8.908
REMARK INTER:                  -7.867
REMARK INTRA:                  -1.041
REMARK UNBOUND:                -1.414
REMARK SMILES CC(=O)CCC=C(C)CCC=C(C)C
REMARK SMILES IDX 7 1 6 2 8 3 9 4 10 5 11 6 13 7 12 8 14 9 5 10 4 11 2 12 3 13
REMARK SMILES IDX 1 14
REMARK H PARENT
REMARK Flexibility Score: inf
ROOT
ATOM      1  C   UNL     1     -13.375 -37.498  40.968  1.00  0.00    -0.077 C 
ATOM      2  C   UNL     1     -14.489 -36.739  40.871  1.00  0.00    -0.028 C 
ATOM      3  C   UNL     1     -12.910 -37.908  42.342  1.00  0.00     0.039 C 
ENDROOT
BRANCH   1   4
ATOM      4  C   UNL     1     -12.557 -37.925  39.762  1.00  0.00     0.034 C 
BRANCH   4   5
ATOM      5  C   UNL     1     -13.096 -39.221  39.136  1.00  0.00     0.032 C 
BRANCH   5   6
ATOM      6  C   UNL     1     -12.197 -40.400  39.423  1.00  0.00    -0.028 C 
ATOM      7  C   UNL     1     -11.390 -42.398  40.603  1.00  0.00     0.039 C 
ATOM      8  C   UNL     1     -12.406 -41.302  40.407  1.00  0.00    -0.080 C 
ATOM      9  C   UNL     1     -13.627 -41.253  41.295  1.00  0.00     0.039 C 
ENDBRANCH   5   6
ENDBRANCH   4   5
ENDBRANCH   1   4
BRANCH   2  10
ATOM     10  C   UNL     1     -15.126 -36.298  39.575  1.00  0.00     0.035 C 
BRANCH  10  11
ATOM     11  C   UNL     1     -14.682 -34.884  39.175  1.00  0.00     0.079 C 
BRANCH  11  12
ATOM     12  C   UNL     1     -13.703 -34.916  38.029  1.00  0.00     0.130 C 
ATOM     13  O   UNL     1     -12.751 -34.150  38.028  1.00  0.00    -0.300 OA
ATOM     14  C   UNL     1     -13.857 -35.899  36.909  1.00  0.00     0.087 C 
ENDBRANCH  11  12
ENDBRANCH  10  11
ENDBRANCH   2  10
TORSDOF 6
ENDMDL
MODEL 6
REMARK VINA RESULT:    -5.529      2.442      4.738
REMARK INTER + INTRA:          -8.881
REMARK INTER:                  -7.543
REMARK INTRA:                  -1.338
REMARK UNBOUND:                -1.414
REMARK SMILES CC(=O)CCC=C(C)CCC=C(C)C
REMARK SMILES IDX 7 1 6 2 8 3 9 4 10 5 11 6 13 7 12 8 14 9 5 10 4 11 2 12 3 13
REMARK SMILES IDX 1 14
REMARK H PARENT
REMARK Flexibility Score: inf
ROOT
ATOM      1  C   UNL     1     -13.345 -37.442  40.896  1.00  0.00    -0.077 C 
ATOM      2  C   UNL     1     -12.856 -37.505  39.637  1.00  0.00    -0.028 C 
ATOM      3  C   UNL     1     -14.670 -36.758  41.113  1.00  0.00     0.039 C 
ENDROOT
BRANCH   1   4
ATOM      4  C   UNL     1     -12.603 -37.997  42.100  1.00  0.00     0.034 C 
BRANCH   4   5
ATOM      5  C   UNL     1     -13.096 -39.403  42.476  1.00  0.00     0.032 C 
BRANCH   5   6
ATOM      6  C   UNL     1     -12.147 -40.478  42.000  1.00  0.00    -0.028 C 
ATOM      7  C   UNL     1     -11.376 -42.386  40.659  1.00  0.00     0.039 C 
ATOM      8  C   UNL     1     -12.402 -41.330  40.983  1.00  0.00    -0.080 C 
ATOM      9  C   UNL     1     -13.665 -41.243  40.161  1.00  0.00     0.039 C 
ENDBRANCH   5   6
ENDBRANCH   4   5
ENDBRANCH   1   4
BRANCH   2  10
ATOM     10  C   UNL     1     -11.581 -38.207  39.237  1.00  0.00     0.035 C 
BRANCH  10  11
ATOM     11  C   UNL     1     -10.491 -37.211  38.819  1.00  0.00     0.079 C 
BRANCH  11  12
ATOM     12  C   UNL     1      -9.272 -37.325  39.697  1.00  0.00     0.130 C 
ATOM     13  O   UNL     1      -8.268 -36.685  39.421  1.00  0.00    -0.300 OA
ATOM     14  C   UNL     1      -9.282 -38.183  40.925  1.00  0.00     0.087 C 
ENDBRANCH  11  12
ENDBRANCH  10  11
ENDBRANCH   2  10
TORSDOF 6
ENDMDL
MODEL 7
REMARK VINA RESULT:    -5.517      1.713      3.194
REMARK INTER + INTRA:          -8.865
REMARK INTER:                  -7.791
REMARK INTRA:                  -1.075
REMARK UNBOUND:                -1.414
REMARK SMILES CC(=O)CCC=C(C)CCC=C(C)C
REMARK SMILES IDX 7 1 6 2 8 3 9 4 10 5 11 6 13 7 12 8 14 9 5 10 4 11 2 12 3 13
REMARK SMILES IDX 1 14
REMARK H PARENT
REMARK Flexibility Score: inf
ROOT
ATOM      1  C   UNL     1     -12.280 -39.366  36.604  1.00  0.00    -0.077 C 
ATOM      2  C   UNL     1     -12.899 -39.662  37.769  1.00  0.00    -0.028 C 
ATOM      3  C   UNL     1     -12.637 -40.173  35.382  1.00  0.00     0.039 C 
ENDROOT
BRANCH   1   4
ATOM      4  C   UNL     1     -11.219 -38.285  36.482  1.00  0.00     0.034 C 
BRANCH   4   5
ATOM      5  C   UNL     1     -11.721 -37.083  35.667  1.00  0.00     0.032 C 
BRANCH   5   6
ATOM      6  C   UNL     1     -11.745 -35.817  36.489  1.00  0.00    -0.028 C 
ATOM      7  C   UNL     1     -12.723 -34.014  37.841  1.00  0.00     0.039 C 
ATOM      8  C   UNL     1     -12.844 -35.319  37.097  1.00  0.00    -0.080 C 
ATOM      9  C   UNL     1     -14.173 -36.037  37.066  1.00  0.00     0.039 C 
ENDBRANCH   5   6
ENDBRANCH   4   5
ENDBRANCH   1   4
BRANCH   2  10
ATOM     10  C   UNL     1     -12.707 -38.913  39.067  1.00  0.00     0.035 C 
BRANCH  10  11
ATOM     11  C   UNL     1     -11.765 -39.661  40.020  1.00  0.00     0.079 C 
BRANCH  11  12
ATOM     12  C   UNL     1     -12.316 -41.012  40.395  1.00  0.00     0.130 C 
ATOM     13  O   UNL     1     -11.709 -42.022  40.073  1.00  0.00    -0.300 OA
ATOM     14  C   UNL     1     -13.580 -41.137  41.190  1.00  0.00     0.087 C 
ENDBRANCH  11  12
ENDBRANCH  10  11
ENDBRANCH   2  10
TORSDOF 6
ENDMDL
MODEL 8
REMARK VINA RESULT:    -5.495      2.594      4.950
REMARK INTER + INTRA:          -8.837
REMARK INTER:                  -7.697
REMARK INTRA:                  -1.140
REMARK UNBOUND:                -1.414
REMARK SMILES CC(=O)CCC=C(C)CCC=C(C)C
REMARK SMILES IDX 7 1 6 2 8 3 9 4 10 5 11 6 13 7 12 8 14 9 5 10 4 11 2 12 3 13
REMARK SMILES IDX 1 14
REMARK H PARENT
REMARK Flexibility Score: inf
ROOT
ATOM      1  C   UNL     1     -11.778 -37.975  39.760  1.00  0.00    -0.077 C 
ATOM      2  C   UNL     1     -11.851 -37.723  38.435  1.00  0.00    -0.028 C 
ATOM      3  C   UNL     1     -10.413 -38.098  40.389  1.00  0.00     0.039 C 
ENDROOT
BRANCH   1   4
ATOM      4  C   UNL     1     -13.005 -38.173  40.634  1.00  0.00     0.034 C 
BRANCH   4   5
ATOM      5  C   UNL     1     -13.156 -39.634  41.083  1.00  0.00     0.032 C 
BRANCH   5   6
ATOM      6  C   UNL     1     -13.309 -40.571  39.909  1.00  0.00    -0.028 C 
ATOM      7  C   UNL     1     -12.764 -42.455  38.430  1.00  0.00     0.039 C 
ATOM      8  C   UNL     1     -12.520 -41.642  39.675  1.00  0.00    -0.080 C 
ATOM      9  C   UNL     1     -11.421 -42.053  40.627  1.00  0.00     0.039 C 
ENDBRANCH   5   6
ENDBRANCH   4   5
ENDBRANCH   1   4
BRANCH   2  10
ATOM     10  C   UNL     1     -13.131 -37.506  37.663  1.00  0.00     0.035 C 
BRANCH  10  11
ATOM     11  C   UNL     1     -13.162 -36.126  36.992  1.00  0.00     0.079 C 
BRANCH  11  12
ATOM     12  C   UNL     1     -13.488 -35.037  37.981  1.00  0.00     0.130 C 
ATOM     13  O   UNL     1     -12.792 -34.034  38.023  1.00  0.00    -0.300 OA
ATOM     14  C   UNL     1     -14.674 -35.148  38.889  1.00  0.00     0.087 C 
ENDBRANCH  11  12
ENDBRANCH  10  11
ENDBRANCH   2  10
TORSDOF 6
ENDMDL
MODEL 9
REMARK VINA RESULT:    -5.463      2.605      4.920
REMARK INTER + INTRA:          -8.793
REMARK INTER:                  -7.899
REMARK INTRA:                  -0.894
REMARK UNBOUND:                -1.414
REMARK SMILES CC(=O)CCC=C(C)CCC=C(C)C
REMARK SMILES IDX 7 1 6 2 8 3 9 4 10 5 11 6 13 7 12 8 14 9 5 10 4 11 2 12 3 13
REMARK SMILES IDX 1 14
REMARK H PARENT
REMARK Flexibility Score: inf
ROOT
ATOM      1  C   UNL     1     -14.224 -36.881  39.229  1.00  0.00    -0.077 C 
ATOM      2  C   UNL     1     -14.409 -35.891  38.327  1.00  0.00    -0.028 C 
ATOM      3  C   UNL     1     -14.742 -36.676  40.630  1.00  0.00     0.039 C 
ENDROOT
BRANCH   1   4
ATOM      4  C   UNL     1     -13.489 -38.170  38.903  1.00  0.00     0.034 C 
BRANCH   4   5
ATOM      5  C   UNL     1     -12.539 -38.587  40.036  1.00  0.00     0.032 C 
BRANCH   5   6
ATOM      6  C   UNL     1     -11.926 -39.945  39.786  1.00  0.00    -0.028 C 
ATOM      7  C   UNL     1     -11.632 -42.373  40.014  1.00  0.00     0.039 C 
ATOM      8  C   UNL     1     -12.383 -41.101  40.315  1.00  0.00    -0.080 C 
ATOM      9  C   UNL     1     -13.621 -41.155  41.178  1.00  0.00     0.039 C 
ENDBRANCH   5   6
ENDBRANCH   4   5
ENDBRANCH   1   4
BRANCH   2  10
ATOM     10  C   UNL     1     -14.013 -35.960  36.872  1.00  0.00     0.035 C 
BRANCH  10  11
ATOM     11  C   UNL     1     -12.678 -35.249  36.613  1.00  0.00     0.079 C 
BRANCH  11  12
ATOM     12  C   UNL     1     -11.553 -36.234  36.431  1.00  0.00     0.130 C 
ATOM     13  O   UNL     1     -11.479 -36.883  35.399  1.00  0.00    -0.300 OA
ATOM     14  C   UNL     1     -10.499 -36.404  37.483  1.00  0.00     0.087 C 
ENDBRANCH  11  12
ENDBRANCH  10  11
ENDBRANCH   2  10
TORSDOF 6
ENDMDL
