MODEL 1
REMARK VINA RESULT:    -4.554      0.000      0.000
REMARK INTER + INTRA:          -5.643
REMARK INTER:                  -5.353
REMARK INTRA:                  -0.290
REMARK UNBOUND:                -0.290
REMARK SMILES COc1ccc(C=CC(=O)[O-])cc1
REMARK SMILES IDX 6 1 5 2 12 3 4 4 13 5 3 6 7 7 8 8 9 9 10 10 11 11 2 12 1 13
REMARK H PARENT
REMARK Flexibility Score: inf
ROOT
ATOM      1  C   UNL     1       7.916   3.382  20.188  1.00  0.00    -0.025 A 
ATOM      2  C   UNL     1       9.002   4.075  19.635  1.00  0.00     0.012 A 
ATOM      3  C   UNL     1       8.118   2.586  21.328  1.00  0.00     0.012 A 
ATOM      4  C   UNL     1      10.283   3.935  20.179  1.00  0.00     0.047 A 
ATOM      5  C   UNL     1       9.398   2.446  21.871  1.00  0.00     0.047 A 
ATOM      6  C   UNL     1      10.491   3.112  21.303  1.00  0.00     0.118 A 
ENDROOT
BRANCH   1   7
ATOM      7  C   UNL     1       6.565   3.588  19.628  1.00  0.00     0.010 C 
ATOM      8  C   UNL     1       5.995   2.835  18.674  1.00  0.00     0.025 C 
BRANCH   8   9
ATOM      9  C   UNL     1       6.669   1.783  17.888  1.00  0.00     0.064 C 
ATOM     10  O   UNL     1       7.497   2.066  16.982  1.00  0.00    -0.545 OA
ATOM     11  O   UNL     1       6.330   0.454  18.105  1.00  0.00    -0.545 OA
ENDBRANCH   8   9
ENDBRANCH   1   7
BRANCH   6  12
ATOM     12  O   UNL     1      11.755   2.937  21.883  1.00  0.00    -0.497 OA
ATOM     13  C   UNL     1      12.296   3.775  22.900  1.00  0.00     0.278 C 
ENDBRANCH   6  12
TORSDOF 3
ENDMDL
MODEL 2
REMARK VINA RESULT:    -4.406     14.075     15.638
REMARK INTER + INTRA:          -5.469
REMARK INTER:                  -5.186
REMARK INTRA:                  -0.283
REMARK UNBOUND:                -0.290
REMARK SMILES COc1ccc(C=CC(=O)[O-])cc1
REMARK SMILES IDX 6 1 5 2 12 3 4 4 13 5 3 6 7 7 8 8 9 9 10 10 11 11 2 12 1 13
REMARK H PARENT
REMARK Flexibility Score: inf
ROOT
ATOM      1  C   UNL     1      13.467   9.373   7.416  1.00  0.00    -0.025 A 
ATOM      2  C   UNL     1      12.897   8.249   8.031  1.00  0.00     0.012 A 
ATOM      3  C   UNL     1      14.232   9.204   6.250  1.00  0.00     0.012 A 
ATOM      4  C   UNL     1      13.131   6.968   7.520  1.00  0.00     0.047 A 
ATOM      5  C   UNL     1      14.465   7.924   5.740  1.00  0.00     0.047 A 
ATOM      6  C   UNL     1      13.924   6.797   6.369  1.00  0.00     0.118 A 
ENDROOT
BRANCH   1   7
ATOM      7  C   UNL     1      13.162  10.718   7.944  1.00  0.00     0.010 C 
ATOM      8  C   UNL     1      13.889  11.379   8.858  1.00  0.00     0.025 C 
BRANCH   8   9
ATOM      9  C   UNL     1      15.016  10.822   9.630  1.00  0.00     0.064 C 
ATOM     10  O   UNL     1      14.833   9.979  10.548  1.00  0.00    -0.545 OA
ATOM     11  O   UNL     1      16.301  11.289   9.386  1.00  0.00    -0.545 OA
ENDBRANCH   8   9
ENDBRANCH   1   7
BRANCH   6  12
ATOM     12  O   UNL     1      14.190   5.534   5.820  1.00  0.00    -0.497 OA
ATOM     13  C   UNL     1      13.370   4.890   4.849  1.00  0.00     0.278 C 
ENDBRANCH   6  12
TORSDOF 3
ENDMDL
MODEL 3
REMARK VINA RESULT:    -4.395      1.926      2.560
REMARK INTER + INTRA:          -5.457
REMARK INTER:                  -5.144
REMARK INTRA:                  -0.313
REMARK UNBOUND:                -0.290
REMARK SMILES COc1ccc(C=CC(=O)[O-])cc1
REMARK SMILES IDX 6 1 5 2 12 3 4 4 13 5 3 6 7 7 8 8 9 9 10 10 11 11 2 12 1 13
REMARK H PARENT
REMARK Flexibility Score: inf
ROOT
ATOM      1  C   UNL     1       8.798   2.863  19.705  1.00  0.00    -0.025 A 
ATOM      2  C   UNL     1       9.373   1.878  20.521  1.00  0.00     0.012 A 
ATOM      3  C   UNL     1       9.371   4.145  19.669  1.00  0.00     0.012 A 
ATOM      4  C   UNL     1      10.471   2.183  21.331  1.00  0.00     0.047 A 
ATOM      5  C   UNL     1      10.469   4.449  20.478  1.00  0.00     0.047 A 
ATOM      6  C   UNL     1      11.026   3.477  21.318  1.00  0.00     0.118 A 
ENDROOT
BRANCH   1   7
ATOM      7  C   UNL     1       7.672   2.502  18.820  1.00  0.00     0.010 C 
ATOM      8  C   UNL     1       6.372   2.682  19.102  1.00  0.00     0.025 C 
BRANCH   8   9
ATOM      9  C   UNL     1       5.823   3.102  20.406  1.00  0.00     0.064 C 
ATOM     10  O   UNL     1       5.262   2.283  21.180  1.00  0.00    -0.545 OA
ATOM     11  O   UNL     1       5.864   4.445  20.756  1.00  0.00    -0.545 OA
ENDBRANCH   8   9
ENDBRANCH   1   7
BRANCH   6  12
ATOM     12  O   UNL     1      12.125   3.832  22.112  1.00  0.00    -0.497 OA
ATOM     13  C   UNL     1      12.160   3.726  23.532  1.00  0.00     0.278 C 
ENDBRANCH   6  12
TORSDOF 3
ENDMDL
MODEL 4
REMARK VINA RESULT:    -4.346     14.159     15.502
REMARK INTER + INTRA:          -5.398
REMARK INTER:                  -5.105
REMARK INTRA:                  -0.293
REMARK UNBOUND:                -0.290
REMARK SMILES COc1ccc(C=CC(=O)[O-])cc1
REMARK SMILES IDX 6 1 5 2 12 3 4 4 13 5 3 6 7 7 8 8 9 9 10 10 11 11 2 12 1 13
REMARK H PARENT
REMARK Flexibility Score: inf
ROOT
ATOM      1  C   UNL     1      14.124   8.464   8.241  1.00  0.00    -0.025 A 
ATOM      2  C   UNL     1      12.825   7.936   8.243  1.00  0.00     0.012 A 
ATOM      3  C   UNL     1      15.050   8.005   7.290  1.00  0.00     0.012 A 
ATOM      4  C   UNL     1      12.470   6.926   7.343  1.00  0.00     0.047 A 
ATOM      5  C   UNL     1      14.695   6.996   6.391  1.00  0.00     0.047 A 
ATOM      6  C   UNL     1      13.409   6.444   6.410  1.00  0.00     0.118 A 
ENDROOT
BRANCH   1   7
ATOM      7  C   UNL     1      14.459   9.566   9.166  1.00  0.00     0.010 C 
ATOM      8  C   UNL     1      14.138  10.857   8.986  1.00  0.00     0.025 C 
BRANCH   8   9
ATOM      9  C   UNL     1      13.555  11.439   7.762  1.00  0.00     0.064 C 
ATOM     10  O   UNL     1      14.262  12.063   6.928  1.00  0.00    -0.545 OA
ATOM     11  O   UNL     1      12.184  11.356   7.560  1.00  0.00    -0.545 OA
ENDBRANCH   8   9
ENDBRANCH   1   7
BRANCH   6  12
ATOM     12  O   UNL     1      13.103   5.433   5.489  1.00  0.00    -0.497 OA
ATOM     13  C   UNL     1      13.862   4.239   5.322  1.00  0.00     0.278 C 
ENDBRANCH   6  12
TORSDOF 3
ENDMDL
MODEL 5
REMARK VINA RESULT:    -4.229      6.428      8.169
REMARK INTER + INTRA:          -5.262
REMARK INTER:                  -4.975
REMARK INTRA:                  -0.287
REMARK UNBOUND:                -0.290
REMARK SMILES COc1ccc(C=CC(=O)[O-])cc1
REMARK SMILES IDX 6 1 5 2 12 3 4 4 13 5 3 6 7 7 8 8 9 9 10 10 11 11 2 12 1 13
REMARK H PARENT
REMARK Flexibility Score: inf
ROOT
ATOM      1  C   UNL     1       7.938   9.743  18.530  1.00  0.00    -0.025 A 
ATOM      2  C   UNL     1       6.721  10.129  17.950  1.00  0.00     0.012 A 
ATOM      3  C   UNL     1       9.032   9.449  17.699  1.00  0.00     0.012 A 
ATOM      4  C   UNL     1       6.582  10.170  16.559  1.00  0.00     0.047 A 
ATOM      5  C   UNL     1       8.892   9.491  16.310  1.00  0.00     0.047 A 
ATOM      6  C   UNL     1       7.670   9.845  15.726  1.00  0.00     0.118 A 
ENDROOT
BRANCH   1   7
ATOM      7  C   UNL     1       8.076   9.758  20.001  1.00  0.00     0.010 C 
ATOM      8  C   UNL     1       8.125   8.672  20.789  1.00  0.00     0.025 C 
BRANCH   8   9
ATOM      9  C   UNL     1       7.874   7.283  20.360  1.00  0.00     0.064 C 
ATOM     10  O   UNL     1       6.709   6.808  20.314  1.00  0.00    -0.545 OA
ATOM     11  O   UNL     1       8.953   6.460  20.066  1.00  0.00    -0.545 OA
ENDBRANCH   8   9
ENDBRANCH   1   7
BRANCH   6  12
ATOM     12  O   UNL     1       7.580   9.870  14.327  1.00  0.00    -0.497 OA
ATOM     13  C   UNL     1       7.599  11.057  13.540  1.00  0.00     0.278 C 
ENDBRANCH   6  12
TORSDOF 3
ENDMDL
MODEL 6
REMARK VINA RESULT:    -4.211      7.165      8.964
REMARK INTER + INTRA:          -5.240
REMARK INTER:                  -5.004
REMARK INTRA:                  -0.236
REMARK UNBOUND:                -0.290
REMARK SMILES COc1ccc(C=CC(=O)[O-])cc1
REMARK SMILES IDX 6 1 5 2 12 3 4 4 13 5 3 6 7 7 8 8 9 9 10 10 11 11 2 12 1 13
REMARK H PARENT
REMARK Flexibility Score: inf
ROOT
ATOM      1  C   UNL     1       7.915   9.259  18.952  1.00  0.00    -0.025 A 
ATOM      2  C   UNL     1       9.002   9.004  18.104  1.00  0.00     0.012 A 
ATOM      3  C   UNL     1       6.860  10.065  18.493  1.00  0.00     0.012 A 
ATOM      4  C   UNL     1       9.062   9.589  16.835  1.00  0.00     0.047 A 
ATOM      5  C   UNL     1       6.921  10.649  17.225  1.00  0.00     0.047 A 
ATOM      6  C   UNL     1       8.019  10.422  16.387  1.00  0.00     0.118 A 
ENDROOT
BRANCH   1   7
ATOM      7  C   UNL     1       7.849   8.588  20.266  1.00  0.00     0.010 C 
ATOM      8  C   UNL     1       7.902   9.204  21.458  1.00  0.00     0.025 C 
BRANCH   8   9
ATOM      9  C   UNL     1       8.212  10.629  21.679  1.00  0.00     0.064 C 
ATOM     10  O   UNL     1       9.391  11.025  21.871  1.00  0.00    -0.545 OA
ATOM     11  O   UNL     1       7.171  11.546  21.745  1.00  0.00    -0.545 OA
ENDBRANCH   8   9
ENDBRANCH   1   7
BRANCH   6  12
ATOM     12  O   UNL     1       8.034  11.033  15.125  1.00  0.00    -0.497 OA
ATOM     13  C   UNL     1       7.382  10.512  13.972  1.00  0.00     0.278 C 
ENDBRANCH   6  12
TORSDOF 3
ENDMDL
MODEL 7
REMARK VINA RESULT:    -4.037     14.309     15.177
REMARK INTER + INTRA:          -5.035
REMARK INTER:                  -4.738
REMARK INTRA:                  -0.297
REMARK UNBOUND:                -0.290
REMARK SMILES COc1ccc(C=CC(=O)[O-])cc1
REMARK SMILES IDX 6 1 5 2 12 3 4 4 13 5 3 6 7 7 8 8 9 9 10 10 11 11 2 12 1 13
REMARK H PARENT
REMARK Flexibility Score: inf
ROOT
ATOM      1  C   UNL     1      12.730   8.617   7.036  1.00  0.00    -0.025 A 
ATOM      2  C   UNL     1      12.850   9.933   6.567  1.00  0.00     0.012 A 
ATOM      3  C   UNL     1      13.378   8.250   8.227  1.00  0.00     0.012 A 
ATOM      4  C   UNL     1      13.649  10.857   7.249  1.00  0.00     0.047 A 
ATOM      5  C   UNL     1      14.175   9.174   8.908  1.00  0.00     0.047 A 
ATOM      6  C   UNL     1      14.323  10.480   8.427  1.00  0.00     0.118 A 
ENDROOT
BRANCH   1   7
ATOM      7  C   UNL     1      11.840   7.675   6.327  1.00  0.00     0.010 C 
ATOM      8  C   UNL     1      12.243   6.629   5.588  1.00  0.00     0.025 C 
BRANCH   8   9
ATOM      9  C   UNL     1      13.636   6.332   5.203  1.00  0.00     0.064 C 
ATOM     10  O   UNL     1      14.304   5.437   5.784  1.00  0.00    -0.545 OA
ATOM     11  O   UNL     1      14.247   7.104   4.223  1.00  0.00    -0.545 OA
ENDBRANCH   8   9
ENDBRANCH   1   7
BRANCH   6  12
ATOM     12  O   UNL     1      15.136  11.368   9.145  1.00  0.00    -0.497 OA
ATOM     13  C   UNL     1      15.420  11.253  10.536  1.00  0.00     0.278 C 
ENDBRANCH   6  12
TORSDOF 3
ENDMDL
MODEL 8
REMARK VINA RESULT:    -4.013      1.817      5.402
REMARK INTER + INTRA:          -5.007
REMARK INTER:                  -4.698
REMARK INTRA:                  -0.309
REMARK UNBOUND:                -0.290
REMARK SMILES COc1ccc(C=CC(=O)[O-])cc1
REMARK SMILES IDX 6 1 5 2 12 3 4 4 13 5 3 6 7 7 8 8 9 9 10 10 11 11 2 12 1 13
REMARK H PARENT
REMARK Flexibility Score: inf
ROOT
ATOM      1  C   UNL     1       8.767   4.417  20.553  1.00  0.00    -0.025 A 
ATOM      2  C   UNL     1       7.397   4.667  20.710  1.00  0.00     0.012 A 
ATOM      3  C   UNL     1       9.187   3.447  19.627  1.00  0.00     0.012 A 
ATOM      4  C   UNL     1       6.455   3.923  19.992  1.00  0.00     0.047 A 
ATOM      5  C   UNL     1       8.245   2.704  18.910  1.00  0.00     0.047 A 
ATOM      6  C   UNL     1       6.875   2.929  19.087  1.00  0.00     0.118 A 
ENDROOT
BRANCH   1   7
ATOM      7  C   UNL     1       9.743   5.251  21.283  1.00  0.00     0.010 C 
ATOM      8  C   UNL     1      10.244   4.980  22.499  1.00  0.00     0.025 C 
BRANCH   8   9
ATOM      9  C   UNL     1       9.785   3.906  23.400  1.00  0.00     0.064 C 
ATOM     10  O   UNL     1       8.721   4.012  24.064  1.00  0.00    -0.545 OA
ATOM     11  O   UNL     1      10.581   2.781  23.572  1.00  0.00    -0.545 OA
ENDBRANCH   8   9
ENDBRANCH   1   7
BRANCH   6  12
ATOM     12  O   UNL     1       5.970   2.156  18.346  1.00  0.00    -0.497 OA
ATOM     13  C   UNL     1       6.348   1.212  17.349  1.00  0.00     0.278 C 
ENDBRANCH   6  12
TORSDOF 3
ENDMDL
