MODEL 1
REMARK VINA RESULT:    -5.314      0.000      0.000
REMARK INTER + INTRA:          -9.164
REMARK INTER:                  -8.109
REMARK INTRA:                  -1.055
REMARK UNBOUND:                -1.055
REMARK SMILES CCCCCCCCCCC(=O)[O-]
REMARK SMILES IDX 7 1 8 2 9 3 10 4 11 5 12 6 13 7 6 8 5 9 4 10 3 11 2 12 1 13
REMARK H PARENT
REMARK Flexibility Score: inf
ROOT
ATOM      1  C   UNL     1      50.755  51.629   6.639  1.00  0.00     0.000 C 
ENDROOT
BRANCH   1   2
ATOM      2  C   UNL     1      51.893  51.669   5.609  1.00  0.00     0.000 C 
BRANCH   2   3
ATOM      3  C   UNL     1      52.909  50.526   5.789  1.00  0.00     0.006 C 
BRANCH   3   4
ATOM      4  C   UNL     1      53.551  50.048   4.474  1.00  0.00     0.053 C 
BRANCH   4   5
ATOM      5  C   UNL     1      54.871  50.702   4.202  1.00  0.00     0.041 C 
ATOM      6  O   UNL     1      55.747  50.108   3.518  1.00  0.00    -0.550 OA
ATOM      7  O   UNL     1      55.124  51.983   4.678  1.00  0.00    -0.550 OA
ENDBRANCH   4   5
ENDBRANCH   3   4
ENDBRANCH   2   3
ENDBRANCH   1   2
BRANCH   1   8
ATOM      8  C   UNL     1      50.138  50.227   6.721  1.00  0.00     0.000 C 
BRANCH   8   9
ATOM      9  C   UNL     1      48.691  50.232   6.210  1.00  0.00    -0.000 C 
BRANCH   9  10
ATOM     10  C   UNL     1      48.524  49.277   5.022  1.00  0.00    -0.000 C 
BRANCH  10  11
ATOM     11  C   UNL     1      49.842  48.552   4.711  1.00  0.00    -0.000 C 
BRANCH  11  12
ATOM     12  C   UNL     1      50.342  48.824   3.284  1.00  0.00    -0.003 C 
ATOM     13  C   UNL     1      49.343  49.627   2.451  1.00  0.00     0.004 C 
ENDBRANCH  11  12
ENDBRANCH  10  11
ENDBRANCH   9  10
ENDBRANCH   8   9
ENDBRANCH   1   8
TORSDOF 9
ENDMDL
MODEL 2
REMARK VINA RESULT:    -5.208      2.722      4.854
REMARK INTER + INTRA:          -9.003
REMARK INTER:                  -7.993
REMARK INTRA:                  -1.010
REMARK UNBOUND:                -1.055
REMARK SMILES CCCCCCCCCCC(=O)[O-]
REMARK SMILES IDX 7 1 8 2 9 3 10 4 11 5 12 6 13 7 6 8 5 9 4 10 3 11 2 12 1 13
REMARK H PARENT
REMARK Flexibility Score: inf
ROOT
ATOM      1  C   UNL     1      52.250  50.518   6.899  1.00  0.00     0.000 C 
ENDROOT
BRANCH   1   2
ATOM      2  C   UNL     1      50.735  50.759   6.837  1.00  0.00     0.000 C 
BRANCH   2   3
ATOM      3  C   UNL     1      50.048  49.990   5.693  1.00  0.00     0.006 C 
BRANCH   3   4
ATOM      4  C   UNL     1      50.966  49.711   4.489  1.00  0.00     0.053 C 
BRANCH   4   5
ATOM      5  C   UNL     1      50.332  48.810   3.474  1.00  0.00     0.041 C 
ATOM      6  O   UNL     1      49.873  49.285   2.401  1.00  0.00    -0.550 OA
ATOM      7  O   UNL     1      50.275  47.440   3.698  1.00  0.00    -0.550 OA
ENDBRANCH   4   5
ENDBRANCH   3   4
ENDBRANCH   2   3
ENDBRANCH   1   2
BRANCH   1   8
ATOM      8  C   UNL     1      52.991  51.793   7.320  1.00  0.00     0.000 C 
BRANCH   8   9
ATOM      9  C   UNL     1      52.684  52.950   6.361  1.00  0.00    -0.000 C 
BRANCH   9  10
ATOM     10  C   UNL     1      53.259  52.677   4.966  1.00  0.00    -0.000 C 
BRANCH  10  11
ATOM     11  C   UNL     1      54.787  52.839   4.961  1.00  0.00    -0.000 C 
BRANCH  11  12
ATOM     12  C   UNL     1      55.504  51.637   4.326  1.00  0.00    -0.003 C 
ATOM     13  C   UNL     1      54.570  50.452   4.083  1.00  0.00     0.004 C 
ENDBRANCH  11  12
ENDBRANCH  10  11
ENDBRANCH   9  10
ENDBRANCH   8   9
ENDBRANCH   1   8
TORSDOF 9
ENDMDL
MODEL 3
REMARK VINA RESULT:    -5.188      1.949      2.719
REMARK INTER + INTRA:          -8.972
REMARK INTER:                  -8.059
REMARK INTRA:                  -0.913
REMARK UNBOUND:                -1.055
REMARK SMILES CCCCCCCCCCC(=O)[O-]
REMARK SMILES IDX 7 1 8 2 9 3 10 4 11 5 12 6 13 7 6 8 5 9 4 10 3 11 2 12 1 13
REMARK H PARENT
REMARK Flexibility Score: inf
ROOT
ATOM      1  C   UNL     1      52.235  49.941   4.233  1.00  0.00     0.000 C 
ENDROOT
BRANCH   1   2
ATOM      2  C   UNL     1      53.648  49.723   4.794  1.00  0.00     0.000 C 
BRANCH   2   3
ATOM      3  C   UNL     1      54.684  50.706   4.219  1.00  0.00     0.006 C 
BRANCH   3   4
ATOM      4  C   UNL     1      54.516  52.153   4.717  1.00  0.00     0.053 C 
BRANCH   4   5
ATOM      5  C   UNL     1      54.492  52.253   6.211  1.00  0.00     0.041 C 
ATOM      6  O   UNL     1      55.462  51.824   6.893  1.00  0.00    -0.550 OA
ATOM      7  O   UNL     1      53.412  52.847   6.851  1.00  0.00    -0.550 OA
ENDBRANCH   4   5
ENDBRANCH   3   4
ENDBRANCH   2   3
ENDBRANCH   1   2
BRANCH   1   8
ATOM      8  C   UNL     1      51.282  50.440   5.325  1.00  0.00     0.000 C 
BRANCH   8   9
ATOM      9  C   UNL     1      50.669  51.794   4.945  1.00  0.00    -0.000 C 
BRANCH   9  10
ATOM     10  C   UNL     1      49.161  51.665   4.695  1.00  0.00    -0.000 C 
BRANCH  10  11
ATOM     11  C   UNL     1      48.857  51.603   3.190  1.00  0.00    -0.000 C 
BRANCH  11  12
ATOM     12  C   UNL     1      48.191  50.282   2.777  1.00  0.00    -0.003 C 
ATOM     13  C   UNL     1      49.201  49.227   2.325  1.00  0.00     0.004 C 
ENDBRANCH  11  12
ENDBRANCH  10  11
ENDBRANCH   9  10
ENDBRANCH   8   9
ENDBRANCH   1   8
TORSDOF 9
ENDMDL
MODEL 4
REMARK VINA RESULT:    -5.184      2.170      3.344
REMARK INTER + INTRA:          -8.966
REMARK INTER:                  -8.205
REMARK INTRA:                  -0.761
REMARK UNBOUND:                -1.055
REMARK SMILES CCCCCCCCCCC(=O)[O-]
REMARK SMILES IDX 7 1 8 2 9 3 10 4 11 5 12 6 13 7 6 8 5 9 4 10 3 11 2 12 1 13
REMARK H PARENT
REMARK Flexibility Score: inf
ROOT
ATOM      1  C   UNL     1      52.064  49.889   4.627  1.00  0.00     0.000 C 
ENDROOT
BRANCH   1   2
ATOM      2  C   UNL     1      53.588  49.744   4.507  1.00  0.00     0.000 C 
BRANCH   2   3
ATOM      3  C   UNL     1      54.333  51.086   4.633  1.00  0.00     0.006 C 
BRANCH   3   4
ATOM      4  C   UNL     1      53.426  52.272   5.009  1.00  0.00     0.053 C 
BRANCH   4   5
ATOM      5  C   UNL     1      53.551  52.664   6.449  1.00  0.00     0.041 C 
ATOM      6  O   UNL     1      52.557  53.125   7.072  1.00  0.00    -0.550 OA
ATOM      7  O   UNL     1      54.758  52.491   7.114  1.00  0.00    -0.550 OA
ENDBRANCH   4   5
ENDBRANCH   3   4
ENDBRANCH   2   3
ENDBRANCH   1   2
BRANCH   1   8
ATOM      8  C   UNL     1      51.350  49.133   3.499  1.00  0.00     0.000 C 
BRANCH   8   9
ATOM      9  C   UNL     1      49.832  49.121   3.719  1.00  0.00    -0.000 C 
BRANCH   9  10
ATOM     10  C   UNL     1      49.136  50.147   2.817  1.00  0.00    -0.000 C 
BRANCH  10  11
ATOM     11  C   UNL     1      48.378  51.189   3.653  1.00  0.00    -0.000 C 
BRANCH  11  12
ATOM     12  C   UNL     1      48.884  52.620   3.411  1.00  0.00    -0.003 C 
ATOM     13  C   UNL     1      49.854  53.095   4.492  1.00  0.00     0.004 C 
ENDBRANCH  11  12
ENDBRANCH  10  11
ENDBRANCH   9  10
ENDBRANCH   8   9
ENDBRANCH   1   8
TORSDOF 9
ENDMDL
MODEL 5
REMARK VINA RESULT:    -5.169      3.076      4.903
REMARK INTER + INTRA:          -8.943
REMARK INTER:                  -8.006
REMARK INTRA:                  -0.937
REMARK UNBOUND:                -1.055
REMARK SMILES CCCCCCCCCCC(=O)[O-]
REMARK SMILES IDX 7 1 8 2 9 3 10 4 11 5 12 6 13 7 6 8 5 9 4 10 3 11 2 12 1 13
REMARK H PARENT
REMARK Flexibility Score: inf
ROOT
ATOM      1  C   UNL     1      49.207  52.453   4.287  1.00  0.00     0.000 C 
ENDROOT
BRANCH   1   2
ATOM      2  C   UNL     1      48.548  51.067   4.222  1.00  0.00     0.000 C 
BRANCH   2   3
ATOM      3  C   UNL     1      48.456  50.510   2.790  1.00  0.00     0.006 C 
BRANCH   3   4
ATOM      4  C   UNL     1      49.576  49.517   2.432  1.00  0.00     0.053 C 
BRANCH   4   5
ATOM      5  C   UNL     1      49.368  48.164   3.039  1.00  0.00     0.041 C 
ATOM      6  O   UNL     1      50.031  47.812   4.051  1.00  0.00    -0.550 OA
ATOM      7  O   UNL     1      48.418  47.302   2.507  1.00  0.00    -0.550 OA
ENDBRANCH   4   5
ENDBRANCH   3   4
ENDBRANCH   2   3
ENDBRANCH   1   2
BRANCH   1   8
ATOM      8  C   UNL     1      50.561  52.383   5.006  1.00  0.00     0.000 C 
BRANCH   8   9
ATOM      9  C   UNL     1      50.778  51.002   5.636  1.00  0.00    -0.000 C 
BRANCH   9  10
ATOM     10  C   UNL     1      52.271  50.659   5.710  1.00  0.00    -0.000 C 
BRANCH  10  11
ATOM     11  C   UNL     1      52.724  49.904   4.450  1.00  0.00    -0.000 C 
BRANCH  11  12
ATOM     12  C   UNL     1      54.216  50.107   4.146  1.00  0.00    -0.003 C 
ATOM     13  C   UNL     1      54.701  51.518   4.481  1.00  0.00     0.004 C 
ENDBRANCH  11  12
ENDBRANCH  10  11
ENDBRANCH   9  10
ENDBRANCH   8   9
ENDBRANCH   1   8
TORSDOF 9
ENDMDL
MODEL 6
REMARK VINA RESULT:    -5.163      3.266      5.586
REMARK INTER + INTRA:          -8.934
REMARK INTER:                  -8.136
REMARK INTRA:                  -0.799
REMARK UNBOUND:                -1.055
REMARK SMILES CCCCCCCCCCC(=O)[O-]
REMARK SMILES IDX 7 1 8 2 9 3 10 4 11 5 12 6 13 7 6 8 5 9 4 10 3 11 2 12 1 13
REMARK H PARENT
REMARK Flexibility Score: inf
ROOT
ATOM      1  C   UNL     1      51.637  49.404   3.910  1.00  0.00     0.000 C 
ENDROOT
BRANCH   1   2
ATOM      2  C   UNL     1      50.368  48.654   3.479  1.00  0.00     0.000 C 
BRANCH   2   3
ATOM      3  C   UNL     1      49.563  49.401   2.401  1.00  0.00     0.006 C 
BRANCH   3   4
ATOM      4  C   UNL     1      48.050  49.459   2.680  1.00  0.00     0.053 C 
BRANCH   4   5
ATOM      5  C   UNL     1      47.727  50.086   4.002  1.00  0.00     0.041 C 
ATOM      6  O   UNL     1      47.324  49.375   4.961  1.00  0.00    -0.550 OA
ATOM      7  O   UNL     1      47.901  51.452   4.184  1.00  0.00    -0.550 OA
ENDBRANCH   4   5
ENDBRANCH   3   4
ENDBRANCH   2   3
ENDBRANCH   1   2
BRANCH   1   8
ATOM      8  C   UNL     1      51.293  50.578   4.835  1.00  0.00     0.000 C 
BRANCH   8   9
ATOM      9  C   UNL     1      51.994  50.433   6.192  1.00  0.00    -0.000 C 
BRANCH   9  10
ATOM     10  C   UNL     1      53.512  50.310   6.017  1.00  0.00    -0.000 C 
BRANCH  10  11
ATOM     11  C   UNL     1      54.151  51.687   5.780  1.00  0.00    -0.000 C 
BRANCH  11  12
ATOM     12  C   UNL     1      55.011  51.726   4.507  1.00  0.00    -0.003 C 
ATOM     13  C   UNL     1      55.198  50.346   3.877  1.00  0.00     0.004 C 
ENDBRANCH  11  12
ENDBRANCH  10  11
ENDBRANCH   9  10
ENDBRANCH   8   9
ENDBRANCH   1   8
TORSDOF 9
ENDMDL
MODEL 7
REMARK VINA RESULT:    -5.148      2.270      3.204
REMARK INTER + INTRA:          -8.911
REMARK INTER:                  -8.338
REMARK INTRA:                  -0.573
REMARK UNBOUND:                -1.055
REMARK SMILES CCCCCCCCCCC(=O)[O-]
REMARK SMILES IDX 7 1 8 2 9 3 10 4 11 5 12 6 13 7 6 8 5 9 4 10 3 11 2 12 1 13
REMARK H PARENT
REMARK Flexibility Score: inf
ROOT
ATOM      1  C   UNL     1      53.272  49.889   4.257  1.00  0.00     0.000 C 
ENDROOT
BRANCH   1   2
ATOM      2  C   UNL     1      54.453  50.847   4.474  1.00  0.00     0.000 C 
BRANCH   2   3
ATOM      3  C   UNL     1      54.020  52.227   5.001  1.00  0.00     0.006 C 
BRANCH   3   4
ATOM      4  C   UNL     1      54.772  52.676   6.268  1.00  0.00     0.053 C 
BRANCH   4   5
ATOM      5  C   UNL     1      54.117  52.201   7.529  1.00  0.00     0.041 C 
ATOM      6  O   UNL     1      53.180  52.865   8.048  1.00  0.00    -0.550 OA
ATOM      7  O   UNL     1      54.520  51.008   8.115  1.00  0.00    -0.550 OA
ENDBRANCH   4   5
ENDBRANCH   3   4
ENDBRANCH   2   3
ENDBRANCH   1   2
BRANCH   1   8
ATOM      8  C   UNL     1      52.145  50.172   5.258  1.00  0.00     0.000 C 
BRANCH   8   9
ATOM      9  C   UNL     1      50.771  49.932   4.621  1.00  0.00    -0.000 C 
BRANCH   9  10
ATOM     10  C   UNL     1      50.854  48.874   3.514  1.00  0.00    -0.000 C 
BRANCH  10  11
ATOM     11  C   UNL     1      49.471  48.267   3.230  1.00  0.00    -0.000 C 
BRANCH  11  12
ATOM     12  C   UNL     1      48.732  48.991   2.095  1.00  0.00    -0.003 C 
ATOM     13  C   UNL     1      47.275  49.299   2.441  1.00  0.00     0.004 C 
ENDBRANCH  11  12
ENDBRANCH  10  11
ENDBRANCH   9  10
ENDBRANCH   8   9
ENDBRANCH   1   8
TORSDOF 9
ENDMDL
MODEL 8
REMARK VINA RESULT:    -5.143      3.574      5.618
REMARK INTER + INTRA:          -8.904
REMARK INTER:                  -8.237
REMARK INTRA:                  -0.667
REMARK UNBOUND:                -1.055
REMARK SMILES CCCCCCCCCCC(=O)[O-]
REMARK SMILES IDX 7 1 8 2 9 3 10 4 11 5 12 6 13 7 6 8 5 9 4 10 3 11 2 12 1 13
REMARK H PARENT
REMARK Flexibility Score: inf
ROOT
ATOM      1  C   UNL     1      50.948  50.655   4.983  1.00  0.00     0.000 C 
ENDROOT
BRANCH   1   2
ATOM      2  C   UNL     1      51.562  49.513   4.160  1.00  0.00     0.000 C 
BRANCH   2   3
ATOM      3  C   UNL     1      50.510  48.684   3.401  1.00  0.00     0.006 C 
BRANCH   3   4
ATOM      4  C   UNL     1      49.556  49.527   2.535  1.00  0.00     0.053 C 
BRANCH   4   5
ATOM      5  C   UNL     1      48.191  48.919   2.417  1.00  0.00     0.041 C 
ATOM      6  O   UNL     1      47.935  48.106   1.489  1.00  0.00    -0.550 OA
ATOM      7  O   UNL     1      47.210  49.227   3.350  1.00  0.00    -0.550 OA
ENDBRANCH   4   5
ENDBRANCH   3   4
ENDBRANCH   2   3
ENDBRANCH   1   2
BRANCH   1   8
ATOM      8  C   UNL     1      51.563  50.711   6.387  1.00  0.00     0.000 C 
BRANCH   8   9
ATOM      9  C   UNL     1      53.095  50.697   6.318  1.00  0.00    -0.000 C 
BRANCH   9  10
ATOM     10  C   UNL     1      53.661  52.123   6.331  1.00  0.00    -0.000 C 
BRANCH  10  11
ATOM     11  C   UNL     1      54.432  52.420   5.036  1.00  0.00    -0.000 C 
BRANCH  11  12
ATOM     12  C   UNL     1      54.794  51.145   4.260  1.00  0.00    -0.003 C 
ATOM     13  C   UNL     1      56.273  51.084   3.880  1.00  0.00     0.004 C 
ENDBRANCH  11  12
ENDBRANCH  10  11
ENDBRANCH   9  10
ENDBRANCH   8   9
ENDBRANCH   1   8
TORSDOF 9
ENDMDL
MODEL 9
REMARK VINA RESULT:    -5.113      1.383      1.897
REMARK INTER + INTRA:          -8.857
REMARK INTER:                  -8.025
REMARK INTRA:                  -0.832
REMARK UNBOUND:                -1.055
REMARK SMILES CCCCCCCCCCC(=O)[O-]
REMARK SMILES IDX 7 1 8 2 9 3 10 4 11 5 12 6 13 7 6 8 5 9 4 10 3 11 2 12 1 13
REMARK H PARENT
REMARK Flexibility Score: inf
ROOT
ATOM      1  C   UNL     1      52.877  50.750   7.189  1.00  0.00     0.000 C 
ENDROOT
BRANCH   1   2
ATOM      2  C   UNL     1      53.574  52.088   6.907  1.00  0.00     0.000 C 
BRANCH   2   3
ATOM      3  C   UNL     1      54.927  51.924   6.191  1.00  0.00     0.006 C 
BRANCH   3   4
ATOM      4  C   UNL     1      54.831  51.959   4.655  1.00  0.00     0.053 C 
BRANCH   4   5
ATOM      5  C   UNL     1      54.902  50.596   4.039  1.00  0.00     0.041 C 
ATOM      6  O   UNL     1      55.957  50.210   3.468  1.00  0.00    -0.550 OA
ATOM      7  O   UNL     1      53.813  49.738   4.121  1.00  0.00    -0.550 OA
ENDBRANCH   4   5
ENDBRANCH   3   4
ENDBRANCH   2   3
ENDBRANCH   1   2
BRANCH   1   8
ATOM      8  C   UNL     1      51.382  50.828   6.854  1.00  0.00     0.000 C 
BRANCH   8   9
ATOM      9  C   UNL     1      51.138  51.724   5.633  1.00  0.00    -0.000 C 
BRANCH   9  10
ATOM     10  C   UNL     1      50.207  51.040   4.624  1.00  0.00    -0.000 C 
BRANCH  10  11
ATOM     11  C   UNL     1      50.256  49.512   4.782  1.00  0.00    -0.000 C 
BRANCH  11  12
ATOM     12  C   UNL     1      50.441  48.787   3.440  1.00  0.00    -0.003 C 
ATOM     13  C   UNL     1      49.489  49.294   2.357  1.00  0.00     0.004 C 
ENDBRANCH  11  12
ENDBRANCH  10  11
ENDBRANCH   9  10
ENDBRANCH   8   9
ENDBRANCH   1   8
TORSDOF 9
ENDMDL
