MODEL 1
REMARK VINA RESULT:    -3.880      0.000      0.000
REMARK INTER + INTRA:          -7.083
REMARK INTER:                  -5.921
REMARK INTRA:                  -1.162
REMARK UNBOUND:                -1.162
REMARK SMILES CCCCCCCCCCC(=O)[O-]
REMARK SMILES IDX 7 1 8 2 9 3 10 4 11 5 12 6 13 7 6 8 5 9 4 10 3 11 2 12 1 13
REMARK H PARENT
REMARK Flexibility Score: inf
ROOT
ATOM      1  C   UNL     1       3.300  24.475  14.913  1.00  0.00     0.000 C 
ENDROOT
BRANCH   1   2
ATOM      2  C   UNL     1       3.033  25.773  15.695  1.00  0.00     0.000 C 
BRANCH   2   3
ATOM      3  C   UNL     1       4.141  26.119  16.715  1.00  0.00     0.006 C 
BRANCH   3   4
ATOM      4  C   UNL     1       5.262  26.988  16.123  1.00  0.00     0.053 C 
BRANCH   4   5
ATOM      5  C   UNL     1       6.442  26.164  15.709  1.00  0.00     0.041 C 
ATOM      6  O   UNL     1       7.264  25.752  16.571  1.00  0.00    -0.550 OA
ATOM      7  O   UNL     1       6.647  25.868  14.367  1.00  0.00    -0.550 OA
ENDBRANCH   4   5
ENDBRANCH   3   4
ENDBRANCH   2   3
ENDBRANCH   1   2
BRANCH   1   8
ATOM      8  C   UNL     1       3.497  24.718  13.407  1.00  0.00     0.000 C 
BRANCH   8   9
ATOM      9  C   UNL     1       2.291  25.416  12.759  1.00  0.00    -0.000 C 
BRANCH   9  10
ATOM     10  C   UNL     1       2.704  26.583  11.848  1.00  0.00    -0.000 C 
BRANCH  10  11
ATOM     11  C   UNL     1       4.113  27.077  12.196  1.00  0.00    -0.000 C 
BRANCH  11  12
ATOM     12  C   UNL     1       4.059  28.426  12.923  1.00  0.00    -0.003 C 
ATOM     13  C   UNL     1       5.393  29.159  12.825  1.00  0.00     0.004 C 
ENDBRANCH  11  12
ENDBRANCH  10  11
ENDBRANCH   9  10
ENDBRANCH   8   9
ENDBRANCH   1   8
TORSDOF 9
ENDMDL
MODEL 2
REMARK VINA RESULT:    -3.838      1.707      4.264
REMARK INTER + INTRA:          -7.019
REMARK INTER:                  -6.143
REMARK INTRA:                  -0.876
REMARK UNBOUND:                -1.162
REMARK SMILES CCCCCCCCCCC(=O)[O-]
REMARK SMILES IDX 7 1 8 2 9 3 10 4 11 5 12 6 13 7 6 8 5 9 4 10 3 11 2 12 1 13
REMARK H PARENT
REMARK Flexibility Score: inf
ROOT
ATOM      1  C   UNL     1       4.223  25.071  13.396  1.00  0.00     0.000 C 
ENDROOT
BRANCH   1   2
ATOM      2  C   UNL     1       3.012  25.725  12.709  1.00  0.00     0.000 C 
BRANCH   2   3
ATOM      3  C   UNL     1       3.375  26.975  11.876  1.00  0.00     0.006 C 
BRANCH   3   4
ATOM      4  C   UNL     1       3.365  28.275  12.696  1.00  0.00     0.053 C 
BRANCH   4   5
ATOM      5  C   UNL     1       4.740  28.850  12.841  1.00  0.00     0.041 C 
ATOM      6  O   UNL     1       5.020  29.968  12.332  1.00  0.00    -0.550 OA
ATOM      7  O   UNL     1       5.723  28.139  13.519  1.00  0.00    -0.550 OA
ENDBRANCH   4   5
ENDBRANCH   3   4
ENDBRANCH   2   3
ENDBRANCH   1   2
BRANCH   1   8
ATOM      8  C   UNL     1       3.999  24.837  14.899  1.00  0.00     0.000 C 
BRANCH   8   9
ATOM      9  C   UNL     1       3.572  26.116  15.638  1.00  0.00    -0.000 C 
BRANCH   9  10
ATOM     10  C   UNL     1       4.227  26.243  17.023  1.00  0.00    -0.000 C 
BRANCH  10  11
ATOM     11  C   UNL     1       5.508  27.081  16.949  1.00  0.00    -0.000 C 
BRANCH  11  12
ATOM     12  C   UNL     1       6.753  26.187  16.974  1.00  0.00    -0.003 C 
ATOM     13  C   UNL     1       7.443  26.164  15.614  1.00  0.00     0.004 C 
ENDBRANCH  11  12
ENDBRANCH  10  11
ENDBRANCH   9  10
ENDBRANCH   8   9
ENDBRANCH   1   8
TORSDOF 9
ENDMDL
MODEL 3
REMARK VINA RESULT:    -3.835      2.004      3.925
REMARK INTER + INTRA:          -7.015
REMARK INTER:                  -6.005
REMARK INTRA:                  -1.010
REMARK UNBOUND:                -1.162
REMARK SMILES CCCCCCCCCCC(=O)[O-]
REMARK SMILES IDX 7 1 8 2 9 3 10 4 11 5 12 6 13 7 6 8 5 9 4 10 3 11 2 12 1 13
REMARK H PARENT
REMARK Flexibility Score: inf
ROOT
ATOM      1  C   UNL     1       2.017  25.738  13.868  1.00  0.00     0.000 C 
ENDROOT
BRANCH   1   2
ATOM      2  C   UNL     1       1.944  26.270  12.426  1.00  0.00     0.000 C 
BRANCH   2   3
ATOM      3  C   UNL     1       3.299  26.780  11.887  1.00  0.00     0.006 C 
BRANCH   3   4
ATOM      4  C   UNL     1       3.460  28.305  11.992  1.00  0.00     0.053 C 
BRANCH   4   5
ATOM      5  C   UNL     1       4.404  28.687  13.090  1.00  0.00     0.041 C 
ATOM      6  O   UNL     1       5.595  29.002  12.824  1.00  0.00    -0.550 OA
ATOM      7  O   UNL     1       3.976  28.672  14.412  1.00  0.00    -0.550 OA
ENDBRANCH   4   5
ENDBRANCH   3   4
ENDBRANCH   2   3
ENDBRANCH   1   2
BRANCH   1   8
ATOM      8  C   UNL     1       2.485  24.275  13.939  1.00  0.00     0.000 C 
BRANCH   8   9
ATOM      9  C   UNL     1       3.709  24.091  14.851  1.00  0.00    -0.000 C 
BRANCH   9  10
ATOM     10  C   UNL     1       4.420  25.418  15.160  1.00  0.00    -0.000 C 
BRANCH  10  11
ATOM     11  C   UNL     1       5.728  25.537  14.368  1.00  0.00    -0.000 C 
BRANCH  11  12
ATOM     12  C   UNL     1       6.750  26.398  15.120  1.00  0.00    -0.003 C 
ATOM     13  C   UNL     1       6.927  25.917  16.557  1.00  0.00     0.004 C 
ENDBRANCH  11  12
ENDBRANCH  10  11
ENDBRANCH   9  10
ENDBRANCH   8   9
ENDBRANCH   1   8
TORSDOF 9
ENDMDL
MODEL 4
REMARK VINA RESULT:    -3.586      1.105      3.282
REMARK INTER + INTRA:          -6.635
REMARK INTER:                  -5.433
REMARK INTRA:                  -1.202
REMARK UNBOUND:                -1.162
REMARK SMILES CCCCCCCCCCC(=O)[O-]
REMARK SMILES IDX 7 1 8 2 9 3 10 4 11 5 12 6 13 7 6 8 5 9 4 10 3 11 2 12 1 13
REMARK H PARENT
REMARK Flexibility Score: inf
ROOT
ATOM      1  C   UNL     1       3.678  28.465  12.322  1.00  0.00     0.000 C 
ENDROOT
BRANCH   1   2
ATOM      2  C   UNL     1       5.062  28.332  12.980  1.00  0.00     0.000 C 
BRANCH   2   3
ATOM      3  C   UNL     1       5.017  27.716  14.397  1.00  0.00     0.006 C 
BRANCH   3   4
ATOM      4  C   UNL     1       6.045  26.593  14.605  1.00  0.00     0.053 C 
BRANCH   4   5
ATOM      5  C   UNL     1       6.339  26.374  16.057  1.00  0.00     0.041 C 
ATOM      6  O   UNL     1       7.377  25.753  16.409  1.00  0.00    -0.550 OA
ATOM      7  O   UNL     1       5.453  26.836  17.023  1.00  0.00    -0.550 OA
ENDBRANCH   4   5
ENDBRANCH   3   4
ENDBRANCH   2   3
ENDBRANCH   1   2
BRANCH   1   8
ATOM      8  C   UNL     1       3.250  27.191  11.576  1.00  0.00     0.000 C 
BRANCH   8   9
ATOM      9  C   UNL     1       1.880  26.668  12.038  1.00  0.00    -0.000 C 
BRANCH   9  10
ATOM     10  C   UNL     1       1.951  25.941  13.390  1.00  0.00    -0.000 C 
BRANCH  10  11
ATOM     11  C   UNL     1       2.885  24.728  13.311  1.00  0.00    -0.000 C 
BRANCH  11  12
ATOM     12  C   UNL     1       3.296  24.257  14.712  1.00  0.00    -0.003 C 
ATOM     13  C   UNL     1       2.605  25.080  15.794  1.00  0.00     0.004 C 
ENDBRANCH  11  12
ENDBRANCH  10  11
ENDBRANCH   9  10
ENDBRANCH   8   9
ENDBRANCH   1   8
TORSDOF 9
ENDMDL
MODEL 5
REMARK VINA RESULT:    -3.520      2.973      4.573
REMARK INTER + INTRA:          -6.534
REMARK INTER:                  -5.368
REMARK INTRA:                  -1.167
REMARK UNBOUND:                -1.162
REMARK SMILES CCCCCCCCCCC(=O)[O-]
REMARK SMILES IDX 7 1 8 2 9 3 10 4 11 5 12 6 13 7 6 8 5 9 4 10 3 11 2 12 1 13
REMARK H PARENT
REMARK Flexibility Score: inf
ROOT
ATOM      1  C   UNL     1       5.804  26.083  13.956  1.00  0.00     0.000 C 
ENDROOT
BRANCH   1   2
ATOM      2  C   UNL     1       5.656  27.611  13.855  1.00  0.00     0.000 C 
BRANCH   2   3
ATOM      3  C   UNL     1       4.713  28.067  12.719  1.00  0.00     0.006 C 
BRANCH   3   4
ATOM      4  C   UNL     1       3.809  26.943  12.191  1.00  0.00     0.053 C 
BRANCH   4   5
ATOM      5  C   UNL     1       2.607  27.486  11.481  1.00  0.00     0.041 C 
ATOM      6  O   UNL     1       1.875  26.724  10.795  1.00  0.00    -0.550 OA
ATOM      7  O   UNL     1       2.307  28.840  11.559  1.00  0.00    -0.550 OA
ENDBRANCH   4   5
ENDBRANCH   3   4
ENDBRANCH   2   3
ENDBRANCH   1   2
BRANCH   1   8
ATOM      8  C   UNL     1       5.141  25.503  15.216  1.00  0.00     0.000 C 
BRANCH   8   9
ATOM      9  C   UNL     1       4.061  24.459  14.889  1.00  0.00    -0.000 C 
BRANCH   9  10
ATOM     10  C   UNL     1       2.637  25.014  15.051  1.00  0.00    -0.000 C 
BRANCH  10  11
ATOM     11  C   UNL     1       2.566  26.011  16.214  1.00  0.00    -0.000 C 
BRANCH  11  12
ATOM     12  C   UNL     1       1.913  27.326  15.772  1.00  0.00    -0.003 C 
ATOM     13  C   UNL     1       2.893  28.490  15.876  1.00  0.00     0.004 C 
ENDBRANCH  11  12
ENDBRANCH  10  11
ENDBRANCH   9  10
ENDBRANCH   8   9
ENDBRANCH   1   8
TORSDOF 9
ENDMDL
MODEL 6
REMARK VINA RESULT:    -3.519      1.717      4.035
REMARK INTER + INTRA:          -6.532
REMARK INTER:                  -5.318
REMARK INTRA:                  -1.214
REMARK UNBOUND:                -1.162
REMARK SMILES CCCCCCCCCCC(=O)[O-]
REMARK SMILES IDX 7 1 8 2 9 3 10 4 11 5 12 6 13 7 6 8 5 9 4 10 3 11 2 12 1 13
REMARK H PARENT
REMARK Flexibility Score: inf
ROOT
ATOM      1  C   UNL     1       2.480  25.159  15.331  1.00  0.00     0.000 C 
ENDROOT
BRANCH   1   2
ATOM      2  C   UNL     1       3.618  24.289  14.770  1.00  0.00     0.000 C 
BRANCH   2   3
ATOM      3  C   UNL     1       4.167  24.790  13.415  1.00  0.00     0.006 C 
BRANCH   3   4
ATOM      4  C   UNL     1       3.334  25.928  12.804  1.00  0.00     0.053 C 
BRANCH   4   5
ATOM      5  C   UNL     1       4.138  27.181  12.650  1.00  0.00     0.041 C 
ATOM      6  O   UNL     1       5.338  27.219  13.035  1.00  0.00    -0.550 OA
ATOM      7  O   UNL     1       3.557  28.318  12.100  1.00  0.00    -0.550 OA
ENDBRANCH   4   5
ENDBRANCH   3   4
ENDBRANCH   2   3
ENDBRANCH   1   2
BRANCH   1   8
ATOM      8  C   UNL     1       2.896  25.948  16.583  1.00  0.00     0.000 C 
BRANCH   8   9
ATOM      9  C   UNL     1       3.243  27.412  16.270  1.00  0.00    -0.000 C 
BRANCH   9  10
ATOM     10  C   UNL     1       4.745  27.705  16.408  1.00  0.00    -0.000 C 
BRANCH  10  11
ATOM     11  C   UNL     1       5.464  26.557  17.125  1.00  0.00    -0.000 C 
BRANCH  11  12
ATOM     12  C   UNL     1       6.448  25.850  16.184  1.00  0.00    -0.003 C 
ATOM     13  C   UNL     1       7.566  26.791  15.748  1.00  0.00     0.004 C 
ENDBRANCH  11  12
ENDBRANCH  10  11
ENDBRANCH   9  10
ENDBRANCH   8   9
ENDBRANCH   1   8
TORSDOF 9
ENDMDL
MODEL 7
REMARK VINA RESULT:    -3.488      2.916      4.860
REMARK INTER + INTRA:          -6.486
REMARK INTER:                  -5.433
REMARK INTRA:                  -1.053
REMARK UNBOUND:                -1.162
REMARK SMILES CCCCCCCCCCC(=O)[O-]
REMARK SMILES IDX 7 1 8 2 9 3 10 4 11 5 12 6 13 7 6 8 5 9 4 10 3 11 2 12 1 13
REMARK H PARENT
REMARK Flexibility Score: inf
ROOT
ATOM      1  C   UNL     1       6.092  25.951  13.910  1.00  0.00     0.000 C 
ENDROOT
BRANCH   1   2
ATOM      2  C   UNL     1       4.829  25.072  13.893  1.00  0.00     0.000 C 
BRANCH   2   3
ATOM      3  C   UNL     1       3.676  25.663  13.052  1.00  0.00     0.006 C 
BRANCH   3   4
ATOM      4  C   UNL     1       4.059  26.959  12.320  1.00  0.00     0.053 C 
BRANCH   4   5
ATOM      5  C   UNL     1       2.889  27.554  11.599  1.00  0.00     0.041 C 
ATOM      6  O   UNL     1       2.247  26.871  10.757  1.00  0.00    -0.550 OA
ATOM      7  O   UNL     1       2.521  28.872  11.840  1.00  0.00    -0.550 OA
ENDBRANCH   4   5
ENDBRANCH   3   4
ENDBRANCH   2   3
ENDBRANCH   1   2
BRANCH   1   8
ATOM      8  C   UNL     1       6.608  26.223  15.332  1.00  0.00     0.000 C 
BRANCH   8   9
ATOM      9  C   UNL     1       5.515  26.056  16.400  1.00  0.00    -0.000 C 
BRANCH   9  10
ATOM     10  C   UNL     1       5.158  27.382  17.090  1.00  0.00    -0.000 C 
BRANCH  10  11
ATOM     11  C   UNL     1       4.115  28.159  16.279  1.00  0.00    -0.000 C 
BRANCH  11  12
ATOM     12  C   UNL     1       2.704  27.931  16.835  1.00  0.00    -0.003 C 
ATOM     13  C   UNL     1       1.875  27.060  15.896  1.00  0.00     0.004 C 
ENDBRANCH  11  12
ENDBRANCH  10  11
ENDBRANCH   9  10
ENDBRANCH   8   9
ENDBRANCH   1   8
TORSDOF 9
ENDMDL
MODEL 8
REMARK VINA RESULT:    -3.273      1.454      2.046
REMARK INTER + INTRA:          -6.157
REMARK INTER:                  -5.051
REMARK INTRA:                  -1.107
REMARK UNBOUND:                -1.162
REMARK SMILES CCCCCCCCCCC(=O)[O-]
REMARK SMILES IDX 7 1 8 2 9 3 10 4 11 5 12 6 13 7 6 8 5 9 4 10 3 11 2 12 1 13
REMARK H PARENT
REMARK Flexibility Score: inf
ROOT
ATOM      1  C   UNL     1       2.631  28.296  16.535  1.00  0.00     0.000 C 
ENDROOT
BRANCH   1   2
ATOM      2  C   UNL     1       4.150  28.073  16.623  1.00  0.00     0.000 C 
BRANCH   2   3
ATOM      3  C   UNL     1       4.541  26.631  17.015  1.00  0.00     0.006 C 
BRANCH   3   4
ATOM      4  C   UNL     1       4.901  25.749  15.808  1.00  0.00     0.053 C 
BRANCH   4   5
ATOM      5  C   UNL     1       6.350  25.869  15.448  1.00  0.00     0.041 C 
ATOM      6  O   UNL     1       7.219  26.016  16.349  1.00  0.00    -0.550 OA
ATOM      7  O   UNL     1       6.740  25.843  14.115  1.00  0.00    -0.550 OA
ENDBRANCH   4   5
ENDBRANCH   3   4
ENDBRANCH   2   3
ENDBRANCH   1   2
BRANCH   1   8
ATOM      8  C   UNL     1       2.126  28.386  15.086  1.00  0.00     0.000 C 
BRANCH   8   9
ATOM      9  C   UNL     1       1.875  27.004  14.461  1.00  0.00    -0.000 C 
BRANCH   9  10
ATOM     10  C   UNL     1       2.091  26.998  12.939  1.00  0.00    -0.000 C 
BRANCH  10  11
ATOM     11  C   UNL     1       3.585  26.969  12.597  1.00  0.00    -0.000 C 
BRANCH  11  12
ATOM     12  C   UNL     1       4.075  28.354  12.155  1.00  0.00    -0.003 C 
ATOM     13  C   UNL     1       5.246  28.824  13.010  1.00  0.00     0.004 C 
ENDBRANCH  11  12
ENDBRANCH  10  11
ENDBRANCH   9  10
ENDBRANCH   8   9
ENDBRANCH   1   8
TORSDOF 9
ENDMDL
