MODEL 1
REMARK VINA RESULT:    70.730      0.000      0.000
REMARK INTER + INTRA:         102.801
REMARK INTER:                 101.741
REMARK INTRA:                   1.060
REMARK UNBOUND:                 1.060
REMARK SMILES O=c1c(O[C@@H]2O[C@H](CO)[C@H](O)[C@@H](O)[C@@H]2O)c(-c2ccc(O)cc2)oc2cc(O)cc(O)c12
REMARK SMILES IDX 4 1 3 2 16 3 24 4 2 5 25 6 1 7 32 8 26 9 30 10 27 11 29 12
REMARK SMILES IDX 17 13 18 14 19 15 20 16 23 17 22 18 21 19 31 21 28 23 5 25
REMARK SMILES IDX 14 26 6 27 12 28 7 29 10 30 15 31 13 33 8 35 9 36 11 38
REMARK H PARENT 21 20 31 22 28 24 15 32 13 34 9 37 11 39
REMARK Flexibility Score: inf
ROOT
ATOM      1  O   UNL     1     -38.977  29.519 -21.709  1.00  0.00    -0.454 OA
ENDROOT
BRANCH   1   2
ATOM      2  C   UNL     1     -40.143  30.261 -21.983  1.00  0.00     0.214 A 
ATOM      3  C   UNL     1     -40.144  31.128 -23.090  1.00  0.00     0.180 A 
ATOM      4  O   UNL     1     -41.267  31.735 -23.462  1.00  0.00    -0.452 OA
ATOM      5  C   UNL     1     -41.327  30.132 -21.228  1.00  0.00     0.239 A 
ATOM      6  C   UNL     1     -42.419  31.595 -22.816  1.00  0.00     0.146 A 
ATOM      7  O   UNL     1     -41.332  29.434 -20.178  1.00  0.00    -0.285 OA
ATOM      8  C   UNL     1     -42.498  30.794 -21.652  1.00  0.00     0.111 A 
ATOM      9  C   UNL     1     -43.555  32.252 -23.298  1.00  0.00     0.094 A 
ATOM     10  C   UNL     1     -43.739  30.674 -20.981  1.00  0.00     0.134 A 
ATOM     11  C   UNL     1     -44.781  32.121 -22.637  1.00  0.00     0.123 A 
ATOM     12  C   UNL     1     -44.869  31.336 -21.486  1.00  0.00     0.093 A 
BRANCH   3  13
ATOM     13  C   UNL     1     -38.928  31.345 -23.902  1.00  0.00     0.021 A 
ATOM     14  C   UNL     1     -38.848  32.402 -24.828  1.00  0.00     0.016 A 
ATOM     15  C   UNL     1     -37.677  32.610 -25.564  1.00  0.00     0.047 A 
ATOM     16  C   UNL     1     -36.579  31.757 -25.396  1.00  0.00     0.115 A 
ATOM     17  C   UNL     1     -37.831  30.479 -23.758  1.00  0.00     0.016 A 
ATOM     18  C   UNL     1     -36.661  30.688 -24.496  1.00  0.00     0.047 A 
BRANCH  16  19
ATOM     19  O   UNL     1     -35.406  31.954 -26.124  1.00  0.00    -0.508 OA
ATOM     20  H   UNL     1     -35.112  31.297 -26.839  1.00  0.00     0.293 HD
ENDBRANCH  16  19
ENDBRANCH   3  13
BRANCH  10  21
ATOM     21  O   UNL     1     -43.861  29.897 -19.826  1.00  0.00    -0.507 OA
ATOM     22  H   UNL     1     -43.052  29.612 -19.291  1.00  0.00     0.293 HD
ENDBRANCH  10  21
BRANCH  11  23
ATOM     23  O   UNL     1     -45.917  32.770 -23.114  1.00  0.00    -0.508 OA
ATOM     24  H   UNL     1     -45.851  33.630 -23.648  1.00  0.00     0.293 HD
ENDBRANCH  11  23
ENDBRANCH   1   2
BRANCH   1  25
ATOM     25  C   UNL     1     -38.607  28.297 -22.353  1.00  0.00     0.339 C 
ATOM     26  C   UNL     1     -37.189  27.852 -21.869  1.00  0.00     0.214 C 
ATOM     27  O   UNL     1     -39.603  27.320 -22.083  1.00  0.00    -0.332 OA
ATOM     28  C   UNL     1     -37.277  26.575 -21.010  1.00  0.00     0.180 C 
ATOM     29  C   UNL     1     -39.214  26.065 -22.613  1.00  0.00     0.179 C 
ATOM     30  C   UNL     1     -38.051  25.462 -21.767  1.00  0.00     0.177 C 
BRANCH  26  31
ATOM     31  O   UNL     1     -36.572  28.883 -21.135  1.00  0.00    -0.384 OA
ATOM     32  H   UNL     1     -35.863  29.269 -21.714  1.00  0.00     0.211 HD
ENDBRANCH  26  31
BRANCH  28  33
ATOM     33  O   UNL     1     -35.984  26.126 -20.691  1.00  0.00    -0.387 OA
ATOM     34  H   UNL     1     -35.944  25.171 -20.960  1.00  0.00     0.211 HD
ENDBRANCH  28  33
BRANCH  29  35
ATOM     35  C   UNL     1     -40.445  25.150 -22.745  1.00  0.00     0.191 C 
BRANCH  35  36
ATOM     36  O   UNL     1     -41.492  25.773 -23.441  1.00  0.00    -0.394 OA
ATOM     37  H   UNL     1     -41.081  26.440 -24.049  1.00  0.00     0.210 HD
ENDBRANCH  35  36
ENDBRANCH  29  35
BRANCH  30  38
ATOM     38  O   UNL     1     -38.487  24.467 -20.870  1.00  0.00    -0.387 OA
ATOM     39  H   UNL     1     -37.892  24.491 -20.075  1.00  0.00     0.211 HD
ENDBRANCH  30  38
ENDBRANCH   1  25
TORSDOF 11
ENDMDL
MODEL 2
REMARK VINA RESULT:    73.718      1.496      6.545
REMARK INTER + INTRA:         107.100
REMARK INTER:                 105.545
REMARK INTRA:                   1.555
REMARK UNBOUND:                 1.060
REMARK SMILES O=c1c(O[C@@H]2O[C@H](CO)[C@H](O)[C@@H](O)[C@@H]2O)c(-c2ccc(O)cc2)oc2cc(O)cc(O)c12
REMARK SMILES IDX 4 1 3 2 16 3 24 4 2 5 25 6 1 7 32 8 26 9 30 10 27 11 29 12
REMARK SMILES IDX 17 13 18 14 19 15 20 16 23 17 22 18 21 19 31 21 28 23 5 25
REMARK SMILES IDX 14 26 6 27 12 28 7 29 10 30 15 31 13 33 8 35 9 36 11 38
REMARK H PARENT 21 20 31 22 28 24 15 32 13 34 9 37 11 39
REMARK Flexibility Score: inf
ROOT
ATOM      1  O   UNL     1     -40.543  28.845 -22.512  1.00  0.00    -0.454 OA
ENDROOT
BRANCH   1   2
ATOM      2  C   UNL     1     -39.440  29.561 -23.018  1.00  0.00     0.214 A 
ATOM      3  C   UNL     1     -38.163  28.978 -22.934  1.00  0.00     0.180 A 
ATOM      4  O   UNL     1     -37.125  29.558 -23.526  1.00  0.00    -0.452 OA
ATOM      5  C   UNL     1     -39.568  30.812 -23.656  1.00  0.00     0.239 A 
ATOM      6  C   UNL     1     -37.210  30.706 -24.188  1.00  0.00     0.146 A 
ATOM      7  O   UNL     1     -40.682  31.403 -23.668  1.00  0.00    -0.285 OA
ATOM      8  C   UNL     1     -38.442  31.398 -24.270  1.00  0.00     0.111 A 
ATOM      9  C   UNL     1     -36.067  31.226 -24.802  1.00  0.00     0.094 A 
ATOM     10  C   UNL     1     -38.497  32.625 -24.975  1.00  0.00     0.134 A 
ATOM     11  C   UNL     1     -36.130  32.433 -25.506  1.00  0.00     0.123 A 
ATOM     12  C   UNL     1     -37.339  33.126 -25.591  1.00  0.00     0.093 A 
BRANCH   3  13
ATOM     13  C   UNL     1     -37.948  27.688 -22.244  1.00  0.00     0.021 A 
ATOM     14  C   UNL     1     -36.890  27.518 -21.332  1.00  0.00     0.016 A 
ATOM     15  C   UNL     1     -36.721  26.300 -20.666  1.00  0.00     0.047 A 
ATOM     16  C   UNL     1     -37.597  25.235 -20.912  1.00  0.00     0.115 A 
ATOM     17  C   UNL     1     -38.806  26.607 -22.505  1.00  0.00     0.016 A 
ATOM     18  C   UNL     1     -38.635  25.389 -21.838  1.00  0.00     0.047 A 
BRANCH  16  19
ATOM     19  O   UNL     1     -37.438  24.015 -20.254  1.00  0.00    -0.508 OA
ATOM     20  H   UNL     1     -37.587  23.932 -19.254  1.00  0.00     0.293 HD
ENDBRANCH  16  19
ENDBRANCH   3  13
BRANCH  10  21
ATOM     21  O   UNL     1     -39.691  33.344 -25.077  1.00  0.00    -0.507 OA
ATOM     22  H   UNL     1     -40.022  33.932 -24.324  1.00  0.00     0.293 HD
ENDBRANCH  10  21
BRANCH  11  23
ATOM     23  O   UNL     1     -34.996  32.955 -26.123  1.00  0.00    -0.508 OA
ATOM     24  H   UNL     1     -34.298  32.353 -26.546  1.00  0.00     0.293 HD
ENDBRANCH  11  23
ENDBRANCH   1   2
BRANCH   1  25
ATOM     25  C   UNL     1     -41.499  29.354 -21.579  1.00  0.00     0.339 C 
ATOM     26  C   UNL     1     -40.768  29.850 -20.289  1.00  0.00     0.214 C 
ATOM     27  O   UNL     1     -42.247  30.385 -22.208  1.00  0.00    -0.332 OA
ATOM     28  C   UNL     1     -40.851  31.384 -20.166  1.00  0.00     0.180 C 
ATOM     29  C   UNL     1     -43.128  30.989 -21.279  1.00  0.00     0.179 C 
ATOM     30  C   UNL     1     -42.326  31.859 -20.264  1.00  0.00     0.177 C 
BRANCH  26  31
ATOM     31  O   UNL     1     -39.421  29.441 -20.297  1.00  0.00    -0.384 OA
ATOM     32  H   UNL     1     -39.215  29.099 -19.388  1.00  0.00     0.211 HD
ENDBRANCH  26  31
BRANCH  28  33
ATOM     33  O   UNL     1     -40.297  31.794 -18.942  1.00  0.00    -0.387 OA
ATOM     34  H   UNL     1     -40.940  32.437 -18.543  1.00  0.00     0.211 HD
ENDBRANCH  28  33
BRANCH  29  35
ATOM     35  C   UNL     1     -44.238  31.747 -22.029  1.00  0.00     0.191 C 
BRANCH  35  36
ATOM     36  O   UNL     1     -45.198  32.278 -21.154  1.00  0.00    -0.394 OA
ATOM     37  H   UNL     1     -46.080  32.185 -21.598  1.00  0.00     0.210 HD
ENDBRANCH  35  36
ENDBRANCH  29  35
BRANCH  30  38
ATOM     38  O   UNL     1     -42.382  33.235 -20.561  1.00  0.00    -0.387 OA
ATOM     39  H   UNL     1     -42.208  33.346 -21.532  1.00  0.00     0.211 HD
ENDBRANCH  30  38
ENDBRANCH   1  25
TORSDOF 11
ENDMDL
