MODEL 1
REMARK VINA RESULT:    -2.810      0.000      0.000
REMARK INTER + INTRA:          -3.587
REMARK INTER:                  -3.385
REMARK INTRA:                  -0.203
REMARK UNBOUND:                -0.203
REMARK SMILES OCC(O)CO
REMARK SMILES IDX 3 1 5 2 6 3 2 5 1 6 4 8
REMARK H PARENT 6 4 1 7 4 9
REMARK Flexibility Score: inf
ROOT
ATOM      1  C   UNL     1      -4.998 -13.694 -40.352  1.00  0.00     0.165 C 
ENDROOT
BRANCH   1   2
ATOM      2  C   UNL     1      -5.993 -14.612 -39.617  1.00  0.00     0.190 C 
BRANCH   2   3
ATOM      3  O   UNL     1      -5.886 -14.466 -38.227  1.00  0.00    -0.394 OA
ATOM      4  H   UNL     1      -6.629 -14.990 -37.829  1.00  0.00     0.210 HD
ENDBRANCH   2   3
ENDBRANCH   1   2
BRANCH   1   5
ATOM      5  C   UNL     1      -5.505 -12.248 -40.427  1.00  0.00     0.190 C 
BRANCH   5   6
ATOM      6  O   UNL     1      -6.228 -11.923 -39.272  1.00  0.00    -0.394 OA
ATOM      7  H   UNL     1      -7.033 -11.430 -39.580  1.00  0.00     0.210 HD
ENDBRANCH   5   6
ENDBRANCH   1   5
BRANCH   1   8
ATOM      8  O   UNL     1      -3.768 -13.703 -39.674  1.00  0.00    -0.388 OA
ATOM      9  H   UNL     1      -3.058 -13.640 -40.365  1.00  0.00     0.211 HD
ENDBRANCH   1   8
TORSDOF 5
ENDMDL
MODEL 2
REMARK VINA RESULT:    -2.619     10.350     11.364
REMARK INTER + INTRA:          -3.357
REMARK INTER:                  -3.156
REMARK INTRA:                  -0.201
REMARK UNBOUND:                -0.203
REMARK SMILES OCC(O)CO
REMARK SMILES IDX 3 1 5 2 6 3 2 5 1 6 4 8
REMARK H PARENT 6 4 1 7 4 9
REMARK Flexibility Score: inf
ROOT
ATOM      1  C   UNL     1     -15.013 -19.591 -39.762  1.00  0.00     0.165 C 
ENDROOT
BRANCH   1   2
ATOM      2  C   UNL     1     -14.564 -18.118 -39.786  1.00  0.00     0.190 C 
BRANCH   2   3
ATOM      3  O   UNL     1     -15.382 -17.325 -38.971  1.00  0.00    -0.394 OA
ATOM      4  H   UNL     1     -15.577 -16.497 -39.482  1.00  0.00     0.210 HD
ENDBRANCH   2   3
ENDBRANCH   1   2
BRANCH   1   5
ATOM      5  C   UNL     1     -14.317 -20.381 -38.646  1.00  0.00     0.190 C 
BRANCH   5   6
ATOM      6  O   UNL     1     -13.503 -19.534 -37.882  1.00  0.00    -0.394 OA
ATOM      7  H   UNL     1     -12.714 -19.327 -38.448  1.00  0.00     0.210 HD
ENDBRANCH   5   6
ENDBRANCH   1   5
BRANCH   1   8
ATOM      8  O   UNL     1     -16.400 -19.652 -39.557  1.00  0.00    -0.388 OA
ATOM      9  H   UNL     1     -16.801 -18.904 -40.072  1.00  0.00     0.211 HD
ENDBRANCH   1   8
TORSDOF 5
ENDMDL
MODEL 3
REMARK VINA RESULT:    -2.595     10.655     11.168
REMARK INTER + INTRA:          -3.328
REMARK INTER:                  -3.107
REMARK INTRA:                  -0.222
REMARK UNBOUND:                -0.203
REMARK SMILES OCC(O)CO
REMARK SMILES IDX 3 1 5 2 6 3 2 5 1 6 4 8
REMARK H PARENT 6 4 1 7 4 9
REMARK Flexibility Score: inf
ROOT
ATOM      1  C   UNL     1     -14.710 -19.825 -38.647  1.00  0.00     0.165 C 
ENDROOT
BRANCH   1   2
ATOM      2  C   UNL     1     -15.745 -19.651 -37.519  1.00  0.00     0.190 C 
BRANCH   2   3
ATOM      3  O   UNL     1     -15.259 -18.808 -36.510  1.00  0.00    -0.394 OA
ATOM      4  H   UNL     1     -15.997 -18.692 -35.857  1.00  0.00     0.210 HD
ENDBRANCH   2   3
ENDBRANCH   1   2
BRANCH   1   5
ATOM      5  C   UNL     1     -14.903 -18.789 -39.761  1.00  0.00     0.190 C 
BRANCH   5   6
ATOM      6  O   UNL     1     -15.397 -17.589 -39.233  1.00  0.00    -0.394 OA
ATOM      7  H   UNL     1     -15.067 -16.868 -39.830  1.00  0.00     0.210 HD
ENDBRANCH   5   6
ENDBRANCH   1   5
BRANCH   1   8
ATOM      8  O   UNL     1     -13.418 -19.681 -38.119  1.00  0.00    -0.388 OA
ATOM      9  H   UNL     1     -13.448 -18.918 -37.484  1.00  0.00     0.211 HD
ENDBRANCH   1   8
TORSDOF 5
ENDMDL
MODEL 4
REMARK VINA RESULT:    -2.518     10.481     11.165
REMARK INTER + INTRA:          -3.236
REMARK INTER:                  -3.027
REMARK INTRA:                  -0.209
REMARK UNBOUND:                -0.203
REMARK SMILES OCC(O)CO
REMARK SMILES IDX 3 1 5 2 6 3 2 5 1 6 4 8
REMARK H PARENT 6 4 1 7 4 9
REMARK Flexibility Score: inf
ROOT
ATOM      1  C   UNL     1     -15.144 -18.465 -38.872  1.00  0.00     0.165 C 
ENDROOT
BRANCH   1   2
ATOM      2  C   UNL     1     -15.841 -19.381 -39.895  1.00  0.00     0.190 C 
BRANCH   2   3
ATOM      3  O   UNL     1     -15.050 -20.498 -40.197  1.00  0.00    -0.394 OA
ATOM      4  H   UNL     1     -14.553 -20.727 -39.368  1.00  0.00     0.210 HD
ENDBRANCH   2   3
ENDBRANCH   1   2
BRANCH   1   5
ATOM      5  C   UNL     1     -14.677 -19.243 -37.635  1.00  0.00     0.190 C 
BRANCH   5   6
ATOM      6  O   UNL     1     -13.346 -19.650 -37.788  1.00  0.00    -0.394 OA
ATOM      7  H   UNL     1     -13.263 -20.511 -37.302  1.00  0.00     0.210 HD
ENDBRANCH   5   6
ENDBRANCH   1   5
BRANCH   1   8
ATOM      8  O   UNL     1     -14.027 -17.863 -39.471  1.00  0.00    -0.388 OA
ATOM      9  H   UNL     1     -14.291 -16.936 -39.709  1.00  0.00     0.211 HD
ENDBRANCH   1   8
TORSDOF 5
ENDMDL
MODEL 5
REMARK VINA RESULT:    -2.506     10.272     11.269
REMARK INTER + INTRA:          -3.221
REMARK INTER:                  -3.026
REMARK INTRA:                  -0.195
REMARK UNBOUND:                -0.203
REMARK SMILES OCC(O)CO
REMARK SMILES IDX 3 1 5 2 6 3 2 5 1 6 4 8
REMARK H PARENT 6 4 1 7 4 9
REMARK Flexibility Score: inf
ROOT
ATOM      1  C   UNL     1     -14.522 -19.442 -38.475  1.00  0.00     0.165 C 
ENDROOT
BRANCH   1   2
ATOM      2  C   UNL     1     -14.395 -18.179 -39.347  1.00  0.00     0.190 C 
BRANCH   2   3
ATOM      3  O   UNL     1     -15.597 -17.459 -39.377  1.00  0.00    -0.394 OA
ATOM      4  H   UNL     1     -16.131 -17.828 -40.128  1.00  0.00     0.210 HD
ENDBRANCH   2   3
ENDBRANCH   1   2
BRANCH   1   5
ATOM      5  C   UNL     1     -14.763 -20.698 -39.323  1.00  0.00     0.190 C 
BRANCH   5   6
ATOM      6  O   UNL     1     -15.456 -20.371 -40.495  1.00  0.00    -0.394 OA
ATOM      7  H   UNL     1     -14.918 -20.736 -41.245  1.00  0.00     0.210 HD
ENDBRANCH   5   6
ENDBRANCH   1   5
BRANCH   1   8
ATOM      8  O   UNL     1     -13.341 -19.619 -37.737  1.00  0.00    -0.388 OA
ATOM      9  H   UNL     1     -12.963 -20.498 -38.005  1.00  0.00     0.211 HD
ENDBRANCH   1   8
TORSDOF 5
ENDMDL
MODEL 6
REMARK VINA RESULT:    -2.487     10.813     11.508
REMARK INTER + INTRA:          -3.198
REMARK INTER:                  -3.196
REMARK INTRA:                  -0.002
REMARK UNBOUND:                -0.203
REMARK SMILES OCC(O)CO
REMARK SMILES IDX 3 1 5 2 6 3 2 5 1 6 4 8
REMARK H PARENT 6 4 1 7 4 9
REMARK Flexibility Score: inf
ROOT
ATOM      1  C   UNL     1     -14.618 -19.174 -37.850  1.00  0.00     0.165 C 
ENDROOT
BRANCH   1   2
ATOM      2  C   UNL     1     -15.455 -18.901 -39.115  1.00  0.00     0.190 C 
BRANCH   2   3
ATOM      3  O   UNL     1     -15.408 -17.547 -39.472  1.00  0.00    -0.394 OA
ATOM      4  H   UNL     1     -14.794 -17.479 -40.250  1.00  0.00     0.210 HD
ENDBRANCH   2   3
ENDBRANCH   1   2
BRANCH   1   5
ATOM      5  C   UNL     1     -15.398 -19.999 -36.818  1.00  0.00     0.190 C 
BRANCH   5   6
ATOM      6  O   UNL     1     -14.942 -19.720 -35.524  1.00  0.00    -0.394 OA
ATOM      7  H   UNL     1     -15.185 -18.776 -35.343  1.00  0.00     0.210 HD
ENDBRANCH   5   6
ENDBRANCH   1   5
BRANCH   1   8
ATOM      8  O   UNL     1     -13.457 -19.879 -38.203  1.00  0.00    -0.388 OA
ATOM      9  H   UNL     1     -12.757 -19.203 -38.400  1.00  0.00     0.211 HD
ENDBRANCH   1   8
TORSDOF 5
ENDMDL
MODEL 7
REMARK VINA RESULT:    -2.463      1.292      2.542
REMARK INTER + INTRA:          -3.169
REMARK INTER:                  -2.953
REMARK INTRA:                  -0.216
REMARK UNBOUND:                -0.203
REMARK SMILES OCC(O)CO
REMARK SMILES IDX 3 1 5 2 6 3 2 5 1 6 4 8
REMARK H PARENT 6 4 1 7 4 9
REMARK Flexibility Score: inf
ROOT
ATOM      1  C   UNL     1      -5.381 -13.877 -40.470  1.00  0.00     0.165 C 
ENDROOT
BRANCH   1   2
ATOM      2  C   UNL     1      -5.524 -12.344 -40.453  1.00  0.00     0.190 C 
BRANCH   2   3
ATOM      3  O   UNL     1      -6.208 -11.911 -39.309  1.00  0.00    -0.394 OA
ATOM      4  H   UNL     1      -7.097 -12.353 -39.324  1.00  0.00     0.210 HD
ENDBRANCH   2   3
ENDBRANCH   1   2
BRANCH   1   5
ATOM      5  C   UNL     1      -5.030 -14.432 -39.083  1.00  0.00     0.190 C 
BRANCH   5   6
ATOM      6  O   UNL     1      -6.186 -14.562 -38.302  1.00  0.00    -0.394 OA
ATOM      7  H   UNL     1      -5.876 -14.643 -37.363  1.00  0.00     0.210 HD
ENDBRANCH   5   6
ENDBRANCH   1   5
BRANCH   1   8
ATOM      8  O   UNL     1      -6.590 -14.454 -40.890  1.00  0.00    -0.388 OA
ATOM      9  H   UNL     1      -7.320 -13.961 -40.431  1.00  0.00     0.211 HD
ENDBRANCH   1   8
TORSDOF 5
ENDMDL
MODEL 8
REMARK VINA RESULT:    -2.355     10.736     11.659
REMARK INTER + INTRA:          -3.039
REMARK INTER:                  -2.842
REMARK INTRA:                  -0.197
REMARK UNBOUND:                -0.203
REMARK SMILES OCC(O)CO
REMARK SMILES IDX 3 1 5 2 6 3 2 5 1 6 4 8
REMARK H PARENT 6 4 1 7 4 9
REMARK Flexibility Score: inf
ROOT
ATOM      1  C   UNL     1     -15.115 -18.773 -39.435  1.00  0.00     0.165 C 
ENDROOT
BRANCH   1   2
ATOM      2  C   UNL     1     -14.466 -19.186 -38.101  1.00  0.00     0.190 C 
BRANCH   2   3
ATOM      3  O   UNL     1     -13.387 -20.056 -38.310  1.00  0.00    -0.394 OA
ATOM      4  H   UNL     1     -13.423 -20.330 -39.263  1.00  0.00     0.210 HD
ENDBRANCH   2   3
ENDBRANCH   1   2
BRANCH   1   5
ATOM      5  C   UNL     1     -16.375 -19.597 -39.735  1.00  0.00     0.190 C 
BRANCH   5   6
ATOM      6  O   UNL     1     -16.220 -20.911 -39.276  1.00  0.00    -0.394 OA
ATOM      7  H   UNL     1     -16.555 -21.499 -40.001  1.00  0.00     0.210 HD
ENDBRANCH   5   6
ENDBRANCH   1   5
BRANCH   1   8
ATOM      8  O   UNL     1     -15.471 -17.416 -39.380  1.00  0.00    -0.388 OA
ATOM      9  H   UNL     1     -15.426 -17.068 -40.308  1.00  0.00     0.211 HD
ENDBRANCH   1   8
TORSDOF 5
ENDMDL
MODEL 9
REMARK VINA RESULT:    -2.333     14.603     15.286
REMARK INTER + INTRA:          -3.013
REMARK INTER:                  -2.792
REMARK INTRA:                  -0.221
REMARK UNBOUND:                -0.203
REMARK SMILES OCC(O)CO
REMARK SMILES IDX 3 1 5 2 6 3 2 5 1 6 4 8
REMARK H PARENT 6 4 1 7 4 9
REMARK Flexibility Score: inf
ROOT
ATOM      1  C   UNL     1      -6.458 -28.127 -33.788  1.00  0.00     0.165 C 
ENDROOT
BRANCH   1   2
ATOM      2  C   UNL     1      -7.896 -28.185 -33.238  1.00  0.00     0.190 C 
BRANCH   2   3
ATOM      3  O   UNL     1      -8.358 -26.909 -32.890  1.00  0.00    -0.394 OA
ATOM      4  H   UNL     1      -7.976 -26.701 -31.998  1.00  0.00     0.210 HD
ENDBRANCH   2   3
ENDBRANCH   1   2
BRANCH   1   5
ATOM      5  C   UNL     1      -6.433 -27.787 -35.283  1.00  0.00     0.190 C 
BRANCH   5   6
ATOM      6  O   UNL     1      -7.296 -26.717 -35.556  1.00  0.00    -0.394 OA
ATOM      7  H   UNL     1      -6.970 -26.308 -36.399  1.00  0.00     0.210 HD
ENDBRANCH   5   6
ENDBRANCH   1   5
BRANCH   1   8
ATOM      8  O   UNL     1      -5.734 -27.146 -33.093  1.00  0.00    -0.388 OA
ATOM      9  H   UNL     1      -4.773 -27.385 -33.174  1.00  0.00     0.211 HD
ENDBRANCH   1   8
TORSDOF 5
ENDMDL
