MODEL 1
REMARK VINA RESULT:    -3.978      0.000      0.000
REMARK INTER + INTRA:          -6.101
REMARK INTER:                  -5.374
REMARK INTRA:                  -0.727
REMARK UNBOUND:                -0.727
REMARK SMILES COc1ccc(-c2cc(=O)c3c(OC)c(OC)c(OC)c(OC)c3o2)cc1
REMARK SMILES IDX 7 1 8 2 9 3 10 4 11 5 24 6 25 7 21 8 18 9 15 10 12 11 6 12
REMARK SMILES IDX 3 13 4 14 27 15 5 16 26 17 2 18 1 19 22 20 23 21 13 22 14 23
REMARK SMILES IDX 19 24 20 25 16 26 17 27
REMARK H PARENT
REMARK Flexibility Score: inf
ROOT
ATOM      1  C   UNL     1     121.215 108.917 121.906  1.00  0.00     0.138 A 
ATOM      2  C   UNL     1     121.131 107.608 122.400  1.00  0.00     0.100 A 
ATOM      3  C   UNL     1     119.913 106.932 122.346  1.00  0.00     0.197 A 
ATOM      4  O   UNL     1     119.857 105.756 122.797  1.00  0.00    -0.289 OA
ATOM      5  C   UNL     1     118.778 107.572 121.797  1.00  0.00     0.115 A 
ATOM      6  C   UNL     1     118.941 108.896 121.332  1.00  0.00     0.188 A 
ATOM      7  O   UNL     1     120.127 109.495 121.407  1.00  0.00    -0.452 OA
ATOM      8  C   UNL     1     117.865 109.608 120.793  1.00  0.00     0.209 A 
ATOM      9  C   UNL     1     116.593 109.000 120.730  1.00  0.00     0.211 A 
ATOM     10  C   UNL     1     116.435 107.648 121.106  1.00  0.00     0.208 A 
ATOM     11  C   UNL     1     117.514 106.939 121.690  1.00  0.00     0.179 A 
ENDROOT
BRANCH   1  12
ATOM     12  C   UNL     1     122.482 109.688 121.943  1.00  0.00     0.018 A 
ATOM     13  C   UNL     1     124.922 111.110 122.042  1.00  0.00     0.118 A 
ATOM     14  C   UNL     1     124.863 109.773 122.446  1.00  0.00     0.047 A 
ATOM     15  C   UNL     1     123.746 111.743 121.596  1.00  0.00     0.047 A 
ATOM     16  C   UNL     1     123.656 109.069 122.405  1.00  0.00     0.016 A 
ATOM     17  C   UNL     1     122.539 111.039 121.550  1.00  0.00     0.016 A 
BRANCH  13  18
ATOM     18  O   UNL     1     126.158 111.771 122.098  1.00  0.00    -0.497 OA
ATOM     19  C   UNL     1     127.387 111.149 122.460  1.00  0.00     0.278 C 
ENDBRANCH  13  18
ENDBRANCH   1  12
BRANCH   8  20
ATOM     20  O   UNL     1     118.127 110.919 120.351  1.00  0.00    -0.490 OA
ATOM     21  C   UNL     1     117.883 112.120 121.074  1.00  0.00     0.278 C 
ENDBRANCH   8  20
BRANCH  11  22
ATOM     22  O   UNL     1     117.390 105.615 122.163  1.00  0.00    -0.492 OA
ATOM     23  C   UNL     1     116.629 105.167 123.281  1.00  0.00     0.278 C 
ENDBRANCH  11  22
BRANCH   9  24
ATOM     24  O   UNL     1     115.483 109.746 120.321  1.00  0.00    -0.490 OA
ATOM     25  C   UNL     1     115.164 109.939 118.947  1.00  0.00     0.279 C 
ENDBRANCH   9  24
BRANCH  10  26
ATOM     26  O   UNL     1     115.212 107.002 120.887  1.00  0.00    -0.490 OA
ATOM     27  C   UNL     1     114.938 106.248 119.709  1.00  0.00     0.278 C 
ENDBRANCH  10  26
TORSDOF 6
ENDMDL
MODEL 2
REMARK VINA RESULT:    -3.973      2.207      7.376
REMARK INTER + INTRA:          -6.094
REMARK INTER:                  -5.372
REMARK INTRA:                  -0.722
REMARK UNBOUND:                -0.727
REMARK SMILES COc1ccc(-c2cc(=O)c3c(OC)c(OC)c(OC)c(OC)c3o2)cc1
REMARK SMILES IDX 7 1 8 2 9 3 10 4 11 5 24 6 25 7 21 8 18 9 15 10 12 11 6 12
REMARK SMILES IDX 3 13 4 14 27 15 5 16 26 17 2 18 1 19 22 20 23 21 13 22 14 23
REMARK SMILES IDX 19 24 20 25 16 26 17 27
REMARK H PARENT
REMARK Flexibility Score: inf
ROOT
ATOM      1  C   UNL     1     119.790 106.802 122.425  1.00  0.00     0.138 A 
ATOM      2  C   UNL     1     121.125 106.390 122.528  1.00  0.00     0.100 A 
ATOM      3  C   UNL     1     122.145 107.268 122.160  1.00  0.00     0.197 A 
ATOM      4  O   UNL     1     123.339 106.878 122.258  1.00  0.00    -0.289 OA
ATOM      5  C   UNL     1     121.821 108.560 121.686  1.00  0.00     0.115 A 
ATOM      6  C   UNL     1     120.452 108.897 121.600  1.00  0.00     0.188 A 
ATOM      7  O   UNL     1     119.519 108.020 121.966  1.00  0.00    -0.452 OA
ATOM      8  C   UNL     1     120.045 110.146 121.125  1.00  0.00     0.209 A 
ATOM      9  C   UNL     1     121.017 111.080 120.707  1.00  0.00     0.211 A 
ATOM     10  C   UNL     1     122.390 110.794 120.873  1.00  0.00     0.208 A 
ATOM     11  C   UNL     1     122.804 109.512 121.316  1.00  0.00     0.179 A 
ENDROOT
BRANCH   1  12
ATOM     12  C   UNL     1     118.664 105.910 122.796  1.00  0.00     0.018 A 
ATOM     13  C   UNL     1     116.481 104.255 123.489  1.00  0.00     0.118 A 
ATOM     14  C   UNL     1     116.265 105.511 122.913  1.00  0.00     0.047 A 
ATOM     15  C   UNL     1     117.802 103.831 123.731  1.00  0.00     0.047 A 
ATOM     16  C   UNL     1     117.343 106.335 122.576  1.00  0.00     0.016 A 
ATOM     17  C   UNL     1     118.881 104.651 123.390  1.00  0.00     0.016 A 
BRANCH  13  18
ATOM     18  O   UNL     1     115.366 103.465 123.806  1.00  0.00    -0.497 OA
ATOM     19  C   UNL     1     114.079 103.982 124.125  1.00  0.00     0.278 C 
ENDBRANCH  13  18
ENDBRANCH   1  12
BRANCH   8  20
ATOM     20  O   UNL     1     118.658 110.391 121.081  1.00  0.00    -0.490 OA
ATOM     21  C   UNL     1     117.813 110.265 119.944  1.00  0.00     0.278 C 
ENDBRANCH   8  20
BRANCH  11  22
ATOM     22  O   UNL     1     124.162 109.142 121.417  1.00  0.00    -0.492 OA
ATOM     23  C   UNL     1     125.110 109.044 120.359  1.00  0.00     0.278 C 
ENDBRANCH  11  22
BRANCH   9  24
ATOM     24  O   UNL     1     120.621 112.277 120.104  1.00  0.00    -0.490 OA
ATOM     25  C   UNL     1     120.258 113.425 120.863  1.00  0.00     0.279 C 
ENDBRANCH   9  24
BRANCH  10  26
ATOM     26  O   UNL     1     123.345 111.784 120.612  1.00  0.00    -0.490 OA
ATOM     27  C   UNL     1     123.866 112.639 121.626  1.00  0.00     0.278 C 
ENDBRANCH  10  26
TORSDOF 6
ENDMDL
MODEL 3
REMARK VINA RESULT:    -3.931      3.232      8.637
REMARK INTER + INTRA:          -6.037
REMARK INTER:                  -5.322
REMARK INTRA:                  -0.715
REMARK UNBOUND:                -0.727
REMARK SMILES COc1ccc(-c2cc(=O)c3c(OC)c(OC)c(OC)c(OC)c3o2)cc1
REMARK SMILES IDX 7 1 8 2 9 3 10 4 11 5 24 6 25 7 21 8 18 9 15 10 12 11 6 12
REMARK SMILES IDX 3 13 4 14 27 15 5 16 26 17 2 18 1 19 22 20 23 21 13 22 14 23
REMARK SMILES IDX 19 24 20 25 16 26 17 27
REMARK H PARENT
REMARK Flexibility Score: inf
ROOT
ATOM      1  C   UNL     1     119.443 106.169 122.191  1.00  0.00     0.138 A 
ATOM      2  C   UNL     1     119.726 107.541 122.151  1.00  0.00     0.100 A 
ATOM      3  C   UNL     1     120.956 107.973 121.658  1.00  0.00     0.197 A 
ATOM      4  O   UNL     1     121.193 109.211 121.632  1.00  0.00    -0.289 OA
ATOM      5  C   UNL     1     121.903 107.026 121.204  1.00  0.00     0.115 A 
ATOM      6  C   UNL     1     121.548 105.661 121.288  1.00  0.00     0.188 A 
ATOM      7  O   UNL     1     120.359 105.303 121.768  1.00  0.00    -0.452 OA
ATOM      8  C   UNL     1     122.433 104.659 120.880  1.00  0.00     0.209 A 
ATOM      9  C   UNL     1     123.709 105.016 120.394  1.00  0.00     0.211 A 
ATOM     10  C   UNL     1     124.044 106.377 120.218  1.00  0.00     0.208 A 
ATOM     11  C   UNL     1     123.164 107.393 120.670  1.00  0.00     0.179 A 
ENDROOT
BRANCH   1  12
ATOM     12  C   UNL     1     118.154 105.651 122.712  1.00  0.00     0.018 A 
ATOM     13  C   UNL     1     115.671 104.711 123.680  1.00  0.00     0.118 A 
ATOM     14  C   UNL     1     115.727 105.811 122.819  1.00  0.00     0.047 A 
ATOM     15  C   UNL     1     116.871 104.084 124.068  1.00  0.00     0.047 A 
ATOM     16  C   UNL     1     116.954 106.283 122.344  1.00  0.00     0.016 A 
ATOM     17  C   UNL     1     118.099 104.551 123.591  1.00  0.00     0.016 A 
BRANCH  13  18
ATOM     18  O   UNL     1     114.415 104.274 124.125  1.00  0.00    -0.497 OA
ATOM     19  C   UNL     1     113.176 104.861 123.739  1.00  0.00     0.278 C 
ENDBRANCH  13  18
ENDBRANCH   1  12
BRANCH   8  20
ATOM     20  O   UNL     1     121.986 103.328 120.997  1.00  0.00    -0.490 OA
ATOM     21  C   UNL     1     121.482 102.511 119.947  1.00  0.00     0.278 C 
ENDBRANCH   8  20
BRANCH  11  22
ATOM     22  O   UNL     1     123.483 108.765 120.599  1.00  0.00    -0.492 OA
ATOM     23  C   UNL     1     124.529 109.443 121.288  1.00  0.00     0.278 C 
ENDBRANCH  11  22
BRANCH   9  24
ATOM     24  O   UNL     1     124.651 104.023 120.112  1.00  0.00    -0.490 OA
ATOM     25  C   UNL     1     125.441 103.417 121.129  1.00  0.00     0.279 C 
ENDBRANCH   9  24
BRANCH  10  26
ATOM     26  O   UNL     1     125.242 106.724 119.583  1.00  0.00    -0.490 OA
ATOM     27  C   UNL     1     125.338 106.929 118.176  1.00  0.00     0.278 C 
ENDBRANCH  10  26
TORSDOF 6
ENDMDL
MODEL 4
REMARK VINA RESULT:    -3.900     13.981     16.646
REMARK INTER + INTRA:          -5.996
REMARK INTER:                  -5.275
REMARK INTRA:                  -0.721
REMARK UNBOUND:                -0.727
REMARK SMILES COc1ccc(-c2cc(=O)c3c(OC)c(OC)c(OC)c(OC)c3o2)cc1
REMARK SMILES IDX 7 1 8 2 9 3 10 4 11 5 24 6 25 7 21 8 18 9 15 10 12 11 6 12
REMARK SMILES IDX 3 13 4 14 27 15 5 16 26 17 2 18 1 19 22 20 23 21 13 22 14 23
REMARK SMILES IDX 19 24 20 25 16 26 17 27
REMARK H PARENT
REMARK Flexibility Score: inf
ROOT
ATOM      1  C   UNL     1     125.909 113.052 109.146  1.00  0.00     0.138 A 
ATOM      2  C   UNL     1     125.153 114.079 108.566  1.00  0.00     0.100 A 
ATOM      3  C   UNL     1     125.538 115.406 108.756  1.00  0.00     0.197 A 
ATOM      4  O   UNL     1     124.844 116.316 108.227  1.00  0.00    -0.289 OA
ATOM      5  C   UNL     1     126.683 115.701 109.532  1.00  0.00     0.115 A 
ATOM      6  C   UNL     1     127.385 114.611 110.093  1.00  0.00     0.188 A 
ATOM      7  O   UNL     1     126.974 113.363 109.880  1.00  0.00    -0.452 OA
ATOM      8  C   UNL     1     128.516 114.815 110.889  1.00  0.00     0.209 A 
ATOM      9  C   UNL     1     128.952 116.132 111.151  1.00  0.00     0.211 A 
ATOM     10  C   UNL     1     128.317 117.225 110.522  1.00  0.00     0.208 A 
ATOM     11  C   UNL     1     127.145 117.023 109.749  1.00  0.00     0.179 A 
ENDROOT
BRANCH   1  12
ATOM     12  C   UNL     1     125.544 111.623 108.984  1.00  0.00     0.018 A 
ATOM     13  C   UNL     1     124.800 108.919 108.643  1.00  0.00     0.118 A 
ATOM     14  C   UNL     1     124.114 109.934 107.969  1.00  0.00     0.047 A 
ATOM     15  C   UNL     1     125.860 109.263 109.503  1.00  0.00     0.047 A 
ATOM     16  C   UNL     1     124.475 111.274 108.141  1.00  0.00     0.016 A 
ATOM     17  C   UNL     1     126.225 110.601 109.674  1.00  0.00     0.016 A 
BRANCH  13  18
ATOM     18  O   UNL     1     124.401 107.591 108.433  1.00  0.00    -0.497 OA
ATOM     19  C   UNL     1     123.303 107.200 107.615  1.00  0.00     0.278 C 
ENDBRANCH  13  18
ENDBRANCH   1  12
BRANCH   8  20
ATOM     20  O   UNL     1     129.151 113.666 111.400  1.00  0.00    -0.490 OA
ATOM     21  C   UNL     1     130.263 112.990 110.825  1.00  0.00     0.278 C 
ENDBRANCH   8  20
BRANCH  11  22
ATOM     22  O   UNL     1     126.420 118.086 109.170  1.00  0.00    -0.492 OA
ATOM     23  C   UNL     1     125.667 119.085 109.849  1.00  0.00     0.278 C 
ENDBRANCH  11  22
BRANCH   9  24
ATOM     24  O   UNL     1     129.996 116.354 112.053  1.00  0.00    -0.490 OA
ATOM     25  C   UNL     1     131.358 116.399 111.640  1.00  0.00     0.279 C 
ENDBRANCH   9  24
BRANCH  10  26
ATOM     26  O   UNL     1     128.853 118.512 110.652  1.00  0.00    -0.490 OA
ATOM     27  C   UNL     1     129.700 119.097 109.667  1.00  0.00     0.278 C 
ENDBRANCH  10  26
TORSDOF 6
ENDMDL
MODEL 5
REMARK VINA RESULT:    -3.900      3.711      8.747
REMARK INTER + INTRA:          -5.995
REMARK INTER:                  -5.410
REMARK INTRA:                  -0.584
REMARK UNBOUND:                -0.727
REMARK SMILES COc1ccc(-c2cc(=O)c3c(OC)c(OC)c(OC)c(OC)c3o2)cc1
REMARK SMILES IDX 7 1 8 2 9 3 10 4 11 5 24 6 25 7 21 8 18 9 15 10 12 11 6 12
REMARK SMILES IDX 3 13 4 14 27 15 5 16 26 17 2 18 1 19 22 20 23 21 13 22 14 23
REMARK SMILES IDX 19 24 20 25 16 26 17 27
REMARK H PARENT
REMARK Flexibility Score: inf
ROOT
ATOM      1  C   UNL     1     119.063 105.781 122.147  1.00  0.00     0.138 A 
ATOM      2  C   UNL     1     119.866 106.921 122.285  1.00  0.00     0.100 A 
ATOM      3  C   UNL     1     121.210 106.862 121.918  1.00  0.00     0.197 A 
ATOM      4  O   UNL     1     121.917 107.897 122.051  1.00  0.00    -0.289 OA
ATOM      5  C   UNL     1     121.748 105.655 121.414  1.00  0.00     0.115 A 
ATOM      6  C   UNL     1     120.877 104.546 121.317  1.00  0.00     0.188 A 
ATOM      7  O   UNL     1     119.602 104.658 121.681  1.00  0.00    -0.452 OA
ATOM      8  C   UNL     1     121.332 103.311 120.847  1.00  0.00     0.209 A 
ATOM      9  C   UNL     1     122.688 103.164 120.482  1.00  0.00     0.211 A 
ATOM     10  C   UNL     1     123.547 104.285 120.486  1.00  0.00     0.208 A 
ATOM     11  C   UNL     1     123.098 105.527 121.001  1.00  0.00     0.179 A 
ENDROOT
BRANCH   1  12
ATOM     12  C   UNL     1     117.629 105.783 122.527  1.00  0.00     0.018 A 
ATOM     13  C   UNL     1     114.906 105.734 123.279  1.00  0.00     0.118 A 
ATOM     14  C   UNL     1     115.803 104.795 123.798  1.00  0.00     0.047 A 
ATOM     15  C   UNL     1     115.376 106.698 122.367  1.00  0.00     0.047 A 
ATOM     16  C   UNL     1     117.149 104.813 123.422  1.00  0.00     0.016 A 
ATOM     17  C   UNL     1     116.722 106.720 121.993  1.00  0.00     0.016 A 
BRANCH  13  18
ATOM     18  O   UNL     1     113.566 105.677 123.692  1.00  0.00    -0.497 OA
ATOM     19  C   UNL     1     112.875 104.475 124.014  1.00  0.00     0.278 C 
ENDBRANCH  13  18
ENDBRANCH   1  12
BRANCH   8  20
ATOM     20  O   UNL     1     120.388 102.268 120.781  1.00  0.00    -0.490 OA
ATOM     21  C   UNL     1     120.287 101.162 121.670  1.00  0.00     0.278 C 
ENDBRANCH   8  20
BRANCH  11  22
ATOM     22  O   UNL     1     123.938 106.656 121.110  1.00  0.00    -0.492 OA
ATOM     23  C   UNL     1     124.434 107.466 120.049  1.00  0.00     0.278 C 
ENDBRANCH  11  22
BRANCH   9  24
ATOM     24  O   UNL     1     123.186 101.903 120.142  1.00  0.00    -0.490 OA
ATOM     25  C   UNL     1     123.107 101.389 118.816  1.00  0.00     0.279 C 
ENDBRANCH   9  24
BRANCH  10  26
ATOM     26  O   UNL     1     124.843 104.172 119.968  1.00  0.00    -0.490 OA
ATOM     27  C   UNL     1     125.957 103.763 120.756  1.00  0.00     0.278 C 
ENDBRANCH  10  26
TORSDOF 6
ENDMDL
MODEL 6
REMARK VINA RESULT:    -3.868      3.312      5.380
REMARK INTER + INTRA:          -5.952
REMARK INTER:                  -5.242
REMARK INTRA:                  -0.710
REMARK UNBOUND:                -0.727
REMARK SMILES COc1ccc(-c2cc(=O)c3c(OC)c(OC)c(OC)c(OC)c3o2)cc1
REMARK SMILES IDX 7 1 8 2 9 3 10 4 11 5 24 6 25 7 21 8 18 9 15 10 12 11 6 12
REMARK SMILES IDX 3 13 4 14 27 15 5 16 26 17 2 18 1 19 22 20 23 21 13 22 14 23
REMARK SMILES IDX 19 24 20 25 16 26 17 27
REMARK H PARENT
REMARK Flexibility Score: inf
ROOT
ATOM      1  C   UNL     1     121.663 107.527 121.896  1.00  0.00     0.138 A 
ATOM      2  C   UNL     1     120.329 107.446 122.318  1.00  0.00     0.100 A 
ATOM      3  C   UNL     1     119.655 106.229 122.229  1.00  0.00     0.197 A 
ATOM      4  O   UNL     1     118.455 106.177 122.612  1.00  0.00    -0.289 OA
ATOM      5  C   UNL     1     120.321 105.092 121.716  1.00  0.00     0.115 A 
ATOM      6  C   UNL     1     121.661 105.258 121.301  1.00  0.00     0.188 A 
ATOM      7  O   UNL     1     122.258 106.443 121.407  1.00  0.00    -0.452 OA
ATOM      8  C   UNL     1     122.386 104.190 120.763  1.00  0.00     0.209 A 
ATOM      9  C   UNL     1     121.763 102.932 120.616  1.00  0.00     0.211 A 
ATOM     10  C   UNL     1     120.456 102.728 121.111  1.00  0.00     0.208 A 
ATOM     11  C   UNL     1     119.706 103.819 121.618  1.00  0.00     0.179 A 
ENDROOT
BRANCH   1  12
ATOM     12  C   UNL     1     122.429 108.796 121.960  1.00  0.00     0.018 A 
ATOM     13  C   UNL     1     123.931 111.185 122.114  1.00  0.00     0.118 A 
ATOM     14  C   UNL     1     124.472 109.976 122.563  1.00  0.00     0.047 A 
ATOM     15  C   UNL     1     122.622 111.198 121.595  1.00  0.00     0.047 A 
ATOM     16  C   UNL     1     123.729 108.794 122.494  1.00  0.00     0.016 A 
ATOM     17  C   UNL     1     121.879 110.016 121.522  1.00  0.00     0.016 A 
BRANCH  13  18
ATOM     18  O   UNL     1     124.719 112.342 122.200  1.00  0.00    -0.497 OA
ATOM     19  C   UNL     1     124.894 113.109 123.387  1.00  0.00     0.278 C 
ENDBRANCH  13  18
ENDBRANCH   1  12
BRANCH   8  20
ATOM     20  O   UNL     1     123.717 104.451 120.383  1.00  0.00    -0.490 OA
ATOM     21  C   UNL     1     124.889 104.084 121.102  1.00  0.00     0.278 C 
ENDBRANCH   8  20
BRANCH  11  22
ATOM     22  O   UNL     1     118.367 103.691 122.044  1.00  0.00    -0.492 OA
ATOM     23  C   UNL     1     117.228 103.410 121.236  1.00  0.00     0.278 C 
ENDBRANCH  11  22
BRANCH   9  24
ATOM     24  O   UNL     1     122.430 101.896 119.957  1.00  0.00    -0.490 OA
ATOM     25  C   UNL     1     122.379 101.740 118.543  1.00  0.00     0.279 C 
ENDBRANCH   9  24
BRANCH  10  26
ATOM     26  O   UNL     1     119.905 101.441 121.113  1.00  0.00    -0.490 OA
ATOM     27  C   UNL     1     120.022 100.554 122.221  1.00  0.00     0.278 C 
ENDBRANCH  10  26
TORSDOF 6
ENDMDL
MODEL 7
REMARK VINA RESULT:    -3.854     13.275     15.957
REMARK INTER + INTRA:          -5.933
REMARK INTER:                  -5.248
REMARK INTRA:                  -0.685
REMARK UNBOUND:                -0.727
REMARK SMILES COc1ccc(-c2cc(=O)c3c(OC)c(OC)c(OC)c(OC)c3o2)cc1
REMARK SMILES IDX 7 1 8 2 9 3 10 4 11 5 24 6 25 7 21 8 18 9 15 10 12 11 6 12
REMARK SMILES IDX 3 13 4 14 27 15 5 16 26 17 2 18 1 19 22 20 23 21 13 22 14 23
REMARK SMILES IDX 19 24 20 25 16 26 17 27
REMARK H PARENT
REMARK Flexibility Score: inf
ROOT
ATOM      1  C   UNL     1     124.386 111.448 108.633  1.00  0.00     0.138 A 
ATOM      2  C   UNL     1     123.927 112.619 108.014  1.00  0.00     0.100 A 
ATOM      3  C   UNL     1     124.538 113.836 108.311  1.00  0.00     0.197 A 
ATOM      4  O   UNL     1     124.110 114.878 107.746  1.00  0.00    -0.289 OA
ATOM      5  C   UNL     1     125.610 113.878 109.232  1.00  0.00     0.115 A 
ATOM      6  C   UNL     1     126.006 112.657 109.823  1.00  0.00     0.188 A 
ATOM      7  O   UNL     1     125.388 111.522 109.503  1.00  0.00    -0.452 OA
ATOM      8  C   UNL     1     127.045 112.612 110.758  1.00  0.00     0.209 A 
ATOM      9  C   UNL     1     127.695 113.808 111.131  1.00  0.00     0.211 A 
ATOM     10  C   UNL     1     127.373 115.020 110.482  1.00  0.00     0.208 A 
ATOM     11  C   UNL     1     126.293 115.074 109.565  1.00  0.00     0.179 A 
ENDROOT
BRANCH   1  12
ATOM     12  C   UNL     1     123.770 110.126 108.361  1.00  0.00     0.018 A 
ATOM     13  C   UNL     1     122.547 107.626 107.871  1.00  0.00     0.118 A 
ATOM     14  C   UNL     1     121.804 108.690 108.392  1.00  0.00     0.047 A 
ATOM     15  C   UNL     1     123.917 107.813 107.605  1.00  0.00     0.047 A 
ATOM     16  C   UNL     1     122.408 109.926 108.642  1.00  0.00     0.016 A 
ATOM     17  C   UNL     1     124.522 109.049 107.850  1.00  0.00     0.016 A 
BRANCH  13  18
ATOM     18  O   UNL     1     121.894 106.408 107.634  1.00  0.00    -0.497 OA
ATOM     19  C   UNL     1     122.474 105.303 106.948  1.00  0.00     0.278 C 
ENDBRANCH  13  18
ENDBRANCH   1  12
BRANCH   8  20
ATOM     20  O   UNL     1     127.371 111.348 111.287  1.00  0.00    -0.490 OA
ATOM     21  C   UNL     1     128.397 110.477 110.824  1.00  0.00     0.278 C 
ENDBRANCH   8  20
BRANCH  11  22
ATOM     22  O   UNL     1     125.871 116.274 108.953  1.00  0.00    -0.492 OA
ATOM     23  C   UNL     1     125.255 117.392 109.584  1.00  0.00     0.278 C 
ENDBRANCH  11  22
BRANCH   9  24
ATOM     24  O   UNL     1     128.638 113.796 112.161  1.00  0.00    -0.490 OA
ATOM     25  C   UNL     1     130.027 113.600 111.916  1.00  0.00     0.279 C 
ENDBRANCH   9  24
BRANCH  10  26
ATOM     26  O   UNL     1     128.131 116.169 110.736  1.00  0.00    -0.490 OA
ATOM     27  C   UNL     1     129.193 116.596 109.887  1.00  0.00     0.278 C 
ENDBRANCH  10  26
TORSDOF 6
ENDMDL
MODEL 8
REMARK VINA RESULT:    -3.780     13.502     15.193
REMARK INTER + INTRA:          -5.833
REMARK INTER:                  -5.246
REMARK INTRA:                  -0.586
REMARK UNBOUND:                -0.727
REMARK SMILES COc1ccc(-c2cc(=O)c3c(OC)c(OC)c(OC)c(OC)c3o2)cc1
REMARK SMILES IDX 7 1 8 2 9 3 10 4 11 5 24 6 25 7 21 8 18 9 15 10 12 11 6 12
REMARK SMILES IDX 3 13 4 14 27 15 5 16 26 17 2 18 1 19 22 20 23 21 13 22 14 23
REMARK SMILES IDX 19 24 20 25 16 26 17 27
REMARK H PARENT
REMARK Flexibility Score: inf
ROOT
ATOM      1  C   UNL     1     120.283 114.278 108.746  1.00  0.00     0.138 A 
ATOM      2  C   UNL     1     120.231 115.448 109.515  1.00  0.00     0.100 A 
ATOM      3  C   UNL     1     119.085 116.242 109.481  1.00  0.00     0.197 A 
ATOM      4  O   UNL     1     119.057 117.291 110.178  1.00  0.00    -0.289 OA
ATOM      5  C   UNL     1     117.990 115.859 108.671  1.00  0.00     0.115 A 
ATOM      6  C   UNL     1     118.125 114.673 107.915  1.00  0.00     0.188 A 
ATOM      7  O   UNL     1     119.242 113.952 107.986  1.00  0.00    -0.452 OA
ATOM      8  C   UNL     1     117.098 114.233 107.074  1.00  0.00     0.209 A 
ATOM      9  C   UNL     1     115.916 114.998 106.965  1.00  0.00     0.211 A 
ATOM     10  C   UNL     1     115.730 116.134 107.781  1.00  0.00     0.208 A 
ATOM     11  C   UNL     1     116.786 116.604 108.603  1.00  0.00     0.179 A 
ENDROOT
BRANCH   1  12
ATOM     12  C   UNL     1     121.478 113.399 108.738  1.00  0.00     0.018 A 
ATOM     13  C   UNL     1     123.780 111.761 108.680  1.00  0.00     0.118 A 
ATOM     14  C   UNL     1     123.759 112.981 107.997  1.00  0.00     0.047 A 
ATOM     15  C   UNL     1     122.633 111.354 109.388  1.00  0.00     0.047 A 
ATOM     16  C   UNL     1     122.619 113.790 108.018  1.00  0.00     0.016 A 
ATOM     17  C   UNL     1     121.494 112.163 109.413  1.00  0.00     0.016 A 
BRANCH  13  18
ATOM     18  O   UNL     1     124.949 110.988 108.631  1.00  0.00    -0.497 OA
ATOM     19  C   UNL     1     124.981 109.569 108.748  1.00  0.00     0.278 C 
ENDBRANCH  13  18
ENDBRANCH   1  12
BRANCH   8  20
ATOM     20  O   UNL     1     117.322 113.037 106.366  1.00  0.00    -0.490 OA
ATOM     21  C   UNL     1     116.817 111.749 106.701  1.00  0.00     0.278 C 
ENDBRANCH   8  20
BRANCH  11  22
ATOM     22  O   UNL     1     116.687 117.782 109.374  1.00  0.00    -0.492 OA
ATOM     23  C   UNL     1     116.776 119.125 108.909  1.00  0.00     0.278 C 
ENDBRANCH  11  22
BRANCH   9  24
ATOM     24  O   UNL     1     114.942 114.643 106.028  1.00  0.00    -0.490 OA
ATOM     25  C   UNL     1     115.029 115.029 104.660  1.00  0.00     0.279 C 
ENDBRANCH   9  24
BRANCH  10  26
ATOM     26  O   UNL     1     114.494 116.792 107.790  1.00  0.00    -0.490 OA
ATOM     27  C   UNL     1     114.172 117.841 106.881  1.00  0.00     0.278 C 
ENDBRANCH  10  26
TORSDOF 6
ENDMDL
MODEL 9
REMARK VINA RESULT:    -3.768      4.781      5.958
REMARK INTER + INTRA:          -5.817
REMARK INTER:                  -5.107
REMARK INTRA:                  -0.710
REMARK UNBOUND:                -0.727
REMARK SMILES COc1ccc(-c2cc(=O)c3c(OC)c(OC)c(OC)c(OC)c3o2)cc1
REMARK SMILES IDX 7 1 8 2 9 3 10 4 11 5 24 6 25 7 21 8 18 9 15 10 12 11 6 12
REMARK SMILES IDX 3 13 4 14 27 15 5 16 26 17 2 18 1 19 22 20 23 21 13 22 14 23
REMARK SMILES IDX 19 24 20 25 16 26 17 27
REMARK H PARENT
REMARK Flexibility Score: inf
ROOT
ATOM      1  C   UNL     1     123.308 103.787 120.624  1.00  0.00     0.138 A 
ATOM      2  C   UNL     1     122.292 102.829 120.739  1.00  0.00     0.100 A 
ATOM      3  C   UNL     1     121.001 103.235 121.074  1.00  0.00     0.197 A 
ATOM      4  O   UNL     1     120.101 102.358 121.175  1.00  0.00    -0.289 OA
ATOM      5  C   UNL     1     120.730 104.605 121.295  1.00  0.00     0.115 A 
ATOM      6  C   UNL     1     121.811 105.508 121.172  1.00  0.00     0.188 A 
ATOM      7  O   UNL     1     123.024 105.066 120.849  1.00  0.00    -0.452 OA
ATOM      8  C   UNL     1     121.634 106.877 121.393  1.00  0.00     0.209 A 
ATOM      9  C   UNL     1     120.361 107.362 121.762  1.00  0.00     0.211 A 
ATOM     10  C   UNL     1     119.254 106.486 121.800  1.00  0.00     0.208 A 
ATOM     11  C   UNL     1     119.439 105.092 121.617  1.00  0.00     0.179 A 
ENDROOT
BRANCH   1  12
ATOM     12  C   UNL     1     124.701 103.413 120.277  1.00  0.00     0.018 A 
ATOM     13  C   UNL     1     127.334 102.651 119.590  1.00  0.00     0.118 A 
ATOM     14  C   UNL     1     126.237 101.933 119.103  1.00  0.00     0.047 A 
ATOM     15  C   UNL     1     127.109 103.753 120.437  1.00  0.00     0.047 A 
ATOM     16  C   UNL     1     124.934 102.304 119.447  1.00  0.00     0.016 A 
ATOM     17  C   UNL     1     125.807 104.127 120.779  1.00  0.00     0.016 A 
BRANCH  13  18
ATOM     18  O   UNL     1     128.621 102.242 119.212  1.00  0.00    -0.497 OA
ATOM     19  C   UNL     1     129.769 102.322 120.050  1.00  0.00     0.278 C 
ENDBRANCH  13  18
ENDBRANCH   1  12
BRANCH   8  20
ATOM     20  O   UNL     1     122.768 107.698 121.240  1.00  0.00    -0.490 OA
ATOM     21  C   UNL     1     123.594 108.202 122.284  1.00  0.00     0.278 C 
ENDBRANCH   8  20
BRANCH  11  22
ATOM     22  O   UNL     1     118.385 104.162 121.729  1.00  0.00    -0.492 OA
ATOM     23  C   UNL     1     117.646 103.834 122.901  1.00  0.00     0.278 C 
ENDBRANCH  11  22
BRANCH   9  24
ATOM     24  O   UNL     1     120.203 108.704 122.118  1.00  0.00    -0.490 OA
ATOM     25  C   UNL     1     119.987 109.725 121.149  1.00  0.00     0.279 C 
ENDBRANCH   9  24
BRANCH  10  26
ATOM     26  O   UNL     1     117.967 106.998 122.004  1.00  0.00    -0.490 OA
ATOM     27  C   UNL     1     117.097 107.349 120.932  1.00  0.00     0.278 C 
ENDBRANCH  10  26
TORSDOF 6
ENDMDL
