MODEL 1
REMARK VINA RESULT:    -6.787      0.000      0.000
REMARK INTER + INTRA:          -7.536
REMARK INTER:                  -7.779
REMARK INTRA:                   0.242
REMARK UNBOUND:                 0.242
REMARK SMILES O=c1c(-c2ccc(O)cc2)coc2c(O)c(O)ccc12
REMARK SMILES IDX 3 1 11 2 12 3 13 4 20 5 2 6 1 7 19 8 18 9 16 10 14 11 4 12
REMARK SMILES IDX 5 13 6 14 7 15 10 16 9 17 8 18 15 20 17 22
REMARK H PARENT 8 19 15 21 17 23
REMARK Flexibility Score: inf
ROOT
ATOM      1  C   UNL     1     133.038 -33.351 257.308  1.00  0.00     0.065 A 
ATOM      2  C   UNL     1     133.267 -33.503 258.684  1.00  0.00     0.208 A 
ATOM      3  O   UNL     1     132.314 -33.960 259.488  1.00  0.00    -0.459 OA
ATOM      4  C   UNL     1     131.104 -34.299 259.055  1.00  0.00     0.183 A 
ATOM      5  C   UNL     1     130.783 -34.175 257.684  1.00  0.00     0.069 A 
ATOM      6  C   UNL     1     131.767 -33.687 256.805  1.00  0.00     0.200 A 
ATOM      7  O   UNL     1     131.506 -33.533 255.580  1.00  0.00    -0.288 OA
ATOM      8  C   UNL     1     129.498 -34.533 257.240  1.00  0.00     0.020 A 
ATOM      9  C   UNL     1     128.549 -35.009 258.145  1.00  0.00     0.051 A 
ATOM     10  C   UNL     1     128.863 -35.135 259.501  1.00  0.00     0.161 A 
ATOM     11  C   UNL     1     130.143 -34.780 259.962  1.00  0.00     0.201 A 
ENDROOT
BRANCH   1  12
ATOM     12  C   UNL     1     134.121 -32.843 256.429  1.00  0.00    -0.011 A 
ATOM     13  C   UNL     1     134.278 -33.354 255.129  1.00  0.00     0.013 A 
ATOM     14  C   UNL     1     135.292 -32.871 254.296  1.00  0.00     0.047 A 
ATOM     15  C   UNL     1     136.156 -31.869 254.748  1.00  0.00     0.115 A 
ATOM     16  C   UNL     1     134.990 -31.830 256.874  1.00  0.00     0.013 A 
ATOM     17  C   UNL     1     136.002 -31.349 256.039  1.00  0.00     0.047 A 
BRANCH  15  18
ATOM     18  O   UNL     1     137.162 -31.398 253.906  1.00  0.00    -0.508 OA
ATOM     19  H   UNL     1     137.098 -31.498 252.899  1.00  0.00     0.293 HD
ENDBRANCH  15  18
ENDBRANCH   1  12
BRANCH  11  20
ATOM     20  O   UNL     1     130.445 -34.911 261.319  1.00  0.00    -0.502 OA
ATOM     21  H   UNL     1     129.768 -34.707 262.045  1.00  0.00     0.293 HD
ENDBRANCH  11  20
BRANCH  10  22
ATOM     22  O   UNL     1     127.889 -35.616 260.378  1.00  0.00    -0.504 OA
ATOM     23  H   UNL     1     128.126 -36.135 261.214  1.00  0.00     0.293 HD
ENDBRANCH  10  22
TORSDOF 4
ENDMDL
MODEL 2
REMARK VINA RESULT:    -6.708      9.367     10.303
REMARK INTER + INTRA:          -7.446
REMARK INTER:                  -7.190
REMARK INTRA:                  -0.256
REMARK UNBOUND:                 0.242
REMARK SMILES O=c1c(-c2ccc(O)cc2)coc2c(O)c(O)ccc12
REMARK SMILES IDX 3 1 11 2 12 3 13 4 20 5 2 6 1 7 19 8 18 9 16 10 14 11 4 12
REMARK SMILES IDX 5 13 6 14 7 15 10 16 9 17 8 18 15 20 17 22
REMARK H PARENT 8 19 15 21 17 23
REMARK Flexibility Score: inf
ROOT
ATOM      1  C   UNL     1     131.055 -24.810 255.918  1.00  0.00     0.065 A 
ATOM      2  C   UNL     1     131.313 -23.509 255.462  1.00  0.00     0.208 A 
ATOM      3  O   UNL     1     130.928 -22.450 256.165  1.00  0.00    -0.459 OA
ATOM      4  C   UNL     1     130.286 -22.547 257.324  1.00  0.00     0.183 A 
ATOM      5  C   UNL     1     129.979 -23.819 257.860  1.00  0.00     0.069 A 
ATOM      6  C   UNL     1     130.367 -24.962 257.137  1.00  0.00     0.200 A 
ATOM      7  O   UNL     1     130.082 -26.114 257.568  1.00  0.00    -0.288 OA
ATOM      8  C   UNL     1     129.296 -23.908 259.084  1.00  0.00     0.020 A 
ATOM      9  C   UNL     1     128.926 -22.750 259.768  1.00  0.00     0.051 A 
ATOM     10  C   UNL     1     129.229 -21.489 259.244  1.00  0.00     0.161 A 
ATOM     11  C   UNL     1     129.910 -21.383 258.019  1.00  0.00     0.201 A 
ENDROOT
BRANCH   1  12
ATOM     12  C   UNL     1     131.500 -25.978 255.117  1.00  0.00    -0.011 A 
ATOM     13  C   UNL     1     132.678 -26.666 255.458  1.00  0.00     0.013 A 
ATOM     14  C   UNL     1     133.095 -27.770 254.710  1.00  0.00     0.047 A 
ATOM     15  C   UNL     1     132.339 -28.207 253.618  1.00  0.00     0.115 A 
ATOM     16  C   UNL     1     130.741 -26.426 254.020  1.00  0.00     0.013 A 
ATOM     17  C   UNL     1     131.160 -27.532 253.275  1.00  0.00     0.047 A 
BRANCH  15  18
ATOM     18  O   UNL     1     132.767 -29.309 252.883  1.00  0.00    -0.508 OA
ATOM     19  H   UNL     1     132.198 -30.145 252.802  1.00  0.00     0.293 HD
ENDBRANCH  15  18
ENDBRANCH   1  12
BRANCH  11  20
ATOM     20  O   UNL     1     130.208 -20.119 257.505  1.00  0.00    -0.502 OA
ATOM     21  H   UNL     1     130.664 -19.404 258.060  1.00  0.00     0.293 HD
ENDBRANCH  11  20
BRANCH  10  22
ATOM     22  O   UNL     1     128.844 -20.352 259.956  1.00  0.00    -0.504 OA
ATOM     23  H   UNL     1     127.950 -20.288 260.426  1.00  0.00     0.293 HD
ENDBRANCH  10  22
TORSDOF 4
ENDMDL
MODEL 3
REMARK VINA RESULT:    -6.613     10.022     11.091
REMARK INTER + INTRA:          -7.337
REMARK INTER:                  -7.088
REMARK INTRA:                  -0.249
REMARK UNBOUND:                 0.242
REMARK SMILES O=c1c(-c2ccc(O)cc2)coc2c(O)c(O)ccc12
REMARK SMILES IDX 3 1 11 2 12 3 13 4 20 5 2 6 1 7 19 8 18 9 16 10 14 11 4 12
REMARK SMILES IDX 5 13 6 14 7 15 10 16 9 17 8 18 15 20 17 22
REMARK H PARENT 8 19 15 21 17 23
REMARK Flexibility Score: inf
ROOT
ATOM      1  C   UNL     1     130.505 -24.525 256.476  1.00  0.00     0.065 A 
ATOM      2  C   UNL     1     129.998 -24.671 257.776  1.00  0.00     0.208 A 
ATOM      3  O   UNL     1     129.745 -23.609 258.532  1.00  0.00    -0.459 OA
ATOM      4  C   UNL     1     129.949 -22.362 258.120  1.00  0.00     0.183 A 
ATOM      5  C   UNL     1     130.462 -22.120 256.825  1.00  0.00     0.069 A 
ATOM      6  C   UNL     1     130.747 -23.223 255.999  1.00  0.00     0.200 A 
ATOM      7  O   UNL     1     131.237 -23.047 254.849  1.00  0.00    -0.288 OA
ATOM      8  C   UNL     1     130.678 -20.797 256.402  1.00  0.00     0.020 A 
ATOM      9  C   UNL     1     130.385 -19.731 257.254  1.00  0.00     0.051 A 
ATOM     10  C   UNL     1     129.875 -19.966 258.535  1.00  0.00     0.161 A 
ATOM     11  C   UNL     1     129.656 -21.283 258.973  1.00  0.00     0.201 A 
ENDROOT
BRANCH   1  12
ATOM     12  C   UNL     1     130.775 -25.727 255.648  1.00  0.00    -0.011 A 
ATOM     13  C   UNL     1     132.080 -26.239 255.542  1.00  0.00     0.013 A 
ATOM     14  C   UNL     1     132.335 -27.375 254.769  1.00  0.00     0.047 A 
ATOM     15  C   UNL     1     131.291 -28.019 254.099  1.00  0.00     0.115 A 
ATOM     16  C   UNL     1     129.728 -26.384 254.976  1.00  0.00     0.013 A 
ATOM     17  C   UNL     1     129.986 -27.522 254.205  1.00  0.00     0.047 A 
BRANCH  15  18
ATOM     18  O   UNL     1     131.560 -29.151 253.333  1.00  0.00    -0.508 OA
ATOM     19  H   UNL     1     130.955 -29.430 252.569  1.00  0.00     0.293 HD
ENDBRANCH  15  18
ENDBRANCH   1  12
BRANCH  11  20
ATOM     20  O   UNL     1     129.147 -21.505 260.254  1.00  0.00    -0.502 OA
ATOM     21  H   UNL     1     129.729 -21.828 261.018  1.00  0.00     0.293 HD
ENDBRANCH  11  20
BRANCH  10  22
ATOM     22  O   UNL     1     129.593 -18.875 259.358  1.00  0.00    -0.504 OA
ATOM     23  H   UNL     1     130.269 -18.142 259.532  1.00  0.00     0.293 HD
ENDBRANCH  10  22
TORSDOF 4
ENDMDL
MODEL 4
REMARK VINA RESULT:    -6.577      3.158      4.837
REMARK INTER + INTRA:          -7.296
REMARK INTER:                  -7.134
REMARK INTRA:                  -0.162
REMARK UNBOUND:                 0.242
REMARK SMILES O=c1c(-c2ccc(O)cc2)coc2c(O)c(O)ccc12
REMARK SMILES IDX 3 1 11 2 12 3 13 4 20 5 2 6 1 7 19 8 18 9 16 10 14 11 4 12
REMARK SMILES IDX 5 13 6 14 7 15 10 16 9 17 8 18 15 20 17 22
REMARK H PARENT 8 19 15 21 17 23
REMARK Flexibility Score: inf
ROOT
ATOM      1  C   UNL     1     134.585 -31.039 255.131  1.00  0.00     0.065 A 
ATOM      2  C   UNL     1     134.377 -32.150 254.300  1.00  0.00     0.208 A 
ATOM      3  O   UNL     1     134.106 -33.344 254.813  1.00  0.00    -0.459 OA
ATOM      4  C   UNL     1     134.014 -33.565 256.121  1.00  0.00     0.183 A 
ATOM      5  C   UNL     1     134.212 -32.504 257.034  1.00  0.00     0.069 A 
ATOM      6  C   UNL     1     134.507 -31.226 256.524  1.00  0.00     0.200 A 
ATOM      7  O   UNL     1     134.723 -30.262 257.309  1.00  0.00    -0.288 OA
ATOM      8  C   UNL     1     134.116 -32.752 258.413  1.00  0.00     0.020 A 
ATOM      9  C   UNL     1     133.825 -34.034 258.878  1.00  0.00     0.051 A 
ATOM     10  C   UNL     1     133.626 -35.087 257.979  1.00  0.00     0.161 A 
ATOM     11  C   UNL     1     133.720 -34.856 256.596  1.00  0.00     0.201 A 
ENDROOT
BRANCH   1  12
ATOM     12  C   UNL     1     134.881 -29.713 254.533  1.00  0.00    -0.011 A 
ATOM     13  C   UNL     1     133.945 -28.667 254.625  1.00  0.00     0.013 A 
ATOM     14  C   UNL     1     134.225 -27.415 254.069  1.00  0.00     0.047 A 
ATOM     15  C   UNL     1     135.443 -27.189 253.423  1.00  0.00     0.115 A 
ATOM     16  C   UNL     1     136.108 -29.475 253.886  1.00  0.00     0.013 A 
ATOM     17  C   UNL     1     136.385 -28.222 253.333  1.00  0.00     0.047 A 
BRANCH  15  18
ATOM     18  O   UNL     1     135.708 -25.935 252.875  1.00  0.00    -0.508 OA
ATOM     19  H   UNL     1     135.784 -25.801 251.873  1.00  0.00     0.293 HD
ENDBRANCH  15  18
ENDBRANCH   1  12
BRANCH  11  20
ATOM     20  O   UNL     1     133.519 -35.914 255.708  1.00  0.00    -0.502 OA
ATOM     21  H   UNL     1     133.470 -35.775 254.705  1.00  0.00     0.293 HD
ENDBRANCH  11  20
BRANCH  10  22
ATOM     22  O   UNL     1     133.335 -36.356 258.480  1.00  0.00    -0.504 OA
ATOM     23  H   UNL     1     132.465 -36.562 258.955  1.00  0.00     0.293 HD
ENDBRANCH  10  22
TORSDOF 4
ENDMDL
MODEL 5
REMARK VINA RESULT:    -6.397      3.182      4.168
REMARK INTER + INTRA:          -7.090
REMARK INTER:                  -6.827
REMARK INTRA:                  -0.262
REMARK UNBOUND:                 0.242
REMARK SMILES O=c1c(-c2ccc(O)cc2)coc2c(O)c(O)ccc12
REMARK SMILES IDX 3 1 11 2 12 3 13 4 20 5 2 6 1 7 19 8 18 9 16 10 14 11 4 12
REMARK SMILES IDX 5 13 6 14 7 15 10 16 9 17 8 18 15 20 17 22
REMARK H PARENT 8 19 15 21 17 23
REMARK Flexibility Score: inf
ROOT
ATOM      1  C   UNL     1     134.659 -31.400 255.580  1.00  0.00     0.065 A 
ATOM      2  C   UNL     1     134.871 -31.523 256.962  1.00  0.00     0.208 A 
ATOM      3  O   UNL     1     134.581 -32.652 257.598  1.00  0.00    -0.459 OA
ATOM      4  C   UNL     1     134.080 -33.719 256.985  1.00  0.00     0.183 A 
ATOM      5  C   UNL     1     133.829 -33.684 255.594  1.00  0.00     0.069 A 
ATOM      6  C   UNL     1     134.120 -32.501 254.890  1.00  0.00     0.200 A 
ATOM      7  O   UNL     1     133.879 -32.422 253.653  1.00  0.00    -0.288 OA
ATOM      8  C   UNL     1     133.296 -34.818 254.958  1.00  0.00     0.020 A 
ATOM      9  C   UNL     1     133.019 -35.971 255.694  1.00  0.00     0.051 A 
ATOM     10  C   UNL     1     133.267 -36.011 257.069  1.00  0.00     0.161 A 
ATOM     11  C   UNL     1     133.799 -34.885 257.721  1.00  0.00     0.201 A 
ENDROOT
BRANCH   1  12
ATOM     12  C   UNL     1     134.996 -30.129 254.890  1.00  0.00    -0.011 A 
ATOM     13  C   UNL     1     134.116 -29.034 254.947  1.00  0.00     0.013 A 
ATOM     14  C   UNL     1     134.436 -27.835 254.305  1.00  0.00     0.047 A 
ATOM     15  C   UNL     1     135.640 -27.710 253.605  1.00  0.00     0.115 A 
ATOM     16  C   UNL     1     136.209 -29.995 254.190  1.00  0.00     0.013 A 
ATOM     17  C   UNL     1     136.526 -28.793 253.550  1.00  0.00     0.047 A 
BRANCH  15  18
ATOM     18  O   UNL     1     135.945 -26.508 252.971  1.00  0.00    -0.508 OA
ATOM     19  H   UNL     1     135.222 -25.840 252.727  1.00  0.00     0.293 HD
ENDBRANCH  15  18
ENDBRANCH   1  12
BRANCH  11  20
ATOM     20  O   UNL     1     134.043 -34.937 259.094  1.00  0.00    -0.502 OA
ATOM     21  H   UNL     1     133.390 -35.361 259.743  1.00  0.00     0.293 HD
ENDBRANCH  11  20
BRANCH  10  22
ATOM     22  O   UNL     1     132.978 -37.182 257.773  1.00  0.00    -0.504 OA
ATOM     23  H   UNL     1     133.535 -38.021 257.673  1.00  0.00     0.293 HD
ENDBRANCH  10  22
TORSDOF 4
ENDMDL
MODEL 6
REMARK VINA RESULT:    -6.092      1.914      2.653
REMARK INTER + INTRA:          -6.740
REMARK INTER:                  -6.508
REMARK INTRA:                  -0.232
REMARK UNBOUND:                 0.242
REMARK SMILES O=c1c(-c2ccc(O)cc2)coc2c(O)c(O)ccc12
REMARK SMILES IDX 3 1 11 2 12 3 13 4 20 5 2 6 1 7 19 8 18 9 16 10 14 11 4 12
REMARK SMILES IDX 5 13 6 14 7 15 10 16 9 17 8 18 15 20 17 22
REMARK H PARENT 8 19 15 21 17 23
REMARK Flexibility Score: inf
ROOT
ATOM      1  C   UNL     1     131.832 -34.529 257.214  1.00  0.00     0.065 A 
ATOM      2  C   UNL     1     131.991 -35.661 258.028  1.00  0.00     0.208 A 
ATOM      3  O   UNL     1     130.973 -36.479 258.264  1.00  0.00    -0.459 OA
ATOM      4  C   UNL     1     129.759 -36.288 257.757  1.00  0.00     0.183 A 
ATOM      5  C   UNL     1     129.506 -35.171 256.929  1.00  0.00     0.069 A 
ATOM      6  C   UNL     1     130.561 -34.280 256.663  1.00  0.00     0.200 A 
ATOM      7  O   UNL     1     130.364 -33.254 255.954  1.00  0.00    -0.288 OA
ATOM      8  C   UNL     1     128.217 -34.978 256.403  1.00  0.00     0.020 A 
ATOM      9  C   UNL     1     127.197 -35.884 256.694  1.00  0.00     0.051 A 
ATOM     10  C   UNL     1     127.443 -36.992 257.511  1.00  0.00     0.161 A 
ATOM     11  C   UNL     1     128.726 -37.199 258.047  1.00  0.00     0.201 A 
ENDROOT
BRANCH   1  12
ATOM     12  C   UNL     1     132.988 -33.632 256.960  1.00  0.00    -0.011 A 
ATOM     13  C   UNL     1     133.432 -32.746 257.958  1.00  0.00     0.013 A 
ATOM     14  C   UNL     1     134.524 -31.906 257.723  1.00  0.00     0.047 A 
ATOM     15  C   UNL     1     135.192 -31.945 256.495  1.00  0.00     0.115 A 
ATOM     16  C   UNL     1     133.668 -33.670 255.729  1.00  0.00     0.013 A 
ATOM     17  C   UNL     1     134.761 -32.830 255.499  1.00  0.00     0.047 A 
BRANCH  15  18
ATOM     18  O   UNL     1     136.279 -31.103 256.277  1.00  0.00    -0.508 OA
ATOM     19  H   UNL     1     136.387 -30.234 256.789  1.00  0.00     0.293 HD
ENDBRANCH  15  18
ENDBRANCH   1  12
BRANCH  11  20
ATOM     20  O   UNL     1     128.960 -38.308 258.861  1.00  0.00    -0.502 OA
ATOM     21  H   UNL     1     129.347 -38.221 259.794  1.00  0.00     0.293 HD
ENDBRANCH  11  20
BRANCH  10  22
ATOM     22  O   UNL     1     126.398 -37.878 257.780  1.00  0.00    -0.504 OA
ATOM     23  H   UNL     1     126.562 -38.815 258.124  1.00  0.00     0.293 HD
ENDBRANCH  10  22
TORSDOF 4
ENDMDL
MODEL 7
REMARK VINA RESULT:    -5.992      2.342      2.599
REMARK INTER + INTRA:          -6.625
REMARK INTER:                  -6.906
REMARK INTRA:                   0.281
REMARK UNBOUND:                 0.242
REMARK SMILES O=c1c(-c2ccc(O)cc2)coc2c(O)c(O)ccc12
REMARK SMILES IDX 3 1 11 2 12 3 13 4 20 5 2 6 1 7 19 8 18 9 16 10 14 11 4 12
REMARK SMILES IDX 5 13 6 14 7 15 10 16 9 17 8 18 15 20 17 22
REMARK H PARENT 8 19 15 21 17 23
REMARK Flexibility Score: inf
ROOT
ATOM      1  C   UNL     1     132.406 -34.398 257.325  1.00  0.00     0.065 A 
ATOM      2  C   UNL     1     131.308 -33.959 258.082  1.00  0.00     0.208 A 
ATOM      3  O   UNL     1     130.338 -34.798 258.425  1.00  0.00    -0.459 OA
ATOM      4  C   UNL     1     130.338 -36.083 258.084  1.00  0.00     0.183 A 
ATOM      5  C   UNL     1     131.402 -36.611 257.318  1.00  0.00     0.069 A 
ATOM      6  C   UNL     1     132.445 -35.749 256.932  1.00  0.00     0.200 A 
ATOM      7  O   UNL     1     133.395 -36.178 256.221  1.00  0.00    -0.288 OA
ATOM      8  C   UNL     1     131.389 -37.970 256.961  1.00  0.00     0.020 A 
ATOM      9  C   UNL     1     130.334 -38.792 257.361  1.00  0.00     0.051 A 
ATOM     10  C   UNL     1     129.280 -38.274 258.120  1.00  0.00     0.161 A 
ATOM     11  C   UNL     1     129.278 -36.916 258.485  1.00  0.00     0.201 A 
ENDROOT
BRANCH   1  12
ATOM     12  C   UNL     1     133.481 -33.442 256.959  1.00  0.00    -0.011 A 
ATOM     13  C   UNL     1     134.115 -33.532 255.707  1.00  0.00     0.013 A 
ATOM     14  C   UNL     1     135.122 -32.629 255.357  1.00  0.00     0.047 A 
ATOM     15  C   UNL     1     135.504 -31.620 256.247  1.00  0.00     0.115 A 
ATOM     16  C   UNL     1     133.866 -32.421 257.847  1.00  0.00     0.013 A 
ATOM     17  C   UNL     1     134.873 -31.518 257.493  1.00  0.00     0.047 A 
BRANCH  15  18
ATOM     18  O   UNL     1     136.509 -30.727 255.883  1.00  0.00    -0.508 OA
ATOM     19  H   UNL     1     137.193 -30.961 255.172  1.00  0.00     0.293 HD
ENDBRANCH  15  18
ENDBRANCH   1  12
BRANCH  11  20
ATOM     20  O   UNL     1     128.221 -36.410 259.243  1.00  0.00    -0.502 OA
ATOM     21  H   UNL     1     127.256 -36.658 259.057  1.00  0.00     0.293 HD
ENDBRANCH  11  20
BRANCH  10  22
ATOM     22  O   UNL     1     128.243 -39.125 258.504  1.00  0.00    -0.504 OA
ATOM     23  H   UNL     1     127.356 -38.774 258.842  1.00  0.00     0.293 HD
ENDBRANCH  10  22
TORSDOF 4
ENDMDL
MODEL 8
REMARK VINA RESULT:    -5.940      8.660     10.060
REMARK INTER + INTRA:          -6.566
REMARK INTER:                  -6.323
REMARK INTRA:                  -0.243
REMARK UNBOUND:                 0.242
REMARK SMILES O=c1c(-c2ccc(O)cc2)coc2c(O)c(O)ccc12
REMARK SMILES IDX 3 1 11 2 12 3 13 4 20 5 2 6 1 7 19 8 18 9 16 10 14 11 4 12
REMARK SMILES IDX 5 13 6 14 7 15 10 16 9 17 8 18 15 20 17 22
REMARK H PARENT 8 19 15 21 17 23
REMARK Flexibility Score: inf
ROOT
ATOM      1  C   UNL     1     131.477 -25.726 255.409  1.00  0.00     0.065 A 
ATOM      2  C   UNL     1     130.583 -25.816 256.487  1.00  0.00     0.208 A 
ATOM      3  O   UNL     1     130.139 -24.724 257.098  1.00  0.00    -0.459 OA
ATOM      4  C   UNL     1     130.503 -23.497 256.740  1.00  0.00     0.183 A 
ATOM      5  C   UNL     1     131.404 -23.310 255.667  1.00  0.00     0.069 A 
ATOM      6  C   UNL     1     131.899 -24.447 255.001  1.00  0.00     0.200 A 
ATOM      7  O   UNL     1     132.730 -24.321 254.060  1.00  0.00    -0.288 OA
ATOM      8  C   UNL     1     131.784 -22.008 255.301  1.00  0.00     0.020 A 
ATOM      9  C   UNL     1     131.273 -20.908 255.990  1.00  0.00     0.051 A 
ATOM     10  C   UNL     1     130.380 -21.087 257.051  1.00  0.00     0.161 A 
ATOM     11  C   UNL     1     129.991 -22.383 257.430  1.00  0.00     0.201 A 
ENDROOT
BRANCH   1  12
ATOM     12  C   UNL     1     131.954 -26.961 254.738  1.00  0.00    -0.011 A 
ATOM     13  C   UNL     1     133.216 -27.497 255.052  1.00  0.00     0.013 A 
ATOM     14  C   UNL     1     133.664 -28.665 254.427  1.00  0.00     0.047 A 
ATOM     15  C   UNL     1     132.857 -29.315 253.489  1.00  0.00     0.115 A 
ATOM     16  C   UNL     1     131.145 -27.625 253.798  1.00  0.00     0.013 A 
ATOM     17  C   UNL     1     131.596 -28.793 253.176  1.00  0.00     0.047 A 
BRANCH  15  18
ATOM     18  O   UNL     1     133.317 -30.478 252.875  1.00  0.00    -0.508 OA
ATOM     19  H   UNL     1     133.216 -30.626 251.877  1.00  0.00     0.293 HD
ENDBRANCH  15  18
ENDBRANCH   1  12
BRANCH  11  20
ATOM     20  O   UNL     1     129.098 -22.550 258.491  1.00  0.00    -0.502 OA
ATOM     21  H   UNL     1     128.096 -22.462 258.371  1.00  0.00     0.293 HD
ENDBRANCH  11  20
BRANCH  10  22
ATOM     22  O   UNL     1     129.888 -19.963 257.717  1.00  0.00    -0.504 OA
ATOM     23  H   UNL     1     130.113 -19.769 258.684  1.00  0.00     0.293 HD
ENDBRANCH  10  22
TORSDOF 4
ENDMDL
MODEL 9
REMARK VINA RESULT:    -5.804      2.067      6.780
REMARK INTER + INTRA:          -6.409
REMARK INTER:                  -6.474
REMARK INTRA:                   0.065
REMARK UNBOUND:                 0.242
REMARK SMILES O=c1c(-c2ccc(O)cc2)coc2c(O)c(O)ccc12
REMARK SMILES IDX 3 1 11 2 12 3 13 4 20 5 2 6 1 7 19 8 18 9 16 10 14 11 4 12
REMARK SMILES IDX 5 13 6 14 7 15 10 16 9 17 8 18 15 20 17 22
REMARK H PARENT 8 19 15 21 17 23
REMARK Flexibility Score: inf
ROOT
ATOM      1  C   UNL     1     132.299 -34.443 257.334  1.00  0.00     0.065 A 
ATOM      2  C   UNL     1     132.626 -33.502 258.322  1.00  0.00     0.208 A 
ATOM      3  O   UNL     1     133.498 -32.531 258.077  1.00  0.00    -0.459 OA
ATOM      4  C   UNL     1     134.108 -32.387 256.905  1.00  0.00     0.183 A 
ATOM      5  C   UNL     1     133.843 -33.292 255.852  1.00  0.00     0.069 A 
ATOM      6  C   UNL     1     132.928 -34.336 256.079  1.00  0.00     0.200 A 
ATOM      7  O   UNL     1     132.690 -35.182 255.174  1.00  0.00    -0.288 OA
ATOM      8  C   UNL     1     134.498 -33.130 254.619  1.00  0.00     0.020 A 
ATOM      9  C   UNL     1     135.401 -32.083 254.436  1.00  0.00     0.051 A 
ATOM     10  C   UNL     1     135.665 -31.183 255.474  1.00  0.00     0.161 A 
ATOM     11  C   UNL     1     135.020 -31.332 256.713  1.00  0.00     0.201 A 
ENDROOT
BRANCH   1  12
ATOM     12  C   UNL     1     131.316 -35.516 257.630  1.00  0.00    -0.011 A 
ATOM     13  C   UNL     1     130.050 -35.195 258.151  1.00  0.00     0.013 A 
ATOM     14  C   UNL     1     129.120 -36.202 258.424  1.00  0.00     0.047 A 
ATOM     15  C   UNL     1     129.438 -37.540 258.172  1.00  0.00     0.115 A 
ATOM     16  C   UNL     1     131.627 -36.863 257.373  1.00  0.00     0.013 A 
ATOM     17  C   UNL     1     130.694 -37.868 257.645  1.00  0.00     0.047 A 
BRANCH  15  18
ATOM     18  O   UNL     1     128.501 -38.533 258.447  1.00  0.00    -0.508 OA
ATOM     19  H   UNL     1     127.583 -38.529 258.015  1.00  0.00     0.293 HD
ENDBRANCH  15  18
ENDBRANCH   1  12
BRANCH  11  20
ATOM     20  O   UNL     1     135.291 -30.429 257.742  1.00  0.00    -0.502 OA
ATOM     21  H   UNL     1     136.182 -29.952 257.821  1.00  0.00     0.293 HD
ENDBRANCH  11  20
BRANCH  10  22
ATOM     22  O   UNL     1     136.574 -30.147 255.254  1.00  0.00    -0.504 OA
ATOM     23  H   UNL     1     136.790 -29.460 255.965  1.00  0.00     0.293 HD
ENDBRANCH  10  22
TORSDOF 4
ENDMDL
