MODEL 1
REMARK VINA RESULT:    -8.060      0.000      0.000
REMARK INTER + INTRA:          -9.777
REMARK INTER:                  -9.473
REMARK INTRA:                  -0.303
REMARK UNBOUND:                -0.303
REMARK SMILES O=c1cc(-c2ccc(O)c(O)c2)oc2cc(O)cc(O)c12
REMARK SMILES IDX 4 1 3 2 2 3 1 4 21 5 19 6 18 7 16 8 15 9 14 10 13 11 5 12
REMARK SMILES IDX 6 13 7 14 8 15 12 16 10 17 9 18 11 20 20 22 17 24
REMARK H PARENT 9 19 11 21 20 23 17 25
REMARK Flexibility Score: inf
ROOT
ATOM      1  C   UNL     1      39.043 -12.805   8.737  1.00  0.00     0.138 A 
ATOM      2  C   UNL     1      39.298 -11.467   9.082  1.00  0.00     0.100 A 
ATOM      3  C   UNL     1      40.379 -11.164   9.910  1.00  0.00     0.197 A 
ATOM      4  O   UNL     1      40.599  -9.960  10.213  1.00  0.00    -0.289 OA
ATOM      5  C   UNL     1      41.199 -12.204  10.391  1.00  0.00     0.107 A 
ATOM      6  C   UNL     1      42.315 -11.985  11.233  1.00  0.00     0.134 A 
ATOM      7  C   UNL     1      43.078 -13.077  11.673  1.00  0.00     0.093 A 
ATOM      8  C   UNL     1      42.745 -14.381  11.289  1.00  0.00     0.123 A 
ATOM      9  C   UNL     1      41.644 -14.602  10.459  1.00  0.00     0.094 A 
ATOM     10  C   UNL     1      40.872 -13.528  10.008  1.00  0.00     0.146 A 
ATOM     11  O   UNL     1      39.831 -13.764   9.216  1.00  0.00    -0.456 OA
ENDROOT
BRANCH   1  12
ATOM     12  C   UNL     1      37.907 -13.185   7.862  1.00  0.00     0.021 A 
ATOM     13  C   UNL     1      36.696 -12.466   7.865  1.00  0.00     0.016 A 
ATOM     14  C   UNL     1      35.646 -12.841   7.023  1.00  0.00     0.051 A 
ATOM     15  C   UNL     1      35.788 -13.933   6.158  1.00  0.00     0.157 A 
ATOM     16  C   UNL     1      38.046 -14.272   6.980  1.00  0.00     0.062 A 
ATOM     17  C   UNL     1      36.995 -14.650   6.136  1.00  0.00     0.158 A 
BRANCH  15  18
ATOM     18  O   UNL     1      34.738 -14.304   5.320  1.00  0.00    -0.504 OA
ATOM     19  H   UNL     1      34.827 -15.075   4.668  1.00  0.00     0.293 HD
ENDBRANCH  15  18
BRANCH  17  20
ATOM     20  O   UNL     1      37.170 -15.740   5.284  1.00  0.00    -0.504 OA
ATOM     21  H   UNL     1      36.796 -15.753   4.342  1.00  0.00     0.293 HD
ENDBRANCH  17  20
ENDBRANCH   1  12
BRANCH   6  22
ATOM     22  O   UNL     1      42.670 -10.696  11.632  1.00  0.00    -0.507 OA
ATOM     23  H   UNL     1      42.031 -10.104  12.150  1.00  0.00     0.293 HD
ENDBRANCH   6  22
BRANCH   8  24
ATOM     24  O   UNL     1      43.502 -15.466  11.728  1.00  0.00    -0.508 OA
ATOM     25  H   UNL     1      44.514 -15.424  11.768  1.00  0.00     0.293 HD
ENDBRANCH   8  24
TORSDOF 5
ENDMDL
MODEL 2
REMARK VINA RESULT:    -7.270      1.292      2.753
REMARK INTER + INTRA:          -8.849
REMARK INTER:                  -8.562
REMARK INTRA:                  -0.287
REMARK UNBOUND:                -0.303
REMARK SMILES O=c1cc(-c2ccc(O)c(O)c2)oc2cc(O)cc(O)c12
REMARK SMILES IDX 4 1 3 2 2 3 1 4 21 5 19 6 18 7 16 8 15 9 14 10 13 11 5 12
REMARK SMILES IDX 6 13 7 14 8 15 12 16 10 17 9 18 11 20 20 22 17 24
REMARK H PARENT 9 19 11 21 20 23 17 25
REMARK Flexibility Score: inf
ROOT
ATOM      1  C   UNL     1      38.602 -13.315   8.328  1.00  0.00     0.138 A 
ATOM      2  C   UNL     1      39.534 -14.341   8.553  1.00  0.00     0.100 A 
ATOM      3  C   UNL     1      40.638 -14.100   9.372  1.00  0.00     0.197 A 
ATOM      4  O   UNL     1      41.469 -15.028   9.566  1.00  0.00    -0.289 OA
ATOM      5  C   UNL     1      40.804 -12.830   9.959  1.00  0.00     0.107 A 
ATOM      6  C   UNL     1      41.893 -12.502  10.802  1.00  0.00     0.134 A 
ATOM      7  C   UNL     1      41.988 -11.212  11.343  1.00  0.00     0.093 A 
ATOM      8  C   UNL     1      41.018 -10.245  11.057  1.00  0.00     0.123 A 
ATOM      9  C   UNL     1      39.942 -10.564  10.225  1.00  0.00     0.094 A 
ATOM     10  C   UNL     1      39.828 -11.844   9.677  1.00  0.00     0.146 A 
ATOM     11  O   UNL     1      38.793 -12.124   8.890  1.00  0.00    -0.456 OA
ENDROOT
BRANCH   1  12
ATOM     12  C   UNL     1      37.410 -13.514   7.466  1.00  0.00     0.021 A 
ATOM     13  C   UNL     1      36.230 -12.768   7.649  1.00  0.00     0.016 A 
ATOM     14  C   UNL     1      35.127 -12.970   6.816  1.00  0.00     0.051 A 
ATOM     15  C   UNL     1      35.184 -13.912   5.781  1.00  0.00     0.157 A 
ATOM     16  C   UNL     1      37.464 -14.448   6.416  1.00  0.00     0.062 A 
ATOM     17  C   UNL     1      36.360 -14.652   5.580  1.00  0.00     0.158 A 
BRANCH  15  18
ATOM     18  O   UNL     1      34.082 -14.110   4.953  1.00  0.00    -0.504 OA
ATOM     19  H   UNL     1      33.141 -13.892   5.259  1.00  0.00     0.293 HD
ENDBRANCH  15  18
BRANCH  17  20
ATOM     20  O   UNL     1      36.451 -15.595   4.557  1.00  0.00    -0.504 OA
ATOM     21  H   UNL     1      36.599 -16.580   4.743  1.00  0.00     0.293 HD
ENDBRANCH  17  20
ENDBRANCH   1  12
BRANCH   6  22
ATOM     22  O   UNL     1      42.875 -13.446  11.104  1.00  0.00    -0.507 OA
ATOM     23  H   UNL     1      43.452 -13.864  10.383  1.00  0.00     0.293 HD
ENDBRANCH   6  22
BRANCH   8  24
ATOM     24  O   UNL     1      41.113  -8.962  11.593  1.00  0.00    -0.508 OA
ATOM     25  H   UNL     1      40.363  -8.289  11.491  1.00  0.00     0.293 HD
ENDBRANCH   8  24
TORSDOF 5
ENDMDL
MODEL 3
REMARK VINA RESULT:    -7.250      1.991      6.968
REMARK INTER + INTRA:          -8.824
REMARK INTER:                  -8.542
REMARK INTRA:                  -0.282
REMARK UNBOUND:                -0.303
REMARK SMILES O=c1cc(-c2ccc(O)c(O)c2)oc2cc(O)cc(O)c12
REMARK SMILES IDX 4 1 3 2 2 3 1 4 21 5 19 6 18 7 16 8 15 9 14 10 13 11 5 12
REMARK SMILES IDX 6 13 7 14 8 15 12 16 10 17 9 18 11 20 20 22 17 24
REMARK H PARENT 9 19 11 21 20 23 17 25
REMARK Flexibility Score: inf
ROOT
ATOM      1  C   UNL     1      40.420 -12.520   8.678  1.00  0.00     0.138 A 
ATOM      2  C   UNL     1      40.760 -11.450   7.835  1.00  0.00     0.100 A 
ATOM      3  C   UNL     1      39.930 -11.131   6.760  1.00  0.00     0.197 A 
ATOM      4  O   UNL     1      40.245 -10.168   6.009  1.00  0.00    -0.289 OA
ATOM      5  C   UNL     1      38.763 -11.888   6.534  1.00  0.00     0.107 A 
ATOM      6  C   UNL     1      37.867 -11.631   5.469  1.00  0.00     0.134 A 
ATOM      7  C   UNL     1      36.730 -12.436   5.309  1.00  0.00     0.093 A 
ATOM      8  C   UNL     1      36.473 -13.492   6.191  1.00  0.00     0.123 A 
ATOM      9  C   UNL     1      37.355 -13.750   7.243  1.00  0.00     0.094 A 
ATOM     10  C   UNL     1      38.493 -12.958   7.421  1.00  0.00     0.146 A 
ATOM     11  O   UNL     1      39.316 -13.222   8.431  1.00  0.00    -0.456 OA
ENDROOT
BRANCH   1  12
ATOM     12  C   UNL     1      41.266 -12.906   9.835  1.00  0.00     0.021 A 
ATOM     13  C   UNL     1      41.437 -14.251  10.212  1.00  0.00     0.016 A 
ATOM     14  C   UNL     1      42.248 -14.586  11.300  1.00  0.00     0.051 A 
ATOM     15  C   UNL     1      42.907 -13.586  12.025  1.00  0.00     0.157 A 
ATOM     16  C   UNL     1      41.942 -11.909  10.560  1.00  0.00     0.062 A 
ATOM     17  C   UNL     1      42.755 -12.241  11.651  1.00  0.00     0.158 A 
BRANCH  15  18
ATOM     18  O   UNL     1      43.714 -13.923  13.110  1.00  0.00    -0.504 OA
ATOM     19  H   UNL     1      44.659 -13.569  13.198  1.00  0.00     0.293 HD
ENDBRANCH  15  18
BRANCH  17  20
ATOM     20  O   UNL     1      43.400 -11.221  12.350  1.00  0.00    -0.504 OA
ATOM     21  H   UNL     1      43.428 -11.196  13.363  1.00  0.00     0.293 HD
ENDBRANCH  17  20
ENDBRANCH   1  12
BRANCH   6  22
ATOM     22  O   UNL     1      38.098 -10.586   4.574  1.00  0.00    -0.507 OA
ATOM     23  H   UNL     1      37.356  -9.958   4.285  1.00  0.00     0.293 HD
ENDBRANCH   6  22
BRANCH   8  24
ATOM     24  O   UNL     1      35.344 -14.293   6.032  1.00  0.00    -0.508 OA
ATOM     25  H   UNL     1      34.729 -14.189   5.233  1.00  0.00     0.293 HD
ENDBRANCH   8  24
TORSDOF 5
ENDMDL
MODEL 4
REMARK VINA RESULT:    -6.959      1.771      3.325
REMARK INTER + INTRA:          -8.483
REMARK INTER:                  -8.211
REMARK INTRA:                  -0.271
REMARK UNBOUND:                -0.303
REMARK SMILES O=c1cc(-c2ccc(O)c(O)c2)oc2cc(O)cc(O)c12
REMARK SMILES IDX 4 1 3 2 2 3 1 4 21 5 19 6 18 7 16 8 15 9 14 10 13 11 5 12
REMARK SMILES IDX 6 13 7 14 8 15 12 16 10 17 9 18 11 20 20 22 17 24
REMARK H PARENT 9 19 11 21 20 23 17 25
REMARK Flexibility Score: inf
ROOT
ATOM      1  C   UNL     1      37.836 -13.223   7.614  1.00  0.00     0.138 A 
ATOM      2  C   UNL     1      38.652 -14.202   8.204  1.00  0.00     0.100 A 
ATOM      3  C   UNL     1      39.704 -13.812   9.034  1.00  0.00     0.197 A 
ATOM      4  O   UNL     1      40.430 -14.699   9.558  1.00  0.00    -0.289 OA
ATOM      5  C   UNL     1      39.935 -12.442   9.265  1.00  0.00     0.107 A 
ATOM      6  C   UNL     1      40.977 -11.960  10.093  1.00  0.00     0.134 A 
ATOM      7  C   UNL     1      41.144 -10.579  10.268  1.00  0.00     0.093 A 
ATOM      8  C   UNL     1      40.290  -9.671   9.631  1.00  0.00     0.123 A 
ATOM      9  C   UNL     1      39.260 -10.141   8.813  1.00  0.00     0.094 A 
ATOM     10  C   UNL     1      39.076 -11.514   8.627  1.00  0.00     0.146 A 
ATOM     11  O   UNL     1      38.088 -11.936   7.845  1.00  0.00    -0.456 OA
ENDROOT
BRANCH   1  12
ATOM     12  C   UNL     1      36.705 -13.579   6.722  1.00  0.00     0.021 A 
ATOM     13  C   UNL     1      35.413 -13.053   6.917  1.00  0.00     0.016 A 
ATOM     14  C   UNL     1      34.369 -13.399   6.055  1.00  0.00     0.051 A 
ATOM     15  C   UNL     1      34.596 -14.267   4.981  1.00  0.00     0.157 A 
ATOM     16  C   UNL     1      36.927 -14.440   5.632  1.00  0.00     0.062 A 
ATOM     17  C   UNL     1      35.882 -14.788   4.768  1.00  0.00     0.158 A 
BRANCH  15  18
ATOM     18  O   UNL     1      33.551 -14.610   4.124  1.00  0.00    -0.504 OA
ATOM     19  H   UNL     1      32.605 -14.732   4.463  1.00  0.00     0.293 HD
ENDBRANCH  15  18
BRANCH  17  20
ATOM     20  O   UNL     1      36.143 -15.652   3.704  1.00  0.00    -0.504 OA
ATOM     21  H   UNL     1      36.869 -16.357   3.749  1.00  0.00     0.293 HD
ENDBRANCH  17  20
ENDBRANCH   1  12
BRANCH   6  22
ATOM     22  O   UNL     1      41.844 -12.842  10.740  1.00  0.00    -0.507 OA
ATOM     23  H   UNL     1      42.560 -12.513  11.378  1.00  0.00     0.293 HD
ENDBRANCH   6  22
BRANCH   8  24
ATOM     24  O   UNL     1      40.456  -8.298   9.804  1.00  0.00    -0.508 OA
ATOM     25  H   UNL     1      41.082  -7.925  10.508  1.00  0.00     0.293 HD
ENDBRANCH   8  24
TORSDOF 5
ENDMDL
MODEL 5
REMARK VINA RESULT:    -6.911      7.017     10.143
REMARK INTER + INTRA:          -8.426
REMARK INTER:                  -8.162
REMARK INTRA:                  -0.264
REMARK UNBOUND:                -0.303
REMARK SMILES O=c1cc(-c2ccc(O)c(O)c2)oc2cc(O)cc(O)c12
REMARK SMILES IDX 4 1 3 2 2 3 1 4 21 5 19 6 18 7 16 8 15 9 14 10 13 11 5 12
REMARK SMILES IDX 6 13 7 14 8 15 12 16 10 17 9 18 11 20 20 22 17 24
REMARK H PARENT 9 19 11 21 20 23 17 25
REMARK Flexibility Score: inf
ROOT
ATOM      1  C   UNL     1      32.702 -14.232   1.796  1.00  0.00     0.138 A 
ATOM      2  C   UNL     1      33.161 -14.862   2.965  1.00  0.00     0.100 A 
ATOM      3  C   UNL     1      34.327 -14.406   3.580  1.00  0.00     0.197 A 
ATOM      4  O   UNL     1      34.730 -14.978   4.628  1.00  0.00    -0.289 OA
ATOM      5  C   UNL     1      35.031 -13.322   3.018  1.00  0.00     0.107 A 
ATOM      6  C   UNL     1      36.221 -12.797   3.577  1.00  0.00     0.134 A 
ATOM      7  C   UNL     1      36.865 -11.719   2.952  1.00  0.00     0.093 A 
ATOM      8  C   UNL     1      36.343 -11.158   1.780  1.00  0.00     0.123 A 
ATOM      9  C   UNL     1      35.170 -11.673   1.225  1.00  0.00     0.094 A 
ATOM     10  C   UNL     1      34.512 -12.747   1.833  1.00  0.00     0.146 A 
ATOM     11  O   UNL     1      33.396 -13.217   1.286  1.00  0.00    -0.456 OA
ENDROOT
BRANCH   1  12
ATOM     12  C   UNL     1      31.469 -14.676   1.100  1.00  0.00     0.021 A 
ATOM     13  C   UNL     1      31.503 -15.191  -0.210  1.00  0.00     0.016 A 
ATOM     14  C   UNL     1      30.327 -15.610  -0.838  1.00  0.00     0.051 A 
ATOM     15  C   UNL     1      29.100 -15.530  -0.168  1.00  0.00     0.157 A 
ATOM     16  C   UNL     1      30.235 -14.612   1.770  1.00  0.00     0.062 A 
ATOM     17  C   UNL     1      29.055 -15.031   1.143  1.00  0.00     0.158 A 
BRANCH  15  18
ATOM     18  O   UNL     1      27.929 -15.949  -0.798  1.00  0.00    -0.504 OA
ATOM     19  H   UNL     1      27.173 -16.379  -0.280  1.00  0.00     0.293 HD
ENDBRANCH  15  18
BRANCH  17  20
ATOM     20  O   UNL     1      27.850 -14.942   1.840  1.00  0.00    -0.504 OA
ATOM     21  H   UNL     1      27.717 -14.290   2.604  1.00  0.00     0.293 HD
ENDBRANCH  17  20
ENDBRANCH   1  12
BRANCH   6  22
ATOM     22  O   UNL     1      36.763 -13.336   4.743  1.00  0.00    -0.507 OA
ATOM     23  H   UNL     1      37.483 -12.853   5.269  1.00  0.00     0.293 HD
ENDBRANCH   6  22
BRANCH   8  24
ATOM     24  O   UNL     1      36.983 -10.088   1.159  1.00  0.00    -0.508 OA
ATOM     25  H   UNL     1      37.149 -10.078   0.159  1.00  0.00     0.293 HD
ENDBRANCH   8  24
TORSDOF 5
ENDMDL
MODEL 6
REMARK VINA RESULT:    -6.894      2.706      7.161
REMARK INTER + INTRA:          -8.406
REMARK INTER:                  -8.141
REMARK INTRA:                  -0.266
REMARK UNBOUND:                -0.303
REMARK SMILES O=c1cc(-c2ccc(O)c(O)c2)oc2cc(O)cc(O)c12
REMARK SMILES IDX 4 1 3 2 2 3 1 4 21 5 19 6 18 7 16 8 15 9 14 10 13 11 5 12
REMARK SMILES IDX 6 13 7 14 8 15 12 16 10 17 9 18 11 20 20 22 17 24
REMARK H PARENT 9 19 11 21 20 23 17 25
REMARK Flexibility Score: inf
ROOT
ATOM      1  C   UNL     1      40.296 -12.073   8.791  1.00  0.00     0.138 A 
ATOM      2  C   UNL     1      39.060 -12.734   8.885  1.00  0.00     0.100 A 
ATOM      3  C   UNL     1      38.152 -12.647   7.830  1.00  0.00     0.197 A 
ATOM      4  O   UNL     1      37.045 -13.244   7.924  1.00  0.00    -0.289 OA
ATOM      5  C   UNL     1      38.485 -11.895   6.686  1.00  0.00     0.107 A 
ATOM      6  C   UNL     1      37.623 -11.756   5.572  1.00  0.00     0.134 A 
ATOM      7  C   UNL     1      38.028 -10.983   4.473  1.00  0.00     0.093 A 
ATOM      8  C   UNL     1      39.275 -10.348   4.468  1.00  0.00     0.123 A 
ATOM      9  C   UNL     1      40.128 -10.482   5.566  1.00  0.00     0.094 A 
ATOM     10  C   UNL     1      39.744 -11.248   6.670  1.00  0.00     0.146 A 
ATOM     11  O   UNL     1      40.575 -11.362   7.701  1.00  0.00    -0.456 OA
ENDROOT
BRANCH   1  12
ATOM     12  C   UNL     1      41.299 -12.130   9.883  1.00  0.00     0.021 A 
ATOM     13  C   UNL     1      41.734 -10.968  10.550  1.00  0.00     0.016 A 
ATOM     14  C   UNL     1      42.673 -11.053  11.582  1.00  0.00     0.051 A 
ATOM     15  C   UNL     1      43.188 -12.296  11.970  1.00  0.00     0.157 A 
ATOM     16  C   UNL     1      41.811 -13.375  10.289  1.00  0.00     0.062 A 
ATOM     17  C   UNL     1      42.752 -13.462  11.321  1.00  0.00     0.158 A 
BRANCH  15  18
ATOM     18  O   UNL     1      44.125 -12.375  12.999  1.00  0.00    -0.504 OA
ATOM     19  H   UNL     1      45.111 -12.507  12.810  1.00  0.00     0.293 HD
ENDBRANCH  15  18
BRANCH  17  20
ATOM     20  O   UNL     1      43.242 -14.716  11.687  1.00  0.00    -0.504 OA
ATOM     21  H   UNL     1      43.975 -15.181  11.164  1.00  0.00     0.293 HD
ENDBRANCH  17  20
ENDBRANCH   1  12
BRANCH   6  22
ATOM     22  O   UNL     1      36.375 -12.377   5.549  1.00  0.00    -0.507 OA
ATOM     23  H   UNL     1      35.525 -11.874   5.780  1.00  0.00     0.293 HD
ENDBRANCH   6  22
BRANCH   8  24
ATOM     24  O   UNL     1      39.677  -9.580   3.377  1.00  0.00    -0.508 OA
ATOM     25  H   UNL     1      39.050  -9.389   2.604  1.00  0.00     0.293 HD
ENDBRANCH   8  24
TORSDOF 5
ENDMDL
MODEL 7
REMARK VINA RESULT:    -6.880      1.775      3.163
REMARK INTER + INTRA:          -8.390
REMARK INTER:                  -8.120
REMARK INTRA:                  -0.271
REMARK UNBOUND:                -0.303
REMARK SMILES O=c1cc(-c2ccc(O)c(O)c2)oc2cc(O)cc(O)c12
REMARK SMILES IDX 4 1 3 2 2 3 1 4 21 5 19 6 18 7 16 8 15 9 14 10 13 11 5 12
REMARK SMILES IDX 6 13 7 14 8 15 12 16 10 17 9 18 11 20 20 22 17 24
REMARK H PARENT 9 19 11 21 20 23 17 25
REMARK Flexibility Score: inf
ROOT
ATOM      1  C   UNL     1      40.066 -12.563   8.730  1.00  0.00     0.138 A 
ATOM      2  C   UNL     1      40.305 -13.922   8.995  1.00  0.00     0.100 A 
ATOM      3  C   UNL     1      41.284 -14.280   9.922  1.00  0.00     0.197 A 
ATOM      4  O   UNL     1      41.491 -15.503  10.151  1.00  0.00    -0.289 OA
ATOM      5  C   UNL     1      42.022 -13.275  10.578  1.00  0.00     0.107 A 
ATOM      6  C   UNL     1      43.030 -13.550  11.531  1.00  0.00     0.134 A 
ATOM      7  C   UNL     1      43.723 -12.491  12.136  1.00  0.00     0.093 A 
ATOM      8  C   UNL     1      43.428 -11.164  11.804  1.00  0.00     0.123 A 
ATOM      9  C   UNL     1      42.434 -10.887  10.863  1.00  0.00     0.094 A 
ATOM     10  C   UNL     1      41.730 -11.928  10.250  1.00  0.00     0.146 A 
ATOM     11  O   UNL     1      40.788 -11.638   9.360  1.00  0.00    -0.456 OA
ENDROOT
BRANCH   1  12
ATOM     12  C   UNL     1      39.039 -12.124   7.753  1.00  0.00     0.021 A 
ATOM     13  C   UNL     1      39.349 -11.247   6.696  1.00  0.00     0.016 A 
ATOM     14  C   UNL     1      38.363 -10.858   5.785  1.00  0.00     0.051 A 
ATOM     15  C   UNL     1      37.055 -11.343   5.908  1.00  0.00     0.157 A 
ATOM     16  C   UNL     1      37.726 -12.617   7.861  1.00  0.00     0.062 A 
ATOM     17  C   UNL     1      36.737 -12.228   6.950  1.00  0.00     0.158 A 
BRANCH  15  18
ATOM     18  O   UNL     1      36.075 -10.952   4.997  1.00  0.00    -0.504 OA
ATOM     19  H   UNL     1      36.297 -10.760   4.028  1.00  0.00     0.293 HD
ENDBRANCH  15  18
BRANCH  17  20
ATOM     20  O   UNL     1      35.445 -12.732   7.098  1.00  0.00    -0.504 OA
ATOM     21  H   UNL     1      34.931 -12.650   7.967  1.00  0.00     0.293 HD
ENDBRANCH  17  20
ENDBRANCH   1  12
BRANCH   6  22
ATOM     22  O   UNL     1      43.346 -14.863  11.881  1.00  0.00    -0.507 OA
ATOM     23  H   UNL     1      42.629 -15.568  12.007  1.00  0.00     0.293 HD
ENDBRANCH   6  22
BRANCH   8  24
ATOM     24  O   UNL     1      44.117 -10.111  12.403  1.00  0.00    -0.508 OA
ATOM     25  H   UNL     1      43.697  -9.195  12.509  1.00  0.00     0.293 HD
ENDBRANCH   8  24
TORSDOF 5
ENDMDL
MODEL 8
REMARK VINA RESULT:    -6.847      2.473      7.418
REMARK INTER + INTRA:          -8.351
REMARK INTER:                  -8.080
REMARK INTRA:                  -0.271
REMARK UNBOUND:                -0.303
REMARK SMILES O=c1cc(-c2ccc(O)c(O)c2)oc2cc(O)cc(O)c12
REMARK SMILES IDX 4 1 3 2 2 3 1 4 21 5 19 6 18 7 16 8 15 9 14 10 13 11 5 12
REMARK SMILES IDX 6 13 7 14 8 15 12 16 10 17 9 18 11 20 20 22 17 24
REMARK H PARENT 9 19 11 21 20 23 17 25
REMARK Flexibility Score: inf
ROOT
ATOM      1  C   UNL     1      39.678 -11.204   7.572  1.00  0.00     0.138 A 
ATOM      2  C   UNL     1      39.971 -10.677   6.303  1.00  0.00     0.100 A 
ATOM      3  C   UNL     1      39.062 -10.852   5.260  1.00  0.00     0.197 A 
ATOM      4  O   UNL     1      39.336 -10.375   4.125  1.00  0.00    -0.289 OA
ATOM      5  C   UNL     1      37.865 -11.556   5.491  1.00  0.00     0.107 A 
ATOM      6  C   UNL     1      36.889 -11.778   4.490  1.00  0.00     0.134 A 
ATOM      7  C   UNL     1      35.724 -12.495   4.801  1.00  0.00     0.093 A 
ATOM      8  C   UNL     1      35.518 -12.995   6.092  1.00  0.00     0.123 A 
ATOM      9  C   UNL     1      36.478 -12.780   7.083  1.00  0.00     0.094 A 
ATOM     10  C   UNL     1      37.645 -12.066   6.794  1.00  0.00     0.146 A 
ATOM     11  O   UNL     1      38.542 -11.873   7.755  1.00  0.00    -0.456 OA
ENDROOT
BRANCH   1  12
ATOM     12  C   UNL     1      40.608 -11.050   8.719  1.00  0.00     0.021 A 
ATOM     13  C   UNL     1      41.832 -11.743   8.778  1.00  0.00     0.016 A 
ATOM     14  C   UNL     1      42.693 -11.571   9.865  1.00  0.00     0.051 A 
ATOM     15  C   UNL     1      42.352 -10.699  10.907  1.00  0.00     0.157 A 
ATOM     16  C   UNL     1      40.280 -10.166   9.762  1.00  0.00     0.062 A 
ATOM     17  C   UNL     1      41.140  -9.992  10.852  1.00  0.00     0.158 A 
BRANCH  15  18
ATOM     18  O   UNL     1      43.213 -10.531  11.989  1.00  0.00    -0.504 OA
ATOM     19  H   UNL     1      43.647  -9.637  12.188  1.00  0.00     0.293 HD
ENDBRANCH  15  18
BRANCH  17  20
ATOM     20  O   UNL     1      40.773  -9.114  11.871  1.00  0.00    -0.504 OA
ATOM     21  H   UNL     1      41.204  -8.203  11.979  1.00  0.00     0.293 HD
ENDBRANCH  17  20
ENDBRANCH   1  12
BRANCH   6  22
ATOM     22  O   UNL     1      37.068 -11.291   3.195  1.00  0.00    -0.507 OA
ATOM     23  H   UNL     1      36.389 -11.463   2.462  1.00  0.00     0.293 HD
ENDBRANCH   6  22
BRANCH   8  24
ATOM     24  O   UNL     1      34.362 -13.709   6.401  1.00  0.00    -0.508 OA
ATOM     25  H   UNL     1      33.926 -14.329   5.728  1.00  0.00     0.293 HD
ENDBRANCH   8  24
TORSDOF 5
ENDMDL
MODEL 9
REMARK VINA RESULT:    -6.806      6.202      9.674
REMARK INTER + INTRA:          -8.303
REMARK INTER:                  -8.023
REMARK INTRA:                  -0.281
REMARK UNBOUND:                -0.303
REMARK SMILES O=c1cc(-c2ccc(O)c(O)c2)oc2cc(O)cc(O)c12
REMARK SMILES IDX 4 1 3 2 2 3 1 4 21 5 19 6 18 7 16 8 15 9 14 10 13 11 5 12
REMARK SMILES IDX 6 13 7 14 8 15 12 16 10 17 9 18 11 20 20 22 17 24
REMARK H PARENT 9 19 11 21 20 23 17 25
REMARK Flexibility Score: inf
ROOT
ATOM      1  C   UNL     1      32.804 -13.977   1.520  1.00  0.00     0.138 A 
ATOM      2  C   UNL     1      33.526 -12.944   0.901  1.00  0.00     0.100 A 
ATOM      3  C   UNL     1      34.686 -12.458   1.504  1.00  0.00     0.197 A 
ATOM      4  O   UNL     1      35.327 -11.530   0.940  1.00  0.00    -0.289 OA
ATOM      5  C   UNL     1      35.116 -13.009   2.728  1.00  0.00     0.107 A 
ATOM      6  C   UNL     1      36.280 -12.577   3.407  1.00  0.00     0.134 A 
ATOM      7  C   UNL     1      36.636 -13.173   4.625  1.00  0.00     0.093 A 
ATOM      8  C   UNL     1      35.850 -14.191   5.178  1.00  0.00     0.123 A 
ATOM      9  C   UNL     1      34.700 -14.621   4.512  1.00  0.00     0.094 A 
ATOM     10  C   UNL     1      34.329 -14.040   3.296  1.00  0.00     0.146 A 
ATOM     11  O   UNL     1      33.231 -14.468   2.681  1.00  0.00    -0.456 OA
ENDROOT
BRANCH   1  12
ATOM     12  C   UNL     1      31.562 -14.531   0.924  1.00  0.00     0.021 A 
ATOM     13  C   UNL     1      31.552 -15.116  -0.356  1.00  0.00     0.016 A 
ATOM     14  C   UNL     1      30.371 -15.639  -0.888  1.00  0.00     0.051 A 
ATOM     15  C   UNL     1      29.181 -15.594  -0.150  1.00  0.00     0.157 A 
ATOM     16  C   UNL     1      30.367 -14.502   1.664  1.00  0.00     0.062 A 
ATOM     17  C   UNL     1      29.181 -15.024   1.133  1.00  0.00     0.158 A 
BRANCH  15  18
ATOM     18  O   UNL     1      28.005 -16.116  -0.684  1.00  0.00    -0.504 OA
ATOM     19  H   UNL     1      27.876 -17.112  -0.811  1.00  0.00     0.293 HD
ENDBRANCH  15  18
BRANCH  17  20
ATOM     20  O   UNL     1      28.015 -14.967   1.896  1.00  0.00    -0.504 OA
ATOM     21  H   UNL     1      27.973 -15.326   2.843  1.00  0.00     0.293 HD
ENDBRANCH  17  20
ENDBRANCH   1  12
BRANCH   6  22
ATOM     22  O   UNL     1      37.082 -11.564   2.880  1.00  0.00    -0.507 OA
ATOM     23  H   UNL     1      37.145 -10.651   3.318  1.00  0.00     0.293 HD
ENDBRANCH   6  22
BRANCH   8  24
ATOM     24  O   UNL     1      36.203 -14.783   6.389  1.00  0.00    -0.508 OA
ATOM     25  H   UNL     1      37.171 -14.875   6.671  1.00  0.00     0.293 HD
ENDBRANCH   8  24
TORSDOF 5
ENDMDL
