MODEL 1
REMARK VINA RESULT:    -3.167      0.000      0.000
REMARK INTER + INTRA:          -3.146
REMARK INTER:                  -3.908
REMARK INTRA:                   0.762
REMARK UNBOUND:                 0.762
REMARK SMILES CC1=CC=CC(C)(C)CC1=O
REMARK SMILES IDX 1 1 2 2 3 3 10 4 11 5 9 6 4 8 5 9 6 10 7 11 8 12
REMARK H PARENT
REMARK Flexibility Score: 80.00
ROOT
ATOM      1  C   UNL     1      -1.067   7.334  -8.896  1.00  0.00     0.048 C 
ATOM      2  C   UNL     1       0.005   8.099  -9.637  1.00  0.00    -0.008 C 
ATOM      3  C   UNL     1      -0.395   9.018 -10.541  1.00  0.00     0.007 C 
ENDROOT
BRANCH   2   4
ATOM      4  C   UNL     1       1.414   7.722  -9.364  1.00  0.00     0.159 C 
ATOM      5  O   UNL     1       1.646   6.681  -8.689  1.00  0.00    -0.295 OA
BRANCH   4   6
ATOM      6  C   UNL     1       2.590   8.521  -9.836  1.00  0.00     0.091 CG0
ATOM      7  G   UNL     1       2.650   8.665 -11.373  1.00  0.00     0.000 G0
ENDBRANCH   4   6
ENDBRANCH   2   4
BRANCH   3   8
ATOM      8  C   UNL     1       0.410   9.892 -11.427  1.00  0.00    -0.003 C 
ATOM      9  C   UNL     1       1.688   9.766 -11.802  1.00  0.00    -0.020 C 
BRANCH   9  10
ATOM     10  C   UNL     1       2.648   8.682 -11.371  1.00  0.00    -0.010 CG0
ATOM     11  C   UNL     1       4.080   9.121 -11.754  1.00  0.00     0.016 C 
ATOM     12  C   UNL     1       2.334   7.370 -12.125  1.00  0.00     0.016 C 
ATOM     13  G   UNL     1       2.590   8.517  -9.836  1.00  0.00     0.000 G0
ENDBRANCH   9  10
ENDBRANCH   3   8
TORSDOF 0
ENDMDL
MODEL 2
REMARK VINA RESULT:    -3.142      1.918      2.768
REMARK INTER + INTRA:          -3.115
REMARK INTER:                  -3.869
REMARK INTRA:                   0.754
REMARK UNBOUND:                 0.762
REMARK SMILES CC1=CC=CC(C)(C)CC1=O
REMARK SMILES IDX 1 1 2 2 3 3 10 4 11 5 9 6 4 8 5 9 6 10 7 11 8 12
REMARK H PARENT
REMARK Flexibility Score: 80.00
ROOT
ATOM      1  C   UNL     1      -2.459   8.163  -8.392  1.00  0.00     0.048 C 
ATOM      2  C   UNL     1      -1.107   7.862  -8.995  1.00  0.00    -0.008 C 
ATOM      3  C   UNL     1      -0.025   7.984  -8.195  1.00  0.00     0.007 C 
ENDROOT
BRANCH   2   4
ATOM      4  C   UNL     1      -1.070   7.528 -10.440  1.00  0.00     0.159 C 
ATOM      5  O   UNL     1      -2.108   7.713 -11.134  1.00  0.00    -0.295 OA
BRANCH   4   6
ATOM      6  C   UNL     1       0.135   6.964 -11.128  1.00  0.00     0.091 CG0
ATOM      7  G   UNL     1       1.365   7.896 -11.062  1.00  0.00     0.000 G0
ENDBRANCH   4   6
ENDBRANCH   2   4
BRANCH   3   8
ATOM      8  C   UNL     1       1.411   7.786  -8.503  1.00  0.00    -0.003 C 
ATOM      9  C   UNL     1       2.024   7.755  -9.693  1.00  0.00    -0.020 C 
BRANCH   9  10
ATOM     10  C   UNL     1       1.365   7.894 -11.046  1.00  0.00    -0.010 CG0
ATOM     11  C   UNL     1       2.375   7.441 -12.125  1.00  0.00     0.016 C 
ATOM     12  C   UNL     1       1.014   9.375 -11.312  1.00  0.00     0.016 C 
ATOM     13  G   UNL     1       0.133   6.965 -11.121  1.00  0.00     0.000 G0
ENDBRANCH   9  10
ENDBRANCH   3   8
TORSDOF 0
ENDMDL
MODEL 3
REMARK VINA RESULT:    -3.096      2.781      4.115
REMARK INTER + INTRA:          -3.057
REMARK INTER:                  -3.830
REMARK INTRA:                   0.772
REMARK UNBOUND:                 0.762
REMARK SMILES CC1=CC=CC(C)(C)CC1=O
REMARK SMILES IDX 1 1 2 2 3 3 10 4 11 5 9 6 4 8 5 9 6 10 7 11 8 12
REMARK H PARENT
REMARK Flexibility Score: 80.00
ROOT
ATOM      1  C   UNL     1       1.150   8.737  -7.713  1.00  0.00     0.048 C 
ATOM      2  C   UNL     1       0.438   8.047  -8.853  1.00  0.00    -0.008 C 
ATOM      3  C   UNL     1       1.121   7.875 -10.005  1.00  0.00     0.007 C 
ENDROOT
BRANCH   2   4
ATOM      4  C   UNL     1      -0.984   7.680  -8.638  1.00  0.00     0.159 C 
ATOM      5  O   UNL     1      -1.580   8.125  -7.618  1.00  0.00    -0.295 OA
BRANCH   4   6
ATOM      6  C   UNL     1      -1.758   6.792  -9.563  1.00  0.00     0.091 CG0
ATOM      7  G   UNL     1      -1.847   7.344 -11.004  1.00  0.00     0.000 G0
ENDBRANCH   4   6
ENDBRANCH   2   4
BRANCH   3   8
ATOM      8  C   UNL     1       0.689   7.267 -11.285  1.00  0.00    -0.003 C 
ATOM      9  C   UNL     1      -0.551   7.041 -11.736  1.00  0.00    -0.020 C 
BRANCH   9  10
ATOM     10  C   UNL     1      -1.840   7.338 -11.007  1.00  0.00    -0.010 CG0
ATOM     11  C   UNL     1      -2.991   6.612 -11.740  1.00  0.00     0.016 C 
ATOM     12  C   UNL     1      -2.131   8.856 -11.047  1.00  0.00     0.016 C 
ATOM     13  G   UNL     1      -1.763   6.784  -9.566  1.00  0.00     0.000 G0
ENDBRANCH   9  10
ENDBRANCH   3   8
TORSDOF 0
ENDMDL
MODEL 4
REMARK VINA RESULT:    -3.041      2.534      3.858
REMARK INTER + INTRA:          -2.990
REMARK INTER:                  -3.752
REMARK INTRA:                   0.762
REMARK UNBOUND:                 0.762
REMARK SMILES CC1=CC=CC(C)(C)CC1=O
REMARK SMILES IDX 1 1 2 2 3 3 10 4 11 5 9 6 4 8 5 9 6 10 7 11 8 12
REMARK H PARENT
REMARK Flexibility Score: 80.00
ROOT
ATOM      1  C   UNL     1       2.251  10.658  -9.131  1.00  0.00     0.048 C 
ATOM      2  C   UNL     1       1.236   9.553  -9.304  1.00  0.00    -0.008 C 
ATOM      3  C   UNL     1       1.295   8.510  -8.449  1.00  0.00     0.007 C 
ENDROOT
BRANCH   2   4
ATOM      4  C   UNL     1       0.300   9.669 -10.450  1.00  0.00     0.159 C 
ATOM      5  O   UNL     1       0.516  10.554 -11.325  1.00  0.00    -0.295 OA
BRANCH   4   6
ATOM      6  C   UNL     1      -0.905   8.797 -10.625  1.00  0.00     0.091 CG0
ATOM      7  G   UNL     1      -0.561   7.294 -10.717  1.00  0.00     0.000 G0
ENDBRANCH   4   6
ENDBRANCH   2   4
BRANCH   3   8
ATOM      8  C   UNL     1       0.465   7.284  -8.387  1.00  0.00    -0.003 C 
ATOM      9  C   UNL     1      -0.316   6.744  -9.330  1.00  0.00    -0.020 C 
BRANCH   9  10
ATOM     10  C   UNL     1      -0.562   7.294 -10.716  1.00  0.00    -0.010 CG0
ATOM     11  C   UNL     1      -1.780   6.560 -11.320  1.00  0.00     0.016 C 
ATOM     12  C   UNL     1       0.660   7.013 -11.619  1.00  0.00     0.016 C 
ATOM     13  G   UNL     1      -0.903   8.798 -10.625  1.00  0.00     0.000 G0
ENDBRANCH   9  10
ENDBRANCH   3   8
TORSDOF 0
ENDMDL
MODEL 5
REMARK VINA RESULT:    -2.914      2.523      4.131
REMARK INTER + INTRA:          -2.834
REMARK INTER:                  -3.872
REMARK INTRA:                   1.038
REMARK UNBOUND:                 0.762
REMARK SMILES CC1=CC=CC(C)(C)CC1=O
REMARK SMILES IDX 1 1 2 2 3 3 10 4 11 5 9 6 4 8 5 9 6 10 7 11 8 12
REMARK H PARENT
REMARK Flexibility Score: 80.00
ROOT
ATOM      1  C   UNL     1       2.383   7.754  -9.331  1.00  0.00     0.048 C 
ATOM      2  C   UNL     1       0.881   7.742  -9.493  1.00  0.00    -0.008 C 
ATOM      3  C   UNL     1       0.132   7.991  -8.397  1.00  0.00     0.007 C 
ENDROOT
BRANCH   2   4
ATOM      4  C   UNL     1       0.349   7.382 -10.831  1.00  0.00     0.159 C 
ATOM      5  O   UNL     1       1.125   7.421 -11.826  1.00  0.00    -0.295 OA
BRANCH   4   6
ATOM      6  C   UNL     1      -1.075   6.984 -11.074  1.00  0.00     0.091 CG0
ATOM      7  G   UNL     1      -2.089   8.081 -10.678  1.00  0.00     0.000 G0
ENDBRANCH   4   6
ENDBRANCH   2   4
BRANCH   3   8
ATOM      8  C   UNL     1      -1.341   8.020  -8.240  1.00  0.00    -0.003 C 
ATOM      9  C   UNL     1      -2.290   8.050  -9.183  1.00  0.00    -0.020 C 
BRANCH   9  10
ATOM     10  C   UNL     1      -2.072   8.090 -10.677  1.00  0.00    -0.010 CG0
ATOM     11  C   UNL     1      -1.468   9.465 -11.042  1.00  0.00     0.016 C 
ATOM     12  C   UNL     1      -3.424   7.952 -11.412  1.00  0.00     0.016 C 
ATOM     13  G   UNL     1      -1.058   6.996 -11.083  1.00  0.00     0.000 G0
ENDBRANCH   9  10
ENDBRANCH   3   8
TORSDOF 0
ENDMDL
MODEL 6
REMARK VINA RESULT:    -2.892      3.236      4.681
REMARK INTER + INTRA:          -2.806
REMARK INTER:                  -3.567
REMARK INTRA:                   0.761
REMARK UNBOUND:                 0.762
REMARK SMILES CC1=CC=CC(C)(C)CC1=O
REMARK SMILES IDX 1 1 2 2 3 3 10 4 11 5 9 6 4 8 5 9 6 10 7 11 8 12
REMARK H PARENT
REMARK Flexibility Score: 80.00
ROOT
ATOM      1  C   UNL     1       0.247   6.970  -8.616  1.00  0.00     0.048 C 
ATOM      2  C   UNL     1      -0.550   7.754  -9.633  1.00  0.00    -0.008 C 
ATOM      3  C   UNL     1      -0.054   8.945 -10.032  1.00  0.00     0.007 C 
ENDROOT
BRANCH   2   4
ATOM      4  C   UNL     1      -1.853   7.184 -10.054  1.00  0.00     0.159 C 
ATOM      5  O   UNL     1      -2.315   6.190  -9.427  1.00  0.00    -0.295 OA
BRANCH   4   6
ATOM      6  C   UNL     1      -2.656   7.716 -11.202  1.00  0.00     0.091 CG0
ATOM      7  G   UNL     1      -3.056   9.198 -11.029  1.00  0.00     0.000 G0
ENDBRANCH   4   6
ENDBRANCH   2   4
BRANCH   3   8
ATOM      8  C   UNL     1      -0.612   9.936 -10.981  1.00  0.00    -0.003 C 
ATOM      9  C   UNL     1      -1.871  10.072 -11.417  1.00  0.00    -0.020 C 
BRANCH   9  10
ATOM     10  C   UNL     1      -3.048   9.199 -11.051  1.00  0.00    -0.010 CG0
ATOM     11  C   UNL     1      -4.196   9.491 -12.043  1.00  0.00     0.016 C 
ATOM     12  C   UNL     1      -3.544   9.550  -9.630  1.00  0.00     0.016 C 
ATOM     13  G   UNL     1      -2.655   7.711 -11.195  1.00  0.00     0.000 G0
ENDBRANCH   9  10
ENDBRANCH   3   8
TORSDOF 0
ENDMDL
MODEL 7
REMARK VINA RESULT:    -2.791      1.886      3.836
REMARK INTER + INTRA:          -2.681
REMARK INTER:                  -3.431
REMARK INTRA:                   0.750
REMARK UNBOUND:                 0.762
REMARK SMILES CC1=CC=CC(C)(C)CC1=O
REMARK SMILES IDX 1 1 2 2 3 3 10 4 11 5 9 6 4 8 5 9 6 10 7 11 8 12
REMARK H PARENT
REMARK Flexibility Score: 80.00
ROOT
ATOM      1  C   UNL     1       3.314   8.902 -11.104  1.00  0.00     0.048 C 
ATOM      2  C   UNL     1       2.020   8.141 -10.931  1.00  0.00    -0.008 C 
ATOM      3  C   UNL     1       1.571   7.424 -11.983  1.00  0.00     0.007 C 
ENDROOT
BRANCH   2   4
ATOM      4  C   UNL     1       1.307   8.307  -9.640  1.00  0.00     0.159 C 
ATOM      5  O   UNL     1       1.699   9.199  -8.838  1.00  0.00    -0.295 OA
BRANCH   4   6
ATOM      6  C   UNL     1       0.146   7.457  -9.222  1.00  0.00     0.091 CG0
ATOM      7  G   UNL     1      -1.055   7.550 -10.190  1.00  0.00     0.000 G0
ENDBRANCH   4   6
ENDBRANCH   2   4
BRANCH   3   8
ATOM      8  C   UNL     1       0.341   6.609 -12.122  1.00  0.00    -0.003 C 
ATOM      9  C   UNL     1      -0.782   6.644 -11.393  1.00  0.00    -0.020 C 
BRANCH   9  10
ATOM     10  C   UNL     1      -1.052   7.534 -10.203  1.00  0.00    -0.010 CG0
ATOM     11  C   UNL     1      -2.296   6.990  -9.463  1.00  0.00     0.016 C 
ATOM     12  C   UNL     1      -1.370   8.970 -10.679  1.00  0.00     0.016 C 
ATOM     13  G   UNL     1       0.147   7.480  -9.230  1.00  0.00     0.000 G0
ENDBRANCH   9  10
ENDBRANCH   3   8
TORSDOF 0
ENDMDL
MODEL 8
REMARK VINA RESULT:    -2.775      8.433      9.590
REMARK INTER + INTRA:          -2.661
REMARK INTER:                  -3.405
REMARK INTRA:                   0.744
REMARK UNBOUND:                 0.762
REMARK SMILES CC1=CC=CC(C)(C)CC1=O
REMARK SMILES IDX 1 1 2 2 3 3 10 4 11 5 9 6 4 8 5 9 6 10 7 11 8 12
REMARK H PARENT
REMARK Flexibility Score: 80.00
ROOT
ATOM      1  C   UNL     1       8.369  11.505  -5.486  1.00  0.00     0.048 C 
ATOM      2  C   UNL     1       9.214  10.521  -6.261  1.00  0.00    -0.008 C 
ATOM      3  C   UNL     1      10.112   9.787  -5.568  1.00  0.00     0.007 C 
ENDROOT
BRANCH   2   4
ATOM      4  C   UNL     1       9.042  10.496  -7.734  1.00  0.00     0.159 C 
ATOM      5  O   UNL     1       8.373  11.413  -8.285  1.00  0.00    -0.295 OA
BRANCH   4   6
ATOM      6  C   UNL     1       9.610   9.425  -8.615  1.00  0.00     0.091 CG0
ATOM      7  G   UNL     1      11.151   9.331  -8.542  1.00  0.00     0.000 G0
ENDBRANCH   4   6
ENDBRANCH   2   4
BRANCH   3   8
ATOM      8  C   UNL     1      11.085   8.778  -6.047  1.00  0.00    -0.003 C 
ATOM      9  C   UNL     1      11.546   8.570  -7.286  1.00  0.00    -0.020 C 
BRANCH   9  10
ATOM     10  C   UNL     1      11.146   9.325  -8.532  1.00  0.00    -0.010 CG0
ATOM     11  C   UNL     1      11.625   8.522  -9.762  1.00  0.00     0.016 C 
ATOM     12  C   UNL     1      11.845  10.704  -8.560  1.00  0.00     0.016 C 
ATOM     13  G   UNL     1       9.606   9.436  -8.600  1.00  0.00     0.000 G0
ENDBRANCH   9  10
ENDBRANCH   3   8
TORSDOF 0
ENDMDL
MODEL 9
REMARK VINA RESULT:    -2.579     16.402     17.520
REMARK INTER + INTRA:          -2.420
REMARK INTER:                  -3.180
REMARK INTRA:                   0.760
REMARK UNBOUND:                 0.762
REMARK SMILES CC1=CC=CC(C)(C)CC1=O
REMARK SMILES IDX 1 1 2 2 3 3 10 4 11 5 9 6 4 8 5 9 6 10 7 11 8 12
REMARK H PARENT
REMARK Flexibility Score: 80.00
ROOT
ATOM      1  C   UNL     1       1.214  13.702   4.659  1.00  0.00     0.048 C 
ATOM      2  C   UNL     1      -0.130  13.097   4.992  1.00  0.00    -0.008 C 
ATOM      3  C   UNL     1      -1.233  13.752   4.570  1.00  0.00     0.007 C 
ENDROOT
BRANCH   2   4
ATOM      4  C   UNL     1      -0.129  11.869   5.825  1.00  0.00     0.159 C 
ATOM      5  O   UNL     1       0.953  11.493   6.356  1.00  0.00    -0.295 OA
BRANCH   4   6
ATOM      6  C   UNL     1      -1.348  11.031   6.062  1.00  0.00     0.091 CG0
ATOM      7  G   UNL     1      -2.508  11.815   6.715  1.00  0.00     0.000 G0
ENDBRANCH   4   6
ENDBRANCH   2   4
BRANCH   3   8
ATOM      8  C   UNL     1      -2.665  13.425   4.765  1.00  0.00    -0.003 C 
ATOM      9  C   UNL     1      -3.231  12.618   5.670  1.00  0.00    -0.020 C 
BRANCH   9  10
ATOM     10  C   UNL     1      -2.514  11.804   6.721  1.00  0.00    -0.010 CG0
ATOM     11  C   UNL     1      -3.508  10.770   7.296  1.00  0.00     0.016 C 
ATOM     12  C   UNL     1      -2.057  12.722   7.878  1.00  0.00     0.016 C 
ATOM     13  G   UNL     1      -1.342  11.034   6.072  1.00  0.00     0.000 G0
ENDBRANCH   9  10
ENDBRANCH   3   8
TORSDOF 0
ENDMDL
