MODEL 1
REMARK VINA RESULT:    -1.422      0.000      0.000
REMARK INTER + INTRA:          -1.882
REMARK INTER:                  -2.004
REMARK INTRA:                   0.122
REMARK UNBOUND:                 0.122
REMARK SMILES CC1=CCC(=C(C)C)CCC(C)=CCC1
REMARK SMILES IDX 5 1 6 2 7 3 8 4 9 5 10 6 11 7 12 8 13 9 4 11 3 12 2 13 1 14
REMARK SMILES IDX 15 15 14 16
REMARK H PARENT
REMARK Flexibility Score: 60.00
ROOT
ATOM      1  C   UNL     1       4.881   9.483  12.029  1.00  0.00    -0.067 C 
ATOM      2  C   UNL     1       4.096  10.607  11.928  1.00  0.00    -0.077 C 
ATOM      3  C   UNL     1       2.933  10.688  10.959  1.00  0.00     0.039 C 
ATOM      4  C   UNL     1       4.347  11.828  12.788  1.00  0.00     0.039 C 
ENDROOT
BRANCH   1   5
ATOM      5  C   UNL     1       6.224   9.529  12.769  1.00  0.00     0.035 C 
BRANCH   5   6
ATOM      6  C   UNL     1       7.299   8.544  12.277  1.00  0.00     0.035 C 
BRANCH   6   7
ATOM      7  C   UNL     1       8.087   7.904  13.404  1.00  0.00    -0.077 C 
ATOM      8  C   UNL     1       9.447   8.463  13.735  1.00  0.00     0.039 C 
ATOM      9  C   UNL     1       7.651   6.837  14.111  1.00  0.00    -0.028 CG0
ATOM     10  G   UNL     1       6.259   6.262  14.043  1.00  0.00     0.000 G0
ENDBRANCH   6   7
ENDBRANCH   5   6
ENDBRANCH   1   5
BRANCH   1  11
ATOM     11  C   UNL     1       4.644   8.263  11.140  1.00  0.00     0.058 C 
BRANCH  11  12
ATOM     12  C   UNL     1       3.917   7.072  11.741  1.00  0.00    -0.024 C 
ATOM     13  C   UNL     1       4.456   5.970  12.319  1.00  0.00    -0.077 C 
ATOM     14  C   UNL     1       3.514   4.875  12.754  1.00  0.00     0.039 C 
BRANCH  13  15
ATOM     15  C   UNL     1       5.929   5.824  12.636  1.00  0.00     0.034 C 
BRANCH  15  16
ATOM     16  C   UNL     1       6.271   6.251  14.068  1.00  0.00     0.032 CG0
ATOM     17  G   UNL     1       7.662   6.831  14.101  1.00  0.00     0.000 G0
ENDBRANCH  15  16
ENDBRANCH  13  15
ENDBRANCH  11  12
ENDBRANCH   1  11
TORSDOF 0
ENDMDL
MODEL 2
REMARK VINA RESULT:    -0.589      3.225      6.641
REMARK INTER + INTRA:          -0.708
REMARK INTER:                  -1.821
REMARK INTRA:                   1.112
REMARK UNBOUND:                 0.122
REMARK SMILES CC1=CCC(=C(C)C)CCC(C)=CCC1
REMARK SMILES IDX 5 1 6 2 7 3 8 4 9 5 10 6 11 7 12 8 13 9 4 11 3 12 2 13 1 14
REMARK SMILES IDX 15 15 14 16
REMARK H PARENT
REMARK Flexibility Score: 60.00
ROOT
ATOM      1  C   UNL     1       4.347   9.490  11.999  1.00  0.00    -0.067 C 
ATOM      2  C   UNL     1       5.092   8.345  11.848  1.00  0.00    -0.077 C 
ATOM      3  C   UNL     1       6.607   8.361  11.909  1.00  0.00     0.039 C 
ATOM      4  C   UNL     1       4.438   6.998  11.620  1.00  0.00     0.039 C 
ENDROOT
BRANCH   1   5
ATOM      5  C   UNL     1       2.859   9.512  11.624  1.00  0.00     0.035 C 
BRANCH   5   6
ATOM      6  C   UNL     1       1.886   9.904  12.749  1.00  0.00     0.035 C 
BRANCH   6   7
ATOM      7  C   UNL     1       1.072  11.145  12.432  1.00  0.00    -0.077 C 
ATOM      8  C   UNL     1      -0.091  11.016  11.482  1.00  0.00     0.039 C 
ATOM      9  C   UNL     1       1.351  12.371  12.930  1.00  0.00    -0.028 CG0
ATOM     10  G   UNL     1       2.353  12.658  14.019  1.00  0.00     0.000 G0
ENDBRANCH   6   7
ENDBRANCH   5   6
ENDBRANCH   1   5
BRANCH   1  11
ATOM     11  C   UNL     1       5.010  10.852  12.200  1.00  0.00     0.058 C 
BRANCH  11  12
ATOM     12  C   UNL     1       4.443  12.041  11.442  1.00  0.00    -0.024 C 
ATOM     13  C   UNL     1       3.752  13.096  11.940  1.00  0.00    -0.077 C 
ATOM     14  C   UNL     1       3.209  14.104  10.957  1.00  0.00     0.039 C 
BRANCH  13  15
ATOM     15  C   UNL     1       3.582  13.365  13.420  1.00  0.00     0.034 C 
BRANCH  15  16
ATOM     16  C   UNL     1       2.369  12.642  14.016  1.00  0.00     0.032 CG0
ATOM     17  G   UNL     1       1.360  12.373  12.929  1.00  0.00     0.000 G0
ENDBRANCH  15  16
ENDBRANCH  13  15
ENDBRANCH  11  12
ENDBRANCH   1  11
TORSDOF 0
ENDMDL
MODEL 3
REMARK VINA RESULT:     0.213      4.585      6.790
REMARK INTER + INTRA:           0.422
REMARK INTER:                  -0.539
REMARK INTRA:                   0.962
REMARK UNBOUND:                 0.122
REMARK SMILES CC1=CCC(=C(C)C)CCC(C)=CCC1
REMARK SMILES IDX 5 1 6 2 7 3 8 4 9 5 10 6 11 7 12 8 13 9 4 11 3 12 2 13 1 14
REMARK SMILES IDX 15 15 14 16
REMARK H PARENT
REMARK Flexibility Score: 60.00
ROOT
ATOM      1  C   UNL     1       2.788  12.622  14.414  1.00  0.00    -0.067 C 
ATOM      2  C   UNL     1       2.363  12.754  15.715  1.00  0.00    -0.077 C 
ATOM      3  C   UNL     1       1.092  12.096  16.212  1.00  0.00     0.039 C 
ATOM      4  C   UNL     1       3.150  13.559  16.727  1.00  0.00     0.039 C 
ENDROOT
BRANCH   1   5
ATOM      5  C   UNL     1       3.884  13.536  13.851  1.00  0.00     0.035 C 
BRANCH   5   6
ATOM      6  C   UNL     1       3.424  14.922  13.366  1.00  0.00     0.035 C 
BRANCH   6   7
ATOM      7  C   UNL     1       3.860  15.234  11.946  1.00  0.00    -0.077 C 
ATOM      8  C   UNL     1       4.692  16.468  11.708  1.00  0.00     0.039 C 
ATOM      9  C   UNL     1       3.516  14.484  10.875  1.00  0.00    -0.028 CG0
ATOM     10  G   UNL     1       2.847  13.134  10.940  1.00  0.00     0.000 G0
ENDBRANCH   6   7
ENDBRANCH   5   6
ENDBRANCH   1   5
BRANCH   1  11
ATOM     11  C   UNL     1       1.978  11.833  13.386  1.00  0.00     0.058 C 
BRANCH  11  12
ATOM     12  C   UNL     1       2.666  10.689  12.661  1.00  0.00    -0.024 C 
ATOM     13  C   UNL     1       3.450  10.753  11.556  1.00  0.00    -0.077 C 
ATOM     14  C   UNL     1       3.939   9.452  10.968  1.00  0.00     0.039 C 
BRANCH  13  15
ATOM     15  C   UNL     1       3.935  12.050  10.944  1.00  0.00     0.034 C 
BRANCH  15  16
ATOM     16  C   UNL     1       2.847  13.128  10.907  1.00  0.00     0.032 CG0
ATOM     17  G   UNL     1       3.492  14.491  10.881  1.00  0.00     0.000 G0
ENDBRANCH  15  16
ENDBRANCH  13  15
ENDBRANCH  11  12
ENDBRANCH   1  11
TORSDOF 0
ENDMDL
MODEL 4
REMARK VINA RESULT:     0.961      5.990      7.973
REMARK INTER + INTRA:           1.477
REMARK INTER:                   1.327
REMARK INTRA:                   0.150
REMARK UNBOUND:                 0.122
REMARK SMILES CC1=CCC(=C(C)C)CCC(C)=CCC1
REMARK SMILES IDX 5 1 6 2 7 3 8 4 9 5 10 6 11 7 12 8 13 9 4 11 3 12 2 13 1 14
REMARK SMILES IDX 15 15 14 16
REMARK H PARENT
REMARK Flexibility Score: 60.00
ROOT
ATOM      1  C   UNL     1       2.614  12.757  14.602  1.00  0.00    -0.067 C 
ATOM      2  C   UNL     1       2.522  13.101  15.929  1.00  0.00    -0.077 C 
ATOM      3  C   UNL     1       3.624  13.863  16.638  1.00  0.00     0.039 C 
ATOM      4  C   UNL     1       1.306  12.741  16.758  1.00  0.00     0.039 C 
ENDROOT
BRANCH   1   5
ATOM      5  C   UNL     1       1.655  11.728  13.989  1.00  0.00     0.035 C 
BRANCH   5   6
ATOM      6  C   UNL     1       1.992  11.256  12.564  1.00  0.00     0.035 C 
BRANCH   6   7
ATOM      7  C   UNL     1       0.818  11.354  11.607  1.00  0.00    -0.077 C 
ATOM      8  C   UNL     1      -0.062  10.144  11.428  1.00  0.00     0.039 C 
ATOM      9  C   UNL     1       0.535  12.459  10.880  1.00  0.00    -0.028 CG0
ATOM     10  G   UNL     1       1.189  13.806  11.058  1.00  0.00     0.000 G0
ENDBRANCH   6   7
ENDBRANCH   5   6
ENDBRANCH   1   5
BRANCH   1  11
ATOM     11  C   UNL     1       3.855  13.096  13.775  1.00  0.00     0.058 C 
BRANCH  11  12
ATOM     12  C   UNL     1       3.878  14.421  13.033  1.00  0.00    -0.024 C 
ATOM     13  C   UNL     1       3.462  14.678  11.768  1.00  0.00    -0.077 C 
ATOM     14  C   UNL     1       3.685  16.068  11.226  1.00  0.00     0.039 C 
BRANCH  13  15
ATOM     15  C   UNL     1       2.707  13.681  10.915  1.00  0.00     0.034 C 
BRANCH  15  16
ATOM     16  C   UNL     1       1.187  13.813  11.058  1.00  0.00     0.032 CG0
ATOM     17  G   UNL     1       0.546  12.460  10.877  1.00  0.00     0.000 G0
ENDBRANCH  15  16
ENDBRANCH  13  15
ENDBRANCH  11  12
ENDBRANCH   1  11
TORSDOF 0
ENDMDL
MODEL 5
REMARK VINA RESULT:     0.989      3.806      6.833
REMARK INTER + INTRA:           1.516
REMARK INTER:                   0.250
REMARK INTRA:                   1.266
REMARK UNBOUND:                 0.122
REMARK SMILES CC1=CCC(=C(C)C)CCC(C)=CCC1
REMARK SMILES IDX 5 1 6 2 7 3 8 4 9 5 10 6 11 7 12 8 13 9 4 11 3 12 2 13 1 14
REMARK SMILES IDX 15 15 14 16
REMARK H PARENT
REMARK Flexibility Score: 60.00
ROOT
ATOM      1  C   UNL     1       2.529  12.719  14.201  1.00  0.00    -0.067 C 
ATOM      2  C   UNL     1       2.028  12.548  15.470  1.00  0.00    -0.077 C 
ATOM      3  C   UNL     1       2.716  13.132  16.688  1.00  0.00     0.039 C 
ATOM      4  C   UNL     1       0.753  11.771  15.720  1.00  0.00     0.039 C 
ENDROOT
BRANCH   1   5
ATOM      5  C   UNL     1       2.010  11.871  13.033  1.00  0.00     0.035 C 
BRANCH   5   6
ATOM      6  C   UNL     1       2.571  10.442  12.935  1.00  0.00     0.035 C 
BRANCH   6   7
ATOM      7  C   UNL     1       3.534  10.255  11.776  1.00  0.00    -0.077 C 
ATOM      8  C   UNL     1       4.144   8.893  11.565  1.00  0.00     0.039 C 
ATOM      9  C   UNL     1       3.902  11.252  10.940  1.00  0.00    -0.028 CG0
ATOM     10  G   UNL     1       3.268  12.619  10.888  1.00  0.00     0.000 G0
ENDBRANCH   6   7
ENDBRANCH   5   6
ENDBRANCH   1   5
BRANCH   1  11
ATOM     11  C   UNL     1       3.832  13.479  13.954  1.00  0.00     0.058 C 
BRANCH  11  12
ATOM     12  C   UNL     1       3.777  14.726  13.088  1.00  0.00    -0.024 C 
ATOM     13  C   UNL     1       4.097  14.846  11.776  1.00  0.00    -0.077 C 
ATOM     14  C   UNL     1       4.051  16.226  11.167  1.00  0.00     0.039 C 
BRANCH  13  15
ATOM     15  C   UNL     1       4.402  13.669  10.875  1.00  0.00     0.034 C 
BRANCH  15  16
ATOM     16  C   UNL     1       3.285  12.620  10.875  1.00  0.00     0.032 CG0
ATOM     17  G   UNL     1       3.891  11.240  10.921  1.00  0.00     0.000 G0
ENDBRANCH  15  16
ENDBRANCH  13  15
ENDBRANCH  11  12
ENDBRANCH   1  11
TORSDOF 0
ENDMDL
