MODEL 1
REMARK VINA RESULT:    -4.029      0.000      0.000
REMARK INTER + INTRA:          -5.026
REMARK INTER:                  -4.971
REMARK INTRA:                  -0.054
REMARK UNBOUND:                -0.054
REMARK SMILES CCCCCC(=O)[O-]
REMARK SMILES IDX 4 1 5 2 6 3 7 4 8 5 3 6 2 7 1 8
REMARK H PARENT
REMARK Flexibility Score: inf
ROOT
ATOM      1  C   UNL     1      -9.104 -19.319  -5.645  1.00  0.00     0.006 C 
ENDROOT
BRANCH   1   2
ATOM      2  C   UNL     1      -9.540 -18.722  -6.989  1.00  0.00     0.053 C 
BRANCH   2   3
ATOM      3  C   UNL     1     -10.544 -19.609  -7.654  1.00  0.00     0.041 C 
ATOM      4  O   UNL     1     -10.856 -19.420  -8.860  1.00  0.00    -0.550 OA
ATOM      5  O   UNL     1     -11.100 -20.675  -6.958  1.00  0.00    -0.550 OA
ENDBRANCH   2   3
ENDBRANCH   1   2
BRANCH   1   6
ATOM      6  C   UNL     1      -7.630 -19.031  -5.311  1.00  0.00     0.000 C 
BRANCH   6   7
ATOM      7  C   UNL     1      -6.828 -20.252  -4.828  1.00  0.00    -0.003 C 
ATOM      8  C   UNL     1      -6.911 -20.463  -3.316  1.00  0.00     0.004 C 
ENDBRANCH   6   7
ENDBRANCH   1   6
TORSDOF 4
ENDMDL
MODEL 2
REMARK VINA RESULT:    -3.975     13.866     14.630
REMARK INTER + INTRA:          -4.959
REMARK INTER:                  -4.897
REMARK INTRA:                  -0.062
REMARK UNBOUND:                -0.054
REMARK SMILES CCCCCC(=O)[O-]
REMARK SMILES IDX 4 1 5 2 6 3 7 4 8 5 3 6 2 7 1 8
REMARK H PARENT
REMARK Flexibility Score: inf
ROOT
ATOM      1  C   UNL     1       3.005 -20.335 -13.699  1.00  0.00     0.006 C 
ENDROOT
BRANCH   1   2
ATOM      2  C   UNL     1       3.074 -20.522 -12.179  1.00  0.00     0.053 C 
BRANCH   2   3
ATOM      3  C   UNL     1       4.234 -21.392 -11.811  1.00  0.00     0.041 C 
ATOM      4  O   UNL     1       5.293 -21.358 -12.493  1.00  0.00    -0.550 OA
ATOM      5  O   UNL     1       4.166 -22.204 -10.686  1.00  0.00    -0.550 OA
ENDBRANCH   2   3
ENDBRANCH   1   2
BRANCH   1   6
ATOM      6  C   UNL     1       1.567 -20.384 -14.245  1.00  0.00     0.000 C 
BRANCH   6   7
ATOM      7  C   UNL     1       1.098 -21.776 -14.705  1.00  0.00    -0.003 C 
ATOM      8  C   UNL     1       0.328 -21.742 -16.025  1.00  0.00     0.004 C 
ENDBRANCH   6   7
ENDBRANCH   1   6
TORSDOF 4
ENDMDL
MODEL 3
REMARK VINA RESULT:    -3.727     10.375     11.398
REMARK INTER + INTRA:          -4.653
REMARK INTER:                  -4.601
REMARK INTRA:                  -0.052
REMARK UNBOUND:                -0.054
REMARK SMILES CCCCCC(=O)[O-]
REMARK SMILES IDX 4 1 5 2 6 3 7 4 8 5 3 6 2 7 1 8
REMARK H PARENT
REMARK Flexibility Score: inf
ROOT
ATOM      1  C   UNL     1      -0.247 -15.572  -4.916  1.00  0.00     0.006 C 
ENDROOT
BRANCH   1   2
ATOM      2  C   UNL     1       0.278 -14.629  -3.828  1.00  0.00     0.053 C 
BRANCH   2   3
ATOM      3  C   UNL     1       0.667 -15.402  -2.608  1.00  0.00     0.041 C 
ATOM      4  O   UNL     1       0.233 -16.572  -2.435  1.00  0.00    -0.550 OA
ATOM      5  O   UNL     1       1.547 -14.850  -1.685  1.00  0.00    -0.550 OA
ENDBRANCH   2   3
ENDBRANCH   1   2
BRANCH   1   6
ATOM      6  C   UNL     1      -0.211 -14.946  -6.322  1.00  0.00     0.000 C 
BRANCH   6   7
ATOM      7  C   UNL     1       0.064 -15.939  -7.464  1.00  0.00    -0.003 C 
ATOM      8  C   UNL     1       0.796 -15.304  -8.647  1.00  0.00     0.004 C 
ENDBRANCH   6   7
ENDBRANCH   1   6
TORSDOF 4
ENDMDL
MODEL 4
REMARK VINA RESULT:    -3.703     10.084     11.085
REMARK INTER + INTRA:          -4.623
REMARK INTER:                  -4.490
REMARK INTRA:                  -0.134
REMARK UNBOUND:                -0.054
REMARK SMILES CCCCCC(=O)[O-]
REMARK SMILES IDX 4 1 5 2 6 3 7 4 8 5 3 6 2 7 1 8
REMARK H PARENT
REMARK Flexibility Score: inf
ROOT
ATOM      1  C   UNL     1      -6.132 -18.067 -16.874  1.00  0.00     0.006 C 
ENDROOT
BRANCH   1   2
ATOM      2  C   UNL     1      -7.047 -16.929 -16.405  1.00  0.00     0.053 C 
BRANCH   2   3
ATOM      3  C   UNL     1      -7.781 -16.336 -17.566  1.00  0.00     0.041 C 
ATOM      4  O   UNL     1      -7.630 -16.814 -18.722  1.00  0.00    -0.550 OA
ATOM      5  O   UNL     1      -8.670 -15.288 -17.365  1.00  0.00    -0.550 OA
ENDBRANCH   2   3
ENDBRANCH   1   2
BRANCH   1   6
ATOM      6  C   UNL     1      -6.388 -19.388 -16.126  1.00  0.00     0.000 C 
BRANCH   6   7
ATOM      7  C   UNL     1      -7.780 -19.507 -15.483  1.00  0.00    -0.003 C 
ATOM      8  C   UNL     1      -8.139 -20.941 -15.094  1.00  0.00     0.004 C 
ENDBRANCH   6   7
ENDBRANCH   1   6
TORSDOF 4
ENDMDL
MODEL 5
REMARK VINA RESULT:    -3.604      9.115     10.333
REMARK INTER + INTRA:          -4.501
REMARK INTER:                  -4.389
REMARK INTRA:                  -0.112
REMARK UNBOUND:                -0.054
REMARK SMILES CCCCCC(=O)[O-]
REMARK SMILES IDX 4 1 5 2 6 3 7 4 8 5 3 6 2 7 1 8
REMARK H PARENT
REMARK Flexibility Score: inf
ROOT
ATOM      1  C   UNL     1      -6.729 -14.490 -15.477  1.00  0.00     0.006 C 
ENDROOT
BRANCH   1   2
ATOM      2  C   UNL     1      -6.763 -15.973 -15.867  1.00  0.00     0.053 C 
BRANCH   2   3
ATOM      3  C   UNL     1      -7.653 -16.183 -17.051  1.00  0.00     0.041 C 
ATOM      4  O   UNL     1      -7.558 -17.234 -17.737  1.00  0.00    -0.550 OA
ATOM      5  O   UNL     1      -8.623 -15.239 -17.367  1.00  0.00    -0.550 OA
ENDBRANCH   2   3
ENDBRANCH   1   2
BRANCH   1   6
ATOM      6  C   UNL     1      -6.468 -14.270 -13.977  1.00  0.00     0.000 C 
BRANCH   6   7
ATOM      7  C   UNL     1      -6.487 -15.551 -13.124  1.00  0.00    -0.003 C 
ATOM      8  C   UNL     1      -7.132 -15.347 -11.753  1.00  0.00     0.004 C 
ENDBRANCH   6   7
ENDBRANCH   1   6
TORSDOF 4
ENDMDL
MODEL 6
REMARK VINA RESULT:    -3.590      9.806     10.851
REMARK INTER + INTRA:          -4.483
REMARK INTER:                  -4.303
REMARK INTRA:                  -0.180
REMARK UNBOUND:                -0.054
REMARK SMILES CCCCCC(=O)[O-]
REMARK SMILES IDX 4 1 5 2 6 3 7 4 8 5 3 6 2 7 1 8
REMARK H PARENT
REMARK Flexibility Score: inf
ROOT
ATOM      1  C   UNL     1      -6.162 -16.764 -15.800  1.00  0.00     0.006 C 
ENDROOT
BRANCH   1   2
ATOM      2  C   UNL     1      -7.402 -17.342 -16.492  1.00  0.00     0.053 C 
BRANCH   2   3
ATOM      3  C   UNL     1      -7.870 -16.425 -17.577  1.00  0.00     0.041 C 
ATOM      4  O   UNL     1      -7.673 -16.720 -18.786  1.00  0.00    -0.550 OA
ATOM      5  O   UNL     1      -8.569 -15.267 -17.257  1.00  0.00    -0.550 OA
ENDBRANCH   2   3
ENDBRANCH   1   2
BRANCH   1   6
ATOM      6  C   UNL     1      -6.261 -16.799 -14.265  1.00  0.00     0.000 C 
BRANCH   6   7
ATOM      7  C   UNL     1      -6.430 -15.422 -13.598  1.00  0.00    -0.003 C 
ATOM      8  C   UNL     1      -6.416 -14.267 -14.599  1.00  0.00     0.004 C 
ENDBRANCH   6   7
ENDBRANCH   1   6
TORSDOF 4
ENDMDL
MODEL 7
REMARK VINA RESULT:    -3.518      1.525      2.276
REMARK INTER + INTRA:          -4.394
REMARK INTER:                  -4.297
REMARK INTRA:                  -0.097
REMARK UNBOUND:                -0.054
REMARK SMILES CCCCCC(=O)[O-]
REMARK SMILES IDX 4 1 5 2 6 3 7 4 8 5 3 6 2 7 1 8
REMARK H PARENT
REMARK Flexibility Score: inf
ROOT
ATOM      1  C   UNL     1      -8.789 -19.172  -5.825  1.00  0.00     0.006 C 
ENDROOT
BRANCH   1   2
ATOM      2  C   UNL     1      -9.949 -18.624  -6.665  1.00  0.00     0.053 C 
BRANCH   2   3
ATOM      3  C   UNL     1     -10.595 -19.725  -7.446  1.00  0.00     0.041 C 
ATOM      4  O   UNL     1     -10.655 -19.659  -8.703  1.00  0.00    -0.550 OA
ATOM      5  O   UNL     1     -11.086 -20.847  -6.791  1.00  0.00    -0.550 OA
ENDBRANCH   2   3
ENDBRANCH   1   2
BRANCH   1   6
ATOM      6  C   UNL     1      -7.561 -18.245  -5.822  1.00  0.00     0.000 C 
BRANCH   6   7
ATOM      7  C   UNL     1      -6.831 -18.136  -7.172  1.00  0.00    -0.003 C 
ATOM      8  C   UNL     1      -6.032 -16.840  -7.317  1.00  0.00     0.004 C 
ENDBRANCH   6   7
ENDBRANCH   1   6
TORSDOF 4
ENDMDL
MODEL 8
REMARK VINA RESULT:    -3.369      8.791      9.967
REMARK INTER + INTRA:          -4.211
REMARK INTER:                  -4.106
REMARK INTRA:                  -0.105
REMARK UNBOUND:                -0.054
REMARK SMILES CCCCCC(=O)[O-]
REMARK SMILES IDX 4 1 5 2 6 3 7 4 8 5 3 6 2 7 1 8
REMARK H PARENT
REMARK Flexibility Score: inf
ROOT
ATOM      1  C   UNL     1      -6.283 -16.130 -14.641  1.00  0.00     0.006 C 
ENDROOT
BRANCH   1   2
ATOM      2  C   UNL     1      -6.650 -14.643 -14.718  1.00  0.00     0.053 C 
BRANCH   2   3
ATOM      3  C   UNL     1      -6.819 -14.218 -16.142  1.00  0.00     0.041 C 
ATOM      4  O   UNL     1      -7.970 -14.126 -16.644  1.00  0.00    -0.550 OA
ATOM      5  O   UNL     1      -5.707 -13.875 -16.902  1.00  0.00    -0.550 OA
ENDBRANCH   2   3
ENDBRANCH   1   2
BRANCH   1   6
ATOM      6  C   UNL     1      -6.154 -16.642 -13.196  1.00  0.00     0.000 C 
BRANCH   6   7
ATOM      7  C   UNL     1      -6.498 -15.607 -12.111  1.00  0.00    -0.003 C 
ATOM      8  C   UNL     1      -7.533 -16.115 -11.106  1.00  0.00     0.004 C 
ENDBRANCH   6   7
ENDBRANCH   1   6
TORSDOF 4
ENDMDL
MODEL 9
REMARK VINA RESULT:    -3.357     13.190     14.138
REMARK INTER + INTRA:          -4.197
REMARK INTER:                  -4.000
REMARK INTRA:                  -0.197
REMARK UNBOUND:                -0.054
REMARK SMILES CCCCCC(=O)[O-]
REMARK SMILES IDX 4 1 5 2 6 3 7 4 8 5 3 6 2 7 1 8
REMARK H PARENT
REMARK Flexibility Score: inf
ROOT
ATOM      1  C   UNL     1       3.635 -19.970 -13.092  1.00  0.00     0.006 C 
ENDROOT
BRANCH   1   2
ATOM      2  C   UNL     1       4.467 -21.029 -12.358  1.00  0.00     0.053 C 
BRANCH   2   3
ATOM      3  C   UNL     1       4.035 -21.136 -10.930  1.00  0.00     0.041 C 
ATOM      4  O   UNL     1       4.022 -22.256 -10.354  1.00  0.00    -0.550 OA
ATOM      5  O   UNL     1       3.695 -19.992 -10.219  1.00  0.00    -0.550 OA
ENDBRANCH   2   3
ENDBRANCH   1   2
BRANCH   1   6
ATOM      6  C   UNL     1       2.521 -20.580 -13.962  1.00  0.00     0.000 C 
BRANCH   6   7
ATOM      7  C   UNL     1       1.135 -19.936 -13.782  1.00  0.00    -0.003 C 
ATOM      8  C   UNL     1       0.696 -19.861 -12.319  1.00  0.00     0.004 C 
ENDBRANCH   6   7
ENDBRANCH   1   6
TORSDOF 4
ENDMDL
