MODEL 1
REMARK VINA RESULT:    -5.812      0.000      0.000
REMARK INTER + INTRA:         -16.308
REMARK INTER:                 -12.608
REMARK INTRA:                  -3.700
REMARK UNBOUND:                -3.700
REMARK SMILES CCCCCCCCCCCCCCCCCCCCCC(=O)[O-]
REMARK SMILES IDX 12 1 11 2 10 3 9 4 8 5 7 6 6 7 5 8 4 9 3 10 2 11 1 12 13 13
REMARK SMILES IDX 14 14 15 15 16 16 17 17 18 18 19 19 20 20 21 21 22 22 23 23
REMARK SMILES IDX 24 24
REMARK H PARENT
REMARK Flexibility Score: inf
ROOT
ATOM      1  C   UNL     1      17.448  -2.844  14.059  1.00  0.00     0.000 C 
ENDROOT
BRANCH   1   2
ATOM      2  C   UNL     1      18.844  -2.995  14.697  1.00  0.00     0.000 C 
BRANCH   2   3
ATOM      3  C   UNL     1      18.895  -3.850  15.979  1.00  0.00     0.000 C 
BRANCH   3   4
ATOM      4  C   UNL     1      18.789  -3.053  17.293  1.00  0.00    -0.000 C 
BRANCH   4   5
ATOM      5  C   UNL     1      17.488  -3.280  18.086  1.00  0.00    -0.000 C 
BRANCH   5   6
ATOM      6  C   UNL     1      16.346  -2.314  17.699  1.00  0.00    -0.000 C 
BRANCH   6   7
ATOM      7  C   UNL     1      15.010  -3.046  17.483  1.00  0.00    -0.000 C 
BRANCH   7   8
ATOM      8  C   UNL     1      14.721  -3.332  16.001  1.00  0.00    -0.000 C 
BRANCH   8   9
ATOM      9  C   UNL     1      14.459  -4.824  15.724  1.00  0.00    -0.000 C 
BRANCH   9  10
ATOM     10  C   UNL     1      15.705  -5.692  15.957  1.00  0.00    -0.000 C 
BRANCH  10  11
ATOM     11  C   UNL     1      15.879  -6.775  14.882  1.00  0.00    -0.003 C 
ATOM     12  C   UNL     1      14.607  -6.934  14.053  1.00  0.00     0.004 C 
ENDBRANCH  10  11
ENDBRANCH   9  10
ENDBRANCH   8   9
ENDBRANCH   7   8
ENDBRANCH   6   7
ENDBRANCH   5   6
ENDBRANCH   4   5
ENDBRANCH   3   4
ENDBRANCH   2   3
ENDBRANCH   1   2
BRANCH   1  13
ATOM     13  C   UNL     1      17.095  -3.869  12.960  1.00  0.00     0.000 C 
BRANCH  13  14
ATOM     14  C   UNL     1      18.265  -4.752  12.476  1.00  0.00     0.000 C 
BRANCH  14  15
ATOM     15  C   UNL     1      17.858  -5.862  11.489  1.00  0.00     0.000 C 
BRANCH  15  16
ATOM     16  C   UNL     1      16.351  -5.881  11.181  1.00  0.00     0.000 C 
BRANCH  16  17
ATOM     17  C   UNL     1      16.044  -5.555   9.710  1.00  0.00     0.000 C 
BRANCH  17  18
ATOM     18  C   UNL     1      14.538  -5.544   9.415  1.00  0.00     0.000 C 
BRANCH  18  19
ATOM     19  C   UNL     1      13.721  -5.555  10.716  1.00  0.00     0.000 C 
BRANCH  19  20
ATOM     20  C   UNL     1      12.995  -4.223  10.978  1.00  0.00     0.006 C 
BRANCH  20  21
ATOM     21  C   UNL     1      13.598  -3.385  12.115  1.00  0.00     0.053 C 
BRANCH  21  22
ATOM     22  C   UNL     1      12.559  -2.937  13.096  1.00  0.00     0.041 C 
ATOM     23  O   UNL     1      11.643  -3.724  13.456  1.00  0.00    -0.550 OA
ATOM     24  O   UNL     1      12.612  -1.656  13.627  1.00  0.00    -0.550 OA
ENDBRANCH  21  22
ENDBRANCH  20  21
ENDBRANCH  19  20
ENDBRANCH  18  19
ENDBRANCH  17  18
ENDBRANCH  16  17
ENDBRANCH  15  16
ENDBRANCH  14  15
ENDBRANCH  13  14
ENDBRANCH   1  13
TORSDOF 20
ENDMDL
MODEL 2
REMARK VINA RESULT:    -5.794      2.368      5.716
REMARK INTER + INTRA:         -16.268
REMARK INTER:                 -12.804
REMARK INTRA:                  -3.464
REMARK UNBOUND:                -3.700
REMARK SMILES CCCCCCCCCCCCCCCCCCCCCC(=O)[O-]
REMARK SMILES IDX 12 1 11 2 10 3 9 4 8 5 7 6 6 7 5 8 4 9 3 10 2 11 1 12 13 13
REMARK SMILES IDX 14 14 15 15 16 16 17 17 18 18 19 19 20 20 21 21 22 22 23 23
REMARK SMILES IDX 24 24
REMARK H PARENT
REMARK Flexibility Score: inf
ROOT
ATOM      1  C   UNL     1      16.166  -0.915  12.450  1.00  0.00     0.000 C 
ENDROOT
BRANCH   1   2
ATOM      2  C   UNL     1      17.028  -1.384  13.640  1.00  0.00     0.000 C 
BRANCH   2   3
ATOM      3  C   UNL     1      18.541  -1.482  13.361  1.00  0.00     0.000 C 
BRANCH   3   4
ATOM      4  C   UNL     1      19.040  -2.887  12.976  1.00  0.00    -0.000 C 
BRANCH   4   5
ATOM      5  C   UNL     1      17.936  -3.954  12.847  1.00  0.00    -0.000 C 
BRANCH   5   6
ATOM      6  C   UNL     1      18.419  -5.275  12.210  1.00  0.00    -0.000 C 
BRANCH   6   7
ATOM      7  C   UNL     1      17.365  -5.890  11.273  1.00  0.00    -0.000 C 
BRANCH   7   8
ATOM      8  C   UNL     1      15.963  -5.297  11.484  1.00  0.00    -0.000 C 
BRANCH   8   9
ATOM      9  C   UNL     1      15.201  -5.088  10.163  1.00  0.00    -0.000 C 
BRANCH   9  10
ATOM     10  C   UNL     1      13.774  -5.654  10.211  1.00  0.00    -0.000 C 
BRANCH  10  11
ATOM     11  C   UNL     1      12.888  -4.933  11.238  1.00  0.00    -0.003 C 
ATOM     12  C   UNL     1      12.077  -3.821  10.578  1.00  0.00     0.004 C 
ENDBRANCH  10  11
ENDBRANCH   9  10
ENDBRANCH   8   9
ENDBRANCH   7   8
ENDBRANCH   6   7
ENDBRANCH   5   6
ENDBRANCH   4   5
ENDBRANCH   3   4
ENDBRANCH   2   3
ENDBRANCH   1   2
BRANCH   1  13
ATOM     13  C   UNL     1      14.925  -1.778  12.136  1.00  0.00     0.000 C 
BRANCH  13  14
ATOM     14  C   UNL     1      13.587  -1.243  12.690  1.00  0.00     0.000 C 
BRANCH  14  15
ATOM     15  C   UNL     1      12.997  -2.075  13.843  1.00  0.00     0.000 C 
BRANCH  15  16
ATOM     16  C   UNL     1      13.968  -3.137  14.386  1.00  0.00     0.000 C 
BRANCH  16  17
ATOM     17  C   UNL     1      13.666  -3.524  15.842  1.00  0.00     0.000 C 
BRANCH  17  18
ATOM     18  C   UNL     1      14.472  -4.747  16.303  1.00  0.00     0.000 C 
BRANCH  18  19
ATOM     19  C   UNL     1      15.764  -4.894  15.486  1.00  0.00     0.000 C 
BRANCH  19  20
ATOM     20  C   UNL     1      17.023  -4.984  16.367  1.00  0.00     0.006 C 
BRANCH  20  21
ATOM     21  C   UNL     1      17.781  -3.657  16.527  1.00  0.00     0.053 C 
BRANCH  21  22
ATOM     22  C   UNL     1      17.393  -2.935  17.780  1.00  0.00     0.041 C 
ATOM     23  O   UNL     1      16.365  -2.207  17.803  1.00  0.00    -0.550 OA
ATOM     24  O   UNL     1      18.157  -3.082  18.930  1.00  0.00    -0.550 OA
ENDBRANCH  21  22
ENDBRANCH  20  21
ENDBRANCH  19  20
ENDBRANCH  18  19
ENDBRANCH  17  18
ENDBRANCH  16  17
ENDBRANCH  15  16
ENDBRANCH  14  15
ENDBRANCH  13  14
ENDBRANCH   1  13
TORSDOF 20
ENDMDL
MODEL 3
REMARK VINA RESULT:    -5.791      2.391      4.078
REMARK INTER + INTRA:         -16.262
REMARK INTER:                 -12.169
REMARK INTRA:                  -4.093
REMARK UNBOUND:                -3.700
REMARK SMILES CCCCCCCCCCCCCCCCCCCCCC(=O)[O-]
REMARK SMILES IDX 12 1 11 2 10 3 9 4 8 5 7 6 6 7 5 8 4 9 3 10 2 11 1 12 13 13
REMARK SMILES IDX 14 14 15 15 16 16 17 17 18 18 19 19 20 20 21 21 22 22 23 23
REMARK SMILES IDX 24 24
REMARK H PARENT
REMARK Flexibility Score: inf
ROOT
ATOM      1  C   UNL     1      16.433  -1.346  13.424  1.00  0.00     0.000 C 
ENDROOT
BRANCH   1   2
ATOM      2  C   UNL     1      17.873  -0.824  13.247  1.00  0.00     0.000 C 
BRANCH   2   3
ATOM      3  C   UNL     1      18.984  -1.768  13.750  1.00  0.00     0.000 C 
BRANCH   3   4
ATOM      4  C   UNL     1      18.762  -3.258  13.428  1.00  0.00    -0.000 C 
BRANCH   4   5
ATOM      5  C   UNL     1      18.934  -4.213  14.625  1.00  0.00    -0.000 C 
BRANCH   5   6
ATOM      6  C   UNL     1      18.933  -3.499  15.995  1.00  0.00    -0.000 C 
BRANCH   6   7
ATOM      7  C   UNL     1      17.723  -3.896  16.859  1.00  0.00    -0.000 C 
BRANCH   7   8
ATOM      8  C   UNL     1      16.706  -2.756  17.019  1.00  0.00    -0.000 C 
BRANCH   8   9
ATOM      9  C   UNL     1      15.281  -3.168  16.609  1.00  0.00    -0.000 C 
BRANCH   9  10
ATOM     10  C   UNL     1      15.273  -4.298  15.568  1.00  0.00    -0.000 C 
BRANCH  10  11
ATOM     11  C   UNL     1      14.569  -5.564  16.077  1.00  0.00    -0.003 C 
ATOM     12  C   UNL     1      15.161  -6.817  15.436  1.00  0.00     0.004 C 
ENDBRANCH  10  11
ENDBRANCH   9  10
ENDBRANCH   8   9
ENDBRANCH   7   8
ENDBRANCH   6   7
ENDBRANCH   5   6
ENDBRANCH   4   5
ENDBRANCH   3   4
ENDBRANCH   2   3
ENDBRANCH   1   2
BRANCH   1  13
ATOM     13  C   UNL     1      15.616  -1.522  12.125  1.00  0.00     0.000 C 
BRANCH  13  14
ATOM     14  C   UNL     1      14.300  -0.718  12.056  1.00  0.00     0.000 C 
BRANCH  14  15
ATOM     15  C   UNL     1      13.027  -1.564  12.239  1.00  0.00     0.000 C 
BRANCH  15  16
ATOM     16  C   UNL     1      12.705  -1.870  13.712  1.00  0.00     0.000 C 
BRANCH  16  17
ATOM     17  C   UNL     1      12.228  -3.315  13.925  1.00  0.00     0.000 C 
BRANCH  17  18
ATOM     18  C   UNL     1      12.156  -4.108  12.612  1.00  0.00     0.000 C 
BRANCH  18  19
ATOM     19  C   UNL     1      13.211  -5.224  12.584  1.00  0.00     0.000 C 
BRANCH  19  20
ATOM     20  C   UNL     1      14.343  -4.952  11.578  1.00  0.00     0.006 C 
BRANCH  20  21
ATOM     21  C   UNL     1      15.757  -5.159  12.144  1.00  0.00     0.053 C 
BRANCH  21  22
ATOM     22  C   UNL     1      16.708  -5.673  11.107  1.00  0.00     0.041 C 
ATOM     23  O   UNL     1      17.847  -6.094  11.441  1.00  0.00    -0.550 OA
ATOM     24  O   UNL     1      16.327  -5.702   9.772  1.00  0.00    -0.550 OA
ENDBRANCH  21  22
ENDBRANCH  20  21
ENDBRANCH  19  20
ENDBRANCH  18  19
ENDBRANCH  17  18
ENDBRANCH  16  17
ENDBRANCH  15  16
ENDBRANCH  14  15
ENDBRANCH  13  14
ENDBRANCH   1  13
TORSDOF 20
ENDMDL
MODEL 4
REMARK VINA RESULT:    -5.742      1.239      4.151
REMARK INTER + INTRA:         -16.155
REMARK INTER:                 -12.289
REMARK INTRA:                  -3.866
REMARK UNBOUND:                -3.700
REMARK SMILES CCCCCCCCCCCCCCCCCCCCCC(=O)[O-]
REMARK SMILES IDX 12 1 11 2 10 3 9 4 8 5 7 6 6 7 5 8 4 9 3 10 2 11 1 12 13 13
REMARK SMILES IDX 14 14 15 15 16 16 17 17 18 18 19 19 20 20 21 21 22 22 23 23
REMARK SMILES IDX 24 24
REMARK H PARENT
REMARK Flexibility Score: inf
ROOT
ATOM      1  C   UNL     1      17.708  -3.303  18.099  1.00  0.00     0.000 C 
ENDROOT
BRANCH   1   2
ATOM      2  C   UNL     1      16.319  -2.633  18.105  1.00  0.00     0.000 C 
BRANCH   2   3
ATOM      3  C   UNL     1      15.571  -2.651  16.757  1.00  0.00     0.000 C 
BRANCH   3   4
ATOM      4  C   UNL     1      14.507  -3.756  16.621  1.00  0.00    -0.000 C 
BRANCH   4   5
ATOM      5  C   UNL     1      14.702  -4.701  15.420  1.00  0.00    -0.000 C 
BRANCH   5   6
ATOM      6  C   UNL     1      15.315  -6.068  15.797  1.00  0.00    -0.000 C 
BRANCH   6   7
ATOM      7  C   UNL     1      15.782  -6.857  14.561  1.00  0.00    -0.000 C 
BRANCH   7   8
ATOM      8  C   UNL     1      15.703  -6.036  13.265  1.00  0.00    -0.000 C 
BRANCH   8   9
ATOM      9  C   UNL     1      16.816  -6.396  12.265  1.00  0.00    -0.000 C 
BRANCH   9  10
ATOM     10  C   UNL     1      16.660  -5.663  10.923  1.00  0.00    -0.000 C 
BRANCH  10  11
ATOM     11  C   UNL     1      15.310  -4.942  10.798  1.00  0.00    -0.003 C 
ATOM     12  C   UNL     1      14.453  -5.569   9.701  1.00  0.00     0.004 C 
ENDBRANCH  10  11
ENDBRANCH   9  10
ENDBRANCH   8   9
ENDBRANCH   7   8
ENDBRANCH   6   7
ENDBRANCH   5   6
ENDBRANCH   4   5
ENDBRANCH   3   4
ENDBRANCH   2   3
ENDBRANCH   1   2
BRANCH   1  13
ATOM     13  C   UNL     1      18.543  -3.111  16.815  1.00  0.00     0.000 C 
BRANCH  13  14
ATOM     14  C   UNL     1      18.573  -4.320  15.855  1.00  0.00     0.000 C 
BRANCH  14  15
ATOM     15  C   UNL     1      19.254  -4.043  14.503  1.00  0.00     0.000 C 
BRANCH  15  16
ATOM     16  C   UNL     1      18.309  -3.416  13.463  1.00  0.00     0.000 C 
BRANCH  16  17
ATOM     17  C   UNL     1      18.503  -1.896  13.330  1.00  0.00     0.000 C 
BRANCH  17  18
ATOM     18  C   UNL     1      17.179  -1.156  13.087  1.00  0.00     0.000 C 
BRANCH  18  19
ATOM     19  C   UNL     1      15.983  -2.112  13.212  1.00  0.00     0.000 C 
BRANCH  19  20
ATOM     20  C   UNL     1      14.725  -1.592  12.495  1.00  0.00     0.006 C 
BRANCH  20  21
ATOM     21  C   UNL     1      13.402  -1.974  13.177  1.00  0.00     0.053 C 
BRANCH  21  22
ATOM     22  C   UNL     1      12.603  -2.937  12.355  1.00  0.00     0.041 C 
ATOM     23  O   UNL     1      12.211  -2.616  11.202  1.00  0.00    -0.550 OA
ATOM     24  O   UNL     1      12.306  -4.197  12.856  1.00  0.00    -0.550 OA
ENDBRANCH  21  22
ENDBRANCH  20  21
ENDBRANCH  19  20
ENDBRANCH  18  19
ENDBRANCH  17  18
ENDBRANCH  16  17
ENDBRANCH  15  16
ENDBRANCH  14  15
ENDBRANCH  13  14
ENDBRANCH   1  13
TORSDOF 20
ENDMDL
MODEL 5
REMARK VINA RESULT:    -5.728      2.447      5.637
REMARK INTER + INTRA:         -16.125
REMARK INTER:                 -12.436
REMARK INTRA:                  -3.689
REMARK UNBOUND:                -3.700
REMARK SMILES CCCCCCCCCCCCCCCCCCCCCC(=O)[O-]
REMARK SMILES IDX 12 1 11 2 10 3 9 4 8 5 7 6 6 7 5 8 4 9 3 10 2 11 1 12 13 13
REMARK SMILES IDX 14 14 15 15 16 16 17 17 18 18 19 19 20 20 21 21 22 22 23 23
REMARK SMILES IDX 24 24
REMARK H PARENT
REMARK Flexibility Score: inf
ROOT
ATOM      1  C   UNL     1      13.762  -5.257  10.754  1.00  0.00     0.000 C 
ENDROOT
BRANCH   1   2
ATOM      2  C   UNL     1      15.182  -4.658  10.693  1.00  0.00     0.000 C 
BRANCH   2   3
ATOM      3  C   UNL     1      16.290  -5.629  10.238  1.00  0.00     0.000 C 
BRANCH   3   4
ATOM      4  C   UNL     1      17.336  -5.968  11.317  1.00  0.00    -0.000 C 
BRANCH   4   5
ATOM      5  C   UNL     1      16.881  -5.712  12.766  1.00  0.00    -0.000 C 
BRANCH   5   6
ATOM      6  C   UNL     1      16.050  -6.866  13.370  1.00  0.00    -0.000 C 
BRANCH   6   7
ATOM      7  C   UNL     1      15.883  -6.729  14.893  1.00  0.00    -0.000 C 
BRANCH   7   8
ATOM      8  C   UNL     1      15.056  -5.496  15.292  1.00  0.00    -0.000 C 
BRANCH   8   9
ATOM      9  C   UNL     1      15.889  -4.439  16.041  1.00  0.00    -0.000 C 
BRANCH   9  10
ATOM     10  C   UNL     1      15.013  -3.428  16.795  1.00  0.00    -0.000 C 
BRANCH  10  11
ATOM     11  C   UNL     1      15.841  -2.414  17.598  1.00  0.00    -0.003 C 
ATOM     12  C   UNL     1      17.171  -3.019  18.040  1.00  0.00     0.004 C 
ENDBRANCH  10  11
ENDBRANCH   9  10
ENDBRANCH   8   9
ENDBRANCH   7   8
ENDBRANCH   6   7
ENDBRANCH   5   6
ENDBRANCH   4   5
ENDBRANCH   3   4
ENDBRANCH   2   3
ENDBRANCH   1   2
BRANCH   1  13
ATOM     13  C   UNL     1      13.062  -5.190  12.129  1.00  0.00     0.000 C 
BRANCH  13  14
ATOM     14  C   UNL     1      12.203  -3.930  12.375  1.00  0.00     0.000 C 
BRANCH  14  15
ATOM     15  C   UNL     1      12.384  -3.299  13.767  1.00  0.00     0.000 C 
BRANCH  15  16
ATOM     16  C   UNL     1      13.047  -1.912  13.726  1.00  0.00     0.000 C 
BRANCH  16  17
ATOM     17  C   UNL     1      13.628  -1.576  12.343  1.00  0.00     0.000 C 
BRANCH  17  18
ATOM     18  C   UNL     1      15.108  -1.173  12.411  1.00  0.00     0.000 C 
BRANCH  18  19
ATOM     19  C   UNL     1      15.913  -2.174  13.253  1.00  0.00     0.000 C 
BRANCH  19  20
ATOM     20  C   UNL     1      17.297  -1.638  13.659  1.00  0.00     0.006 C 
BRANCH  20  21
ATOM     21  C   UNL     1      18.476  -2.499  13.181  1.00  0.00     0.053 C 
BRANCH  21  22
ATOM     22  C   UNL     1      19.208  -3.134  14.322  1.00  0.00     0.041 C 
ATOM     23  O   UNL     1      19.335  -2.523  15.416  1.00  0.00    -0.550 OA
ATOM     24  O   UNL     1      19.735  -4.411  14.184  1.00  0.00    -0.550 OA
ENDBRANCH  21  22
ENDBRANCH  20  21
ENDBRANCH  19  20
ENDBRANCH  18  19
ENDBRANCH  17  18
ENDBRANCH  16  17
ENDBRANCH  15  16
ENDBRANCH  14  15
ENDBRANCH  13  14
ENDBRANCH   1  13
TORSDOF 20
ENDMDL
MODEL 6
REMARK VINA RESULT:    -5.722      2.500      5.944
REMARK INTER + INTRA:         -16.112
REMARK INTER:                 -12.242
REMARK INTRA:                  -3.870
REMARK UNBOUND:                -3.700
REMARK SMILES CCCCCCCCCCCCCCCCCCCCCC(=O)[O-]
REMARK SMILES IDX 12 1 11 2 10 3 9 4 8 5 7 6 6 7 5 8 4 9 3 10 2 11 1 12 13 13
REMARK SMILES IDX 14 14 15 15 16 16 17 17 18 18 19 19 20 20 21 21 22 22 23 23
REMARK SMILES IDX 24 24
REMARK H PARENT
REMARK Flexibility Score: inf
ROOT
ATOM      1  C   UNL     1      15.451  -4.056  16.377  1.00  0.00     0.000 C 
ENDROOT
BRANCH   1   2
ATOM      2  C   UNL     1      16.037  -5.464  16.146  1.00  0.00     0.000 C 
BRANCH   2   3
ATOM      3  C   UNL     1      15.021  -6.539  15.710  1.00  0.00     0.000 C 
BRANCH   3   4
ATOM      4  C   UNL     1      15.409  -7.321  14.442  1.00  0.00    -0.000 C 
BRANCH   4   5
ATOM      5  C   UNL     1      15.703  -6.449  13.206  1.00  0.00    -0.000 C 
BRANCH   5   6
ATOM      6  C   UNL     1      17.127  -6.633  12.638  1.00  0.00    -0.000 C 
BRANCH   6   7
ATOM      7  C   UNL     1      17.353  -5.816  11.354  1.00  0.00    -0.000 C 
BRANCH   7   8
ATOM      8  C   UNL     1      16.091  -5.070  10.894  1.00  0.00    -0.000 C 
BRANCH   8   9
ATOM      9  C   UNL     1      15.553  -5.587   9.547  1.00  0.00    -0.000 C 
BRANCH   9  10
ATOM     10  C   UNL     1      14.021  -5.698   9.530  1.00  0.00    -0.000 C 
BRANCH  10  11
ATOM     11  C   UNL     1      13.375  -5.148  10.810  1.00  0.00    -0.003 C 
ATOM     12  C   UNL     1      12.304  -4.111  10.484  1.00  0.00     0.004 C 
ENDBRANCH  10  11
ENDBRANCH   9  10
ENDBRANCH   8   9
ENDBRANCH   7   8
ENDBRANCH   6   7
ENDBRANCH   5   6
ENDBRANCH   4   5
ENDBRANCH   3   4
ENDBRANCH   2   3
ENDBRANCH   1   2
BRANCH   1  13
ATOM     13  C   UNL     1      13.912  -3.949  16.314  1.00  0.00     0.000 C 
BRANCH  13  14
ATOM     14  C   UNL     1      13.353  -3.122  15.136  1.00  0.00     0.000 C 
BRANCH  14  15
ATOM     15  C   UNL     1      14.118  -3.303  13.812  1.00  0.00     0.000 C 
BRANCH  15  16
ATOM     16  C   UNL     1      14.257  -2.000  13.007  1.00  0.00     0.000 C 
BRANCH  16  17
ATOM     17  C   UNL     1      15.724  -1.593  12.789  1.00  0.00     0.000 C 
BRANCH  17  18
ATOM     18  C   UNL     1      16.707  -2.592  13.416  1.00  0.00     0.000 C 
BRANCH  18  19
ATOM     19  C   UNL     1      18.161  -2.153  13.183  1.00  0.00     0.000 C 
BRANCH  19  20
ATOM     20  C   UNL     1      19.175  -3.283  13.434  1.00  0.00     0.006 C 
BRANCH  20  21
ATOM     21  C   UNL     1      19.047  -3.957  14.809  1.00  0.00     0.053 C 
BRANCH  21  22
ATOM     22  C   UNL     1      19.368  -3.015  15.928  1.00  0.00     0.041 C 
ATOM     23  O   UNL     1      18.635  -2.968  16.951  1.00  0.00    -0.550 OA
ATOM     24  O   UNL     1      20.490  -2.200  15.848  1.00  0.00    -0.550 OA
ENDBRANCH  21  22
ENDBRANCH  20  21
ENDBRANCH  19  20
ENDBRANCH  18  19
ENDBRANCH  17  18
ENDBRANCH  16  17
ENDBRANCH  15  16
ENDBRANCH  14  15
ENDBRANCH  13  14
ENDBRANCH   1  13
TORSDOF 20
ENDMDL
MODEL 7
REMARK VINA RESULT:    -5.692      1.442      3.564
REMARK INTER + INTRA:         -16.047
REMARK INTER:                 -12.149
REMARK INTRA:                  -3.898
REMARK UNBOUND:                -3.700
REMARK SMILES CCCCCCCCCCCCCCCCCCCCCC(=O)[O-]
REMARK SMILES IDX 12 1 11 2 10 3 9 4 8 5 7 6 6 7 5 8 4 9 3 10 2 11 1 12 13 13
REMARK SMILES IDX 14 14 15 15 16 16 17 17 18 18 19 19 20 20 21 21 22 22 23 23
REMARK SMILES IDX 24 24
REMARK H PARENT
REMARK Flexibility Score: inf
ROOT
ATOM      1  C   UNL     1      18.208  -3.926  16.757  1.00  0.00     0.000 C 
ENDROOT
BRANCH   1   2
ATOM      2  C   UNL     1      17.707  -3.057  17.929  1.00  0.00     0.000 C 
BRANCH   2   3
ATOM      3  C   UNL     1      16.280  -2.495  17.771  1.00  0.00     0.000 C 
BRANCH   3   4
ATOM      4  C   UNL     1      15.536  -2.961  16.505  1.00  0.00    -0.000 C 
BRANCH   4   5
ATOM      5  C   UNL     1      14.120  -3.514  16.753  1.00  0.00    -0.000 C 
BRANCH   5   6
ATOM      6  C   UNL     1      13.903  -4.940  16.199  1.00  0.00    -0.000 C 
BRANCH   6   7
ATOM      7  C   UNL     1      15.209  -5.572  15.688  1.00  0.00    -0.000 C 
BRANCH   7   8
ATOM      8  C   UNL     1      15.008  -6.995  15.145  1.00  0.00    -0.000 C 
BRANCH   8   9
ATOM      9  C   UNL     1      15.891  -7.294  13.920  1.00  0.00    -0.000 C 
BRANCH   9  10
ATOM     10  C   UNL     1      16.440  -6.017  13.265  1.00  0.00    -0.000 C 
BRANCH  10  11
ATOM     11  C   UNL     1      17.219  -6.304  11.974  1.00  0.00    -0.003 C 
ATOM     12  C   UNL     1      16.605  -5.566  10.787  1.00  0.00     0.004 C 
ENDBRANCH  10  11
ENDBRANCH   9  10
ENDBRANCH   8   9
ENDBRANCH   7   8
ENDBRANCH   6   7
ENDBRANCH   5   6
ENDBRANCH   4   5
ENDBRANCH   3   4
ENDBRANCH   2   3
ENDBRANCH   1   2
BRANCH   1  13
ATOM     13  C   UNL     1      19.213  -3.251  15.800  1.00  0.00     0.000 C 
BRANCH  13  14
ATOM     14  C   UNL     1      19.286  -3.856  14.381  1.00  0.00     0.000 C 
BRANCH  14  15
ATOM     15  C   UNL     1      18.679  -2.968  13.279  1.00  0.00     0.000 C 
BRANCH  15  16
ATOM     16  C   UNL     1      17.788  -1.841  13.828  1.00  0.00     0.000 C 
BRANCH  16  17
ATOM     17  C   UNL     1      16.653  -1.461  12.863  1.00  0.00     0.000 C 
BRANCH  17  18
ATOM     18  C   UNL     1      15.560  -2.538  12.792  1.00  0.00     0.000 C 
BRANCH  18  19
ATOM     19  C   UNL     1      14.162  -1.902  12.769  1.00  0.00     0.000 C 
BRANCH  19  20
ATOM     20  C   UNL     1      13.056  -2.873  13.219  1.00  0.00     0.006 C 
BRANCH  20  21
ATOM     21  C   UNL     1      13.120  -4.258  12.556  1.00  0.00     0.053 C 
BRANCH  21  22
ATOM     22  C   UNL     1      12.659  -4.221  11.131  1.00  0.00     0.041 C 
ATOM     23  O   UNL     1      13.249  -4.906  10.254  1.00  0.00    -0.550 OA
ATOM     24  O   UNL     1      11.566  -3.442  10.776  1.00  0.00    -0.550 OA
ENDBRANCH  21  22
ENDBRANCH  20  21
ENDBRANCH  19  20
ENDBRANCH  18  19
ENDBRANCH  17  18
ENDBRANCH  16  17
ENDBRANCH  15  16
ENDBRANCH  14  15
ENDBRANCH  13  14
ENDBRANCH   1  13
TORSDOF 20
ENDMDL
MODEL 8
REMARK VINA RESULT:    -5.687      1.362      4.924
REMARK INTER + INTRA:         -16.038
REMARK INTER:                 -12.446
REMARK INTRA:                  -3.591
REMARK UNBOUND:                -3.700
REMARK SMILES CCCCCCCCCCCCCCCCCCCCCC(=O)[O-]
REMARK SMILES IDX 12 1 11 2 10 3 9 4 8 5 7 6 6 7 5 8 4 9 3 10 2 11 1 12 13 13
REMARK SMILES IDX 14 14 15 15 16 16 17 17 18 18 19 19 20 20 21 21 22 22 23 23
REMARK SMILES IDX 24 24
REMARK H PARENT
REMARK Flexibility Score: inf
ROOT
ATOM      1  C   UNL     1      15.610  -2.782  16.623  1.00  0.00     0.000 C 
ENDROOT
BRANCH   1   2
ATOM      2  C   UNL     1      14.267  -3.530  16.745  1.00  0.00     0.000 C 
BRANCH   2   3
ATOM      3  C   UNL     1      14.100  -4.744  15.810  1.00  0.00     0.000 C 
BRANCH   3   4
ATOM      4  C   UNL     1      15.294  -5.717  15.792  1.00  0.00    -0.000 C 
BRANCH   4   5
ATOM      5  C   UNL     1      15.031  -7.053  15.071  1.00  0.00    -0.000 C 
BRANCH   5   6
ATOM      6  C   UNL     1      15.957  -7.299  13.860  1.00  0.00    -0.000 C 
BRANCH   6   7
ATOM      7  C   UNL     1      16.492  -5.988  13.258  1.00  0.00    -0.000 C 
BRANCH   7   8
ATOM      8  C   UNL     1      17.215  -6.199  11.919  1.00  0.00    -0.000 C 
BRANCH   8   9
ATOM      9  C   UNL     1      16.402  -5.683  10.717  1.00  0.00    -0.000 C 
BRANCH   9  10
ATOM     10  C   UNL     1      15.339  -4.652  11.126  1.00  0.00    -0.000 C 
BRANCH  10  11
ATOM     11  C   UNL     1      13.908  -5.150  10.880  1.00  0.00    -0.003 C 
ATOM     12  C   UNL     1      13.130  -5.254  12.189  1.00  0.00     0.004 C 
ENDBRANCH  10  11
ENDBRANCH   9  10
ENDBRANCH   8   9
ENDBRANCH   7   8
ENDBRANCH   6   7
ENDBRANCH   5   6
ENDBRANCH   4   5
ENDBRANCH   3   4
ENDBRANCH   2   3
ENDBRANCH   1   2
BRANCH   1  13
ATOM     13  C   UNL     1      16.414  -2.623  17.932  1.00  0.00     0.000 C 
BRANCH  13  14
ATOM     14  C   UNL     1      17.896  -3.050  17.856  1.00  0.00     0.000 C 
BRANCH  14  15
ATOM     15  C   UNL     1      18.259  -3.869  16.603  1.00  0.00     0.000 C 
BRANCH  15  16
ATOM     16  C   UNL     1      19.138  -3.097  15.605  1.00  0.00     0.000 C 
BRANCH  16  17
ATOM     17  C   UNL     1      19.325  -3.850  14.278  1.00  0.00     0.000 C 
BRANCH  17  18
ATOM     18  C   UNL     1      18.860  -3.028  13.067  1.00  0.00     0.000 C 
BRANCH  18  19
ATOM     19  C   UNL     1      17.961  -1.862  13.506  1.00  0.00     0.000 C 
BRANCH  19  20
ATOM     20  C   UNL     1      16.463  -2.152  13.303  1.00  0.00     0.006 C 
BRANCH  20  21
ATOM     21  C   UNL     1      15.725  -1.109  12.449  1.00  0.00     0.053 C 
BRANCH  21  22
ATOM     22  C   UNL     1      14.239  -1.273  12.521  1.00  0.00     0.041 C 
ATOM     23  O   UNL     1      13.720  -1.982  13.424  1.00  0.00    -0.550 OA
ATOM     24  O   UNL     1      13.424  -0.628  11.601  1.00  0.00    -0.550 OA
ENDBRANCH  21  22
ENDBRANCH  20  21
ENDBRANCH  19  20
ENDBRANCH  18  19
ENDBRANCH  17  18
ENDBRANCH  16  17
ENDBRANCH  15  16
ENDBRANCH  14  15
ENDBRANCH  13  14
ENDBRANCH   1  13
TORSDOF 20
ENDMDL
MODEL 9
REMARK VINA RESULT:    -5.686      2.692      6.539
REMARK INTER + INTRA:         -16.035
REMARK INTER:                 -12.451
REMARK INTRA:                  -3.584
REMARK UNBOUND:                -3.700
REMARK SMILES CCCCCCCCCCCCCCCCCCCCCC(=O)[O-]
REMARK SMILES IDX 12 1 11 2 10 3 9 4 8 5 7 6 6 7 5 8 4 9 3 10 2 11 1 12 13 13
REMARK SMILES IDX 14 14 15 15 16 16 17 17 18 18 19 19 20 20 21 21 22 22 23 23
REMARK SMILES IDX 24 24
REMARK H PARENT
REMARK Flexibility Score: inf
ROOT
ATOM      1  C   UNL     1      16.755  -5.759  12.848  1.00  0.00     0.000 C 
ENDROOT
BRANCH   1   2
ATOM      2  C   UNL     1      17.435  -5.970  11.480  1.00  0.00     0.000 C 
BRANCH   2   3
ATOM      3  C   UNL     1      16.518  -5.795  10.253  1.00  0.00     0.000 C 
BRANCH   3   4
ATOM      4  C   UNL     1      15.352  -4.809  10.451  1.00  0.00    -0.000 C 
BRANCH   4   5
ATOM      5  C   UNL     1      13.978  -5.328   9.986  1.00  0.00    -0.000 C 
BRANCH   5   6
ATOM      6  C   UNL     1      12.784  -4.590  10.630  1.00  0.00    -0.000 C 
BRANCH   6   7
ATOM      7  C   UNL     1      12.995  -4.340  12.134  1.00  0.00    -0.000 C 
BRANCH   7   8
ATOM      8  C   UNL     1      12.375  -3.017  12.610  1.00  0.00    -0.000 C 
BRANCH   8   9
ATOM      9  C   UNL     1      13.410  -2.070  13.243  1.00  0.00    -0.000 C 
BRANCH   9  10
ATOM     10  C   UNL     1      14.021  -1.099  12.221  1.00  0.00    -0.000 C 
BRANCH  10  11
ATOM     11  C   UNL     1      15.542  -1.264  12.086  1.00  0.00    -0.003 C 
ATOM     12  C   UNL     1      16.094  -2.175  13.179  1.00  0.00     0.004 C 
ENDBRANCH  10  11
ENDBRANCH   9  10
ENDBRANCH   8   9
ENDBRANCH   7   8
ENDBRANCH   6   7
ENDBRANCH   5   6
ENDBRANCH   4   5
ENDBRANCH   3   4
ENDBRANCH   2   3
ENDBRANCH   1   2
BRANCH   1  13
ATOM     13  C   UNL     1      16.002  -6.979  13.421  1.00  0.00     0.000 C 
BRANCH  13  14
ATOM     14  C   UNL     1      15.097  -6.688  14.638  1.00  0.00     0.000 C 
BRANCH  14  15
ATOM     15  C   UNL     1      14.805  -5.194  14.871  1.00  0.00     0.000 C 
BRANCH  15  16
ATOM     16  C   UNL     1      14.260  -4.892  16.277  1.00  0.00     0.000 C 
BRANCH  16  17
ATOM     17  C   UNL     1      14.225  -3.387  16.586  1.00  0.00     0.000 C 
BRANCH  17  18
ATOM     18  C   UNL     1      15.318  -2.968  17.580  1.00  0.00     0.000 C 
BRANCH  18  19
ATOM     19  C   UNL     1      16.633  -2.653  16.852  1.00  0.00     0.000 C 
BRANCH  19  20
ATOM     20  C   UNL     1      17.684  -3.767  17.007  1.00  0.00     0.006 C 
BRANCH  20  21
ATOM     21  C   UNL     1      18.264  -4.282  15.680  1.00  0.00     0.053 C 
BRANCH  21  22
ATOM     22  C   UNL     1      19.713  -3.934  15.527  1.00  0.00     0.041 C 
ATOM     23  O   UNL     1      20.133  -2.797  15.869  1.00  0.00    -0.550 OA
ATOM     24  O   UNL     1      20.602  -4.873  15.023  1.00  0.00    -0.550 OA
ENDBRANCH  21  22
ENDBRANCH  20  21
ENDBRANCH  19  20
ENDBRANCH  18  19
ENDBRANCH  17  18
ENDBRANCH  16  17
ENDBRANCH  15  16
ENDBRANCH  14  15
ENDBRANCH  13  14
ENDBRANCH   1  13
TORSDOF 20
ENDMDL
