MODEL 1
REMARK VINA RESULT:    -3.923      0.000      0.000
REMARK INTER + INTRA:          -7.305
REMARK INTER:                  -5.987
REMARK INTRA:                  -1.318
REMARK UNBOUND:                -1.318
REMARK SMILES C=CCCCCCCCCCC
REMARK SMILES IDX 7 1 8 2 9 3 10 4 11 5 12 6 6 7 5 8 4 9 3 10 2 11 1 12
REMARK H PARENT
REMARK Flexibility Score: inf
ROOT
ATOM      1  C   UNL     1       7.209   7.809  15.597  1.00  0.00     0.000 C 
ENDROOT
BRANCH   1   2
ATOM      2  C   UNL     1       6.074   8.693  15.055  1.00  0.00    -0.000 C 
BRANCH   2   3
ATOM      3  C   UNL     1       4.738   7.942  14.947  1.00  0.00    -0.000 C 
BRANCH   3   4
ATOM      4  C   UNL     1       4.875   6.501  15.461  1.00  0.00    -0.000 C 
BRANCH   4   5
ATOM      5  C   UNL     1       3.852   6.165  16.557  1.00  0.00    -0.003 C 
ATOM      6  C   UNL     1       3.347   7.404  17.296  1.00  0.00     0.004 C 
ENDBRANCH   4   5
ENDBRANCH   3   4
ENDBRANCH   2   3
ENDBRANCH   1   2
BRANCH   1   7
ATOM      7  C   UNL     1       8.321   7.570  14.563  1.00  0.00     0.000 C 
BRANCH   7   8
ATOM      8  C   UNL     1       8.145   8.491  13.347  1.00  0.00     0.000 C 
BRANCH   8   9
ATOM      9  C   UNL     1       8.025   7.713  12.027  1.00  0.00     0.004 C 
BRANCH   9  10
ATOM     10  C   UNL     1       7.839   6.203  12.244  1.00  0.00     0.027 C 
BRANCH  10  11
ATOM     11  C   UNL     1       6.588   5.708  11.574  1.00  0.00    -0.035 C 
ATOM     12  C   UNL     1       5.406   6.305  11.757  1.00  0.00     0.004 C 
ENDBRANCH  10  11
ENDBRANCH   9  10
ENDBRANCH   8   9
ENDBRANCH   7   8
ENDBRANCH   1   7
TORSDOF 9
ENDMDL
MODEL 2
REMARK VINA RESULT:    -3.910     13.499     15.481
REMARK INTER + INTRA:          -7.285
REMARK INTER:                  -5.859
REMARK INTRA:                  -1.426
REMARK UNBOUND:                -1.318
REMARK SMILES C=CCCCCCCCCCC
REMARK SMILES IDX 7 1 8 2 9 3 10 4 11 5 12 6 6 7 5 8 4 9 3 10 2 11 1 12
REMARK H PARENT
REMARK Flexibility Score: inf
ROOT
ATOM      1  C   UNL     1       9.007   7.473  28.499  1.00  0.00     0.000 C 
ENDROOT
BRANCH   1   2
ATOM      2  C   UNL     1      10.352   8.205  28.366  1.00  0.00    -0.000 C 
BRANCH   2   3
ATOM      3  C   UNL     1      10.839   8.291  26.912  1.00  0.00    -0.000 C 
BRANCH   3   4
ATOM      4  C   UNL     1      11.300   6.916  26.405  1.00  0.00    -0.000 C 
BRANCH   4   5
ATOM      5  C   UNL     1      12.465   6.344  27.228  1.00  0.00    -0.003 C 
ATOM      6  C   UNL     1      13.284   5.309  26.457  1.00  0.00     0.004 C 
ENDBRANCH   4   5
ENDBRANCH   3   4
ENDBRANCH   2   3
ENDBRANCH   1   2
BRANCH   1   7
ATOM      7  C   UNL     1       8.680   7.092  29.952  1.00  0.00     0.000 C 
BRANCH   7   8
ATOM      8  C   UNL     1       9.913   6.508  30.655  1.00  0.00     0.000 C 
BRANCH   8   9
ATOM      9  C   UNL     1       9.838   4.981  30.814  1.00  0.00     0.004 C 
BRANCH   9  10
ATOM     10  C   UNL     1      10.516   4.231  29.656  1.00  0.00     0.027 C 
BRANCH  10  11
ATOM     11  C   UNL     1       9.506   3.766  28.644  1.00  0.00    -0.035 C 
ATOM     12  C   UNL     1       9.772   3.760  27.334  1.00  0.00     0.004 C 
ENDBRANCH  10  11
ENDBRANCH   9  10
ENDBRANCH   8   9
ENDBRANCH   7   8
ENDBRANCH   1   7
TORSDOF 9
ENDMDL
MODEL 3
REMARK VINA RESULT:    -3.899     13.408     15.271
REMARK INTER + INTRA:          -7.268
REMARK INTER:                  -6.059
REMARK INTRA:                  -1.210
REMARK UNBOUND:                -1.318
REMARK SMILES C=CCCCCCCCCCC
REMARK SMILES IDX 7 1 8 2 9 3 10 4 11 5 12 6 6 7 5 8 4 9 3 10 2 11 1 12
REMARK H PARENT
REMARK Flexibility Score: inf
ROOT
ATOM      1  C   UNL     1       9.443   7.917  30.690  1.00  0.00     0.000 C 
ENDROOT
BRANCH   1   2
ATOM      2  C   UNL     1       9.025   6.490  30.302  1.00  0.00    -0.000 C 
BRANCH   2   3
ATOM      3  C   UNL     1      10.095   5.443  30.650  1.00  0.00    -0.000 C 
BRANCH   3   4
ATOM      4  C   UNL     1       9.935   4.186  29.780  1.00  0.00    -0.000 C 
BRANCH   4   5
ATOM      5  C   UNL     1       9.448   4.510  28.359  1.00  0.00    -0.003 C 
ATOM      6  C   UNL     1       9.771   3.403  27.356  1.00  0.00     0.004 C 
ENDBRANCH   4   5
ENDBRANCH   3   4
ENDBRANCH   2   3
ENDBRANCH   1   2
BRANCH   1   7
ATOM      7  C   UNL     1       9.719   8.807  29.468  1.00  0.00     0.000 C 
BRANCH   7   8
ATOM      8  C   UNL     1       9.756   7.973  28.180  1.00  0.00     0.000 C 
BRANCH   8   9
ATOM      9  C   UNL     1      11.014   8.239  27.337  1.00  0.00     0.004 C 
BRANCH   9  10
ATOM     10  C   UNL     1      11.286   7.125  26.314  1.00  0.00     0.027 C 
BRANCH  10  11
ATOM     11  C   UNL     1      12.635   6.499  26.539  1.00  0.00    -0.035 C 
ATOM     12  C   UNL     1      12.873   5.693  27.578  1.00  0.00     0.004 C 
ENDBRANCH  10  11
ENDBRANCH   9  10
ENDBRANCH   8   9
ENDBRANCH   7   8
ENDBRANCH   1   7
TORSDOF 9
ENDMDL
MODEL 4
REMARK VINA RESULT:    -3.811      1.190      1.525
REMARK INTER + INTRA:          -7.134
REMARK INTER:                  -5.967
REMARK INTRA:                  -1.166
REMARK UNBOUND:                -1.318
REMARK SMILES C=CCCCCCCCCCC
REMARK SMILES IDX 7 1 8 2 9 3 10 4 11 5 12 6 6 7 5 8 4 9 3 10 2 11 1 12
REMARK H PARENT
REMARK Flexibility Score: inf
ROOT
ATOM      1  C   UNL     1       7.014   8.775  14.542  1.00  0.00     0.000 C 
ENDROOT
BRANCH   1   2
ATOM      2  C   UNL     1       6.000   9.599  15.350  1.00  0.00    -0.000 C 
BRANCH   2   3
ATOM      3  C   UNL     1       4.713   8.819  15.659  1.00  0.00    -0.000 C 
BRANCH   3   4
ATOM      4  C   UNL     1       4.619   7.552  14.794  1.00  0.00    -0.000 C 
BRANCH   4   5
ATOM      5  C   UNL     1       4.146   6.327  15.592  1.00  0.00    -0.003 C 
ATOM      6  C   UNL     1       3.910   6.637  17.070  1.00  0.00     0.004 C 
ENDBRANCH   4   5
ENDBRANCH   3   4
ENDBRANCH   2   3
ENDBRANCH   1   2
BRANCH   1   7
ATOM      7  C   UNL     1       7.735   9.606  13.469  1.00  0.00     0.000 C 
BRANCH   7   8
ATOM      8  C   UNL     1       8.292   8.703  12.359  1.00  0.00     0.000 C 
BRANCH   8   9
ATOM      9  C   UNL     1       7.263   7.679  11.855  1.00  0.00     0.004 C 
BRANCH   9  10
ATOM     10  C   UNL     1       7.846   6.261  11.742  1.00  0.00     0.027 C 
BRANCH  10  11
ATOM     11  C   UNL     1       7.167   5.317  12.696  1.00  0.00    -0.035 C 
ATOM     12  C   UNL     1       7.546   5.211  13.973  1.00  0.00     0.004 C 
ENDBRANCH  10  11
ENDBRANCH   9  10
ENDBRANCH   8   9
ENDBRANCH   7   8
ENDBRANCH   1   7
TORSDOF 9
ENDMDL
MODEL 5
REMARK VINA RESULT:    -3.788      0.657      4.357
REMARK INTER + INTRA:          -7.099
REMARK INTER:                  -5.938
REMARK INTRA:                  -1.161
REMARK UNBOUND:                -1.318
REMARK SMILES C=CCCCCCCCCCC
REMARK SMILES IDX 7 1 8 2 9 3 10 4 11 5 12 6 6 7 5 8 4 9 3 10 2 11 1 12
REMARK H PARENT
REMARK Flexibility Score: inf
ROOT
ATOM      1  C   UNL     1       8.238   7.402  14.282  1.00  0.00     0.000 C 
ENDROOT
BRANCH   1   2
ATOM      2  C   UNL     1       8.290   8.425  13.137  1.00  0.00    -0.000 C 
BRANCH   2   3
ATOM      3  C   UNL     1       7.748   7.862  11.814  1.00  0.00    -0.000 C 
BRANCH   3   4
ATOM      4  C   UNL     1       7.701   6.327  11.849  1.00  0.00    -0.000 C 
BRANCH   4   5
ATOM      5  C   UNL     1       6.297   5.772  11.563  1.00  0.00    -0.003 C 
ATOM      6  C   UNL     1       5.226   6.373  12.472  1.00  0.00     0.004 C 
ENDBRANCH   4   5
ENDBRANCH   3   4
ENDBRANCH   2   3
ENDBRANCH   1   2
BRANCH   1   7
ATOM      7  C   UNL     1       7.361   7.869  15.456  1.00  0.00     0.000 C 
BRANCH   7   8
ATOM      8  C   UNL     1       6.441   9.021  15.027  1.00  0.00     0.000 C 
BRANCH   8   9
ATOM      9  C   UNL     1       5.171   9.117  15.888  1.00  0.00     0.004 C 
BRANCH   9  10
ATOM     10  C   UNL     1       4.001   8.305  15.311  1.00  0.00     0.027 C 
BRANCH  10  11
ATOM     11  C   UNL     1       3.534   7.259  16.284  1.00  0.00    -0.035 C 
ATOM     12  C   UNL     1       3.943   5.989  16.205  1.00  0.00     0.004 C 
ENDBRANCH  10  11
ENDBRANCH   9  10
ENDBRANCH   8   9
ENDBRANCH   7   8
ENDBRANCH   1   7
TORSDOF 9
ENDMDL
MODEL 6
REMARK VINA RESULT:    -3.764     12.494     14.879
REMARK INTER + INTRA:          -7.063
REMARK INTER:                  -5.945
REMARK INTRA:                  -1.118
REMARK UNBOUND:                -1.318
REMARK SMILES C=CCCCCCCCCCC
REMARK SMILES IDX 7 1 8 2 9 3 10 4 11 5 12 6 6 7 5 8 4 9 3 10 2 11 1 12
REMARK H PARENT
REMARK Flexibility Score: inf
ROOT
ATOM      1  C   UNL     1      11.461   5.464  27.435  1.00  0.00     0.000 C 
ENDROOT
BRANCH   1   2
ATOM      2  C   UNL     1      11.517   6.985  27.227  1.00  0.00    -0.000 C 
BRANCH   2   3
ATOM      3  C   UNL     1      10.519   7.476  26.167  1.00  0.00    -0.000 C 
BRANCH   3   4
ATOM      4  C   UNL     1      11.254   8.079  24.960  1.00  0.00    -0.000 C 
BRANCH   4   5
ATOM      5  C   UNL     1      11.891   7.008  24.062  1.00  0.00    -0.003 C 
ATOM      6  C   UNL     1      11.231   6.918  22.687  1.00  0.00     0.004 C 
ENDBRANCH   4   5
ENDBRANCH   3   4
ENDBRANCH   2   3
ENDBRANCH   1   2
BRANCH   1   7
ATOM      7  C   UNL     1      10.060   4.882  27.188  1.00  0.00     0.000 C 
BRANCH   7   8
ATOM      8  C   UNL     1       9.693   3.860  28.273  1.00  0.00     0.000 C 
BRANCH   8   9
ATOM      9  C   UNL     1      10.341   4.176  29.630  1.00  0.00     0.004 C 
BRANCH   9  10
ATOM     10  C   UNL     1       9.388   4.914  30.584  1.00  0.00     0.027 C 
BRANCH  10  11
ATOM     11  C   UNL     1       9.709   6.382  30.644  1.00  0.00    -0.035 C 
ATOM     12  C   UNL     1       8.945   7.297  30.038  1.00  0.00     0.004 C 
ENDBRANCH  10  11
ENDBRANCH   9  10
ENDBRANCH   8   9
ENDBRANCH   7   8
ENDBRANCH   1   7
TORSDOF 9
ENDMDL
MODEL 7
REMARK VINA RESULT:    -3.724     13.565     14.817
REMARK INTER + INTRA:          -7.002
REMARK INTER:                  -5.913
REMARK INTRA:                  -1.088
REMARK UNBOUND:                -1.318
REMARK SMILES C=CCCCCCCCCCC
REMARK SMILES IDX 7 1 8 2 9 3 10 4 11 5 12 6 6 7 5 8 4 9 3 10 2 11 1 12
REMARK H PARENT
REMARK Flexibility Score: inf
ROOT
ATOM      1  C   UNL     1       9.335   7.389  28.611  1.00  0.00     0.000 C 
ENDROOT
BRANCH   1   2
ATOM      2  C   UNL     1       9.020   7.161  30.098  1.00  0.00    -0.000 C 
BRANCH   2   3
ATOM      3  C   UNL     1       9.368   5.739  30.566  1.00  0.00    -0.000 C 
BRANCH   3   4
ATOM      4  C   UNL     1      10.385   5.084  29.620  1.00  0.00    -0.000 C 
BRANCH   4   5
ATOM      5  C   UNL     1       9.886   3.746  29.052  1.00  0.00    -0.003 C 
ATOM      6  C   UNL     1       9.652   3.793  27.542  1.00  0.00     0.004 C 
ENDBRANCH   4   5
ENDBRANCH   3   4
ENDBRANCH   2   3
ENDBRANCH   1   2
BRANCH   1   7
ATOM      7  C   UNL     1      10.243   8.608  28.377  1.00  0.00     0.000 C 
BRANCH   7   8
ATOM      8  C   UNL     1      11.011   8.472  27.055  1.00  0.00     0.000 C 
BRANCH   8   9
ATOM      9  C   UNL     1      11.150   7.011  26.597  1.00  0.00     0.004 C 
BRANCH   9  10
ATOM     10  C   UNL     1      12.527   6.415  26.928  1.00  0.00     0.027 C 
BRANCH  10  11
ATOM     11  C   UNL     1      13.409   6.375  25.710  1.00  0.00    -0.035 C 
ATOM     12  C   UNL     1      14.229   7.383  25.400  1.00  0.00     0.004 C 
ENDBRANCH  10  11
ENDBRANCH   9  10
ENDBRANCH   8   9
ENDBRANCH   7   8
ENDBRANCH   1   7
TORSDOF 9
ENDMDL
MODEL 8
REMARK VINA RESULT:    -3.712      1.366      4.533
REMARK INTER + INTRA:          -6.983
REMARK INTER:                  -5.697
REMARK INTRA:                  -1.286
REMARK UNBOUND:                -1.318
REMARK SMILES C=CCCCCCCCCCC
REMARK SMILES IDX 7 1 8 2 9 3 10 4 11 5 12 6 6 7 5 8 4 9 3 10 2 11 1 12
REMARK H PARENT
REMARK Flexibility Score: inf
ROOT
ATOM      1  C   UNL     1       6.745   9.102  14.775  1.00  0.00     0.000 C 
ENDROOT
BRANCH   1   2
ATOM      2  C   UNL     1       7.359   7.772  15.239  1.00  0.00    -0.000 C 
BRANCH   2   3
ATOM      3  C   UNL     1       8.249   7.124  14.168  1.00  0.00    -0.000 C 
BRANCH   3   4
ATOM      4  C   UNL     1       7.825   5.670  13.908  1.00  0.00    -0.000 C 
BRANCH   4   5
ATOM      5  C   UNL     1       7.337   5.446  12.468  1.00  0.00    -0.003 C 
ATOM      6  C   UNL     1       7.294   6.735  11.649  1.00  0.00     0.004 C 
ENDBRANCH   4   5
ENDBRANCH   3   4
ENDBRANCH   2   3
ENDBRANCH   1   2
BRANCH   1   7
ATOM      7  C   UNL     1       5.860   9.754  15.850  1.00  0.00     0.000 C 
BRANCH   7   8
ATOM      8  C   UNL     1       5.144   8.687  16.690  1.00  0.00     0.000 C 
BRANCH   8   9
ATOM      9  C   UNL     1       3.613   8.819  16.637  1.00  0.00     0.004 C 
BRANCH   9  10
ATOM     10  C   UNL     1       3.013   8.231  15.350  1.00  0.00     0.027 C 
BRANCH  10  11
ATOM     11  C   UNL     1       3.702   6.951  14.965  1.00  0.00    -0.035 C 
ATOM     12  C   UNL     1       4.103   6.716  13.712  1.00  0.00     0.004 C 
ENDBRANCH  10  11
ENDBRANCH   9  10
ENDBRANCH   8   9
ENDBRANCH   7   8
ENDBRANCH   1   7
TORSDOF 9
ENDMDL
MODEL 9
REMARK VINA RESULT:    -3.705      1.110      1.481
REMARK INTER + INTRA:          -6.972
REMARK INTER:                  -5.886
REMARK INTRA:                  -1.086
REMARK UNBOUND:                -1.318
REMARK SMILES C=CCCCCCCCCCC
REMARK SMILES IDX 7 1 8 2 9 3 10 4 11 5 12 6 6 7 5 8 4 9 3 10 2 11 1 12
REMARK H PARENT
REMARK Flexibility Score: inf
ROOT
ATOM      1  C   UNL     1       7.150   7.493  15.547  1.00  0.00     0.000 C 
ENDROOT
BRANCH   1   2
ATOM      2  C   UNL     1       5.996   6.582  15.101  1.00  0.00    -0.000 C 
BRANCH   2   3
ATOM      3  C   UNL     1       4.657   7.328  14.993  1.00  0.00    -0.000 C 
BRANCH   3   4
ATOM      4  C   UNL     1       4.696   8.641  15.790  1.00  0.00    -0.000 C 
BRANCH   4   5
ATOM      5  C   UNL     1       3.350   8.968  16.454  1.00  0.00    -0.003 C 
ATOM      6  C   UNL     1       2.152   8.607  15.576  1.00  0.00     0.004 C 
ENDBRANCH   4   5
ENDBRANCH   3   4
ENDBRANCH   2   3
ENDBRANCH   1   2
BRANCH   1   7
ATOM      7  C   UNL     1       8.270   7.588  14.499  1.00  0.00     0.000 C 
BRANCH   7   8
ATOM      8  C   UNL     1       7.924   8.623  13.419  1.00  0.00     0.000 C 
BRANCH   8   9
ATOM      9  C   UNL     1       8.287   8.147  12.003  1.00  0.00     0.004 C 
BRANCH   9  10
ATOM     10  C   UNL     1       7.737   6.746  11.691  1.00  0.00     0.027 C 
BRANCH  10  11
ATOM     11  C   UNL     1       6.430   6.828  10.953  1.00  0.00    -0.035 C 
ATOM     12  C   UNL     1       5.302   6.320  11.459  1.00  0.00     0.004 C 
ENDBRANCH  10  11
ENDBRANCH   9  10
ENDBRANCH   8   9
ENDBRANCH   7   8
ENDBRANCH   1   7
TORSDOF 9
ENDMDL
