MODEL 1
REMARK VINA RESULT:    -4.003      0.000      0.000
REMARK INTER + INTRA:          -4.374
REMARK INTER:                  -4.354
REMARK INTRA:                  -0.019
REMARK UNBOUND:                -0.019
REMARK SMILES OCc1ccccc1
REMARK SMILES IDX 2 1 3 2 6 3 5 4 7 5 4 6 8 7 1 8
REMARK H PARENT 1 9
REMARK Flexibility Score: inf
ROOT
ATOM      1  C   UNL     1      41.746 -13.387  54.784  1.00  0.00     0.191 C 
ENDROOT
BRANCH   1   2
ATOM      2  C   UNL     1      43.204 -13.122  54.529  1.00  0.00    -0.023 A 
ATOM      3  C   UNL     1      45.911 -12.631  53.976  1.00  0.00     0.000 A 
ATOM      4  C   UNL     1      45.444 -13.945  54.065  1.00  0.00     0.000 A 
ATOM      5  C   UNL     1      45.029 -11.562  54.152  1.00  0.00     0.000 A 
ATOM      6  C   UNL     1      44.094 -14.192  54.335  1.00  0.00     0.006 A 
ATOM      7  C   UNL     1      43.679 -11.805  54.422  1.00  0.00     0.006 A 
ENDBRANCH   1   2
BRANCH   1   8
ATOM      8  O   UNL     1      41.536 -14.756  54.996  1.00  0.00    -0.392 OA
ATOM      9  H   UNL     1      41.101 -14.842  55.884  1.00  0.00     0.211 HD
ENDBRANCH   1   8
TORSDOF 2
ENDMDL
MODEL 2
REMARK VINA RESULT:    -3.942      0.833      1.746
REMARK INTER + INTRA:          -4.307
REMARK INTER:                  -4.289
REMARK INTRA:                  -0.018
REMARK UNBOUND:                -0.019
REMARK SMILES OCc1ccccc1
REMARK SMILES IDX 2 1 3 2 6 3 5 4 7 5 4 6 8 7 1 8
REMARK H PARENT 1 9
REMARK Flexibility Score: inf
ROOT
ATOM      1  C   UNL     1      42.100 -13.416  54.540  1.00  0.00     0.191 C 
ENDROOT
BRANCH   1   2
ATOM      2  C   UNL     1      43.602 -13.432  54.466  1.00  0.00    -0.023 A 
ATOM      3  C   UNL     1      46.407 -13.410  54.389  1.00  0.00     0.000 A 
ATOM      4  C   UNL     1      45.681 -12.457  53.671  1.00  0.00     0.000 A 
ATOM      5  C   UNL     1      45.736 -14.369  55.154  1.00  0.00     0.000 A 
ATOM      6  C   UNL     1      44.283 -12.462  53.712  1.00  0.00     0.006 A 
ATOM      7  C   UNL     1      44.339 -14.378  55.198  1.00  0.00     0.006 A 
ENDBRANCH   1   2
BRANCH   1   8
ATOM      8  O   UNL     1      41.625 -14.673  54.937  1.00  0.00    -0.392 OA
ATOM      9  H   UNL     1      40.892 -14.910  54.311  1.00  0.00     0.211 HD
ENDBRANCH   1   8
TORSDOF 2
ENDMDL
MODEL 3
REMARK VINA RESULT:    -3.932      1.590      2.734
REMARK INTER + INTRA:          -4.297
REMARK INTER:                  -4.282
REMARK INTRA:                  -0.014
REMARK UNBOUND:                -0.019
REMARK SMILES OCc1ccccc1
REMARK SMILES IDX 2 1 3 2 6 3 5 4 7 5 4 6 8 7 1 8
REMARK H PARENT 1 9
REMARK Flexibility Score: inf
ROOT
ATOM      1  C   UNL     1      43.869 -14.262  54.539  1.00  0.00     0.191 C 
ENDROOT
BRANCH   1   2
ATOM      2  C   UNL     1      45.274 -13.726  54.521  1.00  0.00    -0.023 A 
ATOM      3  C   UNL     1      47.883 -12.692  54.559  1.00  0.00     0.000 A 
ATOM      4  C   UNL     1      46.833 -11.921  54.053  1.00  0.00     0.000 A 
ATOM      5  C   UNL     1      47.632 -13.975  55.054  1.00  0.00     0.000 A 
ATOM      6  C   UNL     1      45.531 -12.432  54.039  1.00  0.00     0.006 A 
ATOM      7  C   UNL     1      46.332 -14.489  55.042  1.00  0.00     0.006 A 
ENDBRANCH   1   2
BRANCH   1   8
ATOM      8  O   UNL     1      43.229 -13.973  53.327  1.00  0.00    -0.392 OA
ATOM      9  H   UNL     1      43.041 -12.998  53.330  1.00  0.00     0.211 HD
ENDBRANCH   1   8
TORSDOF 2
ENDMDL
MODEL 4
REMARK VINA RESULT:    -3.925      1.607      2.244
REMARK INTER + INTRA:          -4.288
REMARK INTER:                  -4.273
REMARK INTRA:                  -0.015
REMARK UNBOUND:                -0.019
REMARK SMILES OCc1ccccc1
REMARK SMILES IDX 2 1 3 2 6 3 5 4 7 5 4 6 8 7 1 8
REMARK H PARENT 1 9
REMARK Flexibility Score: inf
ROOT
ATOM      1  C   UNL     1      43.959 -14.279  54.491  1.00  0.00     0.191 C 
ENDROOT
BRANCH   1   2
ATOM      2  C   UNL     1      45.328 -13.658  54.524  1.00  0.00    -0.023 A 
ATOM      3  C   UNL     1      47.896 -12.527  54.513  1.00  0.00     0.000 A 
ATOM      4  C   UNL     1      47.715 -13.844  54.943  1.00  0.00     0.000 A 
ATOM      5  C   UNL     1      46.799 -11.776  54.080  1.00  0.00     0.000 A 
ATOM      6  C   UNL     1      46.436 -14.412  54.943  1.00  0.00     0.006 A 
ATOM      7  C   UNL     1      45.520 -12.340  54.079  1.00  0.00     0.006 A 
ENDBRANCH   1   2
BRANCH   1   8
ATOM      8  O   UNL     1      43.302 -13.932  53.303  1.00  0.00    -0.392 OA
ATOM      9  H   UNL     1      42.443 -14.430  53.297  1.00  0.00     0.211 HD
ENDBRANCH   1   8
TORSDOF 2
ENDMDL
MODEL 5
REMARK VINA RESULT:    -3.901     19.384     20.382
REMARK INTER + INTRA:          -4.262
REMARK INTER:                  -4.245
REMARK INTRA:                  -0.017
REMARK UNBOUND:                -0.019
REMARK SMILES OCc1ccccc1
REMARK SMILES IDX 2 1 3 2 6 3 5 4 7 5 4 6 8 7 1 8
REMARK H PARENT 1 9
REMARK Flexibility Score: inf
ROOT
ATOM      1  C   UNL     1      33.316 -17.866  69.859  1.00  0.00     0.191 C 
ENDROOT
BRANCH   1   2
ATOM      2  C   UNL     1      32.532 -16.679  70.347  1.00  0.00    -0.023 A 
ATOM      3  C   UNL     1      31.062 -14.500  71.329  1.00  0.00     0.000 A 
ATOM      4  C   UNL     1      30.398 -15.598  70.777  1.00  0.00     0.000 A 
ATOM      5  C   UNL     1      32.459 -14.490  71.399  1.00  0.00     0.000 A 
ATOM      6  C   UNL     1      31.128 -16.689  70.293  1.00  0.00     0.006 A 
ATOM      7  C   UNL     1      33.192 -15.578  70.916  1.00  0.00     0.006 A 
ENDBRANCH   1   2
BRANCH   1   8
ATOM      8  O   UNL     1      34.467 -18.036  70.639  1.00  0.00    -0.392 OA
ATOM      9  H   UNL     1      34.394 -18.930  71.062  1.00  0.00     0.211 HD
ENDBRANCH   1   8
TORSDOF 2
ENDMDL
MODEL 6
REMARK VINA RESULT:    -3.862     11.361     12.570
REMARK INTER + INTRA:          -4.220
REMARK INTER:                  -4.208
REMARK INTRA:                  -0.011
REMARK UNBOUND:                -0.019
REMARK SMILES OCc1ccccc1
REMARK SMILES IDX 2 1 3 2 6 3 5 4 7 5 4 6 8 7 1 8
REMARK H PARENT 1 9
REMARK Flexibility Score: inf
ROOT
ATOM      1  C   UNL     1      39.581  -3.043  55.633  1.00  0.00     0.191 C 
ENDROOT
BRANCH   1   2
ATOM      2  C   UNL     1      38.168  -3.090  56.145  1.00  0.00    -0.023 A 
ATOM      3  C   UNL     1      35.555  -3.223  57.160  1.00  0.00     0.000 A 
ATOM      4  C   UNL     1      36.010  -4.201  56.271  1.00  0.00     0.000 A 
ATOM      5  C   UNL     1      36.404  -2.184  57.550  1.00  0.00     0.000 A 
ATOM      6  C   UNL     1      37.314  -4.140  55.769  1.00  0.00     0.006 A 
ATOM      7  C   UNL     1      37.708  -2.119  57.050  1.00  0.00     0.006 A 
ENDBRANCH   1   2
BRANCH   1   8
ATOM      8  O   UNL     1      39.784  -1.875  54.887  1.00  0.00    -0.392 OA
ATOM      9  H   UNL     1      38.980  -1.760  54.316  1.00  0.00     0.211 HD
ENDBRANCH   1   8
TORSDOF 2
ENDMDL
MODEL 7
REMARK VINA RESULT:    -3.827     19.320     20.110
REMARK INTER + INTRA:          -4.182
REMARK INTER:                  -4.162
REMARK INTRA:                  -0.020
REMARK UNBOUND:                -0.019
REMARK SMILES OCc1ccccc1
REMARK SMILES IDX 2 1 3 2 6 3 5 4 7 5 4 6 8 7 1 8
REMARK H PARENT 1 9
REMARK Flexibility Score: inf
ROOT
ATOM      1  C   UNL     1      30.862 -14.892  71.068  1.00  0.00     0.191 C 
ENDROOT
BRANCH   1   2
ATOM      2  C   UNL     1      31.986 -15.807  70.667  1.00  0.00    -0.023 A 
ATOM      3  C   UNL     1      34.082 -17.546  69.992  1.00  0.00     0.000 A 
ATOM      4  C   UNL     1      34.363 -16.304  70.567  1.00  0.00     0.000 A 
ATOM      5  C   UNL     1      32.757 -17.926  69.761  1.00  0.00     0.000 A 
ATOM      6  C   UNL     1      33.319 -15.438  70.910  1.00  0.00     0.006 A 
ATOM      7  C   UNL     1      31.711 -17.063  70.102  1.00  0.00     0.006 A 
ENDBRANCH   1   2
BRANCH   1   8
ATOM      8  O   UNL     1      29.629 -15.482  70.762  1.00  0.00    -0.392 OA
ATOM      9  H   UNL     1      29.745 -15.946  69.892  1.00  0.00     0.211 HD
ENDBRANCH   1   8
TORSDOF 2
ENDMDL
MODEL 8
REMARK VINA RESULT:    -3.779      2.615      3.893
REMARK INTER + INTRA:          -4.129
REMARK INTER:                  -4.110
REMARK INTRA:                  -0.019
REMARK UNBOUND:                -0.019
REMARK SMILES OCc1ccccc1
REMARK SMILES IDX 2 1 3 2 6 3 5 4 7 5 4 6 8 7 1 8
REMARK H PARENT 1 9
REMARK Flexibility Score: inf
ROOT
ATOM      1  C   UNL     1      47.650 -15.342  56.076  1.00  0.00     0.191 C 
ENDROOT
BRANCH   1   2
ATOM      2  C   UNL     1      46.763 -14.422  55.282  1.00  0.00    -0.023 A 
ATOM      3  C   UNL     1      45.120 -12.752  53.737  1.00  0.00     0.000 A 
ATOM      4  C   UNL     1      46.503 -12.553  53.750  1.00  0.00     0.000 A 
ATOM      5  C   UNL     1      44.556 -13.789  54.487  1.00  0.00     0.000 A 
ATOM      6  C   UNL     1      47.325 -13.388  54.515  1.00  0.00     0.006 A 
ATOM      7  C   UNL     1      45.374 -14.625  55.252  1.00  0.00     0.006 A 
ENDBRANCH   1   2
BRANCH   1   8
ATOM      8  O   UNL     1      46.875 -16.130  56.938  1.00  0.00    -0.392 OA
ATOM      9  H   UNL     1      47.029 -15.783  57.855  1.00  0.00     0.211 HD
ENDBRANCH   1   8
TORSDOF 2
ENDMDL
MODEL 9
REMARK VINA RESULT:    -3.769     17.852     19.192
REMARK INTER + INTRA:          -4.118
REMARK INTER:                  -4.100
REMARK INTRA:                  -0.018
REMARK UNBOUND:                -0.019
REMARK SMILES OCc1ccccc1
REMARK SMILES IDX 2 1 3 2 6 3 5 4 7 5 4 6 8 7 1 8
REMARK H PARENT 1 9
REMARK Flexibility Score: inf
ROOT
ATOM      1  C   UNL     1      36.229 -15.788  70.258  1.00  0.00     0.191 C 
ENDROOT
BRANCH   1   2
ATOM      2  C   UNL     1      34.801 -16.259  70.290  1.00  0.00    -0.023 A 
ATOM      3  C   UNL     1      32.127 -17.111  70.274  1.00  0.00     0.000 A 
ATOM      4  C   UNL     1      32.442 -15.805  70.659  1.00  0.00     0.000 A 
ATOM      5  C   UNL     1      33.143 -17.990  69.888  1.00  0.00     0.000 A 
ATOM      6  C   UNL     1      33.773 -15.376  70.662  1.00  0.00     0.006 A 
ATOM      7  C   UNL     1      34.475 -17.565  69.889  1.00  0.00     0.006 A 
ENDBRANCH   1   2
BRANCH   1   8
ATOM      8  O   UNL     1      37.097 -16.887  70.242  1.00  0.00    -0.392 OA
ATOM      9  H   UNL     1      36.709 -17.565  70.854  1.00  0.00     0.211 HD
ENDBRANCH   1   8
TORSDOF 2
ENDMDL
