MODEL 1
REMARK VINA RESULT:    -1.955      0.000      0.000
REMARK INTER + INTRA:          -1.404
REMARK INTER:                  -2.984
REMARK INTRA:                   1.580
REMARK UNBOUND:                 1.580
REMARK SMILES CC1=CCC[C@H](C)C(=O)C[C@@H](C(C)C)C(=O)C1
REMARK SMILES IDX 8 1 9 2 6 3 7 4 5 5 4 6 3 7 2 8 1 9 10 11 11 12 15 13 16 14
REMARK SMILES IDX 17 15 12 17 13 18 14 19
REMARK H PARENT
REMARK Flexibility Score: 70.00
ROOT
ATOM      1  C   UNL     1       7.088  -2.984  -3.562  1.00  0.00     0.136 C 
ATOM      2  O   UNL     1       6.211  -3.623  -4.124  1.00  0.00    -0.299 OA
ENDROOT
BRANCH   1   3
ATOM      3  C   UNL     1       6.839  -2.513  -2.138  1.00  0.00     0.053 C 
ATOM      4  C   UNL     1       5.953  -3.508  -1.377  1.00  0.00     0.016 C 
BRANCH   3   5
ATOM      5  C   UNL     1       8.145  -2.236  -1.369  1.00  0.00     0.015 C 
BRANCH   5   6
ATOM      6  C   UNL     1       8.197  -2.945   0.006  1.00  0.00     0.028 C 
BRANCH   6   7
ATOM      7  C   UNL     1       8.844  -4.305  -0.114  1.00  0.00    -0.028 C 
ATOM      8  C   UNL     1       9.668  -4.695  -1.116  1.00  0.00    -0.070 CG0
ATOM      9  C   UNL     1      10.120  -6.133  -1.141  1.00  0.00     0.039 C 
ATOM     10  G   UNL     1      10.160  -3.756  -2.207  1.00  0.00     0.000 G0
ENDBRANCH   6   7
ENDBRANCH   5   6
ENDBRANCH   3   5
ENDBRANCH   1   3
BRANCH   1  11
ATOM     11  C   UNL     1       8.370  -2.700  -4.322  1.00  0.00     0.087 C 
BRANCH  11  12
ATOM     12  C   UNL     1       9.161  -3.984  -4.695  1.00  0.00     0.066 C 
BRANCH  12  13
ATOM     13  C   UNL     1      10.157  -4.379  -3.610  1.00  0.00     0.140 C 
ATOM     14  O   UNL     1      10.995  -5.231  -3.864  1.00  0.00    -0.299 OA
BRANCH  13  15
ATOM     15  C   UNL     1      10.178  -3.776  -2.217  1.00  0.00     0.106 CG0
ATOM     16  G   UNL     1       9.653  -4.668  -1.103  1.00  0.00     0.000 G0
ENDBRANCH  13  15
ENDBRANCH  12  13
BRANCH  12  17
ATOM     17  C   UNL     1       9.851  -3.921  -6.094  1.00  0.00    -0.006 C 
ATOM     18  C   UNL     1       9.435  -5.101  -6.986  1.00  0.00     0.008 C 
ATOM     19  C   UNL     1       9.643  -2.597  -6.851  1.00  0.00     0.008 C 
ENDBRANCH  12  17
ENDBRANCH  11  12
ENDBRANCH   1  11
TORSDOF 1
ENDMDL
MODEL 2
REMARK VINA RESULT:    -0.502     16.105     17.336
REMARK INTER + INTRA:           0.814
REMARK INTER:                  -0.834
REMARK INTRA:                   1.647
REMARK UNBOUND:                 1.580
REMARK SMILES CC1=CCC[C@H](C)C(=O)C[C@@H](C(C)C)C(=O)C1
REMARK SMILES IDX 8 1 9 2 6 3 7 4 5 5 4 6 3 7 2 8 1 9 10 11 11 12 15 13 16 14
REMARK SMILES IDX 17 15 12 17 13 18 14 19
REMARK H PARENT
REMARK Flexibility Score: 70.00
ROOT
ATOM      1  C   UNL     1      -8.208  -4.421  -7.143  1.00  0.00     0.136 C 
ATOM      2  O   UNL     1      -7.625  -4.548  -8.209  1.00  0.00    -0.299 OA
ENDROOT
BRANCH   1   3
ATOM      3  C   UNL     1      -7.984  -3.147  -6.346  1.00  0.00     0.053 C 
ATOM      4  C   UNL     1      -7.858  -1.931  -7.273  1.00  0.00     0.016 C 
BRANCH   3   5
ATOM      5  C   UNL     1      -9.072  -2.916  -5.279  1.00  0.00     0.015 C 
BRANCH   5   6
ATOM      6  C   UNL     1      -8.544  -2.173  -4.029  1.00  0.00     0.028 C 
BRANCH   6   7
ATOM      7  C   UNL     1      -7.718  -3.095  -3.162  1.00  0.00    -0.028 C 
ATOM      8  C   UNL     1      -7.985  -4.404  -2.935  1.00  0.00    -0.070 CG0
ATOM      9  C   UNL     1      -7.124  -5.138  -1.938  1.00  0.00     0.039 C 
ATOM     10  G   UNL     1      -9.099  -5.163  -3.639  1.00  0.00     0.000 G0
ENDBRANCH   6   7
ENDBRANCH   5   6
ENDBRANCH   3   5
ENDBRANCH   1   3
BRANCH   1  11
ATOM     11  C   UNL     1      -9.119  -5.544  -6.683  1.00  0.00     0.087 C 
BRANCH  11  12
ATOM     12  C   UNL     1      -8.396  -6.600  -5.803  1.00  0.00     0.066 C 
BRANCH  12  13
ATOM     13  C   UNL     1      -8.778  -6.478  -4.331  1.00  0.00     0.140 C 
ATOM     14  O   UNL     1      -8.810  -7.491  -3.647  1.00  0.00    -0.299 OA
BRANCH  13  15
ATOM     15  C   UNL     1      -9.124  -5.167  -3.650  1.00  0.00     0.106 CG0
ATOM     16  G   UNL     1      -7.972  -4.463  -2.950  1.00  0.00     0.000 G0
ENDBRANCH  13  15
ENDBRANCH  12  13
BRANCH  12  17
ATOM     17  C   UNL     1      -6.844  -6.618  -5.980  1.00  0.00    -0.006 C 
ATOM     18  C   UNL     1      -6.155  -7.417  -4.862  1.00  0.00     0.008 C 
ATOM     19  C   UNL     1      -6.363  -7.122  -7.352  1.00  0.00     0.008 C 
ENDBRANCH  12  17
ENDBRANCH  11  12
ENDBRANCH   1  11
TORSDOF 1
ENDMDL
MODEL 3
REMARK VINA RESULT:    -0.456      1.581      3.526
REMARK INTER + INTRA:           0.884
REMARK INTER:                  -1.366
REMARK INTRA:                   2.250
REMARK UNBOUND:                 1.580
REMARK SMILES CC1=CCC[C@H](C)C(=O)C[C@@H](C(C)C)C(=O)C1
REMARK SMILES IDX 8 1 9 2 6 3 7 4 5 5 4 6 3 7 2 8 1 9 10 11 11 12 15 13 16 14
REMARK SMILES IDX 17 15 12 17 13 18 14 19
REMARK H PARENT
REMARK Flexibility Score: 70.00
ROOT
ATOM      1  C   UNL     1      10.745  -5.176  -2.974  1.00  0.00     0.136 C 
ATOM      2  O   UNL     1      11.097  -6.286  -2.607  1.00  0.00    -0.299 OA
ENDROOT
BRANCH   1   3
ATOM      3  C   UNL     1      11.101  -3.981  -2.104  1.00  0.00     0.053 C 
ATOM      4  C   UNL     1      10.971  -2.669  -2.889  1.00  0.00     0.016 C 
BRANCH   3   5
ATOM      5  C   UNL     1      10.276  -3.929  -0.803  1.00  0.00     0.015 C 
BRANCH   5   6
ATOM      6  C   UNL     1       8.892  -4.608  -0.939  1.00  0.00     0.028 C 
BRANCH   6   7
ATOM      7  C   UNL     1       7.789  -3.577  -0.995  1.00  0.00    -0.028 C 
ATOM      8  C   UNL     1       7.167  -3.156  -2.123  1.00  0.00    -0.070 CG0
ATOM      9  C   UNL     1       6.177  -2.025  -2.004  1.00  0.00     0.039 C 
ATOM     10  G   UNL     1       7.416  -3.769  -3.492  1.00  0.00     0.000 G0
ENDBRANCH   6   7
ENDBRANCH   5   6
ENDBRANCH   3   5
ENDBRANCH   1   3
BRANCH   1  11
ATOM     11  C   UNL     1       9.974  -5.058  -4.276  1.00  0.00     0.087 C 
BRANCH  11  12
ATOM     12  C   UNL     1       9.800  -3.592  -4.757  1.00  0.00     0.066 C 
BRANCH  12  13
ATOM     13  C   UNL     1       8.448  -3.012  -4.351  1.00  0.00     0.140 C 
ATOM     14  O   UNL     1       8.160  -1.882  -4.716  1.00  0.00    -0.299 OA
BRANCH  13  15
ATOM     15  C   UNL     1       7.424  -3.755  -3.514  1.00  0.00     0.106 CG0
ATOM     16  G   UNL     1       7.157  -3.179  -2.132  1.00  0.00     0.000 G0
ENDBRANCH  13  15
ENDBRANCH  12  13
BRANCH  12  17
ATOM     17  C   UNL     1      10.062  -3.388  -6.283  1.00  0.00    -0.006 C 
ATOM     18  C   UNL     1      10.656  -2.002  -6.576  1.00  0.00     0.008 C 
ATOM     19  C   UNL     1      10.933  -4.477  -6.933  1.00  0.00     0.008 C 
ENDBRANCH  12  17
ENDBRANCH  11  12
ENDBRANCH   1  11
TORSDOF 1
ENDMDL
