MODEL 1
REMARK VINA RESULT:    -4.158      0.000      0.000
REMARK INTER + INTRA:          -4.755
REMARK INTER:                  -4.522
REMARK INTRA:                  -0.233
REMARK UNBOUND:                -0.233
REMARK SMILES O=C([O-])c1ccccc1O
REMARK SMILES IDX 4 1 9 2 5 3 8 4 6 5 7 6 2 7 1 8 3 9 10 10
REMARK H PARENT 10 11
REMARK Flexibility Score: inf
ROOT
ATOM      1  C   UNL     1      -5.329   1.905  -1.504  1.00  0.00     0.039 A 
ATOM      2  C   UNL     1      -4.757   1.017  -0.554  1.00  0.00     0.124 A 
ATOM      3  C   UNL     1      -5.845   3.135  -1.058  1.00  0.00     0.014 A 
ATOM      4  C   UNL     1      -4.776   1.353   0.806  1.00  0.00     0.047 A 
ATOM      5  C   UNL     1      -5.837   3.463   0.299  1.00  0.00     0.001 A 
ATOM      6  C   UNL     1      -5.312   2.570   1.231  1.00  0.00     0.004 A 
ENDROOT
BRANCH   1   7
ATOM      7  C   UNL     1      -5.435   1.579  -2.943  1.00  0.00     0.075 C 
ATOM      8  O   UNL     1      -4.414   1.280  -3.616  1.00  0.00    -0.545 OA
ATOM      9  O   UNL     1      -6.683   1.533  -3.555  1.00  0.00    -0.545 OA
ENDBRANCH   1   7
BRANCH   2  10
ATOM     10  O   UNL     1      -4.137  -0.180  -0.917  1.00  0.00    -0.507 OA
ATOM     11  H   UNL     1      -3.693  -0.330  -1.813  1.00  0.00     0.293 HD
ENDBRANCH   2  10
TORSDOF 2
ENDMDL
MODEL 2
REMARK VINA RESULT:    -3.893     13.805     14.046
REMARK INTER + INTRA:          -4.468
REMARK INTER:                  -4.232
REMARK INTRA:                  -0.235
REMARK UNBOUND:                -0.233
REMARK SMILES O=C([O-])c1ccccc1O
REMARK SMILES IDX 4 1 9 2 5 3 8 4 6 5 7 6 2 7 1 8 3 9 10 10
REMARK H PARENT 10 11
REMARK Flexibility Score: inf
ROOT
ATOM      1  C   UNL     1       6.915   7.885  -2.179  1.00  0.00     0.039 A 
ATOM      2  C   UNL     1       8.038   7.071  -2.488  1.00  0.00     0.124 A 
ATOM      3  C   UNL     1       7.100   9.016  -1.364  1.00  0.00     0.014 A 
ATOM      4  C   UNL     1       9.286   7.372  -1.928  1.00  0.00     0.047 A 
ATOM      5  C   UNL     1       8.357   9.313  -0.830  1.00  0.00     0.001 A 
ATOM      6  C   UNL     1       9.445   8.487  -1.104  1.00  0.00     0.004 A 
ENDROOT
BRANCH   1   7
ATOM      7  C   UNL     1       5.548   7.577  -2.652  1.00  0.00     0.075 C 
ATOM      8  O   UNL     1       5.229   6.408  -2.996  1.00  0.00    -0.545 OA
ATOM      9  O   UNL     1       4.574   8.570  -2.656  1.00  0.00    -0.545 OA
ENDBRANCH   1   7
BRANCH   2  10
ATOM     10  O   UNL     1       7.964   5.987  -3.364  1.00  0.00    -0.507 OA
ATOM     11  H   UNL     1       7.505   6.024  -4.264  1.00  0.00     0.293 HD
ENDBRANCH   2  10
TORSDOF 2
ENDMDL
MODEL 3
REMARK VINA RESULT:    -3.611     12.983     14.408
REMARK INTER + INTRA:          -4.161
REMARK INTER:                  -3.918
REMARK INTRA:                  -0.243
REMARK UNBOUND:                -0.233
REMARK SMILES O=C([O-])c1ccccc1O
REMARK SMILES IDX 4 1 9 2 5 3 8 4 6 5 7 6 2 7 1 8 3 9 10 10
REMARK H PARENT 10 11
REMARK Flexibility Score: inf
ROOT
ATOM      1  C   UNL     1      -3.180  -8.289   8.268  1.00  0.00     0.039 A 
ATOM      2  C   UNL     1      -2.431  -7.740   9.343  1.00  0.00     0.124 A 
ATOM      3  C   UNL     1      -2.677  -9.420   7.598  1.00  0.00     0.014 A 
ATOM      4  C   UNL     1      -1.187  -8.292   9.673  1.00  0.00     0.047 A 
ATOM      5  C   UNL     1      -1.444  -9.970   7.954  1.00  0.00     0.001 A 
ATOM      6  C   UNL     1      -0.695  -9.401   8.983  1.00  0.00     0.004 A 
ENDROOT
BRANCH   1   7
ATOM      7  C   UNL     1      -4.454  -7.704   7.797  1.00  0.00     0.075 C 
ATOM      8  O   UNL     1      -4.815  -7.819   6.596  1.00  0.00    -0.545 OA
ATOM      9  O   UNL     1      -5.305  -7.074   8.699  1.00  0.00    -0.545 OA
ENDBRANCH   1   7
BRANCH   2  10
ATOM     10  O   UNL     1      -2.898  -6.681  10.123  1.00  0.00    -0.507 OA
ATOM     11  H   UNL     1      -3.860  -6.584  10.418  1.00  0.00     0.293 HD
ENDBRANCH   2  10
TORSDOF 2
ENDMDL
MODEL 4
REMARK VINA RESULT:    -3.571     14.643     14.977
REMARK INTER + INTRA:          -4.118
REMARK INTER:                  -3.870
REMARK INTRA:                  -0.248
REMARK UNBOUND:                -0.233
REMARK SMILES O=C([O-])c1ccccc1O
REMARK SMILES IDX 4 1 9 2 5 3 8 4 6 5 7 6 2 7 1 8 3 9 10 10
REMARK H PARENT 10 11
REMARK Flexibility Score: inf
ROOT
ATOM      1  C   UNL     1       8.272   7.868  -2.005  1.00  0.00     0.039 A 
ATOM      2  C   UNL     1       7.200   8.545  -1.364  1.00  0.00     0.124 A 
ATOM      3  C   UNL     1       9.580   8.057  -1.522  1.00  0.00     0.014 A 
ATOM      4  C   UNL     1       7.471   9.430  -0.313  1.00  0.00     0.047 A 
ATOM      5  C   UNL     1       9.829   8.928  -0.459  1.00  0.00     0.001 A 
ATOM      6  C   UNL     1       8.777   9.621   0.139  1.00  0.00     0.004 A 
ENDROOT
BRANCH   1   7
ATOM      7  C   UNL     1       8.079   6.994  -3.183  1.00  0.00     0.075 C 
ATOM      8  O   UNL     1       7.085   6.224  -3.261  1.00  0.00    -0.545 OA
ATOM      9  O   UNL     1       8.964   7.064  -4.253  1.00  0.00    -0.545 OA
ENDBRANCH   1   7
BRANCH   2  10
ATOM     10  O   UNL     1       5.864   8.342  -1.714  1.00  0.00    -0.507 OA
ATOM     11  H   UNL     1       5.222   7.784  -1.170  1.00  0.00     0.293 HD
ENDBRANCH   2  10
TORSDOF 2
ENDMDL
MODEL 5
REMARK VINA RESULT:    -3.571     12.941     14.276
REMARK INTER + INTRA:          -4.117
REMARK INTER:                  -3.891
REMARK INTRA:                  -0.227
REMARK UNBOUND:                -0.233
REMARK SMILES O=C([O-])c1ccccc1O
REMARK SMILES IDX 4 1 9 2 5 3 8 4 6 5 7 6 2 7 1 8 3 9 10 10
REMARK H PARENT 10 11
REMARK Flexibility Score: inf
ROOT
ATOM      1  C   UNL     1      -3.183  -8.441   7.955  1.00  0.00     0.039 A 
ATOM      2  C   UNL     1      -2.635  -9.508   7.194  1.00  0.00     0.124 A 
ATOM      3  C   UNL     1      -2.484  -7.986   9.088  1.00  0.00     0.014 A 
ATOM      4  C   UNL     1      -1.452 -10.125   7.619  1.00  0.00     0.047 A 
ATOM      5  C   UNL     1      -1.293  -8.599   9.485  1.00  0.00     0.001 A 
ATOM      6  C   UNL     1      -0.783  -9.673   8.757  1.00  0.00     0.004 A 
ENDROOT
BRANCH   1   7
ATOM      7  C   UNL     1      -4.477  -7.804   7.627  1.00  0.00     0.075 C 
ATOM      8  O   UNL     1      -4.956  -7.872   6.464  1.00  0.00    -0.545 OA
ATOM      9  O   UNL     1      -5.215  -7.176   8.624  1.00  0.00    -0.545 OA
ENDBRANCH   1   7
BRANCH   2  10
ATOM     10  O   UNL     1      -3.211  -9.959   6.005  1.00  0.00    -0.507 OA
ATOM     11  H   UNL     1      -3.175  -9.444   5.136  1.00  0.00     0.293 HD
ENDBRANCH   2  10
TORSDOF 2
ENDMDL
MODEL 6
REMARK VINA RESULT:    -3.570     12.922     13.246
REMARK INTER + INTRA:          -4.116
REMARK INTER:                  -3.869
REMARK INTRA:                  -0.247
REMARK UNBOUND:                -0.233
REMARK SMILES O=C([O-])c1ccccc1O
REMARK SMILES IDX 4 1 9 2 5 3 8 4 6 5 7 6 2 7 1 8 3 9 10 10
REMARK H PARENT 10 11
REMARK Flexibility Score: inf
ROOT
ATOM      1  C   UNL     1       5.540   8.269  -4.177  1.00  0.00     0.039 A 
ATOM      2  C   UNL     1       5.892   7.382  -3.124  1.00  0.00     0.124 A 
ATOM      3  C   UNL     1       6.559   8.792  -4.993  1.00  0.00     0.014 A 
ATOM      4  C   UNL     1       7.241   7.097  -2.882  1.00  0.00     0.047 A 
ATOM      5  C   UNL     1       7.899   8.479  -4.751  1.00  0.00     0.001 A 
ATOM      6  C   UNL     1       8.240   7.640  -3.691  1.00  0.00     0.004 A 
ENDROOT
BRANCH   1   7
ATOM      7  C   UNL     1       4.147   8.697  -4.433  1.00  0.00     0.075 C 
ATOM      8  O   UNL     1       3.383   9.015  -3.484  1.00  0.00    -0.545 OA
ATOM      9  O   UNL     1       3.686   8.816  -5.740  1.00  0.00    -0.545 OA
ENDBRANCH   1   7
BRANCH   2  10
ATOM     10  O   UNL     1       4.940   6.744  -2.327  1.00  0.00    -0.507 OA
ATOM     11  H   UNL     1       5.102   6.483  -1.364  1.00  0.00     0.293 HD
ENDBRANCH   2  10
TORSDOF 2
ENDMDL
MODEL 7
REMARK VINA RESULT:    -3.503     13.187     13.670
REMARK INTER + INTRA:          -4.043
REMARK INTER:                  -3.820
REMARK INTRA:                  -0.224
REMARK UNBOUND:                -0.233
REMARK SMILES O=C([O-])c1ccccc1O
REMARK SMILES IDX 4 1 9 2 5 3 8 4 6 5 7 6 2 7 1 8 3 9 10 10
REMARK H PARENT 10 11
REMARK Flexibility Score: inf
ROOT
ATOM      1  C   UNL     1       6.637   7.829  -3.858  1.00  0.00     0.039 A 
ATOM      2  C   UNL     1       5.342   7.579  -3.329  1.00  0.00     0.124 A 
ATOM      3  C   UNL     1       6.766   8.705  -4.951  1.00  0.00     0.014 A 
ATOM      4  C   UNL     1       4.221   8.155  -3.942  1.00  0.00     0.047 A 
ATOM      5  C   UNL     1       5.640   9.287  -5.536  1.00  0.00     0.001 A 
ATOM      6  C   UNL     1       4.368   9.005  -5.038  1.00  0.00     0.004 A 
ENDROOT
BRANCH   1   7
ATOM      7  C   UNL     1       7.857   7.182  -3.329  1.00  0.00     0.075 C 
ATOM      8  O   UNL     1       7.876   6.682  -2.173  1.00  0.00    -0.545 OA
ATOM      9  O   UNL     1       8.983   7.058  -4.135  1.00  0.00    -0.545 OA
ENDBRANCH   1   7
BRANCH   2  10
ATOM     10  O   UNL     1       5.130   6.801  -2.190  1.00  0.00    -0.507 OA
ATOM     11  H   UNL     1       4.297   6.858  -1.620  1.00  0.00     0.293 HD
ENDBRANCH   2  10
TORSDOF 2
ENDMDL
MODEL 8
REMARK VINA RESULT:    -3.494     14.027     14.322
REMARK INTER + INTRA:          -4.034
REMARK INTER:                  -3.786
REMARK INTRA:                  -0.248
REMARK UNBOUND:                -0.233
REMARK SMILES O=C([O-])c1ccccc1O
REMARK SMILES IDX 4 1 9 2 5 3 8 4 6 5 7 6 2 7 1 8 3 9 10 10
REMARK H PARENT 10 11
REMARK Flexibility Score: inf
ROOT
ATOM      1  C   UNL     1       7.160   7.664  -2.224  1.00  0.00     0.039 A 
ATOM      2  C   UNL     1       7.520   8.598  -1.216  1.00  0.00     0.124 A 
ATOM      3  C   UNL     1       8.172   6.897  -2.830  1.00  0.00     0.014 A 
ATOM      4  C   UNL     1       8.870   8.782  -0.893  1.00  0.00     0.047 A 
ATOM      5  C   UNL     1       9.512   7.078  -2.480  1.00  0.00     0.001 A 
ATOM      6  C   UNL     1       9.861   8.026  -1.520  1.00  0.00     0.004 A 
ENDROOT
BRANCH   1   7
ATOM      7  C   UNL     1       5.768   7.483  -2.690  1.00  0.00     0.075 C 
ATOM      8  O   UNL     1       5.352   6.355  -3.065  1.00  0.00    -0.545 OA
ATOM      9  O   UNL     1       4.879   8.552  -2.655  1.00  0.00    -0.545 OA
ENDBRANCH   1   7
BRANCH   2  10
ATOM     10  O   UNL     1       6.575   9.331  -0.496  1.00  0.00    -0.507 OA
ATOM     11  H   UNL     1       6.044   8.953   0.276  1.00  0.00     0.293 HD
ENDBRANCH   2  10
TORSDOF 2
ENDMDL
MODEL 9
REMARK VINA RESULT:    -3.454     13.038     13.726
REMARK INTER + INTRA:          -3.990
REMARK INTER:                  -3.759
REMARK INTRA:                  -0.231
REMARK UNBOUND:                -0.233
REMARK SMILES O=C([O-])c1ccccc1O
REMARK SMILES IDX 4 1 9 2 5 3 8 4 6 5 7 6 2 7 1 8 3 9 10 10
REMARK H PARENT 10 11
REMARK Flexibility Score: inf
ROOT
ATOM      1  C   UNL     1       5.819   8.348  -4.575  1.00  0.00     0.039 A 
ATOM      2  C   UNL     1       4.495   8.700  -4.950  1.00  0.00     0.124 A 
ATOM      3  C   UNL     1       6.874   8.627  -5.464  1.00  0.00     0.014 A 
ATOM      4  C   UNL     1       4.259   9.256  -6.214  1.00  0.00     0.047 A 
ATOM      5  C   UNL     1       6.622   9.202  -6.711  1.00  0.00     0.001 A 
ATOM      6  C   UNL     1       5.316   9.507  -7.090  1.00  0.00     0.004 A 
ENDROOT
BRANCH   1   7
ATOM      7  C   UNL     1       6.137   7.668  -3.300  1.00  0.00     0.075 C 
ATOM      8  O   UNL     1       5.811   8.177  -2.196  1.00  0.00    -0.545 OA
ATOM      9  O   UNL     1       6.746   6.417  -3.313  1.00  0.00    -0.545 OA
ENDBRANCH   1   7
BRANCH   2  10
ATOM     10  O   UNL     1       3.403   8.547  -4.094  1.00  0.00    -0.507 OA
ATOM     11  H   UNL     1       3.463   8.113  -3.183  1.00  0.00     0.293 HD
ENDBRANCH   2  10
TORSDOF 2
ENDMDL
