MODEL 1
REMARK VINA RESULT:    -3.224      0.000      0.000
REMARK INTER + INTRA:          -3.904
REMARK INTER:                  -3.789
REMARK INTRA:                  -0.115
REMARK UNBOUND:                -0.115
REMARK SMILES O=C([O-])CCC(=O)[O-]
REMARK SMILES IDX 4 1 2 2 1 3 3 4 5 5 6 6 7 7 8 8
REMARK H PARENT
REMARK Flexibility Score: inf
ROOT
ATOM      1  C   UNL     1      22.822  11.948  35.860  1.00  0.00     0.059 C 
ENDROOT
BRANCH   1   2
ATOM      2  C   UNL     1      22.468  12.751  34.650  1.00  0.00     0.042 C 
ATOM      3  O   UNL     1      21.513  12.394  33.909  1.00  0.00    -0.550 OA
ATOM      4  O   UNL     1      23.223  13.866  34.309  1.00  0.00    -0.550 OA
ENDBRANCH   1   2
BRANCH   1   5
ATOM      5  C   UNL     1      22.704  10.452  35.565  1.00  0.00     0.059 C 
BRANCH   5   6
ATOM      6  C   UNL     1      21.592   9.846  36.360  1.00  0.00     0.042 C 
ATOM      7  O   UNL     1      21.836   8.953  37.214  1.00  0.00    -0.550 OA
ATOM      8  O   UNL     1      20.278  10.230  36.123  1.00  0.00    -0.550 OA
ENDBRANCH   5   6
ENDBRANCH   1   5
TORSDOF 3
ENDMDL
MODEL 2
REMARK VINA RESULT:    -3.183     16.560     17.349
REMARK INTER + INTRA:          -3.856
REMARK INTER:                  -3.760
REMARK INTRA:                  -0.096
REMARK UNBOUND:                -0.115
REMARK SMILES O=C([O-])CCC(=O)[O-]
REMARK SMILES IDX 4 1 2 2 1 3 3 4 5 5 6 6 7 7 8 8
REMARK H PARENT
REMARK Flexibility Score: inf
ROOT
ATOM      1  C   UNL     1      19.616  23.833  48.541  1.00  0.00     0.059 C 
ENDROOT
BRANCH   1   2
ATOM      2  C   UNL     1      18.792  22.587  48.475  1.00  0.00     0.042 C 
ATOM      3  O   UNL     1      19.268  21.491  48.873  1.00  0.00    -0.550 OA
ATOM      4  O   UNL     1      17.517  22.625  47.927  1.00  0.00    -0.550 OA
ENDBRANCH   1   2
BRANCH   1   5
ATOM      5  C   UNL     1      21.074  23.532  48.194  1.00  0.00     0.059 C 
BRANCH   5   6
ATOM      6  C   UNL     1      21.256  23.457  46.711  1.00  0.00     0.042 C 
ATOM      7  O   UNL     1      22.236  22.835  46.223  1.00  0.00    -0.550 OA
ATOM      8  O   UNL     1      20.371  24.117  45.868  1.00  0.00    -0.550 OA
ENDBRANCH   5   6
ENDBRANCH   1   5
TORSDOF 3
ENDMDL
MODEL 3
REMARK VINA RESULT:    -3.171     16.553     17.111
REMARK INTER + INTRA:          -3.842
REMARK INTER:                  -3.737
REMARK INTRA:                  -0.105
REMARK UNBOUND:                -0.115
REMARK SMILES O=C([O-])CCC(=O)[O-]
REMARK SMILES IDX 4 1 2 2 1 3 3 4 5 5 6 6 7 7 8 8
REMARK H PARENT
REMARK Flexibility Score: inf
ROOT
ATOM      1  C   UNL     1      21.124  23.527  48.153  1.00  0.00     0.059 C 
ENDROOT
BRANCH   1   2
ATOM      2  C   UNL     1      21.292  23.452  46.669  1.00  0.00     0.042 C 
ATOM      3  O   UNL     1      22.238  22.786  46.171  1.00  0.00    -0.550 OA
ATOM      4  O   UNL     1      20.433  24.158  45.836  1.00  0.00    -0.550 OA
ENDBRANCH   1   2
BRANCH   1   5
ATOM      5  C   UNL     1      19.677  23.865  48.513  1.00  0.00     0.059 C 
BRANCH   5   6
ATOM      6  C   UNL     1      18.821  22.639  48.458  1.00  0.00     0.042 C 
ATOM      7  O   UNL     1      17.631  22.714  48.054  1.00  0.00    -0.550 OA
ATOM      8  O   UNL     1      19.322  21.422  48.901  1.00  0.00    -0.550 OA
ENDBRANCH   5   6
ENDBRANCH   1   5
TORSDOF 3
ENDMDL
MODEL 4
REMARK VINA RESULT:    -3.166      0.159      3.874
REMARK INTER + INTRA:          -3.836
REMARK INTER:                  -3.730
REMARK INTRA:                  -0.106
REMARK UNBOUND:                -0.115
REMARK SMILES O=C([O-])CCC(=O)[O-]
REMARK SMILES IDX 4 1 2 2 1 3 3 4 5 5 6 6 7 7 8 8
REMARK H PARENT
REMARK Flexibility Score: inf
ROOT
ATOM      1  C   UNL     1      22.753  10.592  35.633  1.00  0.00     0.059 C 
ENDROOT
BRANCH   1   2
ATOM      2  C   UNL     1      21.564   9.922  36.244  1.00  0.00     0.042 C 
ATOM      3  O   UNL     1      20.402  10.336  35.988  1.00  0.00    -0.550 OA
ATOM      4  O   UNL     1      21.739   8.873  37.137  1.00  0.00    -0.550 OA
ENDBRANCH   1   2
BRANCH   1   5
ATOM      5  C   UNL     1      22.730  12.093  35.922  1.00  0.00     0.059 C 
BRANCH   5   6
ATOM      6  C   UNL     1      22.514  12.867  34.660  1.00  0.00     0.042 C 
ATOM      7  O   UNL     1      23.204  13.892  34.419  1.00  0.00    -0.550 OA
ATOM      8  O   UNL     1      21.515  12.486  33.773  1.00  0.00    -0.550 OA
ENDBRANCH   5   6
ENDBRANCH   1   5
TORSDOF 3
ENDMDL
MODEL 5
REMARK VINA RESULT:    -3.100     17.115     17.748
REMARK INTER + INTRA:          -3.760
REMARK INTER:                  -3.594
REMARK INTRA:                  -0.166
REMARK UNBOUND:                -0.115
REMARK SMILES O=C([O-])CCC(=O)[O-]
REMARK SMILES IDX 4 1 2 2 1 3 3 4 5 5 6 6 7 7 8 8
REMARK H PARENT
REMARK Flexibility Score: inf
ROOT
ATOM      1  C   UNL     1      18.779  21.979  47.453  1.00  0.00     0.059 C 
ENDROOT
BRANCH   1   2
ATOM      2  C   UNL     1      17.693  22.984  47.232  1.00  0.00     0.042 C 
ATOM      3  O   UNL     1      16.628  22.923  47.901  1.00  0.00    -0.550 OA
ATOM      4  O   UNL     1      17.835  23.957  46.252  1.00  0.00    -0.550 OA
ENDBRANCH   1   2
BRANCH   1   5
ATOM      5  C   UNL     1      19.466  22.218  48.798  1.00  0.00     0.059 C 
BRANCH   5   6
ATOM      6  C   UNL     1      20.297  23.461  48.749  1.00  0.00     0.042 C 
ATOM      7  O   UNL     1      21.346  23.495  48.054  1.00  0.00    -0.550 OA
ATOM      8  O   UNL     1      19.941  24.565  49.512  1.00  0.00    -0.550 OA
ENDBRANCH   5   6
ENDBRANCH   1   5
TORSDOF 3
ENDMDL
MODEL 6
REMARK VINA RESULT:    -3.083     17.098     17.707
REMARK INTER + INTRA:          -3.740
REMARK INTER:                  -3.584
REMARK INTRA:                  -0.156
REMARK UNBOUND:                -0.115
REMARK SMILES O=C([O-])CCC(=O)[O-]
REMARK SMILES IDX 4 1 2 2 1 3 3 4 5 5 6 6 7 7 8 8
REMARK H PARENT
REMARK Flexibility Score: inf
ROOT
ATOM      1  C   UNL     1      19.475  22.231  48.816  1.00  0.00     0.059 C 
ENDROOT
BRANCH   1   2
ATOM      2  C   UNL     1      20.309  23.472  48.774  1.00  0.00     0.042 C 
ATOM      3  O   UNL     1      21.363  23.505  48.086  1.00  0.00    -0.550 OA
ATOM      4  O   UNL     1      19.949  24.578  49.534  1.00  0.00    -0.550 OA
ENDBRANCH   1   2
BRANCH   1   5
ATOM      5  C   UNL     1      18.854  21.956  47.446  1.00  0.00     0.059 C 
BRANCH   5   6
ATOM      6  C   UNL     1      17.774  22.948  47.150  1.00  0.00     0.042 C 
ATOM      7  O   UNL     1      17.942  23.819  46.256  1.00  0.00    -0.550 OA
ATOM      8  O   UNL     1      16.603  22.944  47.897  1.00  0.00    -0.550 OA
ENDBRANCH   5   6
ENDBRANCH   1   5
TORSDOF 3
ENDMDL
MODEL 7
REMARK VINA RESULT:    -3.040      2.109      2.447
REMARK INTER + INTRA:          -3.688
REMARK INTER:                  -3.517
REMARK INTRA:                  -0.172
REMARK UNBOUND:                -0.115
REMARK SMILES O=C([O-])CCC(=O)[O-]
REMARK SMILES IDX 4 1 2 2 1 3 3 4 5 5 6 6 7 7 8 8
REMARK H PARENT
REMARK Flexibility Score: inf
ROOT
ATOM      1  C   UNL     1      22.833  13.531  35.105  1.00  0.00     0.059 C 
ENDROOT
BRANCH   1   2
ATOM      2  C   UNL     1      22.411  13.776  36.518  1.00  0.00     0.042 C 
ATOM      3  O   UNL     1      21.307  14.332  36.763  1.00  0.00    -0.550 OA
ATOM      4  O   UNL     1      23.258  13.437  37.566  1.00  0.00    -0.550 OA
ENDBRANCH   1   2
BRANCH   1   5
ATOM      5  C   UNL     1      21.962  12.450  34.465  1.00  0.00     0.059 C 
BRANCH   5   6
ATOM      6  C   UNL     1      22.057  11.173  35.240  1.00  0.00     0.042 C 
ATOM      7  O   UNL     1      23.154  10.561  35.321  1.00  0.00    -0.550 OA
ATOM      8  O   UNL     1      20.921  10.632  35.829  1.00  0.00    -0.550 OA
ENDBRANCH   5   6
ENDBRANCH   1   5
TORSDOF 3
ENDMDL
MODEL 8
REMARK VINA RESULT:    -3.034      2.134      3.671
REMARK INTER + INTRA:          -3.682
REMARK INTER:                  -3.509
REMARK INTRA:                  -0.173
REMARK UNBOUND:                -0.115
REMARK SMILES O=C([O-])CCC(=O)[O-]
REMARK SMILES IDX 4 1 2 2 1 3 3 4 5 5 6 6 7 7 8 8
REMARK H PARENT
REMARK Flexibility Score: inf
ROOT
ATOM      1  C   UNL     1      21.974  12.458  34.483  1.00  0.00     0.059 C 
ENDROOT
BRANCH   1   2
ATOM      2  C   UNL     1      22.063  11.179  35.254  1.00  0.00     0.042 C 
ATOM      3  O   UNL     1      23.164  10.577  35.357  1.00  0.00    -0.550 OA
ATOM      4  O   UNL     1      20.921  10.626  35.817  1.00  0.00    -0.550 OA
ENDBRANCH   1   2
BRANCH   1   5
ATOM      5  C   UNL     1      22.808  13.549  35.156  1.00  0.00     0.059 C 
BRANCH   5   6
ATOM      6  C   UNL     1      22.352  13.765  36.564  1.00  0.00     0.042 C 
ATOM      7  O   UNL     1      21.220  14.267  36.793  1.00  0.00    -0.550 OA
ATOM      8  O   UNL     1      23.197  13.460  37.623  1.00  0.00    -0.550 OA
ENDBRANCH   5   6
ENDBRANCH   1   5
TORSDOF 3
ENDMDL
MODEL 9
REMARK VINA RESULT:    -2.997     13.566     14.578
REMARK INTER + INTRA:          -3.638
REMARK INTER:                  -3.466
REMARK INTRA:                  -0.173
REMARK UNBOUND:                -0.115
REMARK SMILES O=C([O-])CCC(=O)[O-]
REMARK SMILES IDX 4 1 2 2 1 3 3 4 5 5 6 6 7 7 8 8
REMARK H PARENT
REMARK Flexibility Score: inf
ROOT
ATOM      1  C   UNL     1      17.272  13.771  49.504  1.00  0.00     0.059 C 
ENDROOT
BRANCH   1   2
ATOM      2  C   UNL     1      16.879  12.411  49.022  1.00  0.00     0.042 C 
ATOM      3  O   UNL     1      15.814  11.877  49.430  1.00  0.00    -0.550 OA
ATOM      4  O   UNL     1      17.714  11.710  48.161  1.00  0.00    -0.550 OA
ENDBRANCH   1   2
BRANCH   1   5
ATOM      5  C   UNL     1      16.248  14.815  49.056  1.00  0.00     0.059 C 
BRANCH   5   6
ATOM      6  C   UNL     1      16.115  14.813  47.566  1.00  0.00     0.042 C 
ATOM      7  O   UNL     1      17.094  15.131  46.841  1.00  0.00    -0.550 OA
ATOM      8  O   UNL     1      14.893  14.511  46.978  1.00  0.00    -0.550 OA
ENDBRANCH   5   6
ENDBRANCH   1   5
TORSDOF 3
ENDMDL
