MODEL 1
REMARK VINA RESULT:    -3.127      0.000      0.000
REMARK INTER + INTRA:          -5.172
REMARK INTER:                  -4.772
REMARK INTRA:                  -0.400
REMARK UNBOUND:                -0.400
REMARK SMILES CC1=CCC[C@H](C)C(=O)C[C@@H](C(C)C)C(=O)C1
REMARK SMILES IDX 8 1 9 2 6 3 7 4 5 5 4 6 3 7 2 8 1 9 10 11 11 12 15 13 16 14
REMARK SMILES IDX 17 15 12 17 13 18 14 19
REMARK H PARENT
REMARK Flexibility Score: 70.00
ROOT
ATOM      1  C   UNL     1      -7.772  36.384  45.360  1.00  0.00     0.136 C 
ATOM      2  O   UNL     1      -7.866  35.696  46.368  1.00  0.00    -0.299 OA
ENDROOT
BRANCH   1   3
ATOM      3  C   UNL     1      -7.996  37.884  45.448  1.00  0.00     0.053 C 
ATOM      4  C   UNL     1      -7.343  38.503  46.695  1.00  0.00     0.016 C 
BRANCH   3   5
ATOM      5  C   UNL     1      -7.516  38.615  44.161  1.00  0.00     0.015 C 
BRANCH   5   6
ATOM      6  C   UNL     1      -6.023  38.993  44.240  1.00  0.00     0.028 C 
BRANCH   6   7
ATOM      7  C   UNL     1      -5.207  38.625  43.021  1.00  0.00    -0.028 C 
ATOM      8  C   UNL     1      -4.614  37.431  42.743  1.00  0.00    -0.070 CG0
ATOM      9  C   UNL     1      -4.021  37.281  41.360  1.00  0.00     0.039 C 
ATOM     10  G   UNL     1      -4.334  36.311  43.746  1.00  0.00     0.000 G0
ENDBRANCH   6   7
ENDBRANCH   5   6
ENDBRANCH   3   5
ENDBRANCH   1   3
BRANCH   1  11
ATOM     11  C   UNL     1      -7.362  35.704  44.067  1.00  0.00     0.087 C 
BRANCH  11  12
ATOM     12  C   UNL     1      -6.295  34.572  44.180  1.00  0.00     0.066 C 
BRANCH  12  13
ATOM     13  C   UNL     1      -4.970  34.946  43.499  1.00  0.00     0.140 C 
ATOM     14  O   UNL     1      -4.351  34.112  42.852  1.00  0.00    -0.299 OA
BRANCH  13  15
ATOM     15  C   UNL     1      -4.332  36.290  43.756  1.00  0.00     0.106 CG0
ATOM     16  G   UNL     1      -4.635  37.406  42.755  1.00  0.00     0.000 G0
ENDBRANCH  13  15
ENDBRANCH  12  13
BRANCH  12  17
ATOM     17  C   UNL     1      -6.823  33.153  43.765  1.00  0.00    -0.006 C 
ATOM     18  C   UNL     1      -7.284  32.349  44.998  1.00  0.00     0.008 C 
ATOM     19  C   UNL     1      -7.998  33.216  42.770  1.00  0.00     0.008 C 
ENDBRANCH  12  17
ENDBRANCH  11  12
ENDBRANCH   1  11
TORSDOF 1
ENDMDL
MODEL 2
REMARK VINA RESULT:    -2.976      2.106      4.376
REMARK INTER + INTRA:          -4.942
REMARK INTER:                  -4.448
REMARK INTRA:                  -0.493
REMARK UNBOUND:                -0.400
REMARK SMILES CC1=CCC[C@H](C)C(=O)C[C@@H](C(C)C)C(=O)C1
REMARK SMILES IDX 8 1 9 2 6 3 7 4 5 5 4 6 3 7 2 8 1 9 10 11 11 12 15 13 16 14
REMARK SMILES IDX 17 15 12 17 13 18 14 19
REMARK H PARENT
REMARK Flexibility Score: 70.00
ROOT
ATOM      1  C   UNL     1      -4.835  37.752  43.395  1.00  0.00     0.136 C 
ATOM      2  O   UNL     1      -4.615  38.571  42.513  1.00  0.00    -0.299 OA
ENDROOT
BRANCH   1   3
ATOM      3  C   UNL     1      -5.884  38.047  44.453  1.00  0.00     0.053 C 
ATOM      4  C   UNL     1      -7.154  38.681  43.860  1.00  0.00     0.016 C 
BRANCH   3   5
ATOM      5  C   UNL     1      -6.244  36.778  45.279  1.00  0.00     0.015 C 
BRANCH   5   6
ATOM      6  C   UNL     1      -7.548  36.121  44.782  1.00  0.00     0.028 C 
BRANCH   6   7
ATOM      7  C   UNL     1      -7.604  34.618  44.940  1.00  0.00    -0.028 C 
ATOM      8  C   UNL     1      -7.001  33.674  44.165  1.00  0.00    -0.070 CG0
ATOM      9  C   UNL     1      -7.069  32.249  44.665  1.00  0.00     0.039 C 
ATOM     10  G   UNL     1      -6.430  33.893  42.763  1.00  0.00     0.000 G0
ENDBRANCH   6   7
ENDBRANCH   5   6
ENDBRANCH   3   5
ENDBRANCH   1   3
BRANCH   1  11
ATOM     11  C   UNL     1      -4.087  36.433  43.348  1.00  0.00     0.087 C 
BRANCH  11  12
ATOM     12  C   UNL     1      -4.411  35.488  42.151  1.00  0.00     0.066 C 
BRANCH  12  13
ATOM     13  C   UNL     1      -4.941  34.121  42.610  1.00  0.00     0.140 C 
ATOM     14  O   UNL     1      -4.177  33.176  42.745  1.00  0.00    -0.299 OA
BRANCH  13  15
ATOM     15  C   UNL     1      -6.427  33.882  42.738  1.00  0.00     0.106 CG0
ATOM     16  G   UNL     1      -6.981  33.691  44.151  1.00  0.00     0.000 G0
ENDBRANCH  13  15
ENDBRANCH  12  13
BRANCH  12  17
ATOM     17  C   UNL     1      -3.256  35.377  41.093  1.00  0.00    -0.006 C 
ATOM     18  C   UNL     1      -3.427  36.423  39.973  1.00  0.00     0.008 C 
ATOM     19  C   UNL     1      -1.857  35.562  41.709  1.00  0.00     0.008 C 
ENDBRANCH  12  17
ENDBRANCH  11  12
ENDBRANCH   1  11
TORSDOF 1
ENDMDL
MODEL 3
REMARK VINA RESULT:    -2.957      1.926      3.951
REMARK INTER + INTRA:          -4.913
REMARK INTER:                  -4.596
REMARK INTRA:                  -0.317
REMARK UNBOUND:                -0.400
REMARK SMILES CC1=CCC[C@H](C)C(=O)C[C@@H](C(C)C)C(=O)C1
REMARK SMILES IDX 8 1 9 2 6 3 7 4 5 5 4 6 3 7 2 8 1 9 10 11 11 12 15 13 16 14
REMARK SMILES IDX 17 15 12 17 13 18 14 19
REMARK H PARENT
REMARK Flexibility Score: 70.00
ROOT
ATOM      1  C   UNL     1      -6.095  33.285  43.250  1.00  0.00     0.136 C 
ATOM      2  O   UNL     1      -5.716  32.403  44.008  1.00  0.00    -0.299 OA
ENDROOT
BRANCH   1   3
ATOM      3  C   UNL     1      -7.484  33.878  43.417  1.00  0.00     0.053 C 
ATOM      4  C   UNL     1      -8.588  32.940  42.900  1.00  0.00     0.016 C 
BRANCH   3   5
ATOM      5  C   UNL     1      -7.762  34.287  44.892  1.00  0.00     0.015 C 
BRANCH   5   6
ATOM      6  C   UNL     1      -6.726  35.305  45.410  1.00  0.00     0.028 C 
BRANCH   6   7
ATOM      7  C   UNL     1      -6.929  36.723  44.926  1.00  0.00    -0.028 C 
ATOM      8  C   UNL     1      -6.134  37.440  44.084  1.00  0.00    -0.070 CG0
ATOM      9  C   UNL     1      -6.677  38.771  43.616  1.00  0.00     0.039 C 
ATOM     10  G   UNL     1      -4.685  37.113  43.721  1.00  0.00     0.000 G0
ENDBRANCH   6   7
ENDBRANCH   5   6
ENDBRANCH   3   5
ENDBRANCH   1   3
BRANCH   1  11
ATOM     11  C   UNL     1      -5.120  33.800  42.207  1.00  0.00     0.087 C 
BRANCH  11  12
ATOM     12  C   UNL     1      -4.008  34.771  42.709  1.00  0.00     0.066 C 
BRANCH  12  13
ATOM     13  C   UNL     1      -4.391  36.246  42.521  1.00  0.00     0.140 C 
ATOM     14  O   UNL     1      -4.351  36.759  41.411  1.00  0.00    -0.299 OA
BRANCH  13  15
ATOM     15  C   UNL     1      -4.656  37.125  43.721  1.00  0.00     0.106 CG0
ATOM     16  G   UNL     1      -6.120  37.414  44.060  1.00  0.00     0.000 G0
ENDBRANCH  13  15
ENDBRANCH  12  13
BRANCH  12  17
ATOM     17  C   UNL     1      -2.572  34.433  42.169  1.00  0.00    -0.006 C 
ATOM     18  C   UNL     1      -2.024  33.146  42.818  1.00  0.00     0.008 C 
ATOM     19  C   UNL     1      -2.533  34.250  40.640  1.00  0.00     0.008 C 
ENDBRANCH  12  17
ENDBRANCH  11  12
ENDBRANCH   1  11
TORSDOF 1
ENDMDL
MODEL 4
REMARK VINA RESULT:    -2.940      1.744      3.719
REMARK INTER + INTRA:          -4.887
REMARK INTER:                  -4.332
REMARK INTRA:                  -0.555
REMARK UNBOUND:                -0.400
REMARK SMILES CC1=CCC[C@H](C)C(=O)C[C@@H](C(C)C)C(=O)C1
REMARK SMILES IDX 8 1 9 2 6 3 7 4 5 5 4 6 3 7 2 8 1 9 10 11 11 12 15 13 16 14
REMARK SMILES IDX 17 15 12 17 13 18 14 19
REMARK H PARENT
REMARK Flexibility Score: 70.00
ROOT
ATOM      1  C   UNL     1      -4.570  36.111  44.743  1.00  0.00     0.136 C 
ATOM      2  O   UNL     1      -4.323  36.665  45.805  1.00  0.00    -0.299 OA
ENDROOT
BRANCH   1   3
ATOM      3  C   UNL     1      -3.850  36.547  43.479  1.00  0.00     0.053 C 
ATOM      4  C   UNL     1      -4.348  35.798  42.231  1.00  0.00     0.016 C 
BRANCH   3   5
ATOM      5  C   UNL     1      -3.944  38.086  43.264  1.00  0.00     0.015 C 
BRANCH   5   6
ATOM      6  C   UNL     1      -5.394  38.540  42.998  1.00  0.00     0.028 C 
BRANCH   6   7
ATOM      7  C   UNL     1      -6.040  39.305  44.131  1.00  0.00    -0.028 C 
ATOM      8  C   UNL     1      -7.049  38.894  44.948  1.00  0.00    -0.070 CG0
ATOM      9  C   UNL     1      -7.370  39.789  46.123  1.00  0.00     0.039 C 
ATOM     10  G   UNL     1      -7.995  37.721  44.687  1.00  0.00     0.000 G0
ENDBRANCH   6   7
ENDBRANCH   5   6
ENDBRANCH   3   5
ENDBRANCH   1   3
BRANCH   1  11
ATOM     11  C   UNL     1      -5.548  34.950  44.753  1.00  0.00     0.087 C 
BRANCH  11  12
ATOM     12  C   UNL     1      -7.024  35.276  44.366  1.00  0.00     0.066 C 
BRANCH  12  13
ATOM     13  C   UNL     1      -7.639  36.358  45.266  1.00  0.00     0.140 C 
ATOM     14  O   UNL     1      -7.954  36.098  46.419  1.00  0.00    -0.299 OA
BRANCH  13  15
ATOM     15  C   UNL     1      -8.019  37.703  44.693  1.00  0.00     0.106 CG0
ATOM     16  G   UNL     1      -7.057  38.864  44.950  1.00  0.00     0.000 G0
ENDBRANCH  13  15
ENDBRANCH  12  13
BRANCH  12  17
ATOM     17  C   UNL     1      -7.939  34.009  44.212  1.00  0.00    -0.006 C 
ATOM     18  C   UNL     1      -7.930  33.493  42.759  1.00  0.00     0.008 C 
ATOM     19  C   UNL     1      -7.519  32.849  45.133  1.00  0.00     0.008 C 
ENDBRANCH  12  17
ENDBRANCH  11  12
ENDBRANCH   1  11
TORSDOF 1
ENDMDL
MODEL 5
REMARK VINA RESULT:    -2.921      2.190      3.752
REMARK INTER + INTRA:          -4.857
REMARK INTER:                  -4.422
REMARK INTRA:                  -0.435
REMARK UNBOUND:                -0.400
REMARK SMILES CC1=CCC[C@H](C)C(=O)C[C@@H](C(C)C)C(=O)C1
REMARK SMILES IDX 8 1 9 2 6 3 7 4 5 5 4 6 3 7 2 8 1 9 10 11 11 12 15 13 16 14
REMARK SMILES IDX 17 15 12 17 13 18 14 19
REMARK H PARENT
REMARK Flexibility Score: 70.00
ROOT
ATOM      1  C   UNL     1      -5.144  37.566  43.524  1.00  0.00     0.136 C 
ATOM      2  O   UNL     1      -4.829  37.924  42.397  1.00  0.00    -0.299 OA
ENDROOT
BRANCH   1   3
ATOM      3  C   UNL     1      -6.051  38.444  44.368  1.00  0.00     0.053 C 
ATOM      4  C   UNL     1      -5.660  39.930  44.298  1.00  0.00     0.016 C 
BRANCH   3   5
ATOM      5  C   UNL     1      -7.550  38.256  43.991  1.00  0.00     0.015 C 
BRANCH   5   6
ATOM      6  C   UNL     1      -8.343  37.567  45.121  1.00  0.00     0.028 C 
BRANCH   6   7
ATOM      7  C   UNL     1      -7.679  37.603  46.479  1.00  0.00    -0.028 C 
ATOM      8  C   UNL     1      -6.937  36.627  47.072  1.00  0.00    -0.070 CG0
ATOM      9  C   UNL     1      -6.231  37.004  48.354  1.00  0.00     0.039 C 
ATOM     10  G   UNL     1      -6.901  35.153  46.665  1.00  0.00     0.000 G0
ENDBRANCH   6   7
ENDBRANCH   5   6
ENDBRANCH   3   5
ENDBRANCH   1   3
BRANCH   1  11
ATOM     11  C   UNL     1      -4.661  36.209  44.003  1.00  0.00     0.087 C 
BRANCH  11  12
ATOM     12  C   UNL     1      -5.759  35.138  44.289  1.00  0.00     0.066 C 
BRANCH  12  13
ATOM     13  C   UNL     1      -5.770  34.689  45.757  1.00  0.00     0.140 C 
ATOM     14  O   UNL     1      -4.957  33.868  46.159  1.00  0.00    -0.299 OA
BRANCH  13  15
ATOM     15  C   UNL     1      -6.884  35.123  46.681  1.00  0.00     0.106 CG0
ATOM     16  G   UNL     1      -6.937  36.605  47.055  1.00  0.00     0.000 G0
ENDBRANCH  13  15
ENDBRANCH  12  13
BRANCH  12  17
ATOM     17  C   UNL     1      -5.758  33.937  43.277  1.00  0.00    -0.006 C 
ATOM     18  C   UNL     1      -7.153  33.737  42.652  1.00  0.00     0.008 C 
ATOM     19  C   UNL     1      -4.744  34.116  42.132  1.00  0.00     0.008 C 
ENDBRANCH  12  17
ENDBRANCH  11  12
ENDBRANCH   1  11
TORSDOF 1
ENDMDL
MODEL 6
REMARK VINA RESULT:    -2.877      1.448      3.898
REMARK INTER + INTRA:          -4.791
REMARK INTER:                  -4.451
REMARK INTRA:                  -0.340
REMARK UNBOUND:                -0.400
REMARK SMILES CC1=CCC[C@H](C)C(=O)C[C@@H](C(C)C)C(=O)C1
REMARK SMILES IDX 8 1 9 2 6 3 7 4 5 5 4 6 3 7 2 8 1 9 10 11 11 12 15 13 16 14
REMARK SMILES IDX 17 15 12 17 13 18 14 19
REMARK H PARENT
REMARK Flexibility Score: 70.00
ROOT
ATOM      1  C   UNL     1      -4.608  34.660  42.488  1.00  0.00     0.136 C 
ATOM      2  O   UNL     1      -5.233  33.959  41.703  1.00  0.00    -0.299 OA
ENDROOT
BRANCH   1   3
ATOM      3  C   UNL     1      -3.389  35.427  42.007  1.00  0.00     0.053 C 
ATOM      4  C   UNL     1      -2.561  34.632  40.983  1.00  0.00     0.016 C 
BRANCH   3   5
ATOM      5  C   UNL     1      -3.774  36.821  41.432  1.00  0.00     0.015 C 
BRANCH   5   6
ATOM      6  C   UNL     1      -3.687  37.927  42.504  1.00  0.00     0.028 C 
BRANCH   6   7
ATOM      7  C   UNL     1      -4.976  38.679  42.750  1.00  0.00    -0.028 C 
ATOM      8  C   UNL     1      -5.806  38.584  43.825  1.00  0.00    -0.070 CG0
ATOM      9  C   UNL     1      -6.928  39.595  43.900  1.00  0.00     0.039 C 
ATOM     10  G   UNL     1      -5.819  37.452  44.853  1.00  0.00     0.000 G0
ENDBRANCH   6   7
ENDBRANCH   5   6
ENDBRANCH   3   5
ENDBRANCH   1   3
BRANCH   1  11
ATOM     11  C   UNL     1      -5.131  34.784  43.907  1.00  0.00     0.087 C 
BRANCH  11  12
ATOM     12  C   UNL     1      -6.656  35.070  44.068  1.00  0.00     0.066 C 
BRANCH  12  13
ATOM     13  C   UNL     1      -6.929  36.419  44.748  1.00  0.00     0.140 C 
ATOM     14  O   UNL     1      -8.066  36.726  45.080  1.00  0.00    -0.299 OA
BRANCH  13  15
ATOM     15  C   UNL     1      -5.833  37.453  44.864  1.00  0.00     0.106 CG0
ATOM     16  G   UNL     1      -5.833  38.583  43.833  1.00  0.00     0.000 G0
ENDBRANCH  13  15
ENDBRANCH  12  13
BRANCH  12  17
ATOM     17  C   UNL     1      -7.464  33.884  44.705  1.00  0.00    -0.006 C 
ATOM     18  C   UNL     1      -8.185  33.059  43.620  1.00  0.00     0.008 C 
ATOM     19  C   UNL     1      -6.581  32.925  45.525  1.00  0.00     0.008 C 
ENDBRANCH  12  17
ENDBRANCH  11  12
ENDBRANCH   1  11
TORSDOF 1
ENDMDL
MODEL 7
REMARK VINA RESULT:    -2.862      1.939      4.411
REMARK INTER + INTRA:          -4.767
REMARK INTER:                  -4.314
REMARK INTRA:                  -0.453
REMARK UNBOUND:                -0.400
REMARK SMILES CC1=CCC[C@H](C)C(=O)C[C@@H](C(C)C)C(=O)C1
REMARK SMILES IDX 8 1 9 2 6 3 7 4 5 5 4 6 3 7 2 8 1 9 10 11 11 12 15 13 16 14
REMARK SMILES IDX 17 15 12 17 13 18 14 19
REMARK H PARENT
REMARK Flexibility Score: 70.00
ROOT
ATOM      1  C   UNL     1      -3.987  34.821  42.034  1.00  0.00     0.136 C 
ATOM      2  O   UNL     1      -4.838  34.141  41.478  1.00  0.00    -0.299 OA
ENDROOT
BRANCH   1   3
ATOM      3  C   UNL     1      -2.731  35.222  41.281  1.00  0.00     0.053 C 
ATOM      4  C   UNL     1      -1.804  34.026  41.005  1.00  0.00     0.016 C 
BRANCH   3   5
ATOM      5  C   UNL     1      -3.066  35.969  39.957  1.00  0.00     0.015 C 
BRANCH   5   6
ATOM      6  C   UNL     1      -3.837  37.279  40.216  1.00  0.00     0.028 C 
BRANCH   6   7
ATOM      7  C   UNL     1      -3.181  38.219  41.203  1.00  0.00    -0.028 C 
ATOM      8  C   UNL     1      -3.659  38.630  42.410  1.00  0.00    -0.070 CG0
ATOM      9  C   UNL     1      -2.708  39.422  43.276  1.00  0.00     0.039 C 
ATOM     10  G   UNL     1      -5.109  38.522  42.886  1.00  0.00     0.000 G0
ENDBRANCH   6   7
ENDBRANCH   5   6
ENDBRANCH   3   5
ENDBRANCH   1   3
BRANCH   1  11
ATOM     11  C   UNL     1      -4.264  35.295  43.449  1.00  0.00     0.087 C 
BRANCH  11  12
ATOM     12  C   UNL     1      -5.615  36.039  43.685  1.00  0.00     0.066 C 
BRANCH  12  13
ATOM     13  C   UNL     1      -5.414  37.528  44.002  1.00  0.00     0.140 C 
ATOM     14  O   UNL     1      -5.621  37.953  45.130  1.00  0.00    -0.299 OA
BRANCH  13  15
ATOM     15  C   UNL     1      -5.125  38.513  42.894  1.00  0.00     0.106 CG0
ATOM     16  G   UNL     1      -3.675  38.619  42.419  1.00  0.00     0.000 G0
ENDBRANCH  13  15
ENDBRANCH  12  13
BRANCH  12  17
ATOM     17  C   UNL     1      -6.574  35.317  44.697  1.00  0.00    -0.006 C 
ATOM     18  C   UNL     1      -7.632  34.477  43.954  1.00  0.00     0.008 C 
ATOM     19  C   UNL     1      -5.829  34.390  45.675  1.00  0.00     0.008 C 
ENDBRANCH  12  17
ENDBRANCH  11  12
ENDBRANCH   1  11
TORSDOF 1
ENDMDL
MODEL 8
REMARK VINA RESULT:    -2.828     12.121     13.916
REMARK INTER + INTRA:          -4.716
REMARK INTER:                  -4.280
REMARK INTRA:                  -0.436
REMARK UNBOUND:                -0.400
REMARK SMILES CC1=CCC[C@H](C)C(=O)C[C@@H](C(C)C)C(=O)C1
REMARK SMILES IDX 8 1 9 2 6 3 7 4 5 5 4 6 3 7 2 8 1 9 10 11 11 12 15 13 16 14
REMARK SMILES IDX 17 15 12 17 13 18 14 19
REMARK H PARENT
REMARK Flexibility Score: 70.00
ROOT
ATOM      1  C   UNL     1      -6.504  29.388  57.881  1.00  0.00     0.136 C 
ATOM      2  O   UNL     1      -5.449  28.849  57.574  1.00  0.00    -0.299 OA
ENDROOT
BRANCH   1   3
ATOM      3  C   UNL     1      -6.519  30.452  58.965  1.00  0.00     0.053 C 
ATOM      4  C   UNL     1      -5.122  31.038  59.232  1.00  0.00     0.016 C 
BRANCH   3   5
ATOM      5  C   UNL     1      -7.534  31.588  58.644  1.00  0.00     0.015 C 
BRANCH   5   6
ATOM      6  C   UNL     1      -6.972  32.584  57.609  1.00  0.00     0.028 C 
BRANCH   6   7
ATOM      7  C   UNL     1      -8.017  33.341  56.821  1.00  0.00    -0.028 C 
ATOM      8  C   UNL     1      -8.688  32.927  55.711  1.00  0.00    -0.070 CG0
ATOM      9  C   UNL     1      -9.819  33.812  55.239  1.00  0.00     0.039 C 
ATOM     10  G   UNL     1      -8.291  31.761  54.804  1.00  0.00     0.000 G0
ENDBRANCH   6   7
ENDBRANCH   5   6
ENDBRANCH   3   5
ENDBRANCH   1   3
BRANCH   1  11
ATOM     11  C   UNL     1      -7.752  29.010  57.105  1.00  0.00     0.087 C 
BRANCH  11  12
ATOM     12  C   UNL     1      -7.736  29.300  55.573  1.00  0.00     0.066 C 
BRANCH  12  13
ATOM     13  C   UNL     1      -8.762  30.369  55.170  1.00  0.00     0.140 C 
ATOM     14  O   UNL     1      -9.941  30.073  55.027  1.00  0.00    -0.299 OA
BRANCH  13  15
ATOM     15  C   UNL     1      -8.307  31.756  54.780  1.00  0.00     0.106 CG0
ATOM     16  G   UNL     1      -8.692  32.902  55.717  1.00  0.00     0.000 G0
ENDBRANCH  13  15
ENDBRANCH  12  13
BRANCH  12  17
ATOM     17  C   UNL     1      -7.805  28.012  54.678  1.00  0.00    -0.006 C 
ATOM     18  C   UNL     1      -7.522  28.347  53.200  1.00  0.00     0.008 C 
ATOM     19  C   UNL     1      -6.811  26.920  55.118  1.00  0.00     0.008 C 
ENDBRANCH  12  17
ENDBRANCH  11  12
ENDBRANCH   1  11
TORSDOF 1
ENDMDL
MODEL 9
REMARK VINA RESULT:    -2.531      2.282      5.802
REMARK INTER + INTRA:          -4.263
REMARK INTER:                  -3.930
REMARK INTRA:                  -0.333
REMARK UNBOUND:                -0.400
REMARK SMILES CC1=CCC[C@H](C)C(=O)C[C@@H](C(C)C)C(=O)C1
REMARK SMILES IDX 8 1 9 2 6 3 7 4 5 5 4 6 3 7 2 8 1 9 10 11 11 12 15 13 16 14
REMARK SMILES IDX 17 15 12 17 13 18 14 19
REMARK H PARENT
REMARK Flexibility Score: 70.00
ROOT
ATOM      1  C   UNL     1      -3.054  35.742  40.652  1.00  0.00     0.136 C 
ATOM      2  O   UNL     1      -2.085  36.069  39.981  1.00  0.00    -0.299 OA
ENDROOT
BRANCH   1   3
ATOM      3  C   UNL     1      -3.214  34.297  41.093  1.00  0.00     0.053 C 
ATOM      4  C   UNL     1      -2.090  33.845  42.041  1.00  0.00     0.016 C 
BRANCH   3   5
ATOM      5  C   UNL     1      -4.607  34.041  41.737  1.00  0.00     0.015 C 
BRANCH   5   6
ATOM      6  C   UNL     1      -4.487  33.635  43.220  1.00  0.00     0.028 C 
BRANCH   6   7
ATOM      7  C   UNL     1      -5.670  34.012  44.082  1.00  0.00    -0.028 C 
ATOM      8  C   UNL     1      -6.009  35.249  44.540  1.00  0.00    -0.070 CG0
ATOM      9  C   UNL     1      -7.353  35.369  45.223  1.00  0.00     0.039 C 
ATOM     10  G   UNL     1      -5.091  36.471  44.590  1.00  0.00     0.000 G0
ENDBRANCH   6   7
ENDBRANCH   5   6
ENDBRANCH   3   5
ENDBRANCH   1   3
BRANCH   1  11
ATOM     11  C   UNL     1      -4.027  36.826  41.076  1.00  0.00     0.087 C 
BRANCH  11  12
ATOM     12  C   UNL     1      -3.811  37.445  42.492  1.00  0.00     0.066 C 
BRANCH  12  13
ATOM     13  C   UNL     1      -5.072  37.362  43.365  1.00  0.00     0.140 C 
ATOM     14  O   UNL     1      -6.018  38.109  43.157  1.00  0.00    -0.299 OA
BRANCH  13  15
ATOM     15  C   UNL     1      -5.096  36.480  44.591  1.00  0.00     0.106 CG0
ATOM     16  G   UNL     1      -6.014  35.258  44.550  1.00  0.00     0.000 G0
ENDBRANCH  13  15
ENDBRANCH  12  13
BRANCH  12  17
ATOM     17  C   UNL     1      -3.168  38.877  42.472  1.00  0.00    -0.006 C 
ATOM     18  C   UNL     1      -3.056  39.454  43.898  1.00  0.00     0.008 C 
ATOM     19  C   UNL     1      -1.765  38.897  41.838  1.00  0.00     0.008 C 
ENDBRANCH  12  17
ENDBRANCH  11  12
ENDBRANCH   1  11
TORSDOF 1
ENDMDL
