MODEL 1
REMARK VINA RESULT:    -4.451      0.000      0.000
REMARK INTER + INTRA:          -7.086
REMARK INTER:                  -6.012
REMARK INTRA:                  -1.074
REMARK UNBOUND:                -1.074
REMARK SMILES CC(=O)CCC=C(C)CCC=C(C)C
REMARK SMILES IDX 7 1 6 2 8 3 9 4 10 5 11 6 13 7 12 8 14 9 5 10 4 11 2 12 3 13
REMARK SMILES IDX 1 14
REMARK H PARENT
REMARK Flexibility Score: inf
ROOT
ATOM      1  C   UNL     1       4.868  -2.260  -2.755  1.00  0.00    -0.077 C 
ATOM      2  C   UNL     1       5.884  -2.325  -3.645  1.00  0.00    -0.028 C 
ATOM      3  C   UNL     1       4.094  -3.489  -2.338  1.00  0.00     0.039 C 
ENDROOT
BRANCH   1   4
ATOM      4  C   UNL     1       4.504  -0.921  -2.153  1.00  0.00     0.034 C 
BRANCH   4   5
ATOM      5  C   UNL     1       5.540  -0.493  -1.107  1.00  0.00     0.032 C 
BRANCH   5   6
ATOM      6  C   UNL     1       5.042  -0.752   0.295  1.00  0.00    -0.028 C 
ATOM      7  C   UNL     1       4.845  -1.998   2.406  1.00  0.00     0.039 C 
ATOM      8  C   UNL     1       5.400  -1.836   1.015  1.00  0.00    -0.080 C 
ATOM      9  C   UNL     1       6.340  -2.880   0.457  1.00  0.00     0.039 C 
ENDBRANCH   5   6
ENDBRANCH   4   5
ENDBRANCH   1   4
BRANCH   2  10
ATOM     10  C   UNL     1       6.326  -3.584  -4.353  1.00  0.00     0.035 C 
BRANCH  10  11
ATOM     11  C   UNL     1       5.817  -3.634  -5.799  1.00  0.00     0.079 C 
BRANCH  11  12
ATOM     12  C   UNL     1       4.487  -4.335  -5.895  1.00  0.00     0.130 C 
ATOM     13  O   UNL     1       4.444  -5.556  -5.869  1.00  0.00    -0.300 OA
ATOM     14  C   UNL     1       3.208  -3.557  -5.982  1.00  0.00     0.087 C 
ENDBRANCH  11  12
ENDBRANCH  10  11
ENDBRANCH   2  10
TORSDOF 6
ENDMDL
MODEL 2
REMARK VINA RESULT:    -4.403      2.982      5.143
REMARK INTER + INTRA:          -7.021
REMARK INTER:                  -5.637
REMARK INTRA:                  -1.384
REMARK UNBOUND:                -1.074
REMARK SMILES CC(=O)CCC=C(C)CCC=C(C)C
REMARK SMILES IDX 7 1 6 2 8 3 9 4 10 5 11 6 13 7 12 8 14 9 5 10 4 11 2 12 3 13
REMARK SMILES IDX 1 14
REMARK H PARENT
REMARK Flexibility Score: inf
ROOT
ATOM      1  C   UNL     1       5.070  -2.626  -3.037  1.00  0.00    -0.077 C 
ATOM      2  C   UNL     1       5.092  -1.455  -2.361  1.00  0.00    -0.028 C 
ATOM      3  C   UNL     1       4.226  -3.794  -2.582  1.00  0.00     0.039 C 
ENDROOT
BRANCH   1   4
ATOM      4  C   UNL     1       5.906  -2.766  -4.290  1.00  0.00     0.034 C 
BRANCH   4   5
ATOM      5  C   UNL     1       7.378  -2.444  -4.004  1.00  0.00     0.032 C 
BRANCH   5   6
ATOM      6  C   UNL     1       7.939  -3.352  -2.935  1.00  0.00    -0.028 C 
ATOM      7  C   UNL     1       9.044  -3.882  -0.804  1.00  0.00     0.039 C 
ATOM      8  C   UNL     1       8.518  -2.889  -1.807  1.00  0.00    -0.080 C 
ATOM      9  C   UNL     1       8.646  -1.409  -1.534  1.00  0.00     0.039 C 
ENDBRANCH   5   6
ENDBRANCH   4   5
ENDBRANCH   1   4
BRANCH   2  10
ATOM     10  C   UNL     1       4.341  -1.191  -1.077  1.00  0.00     0.035 C 
BRANCH  10  11
ATOM     11  C   UNL     1       5.282  -0.757   0.055  1.00  0.00     0.079 C 
BRANCH  11  12
ATOM     12  C   UNL     1       5.411  -1.826   1.108  1.00  0.00     0.130 C 
ATOM     13  O   UNL     1       5.258  -1.536   2.285  1.00  0.00    -0.300 OA
ATOM     14  C   UNL     1       5.687  -3.252   0.733  1.00  0.00     0.087 C 
ENDBRANCH  11  12
ENDBRANCH  10  11
ENDBRANCH   2  10
TORSDOF 6
ENDMDL
MODEL 3
REMARK VINA RESULT:    -4.361      1.688      2.746
REMARK INTER + INTRA:          -6.964
REMARK INTER:                  -6.046
REMARK INTRA:                  -0.917
REMARK UNBOUND:                -1.074
REMARK SMILES CC(=O)CCC=C(C)CCC=C(C)C
REMARK SMILES IDX 7 1 6 2 8 3 9 4 10 5 11 6 13 7 12 8 14 9 5 10 4 11 2 12 3 13
REMARK SMILES IDX 1 14
REMARK H PARENT
REMARK Flexibility Score: inf
ROOT
ATOM      1  C   UNL     1       5.437  -4.374  -1.119  1.00  0.00    -0.077 C 
ATOM      2  C   UNL     1       4.416  -4.133  -1.972  1.00  0.00    -0.028 C 
ATOM      3  C   UNL     1       6.777  -4.880  -1.602  1.00  0.00     0.039 C 
ENDROOT
BRANCH   1   4
ATOM      4  C   UNL     1       5.236  -4.119   0.359  1.00  0.00     0.034 C 
BRANCH   4   5
ATOM      5  C   UNL     1       5.914  -2.811   0.784  1.00  0.00     0.032 C 
BRANCH   5   6
ATOM      6  C   UNL     1       5.191  -1.611   0.220  1.00  0.00    -0.028 C 
ATOM      7  C   UNL     1       4.907   0.351  -1.235  1.00  0.00     0.039 C 
ATOM      8  C   UNL     1       5.714  -0.823  -0.742  1.00  0.00    -0.080 C 
ATOM      9  C   UNL     1       7.079  -1.092  -1.330  1.00  0.00     0.039 C 
ENDBRANCH   5   6
ENDBRANCH   4   5
ENDBRANCH   1   4
BRANCH   2  10
ATOM     10  C   UNL     1       4.464  -4.382  -3.461  1.00  0.00     0.035 C 
BRANCH  10  11
ATOM     11  C   UNL     1       4.157  -3.110  -4.263  1.00  0.00     0.079 C 
BRANCH  11  12
ATOM     12  C   UNL     1       3.223  -3.391  -5.411  1.00  0.00     0.130 C 
ATOM     13  O   UNL     1       2.081  -3.763  -5.185  1.00  0.00    -0.300 OA
ATOM     14  C   UNL     1       3.661  -3.184  -6.831  1.00  0.00     0.087 C 
ENDBRANCH  11  12
ENDBRANCH  10  11
ENDBRANCH   2  10
TORSDOF 6
ENDMDL
MODEL 4
REMARK VINA RESULT:    -4.251      2.842      5.828
REMARK INTER + INTRA:          -6.816
REMARK INTER:                  -5.921
REMARK INTRA:                  -0.895
REMARK UNBOUND:                -1.074
REMARK SMILES CC(=O)CCC=C(C)CCC=C(C)C
REMARK SMILES IDX 7 1 6 2 8 3 9 4 10 5 11 6 13 7 12 8 14 9 5 10 4 11 2 12 3 13
REMARK SMILES IDX 1 14
REMARK H PARENT
REMARK Flexibility Score: inf
ROOT
ATOM      1  C   UNL     1       7.446  -1.831  -2.516  1.00  0.00    -0.077 C 
ATOM      2  C   UNL     1       6.272  -1.478  -1.947  1.00  0.00    -0.028 C 
ATOM      3  C   UNL     1       8.774  -1.515  -1.867  1.00  0.00     0.039 C 
ENDROOT
BRANCH   1   4
ATOM      4  C   UNL     1       7.429  -2.575  -3.834  1.00  0.00     0.034 C 
BRANCH   4   5
ATOM      5  C   UNL     1       6.523  -3.809  -3.752  1.00  0.00     0.032 C 
BRANCH   5   6
ATOM      6  C   UNL     1       5.311  -3.657  -4.641  1.00  0.00    -0.028 C 
ATOM      7  C   UNL     1       2.908  -3.614  -5.160  1.00  0.00     0.039 C 
ATOM      8  C   UNL     1       4.046  -3.787  -4.188  1.00  0.00    -0.080 C 
ATOM      9  C   UNL     1       3.753  -4.096  -2.739  1.00  0.00     0.039 C 
ENDBRANCH   5   6
ENDBRANCH   4   5
ENDBRANCH   1   4
BRANCH   2  10
ATOM     10  C   UNL     1       6.142  -0.699  -0.659  1.00  0.00     0.035 C 
BRANCH  10  11
ATOM     11  C   UNL     1       4.929  -1.154   0.164  1.00  0.00     0.079 C 
BRANCH  11  12
ATOM     12  C   UNL     1       5.325  -2.129   1.242  1.00  0.00     0.130 C 
ATOM     13  O   UNL     1       5.398  -1.751   2.402  1.00  0.00    -0.300 OA
ATOM     14  C   UNL     1       5.593  -3.569   0.920  1.00  0.00     0.087 C 
ENDBRANCH  11  12
ENDBRANCH  10  11
ENDBRANCH   2  10
TORSDOF 6
ENDMDL
MODEL 5
REMARK VINA RESULT:    -4.218     14.137     15.430
REMARK INTER + INTRA:          -6.771
REMARK INTER:                  -5.788
REMARK INTRA:                  -0.983
REMARK UNBOUND:                -1.074
REMARK SMILES CC(=O)CCC=C(C)CCC=C(C)C
REMARK SMILES IDX 7 1 6 2 8 3 9 4 10 5 11 6 13 7 12 8 14 9 5 10 4 11 2 12 3 13
REMARK SMILES IDX 1 14
REMARK H PARENT
REMARK Flexibility Score: inf
ROOT
ATOM      1  C   UNL     1      -6.482   4.337   1.348  1.00  0.00    -0.077 C 
ATOM      2  C   UNL     1      -7.468   3.419   1.228  1.00  0.00    -0.028 C 
ATOM      3  C   UNL     1      -5.109   4.116   0.755  1.00  0.00     0.039 C 
ENDROOT
BRANCH   1   4
ATOM      4  C   UNL     1      -6.765   5.628   2.086  1.00  0.00     0.034 C 
BRANCH   4   5
ATOM      5  C   UNL     1      -8.073   6.260   1.598  1.00  0.00     0.032 C 
BRANCH   5   6
ATOM      6  C   UNL     1      -7.866   7.020   0.309  1.00  0.00    -0.028 C 
ATOM      7  C   UNL     1      -8.223   7.533  -2.069  1.00  0.00     0.039 C 
ATOM      8  C   UNL     1      -8.502   6.708  -0.840  1.00  0.00    -0.080 C 
ATOM      9  C   UNL     1      -9.480   5.559  -0.915  1.00  0.00     0.039 C 
ENDBRANCH   5   6
ENDBRANCH   4   5
ENDBRANCH   1   4
BRANCH   2  10
ATOM     10  C   UNL     1      -7.312   2.076   0.556  1.00  0.00     0.035 C 
BRANCH  10  11
ATOM     11  C   UNL     1      -8.401   1.837  -0.499  1.00  0.00     0.079 C 
BRANCH  11  12
ATOM     12  C   UNL     1      -9.250   0.640  -0.158  1.00  0.00     0.130 C 
ATOM     13  O   UNL     1      -9.940   0.657   0.851  1.00  0.00    -0.300 OA
ATOM     14  C   UNL     1      -9.293  -0.559  -1.058  1.00  0.00     0.087 C 
ENDBRANCH  11  12
ENDBRANCH  10  11
ENDBRANCH   2  10
TORSDOF 6
ENDMDL
MODEL 6
REMARK VINA RESULT:    -4.132      2.384      4.274
REMARK INTER + INTRA:          -6.655
REMARK INTER:                  -5.275
REMARK INTRA:                  -1.380
REMARK UNBOUND:                -1.074
REMARK SMILES CC(=O)CCC=C(C)CCC=C(C)C
REMARK SMILES IDX 7 1 6 2 8 3 9 4 10 5 11 6 13 7 12 8 14 9 5 10 4 11 2 12 3 13
REMARK SMILES IDX 1 14
REMARK H PARENT
REMARK Flexibility Score: inf
ROOT
ATOM      1  C   UNL     1       6.942  -1.604  -0.855  1.00  0.00    -0.077 C 
ATOM      2  C   UNL     1       8.033  -1.145  -1.509  1.00  0.00    -0.028 C 
ATOM      3  C   UNL     1       6.911  -2.976  -0.221  1.00  0.00     0.039 C 
ENDROOT
BRANCH   1   4
ATOM      4  C   UNL     1       5.723  -0.715  -0.747  1.00  0.00     0.034 C 
BRANCH   4   5
ATOM      5  C   UNL     1       4.483  -1.416  -1.315  1.00  0.00     0.032 C 
BRANCH   5   6
ATOM      6  C   UNL     1       4.667  -1.755  -2.775  1.00  0.00    -0.028 C 
ATOM      7  C   UNL     1       4.683  -3.224  -4.747  1.00  0.00     0.039 C 
ATOM      8  C   UNL     1       4.473  -2.994  -3.272  1.00  0.00    -0.080 C 
ATOM      9  C   UNL     1       4.052  -4.144  -2.388  1.00  0.00     0.039 C 
ENDBRANCH   5   6
ENDBRANCH   4   5
ENDBRANCH   1   4
BRANCH   2  10
ATOM     10  C   UNL     1       9.300  -1.939  -1.728  1.00  0.00     0.035 C 
BRANCH  10  11
ATOM     11  C   UNL     1       9.641  -2.069  -3.218  1.00  0.00     0.079 C 
BRANCH  11  12
ATOM     12  C   UNL     1       8.563  -2.803  -3.971  1.00  0.00     0.130 C 
ATOM     13  O   UNL     1       8.064  -2.293  -4.963  1.00  0.00    -0.300 OA
ATOM     14  C   UNL     1       8.119  -4.172  -3.546  1.00  0.00     0.087 C 
ENDBRANCH  11  12
ENDBRANCH  10  11
ENDBRANCH   2  10
TORSDOF 6
ENDMDL
MODEL 7
REMARK VINA RESULT:    -4.114      2.201      3.701
REMARK INTER + INTRA:          -6.631
REMARK INTER:                  -5.247
REMARK INTRA:                  -1.384
REMARK UNBOUND:                -1.074
REMARK SMILES CC(=O)CCC=C(C)CCC=C(C)C
REMARK SMILES IDX 7 1 6 2 8 3 9 4 10 5 11 6 13 7 12 8 14 9 5 10 4 11 2 12 3 13
REMARK SMILES IDX 1 14
REMARK H PARENT
REMARK Flexibility Score: inf
ROOT
ATOM      1  C   UNL     1       5.189  -2.791  -0.456  1.00  0.00    -0.077 C 
ATOM      2  C   UNL     1       4.522  -2.942  -1.623  1.00  0.00    -0.028 C 
ATOM      3  C   UNL     1       5.546  -3.972   0.417  1.00  0.00     0.039 C 
ENDROOT
BRANCH   1   4
ATOM      4  C   UNL     1       5.601  -1.402  -0.019  1.00  0.00     0.034 C 
BRANCH   4   5
ATOM      5  C   UNL     1       6.375  -0.686  -1.133  1.00  0.00     0.032 C 
BRANCH   5   6
ATOM      6  C   UNL     1       7.803  -1.172  -1.206  1.00  0.00    -0.028 C 
ATOM      7  C   UNL     1       9.740  -2.281  -2.237  1.00  0.00     0.039 C 
ATOM      8  C   UNL     1       8.299  -1.842  -2.267  1.00  0.00    -0.080 C 
ATOM      9  C   UNL     1       7.446  -2.155  -3.473  1.00  0.00     0.039 C 
ENDBRANCH   5   6
ENDBRANCH   4   5
ENDBRANCH   1   4
BRANCH   2  10
ATOM     10  C   UNL     1       4.017  -4.261  -2.158  1.00  0.00     0.035 C 
BRANCH  10  11
ATOM     11  C   UNL     1       4.800  -4.711  -3.398  1.00  0.00     0.079 C 
BRANCH  11  12
ATOM     12  C   UNL     1       5.731  -5.852  -3.080  1.00  0.00     0.130 C 
ATOM     13  O   UNL     1       5.383  -7.000  -3.311  1.00  0.00    -0.300 OA
ATOM     14  C   UNL     1       7.100  -5.599  -2.521  1.00  0.00     0.087 C 
ENDBRANCH  11  12
ENDBRANCH  10  11
ENDBRANCH   2  10
TORSDOF 6
ENDMDL
MODEL 8
REMARK VINA RESULT:    -4.091      1.444      2.986
REMARK INTER + INTRA:          -6.599
REMARK INTER:                  -5.457
REMARK INTRA:                  -1.142
REMARK UNBOUND:                -1.074
REMARK SMILES CC(=O)CCC=C(C)CCC=C(C)C
REMARK SMILES IDX 7 1 6 2 8 3 9 4 10 5 11 6 13 7 12 8 14 9 5 10 4 11 2 12 3 13
REMARK SMILES IDX 1 14
REMARK H PARENT
REMARK Flexibility Score: inf
ROOT
ATOM      1  C   UNL     1       5.494  -4.144  -0.633  1.00  0.00    -0.077 C 
ATOM      2  C   UNL     1       4.441  -4.108  -1.481  1.00  0.00    -0.028 C 
ATOM      3  C   UNL     1       6.876  -4.546  -1.095  1.00  0.00     0.039 C 
ENDROOT
BRANCH   1   4
ATOM      4  C   UNL     1       5.285  -3.761   0.815  1.00  0.00     0.034 C 
BRANCH   4   5
ATOM      5  C   UNL     1       5.768  -2.329   1.076  1.00  0.00     0.032 C 
BRANCH   5   6
ATOM      6  C   UNL     1       4.998  -1.331   0.244  1.00  0.00    -0.028 C 
ATOM      7  C   UNL     1       4.687   0.317  -1.554  1.00  0.00     0.039 C 
ATOM      8  C   UNL     1       5.546  -0.655  -0.788  1.00  0.00    -0.080 C 
ATOM      9  C   UNL     1       6.990  -0.855  -1.185  1.00  0.00     0.039 C 
ENDBRANCH   5   6
ENDBRANCH   4   5
ENDBRANCH   1   4
BRANCH   2  10
ATOM     10  C   UNL     1       4.497  -4.503  -2.937  1.00  0.00     0.035 C 
BRANCH  10  11
ATOM     11  C   UNL     1       4.183  -3.320  -3.863  1.00  0.00     0.079 C 
BRANCH  11  12
ATOM     12  C   UNL     1       5.294  -3.079  -4.851  1.00  0.00     0.130 C 
ATOM     13  O   UNL     1       5.085  -3.232  -6.045  1.00  0.00    -0.300 OA
ATOM     14  C   UNL     1       6.646  -2.615  -4.396  1.00  0.00     0.087 C 
ENDBRANCH  11  12
ENDBRANCH  10  11
ENDBRANCH   2  10
TORSDOF 6
ENDMDL
MODEL 9
REMARK VINA RESULT:    -4.083      1.428      2.207
REMARK INTER + INTRA:          -6.589
REMARK INTER:                  -5.422
REMARK INTRA:                  -1.167
REMARK UNBOUND:                -1.074
REMARK SMILES CC(=O)CCC=C(C)CCC=C(C)C
REMARK SMILES IDX 7 1 6 2 8 3 9 4 10 5 11 6 13 7 12 8 14 9 5 10 4 11 2 12 3 13
REMARK SMILES IDX 1 14
REMARK H PARENT
REMARK Flexibility Score: inf
ROOT
ATOM      1  C   UNL     1       6.252  -3.372  -3.054  1.00  0.00    -0.077 C 
ATOM      2  C   UNL     1       5.479  -2.700  -3.937  1.00  0.00    -0.028 C 
ATOM      3  C   UNL     1       5.807  -4.680  -2.439  1.00  0.00     0.039 C 
ENDROOT
BRANCH   1   4
ATOM      4  C   UNL     1       7.604  -2.806  -2.680  1.00  0.00     0.034 C 
BRANCH   4   5
ATOM      5  C   UNL     1       7.454  -1.448  -1.984  1.00  0.00     0.032 C 
BRANCH   5   6
ATOM      6  C   UNL     1       6.783  -1.594  -0.639  1.00  0.00    -0.028 C 
ATOM      7  C   UNL     1       5.023  -1.221   1.037  1.00  0.00     0.039 C 
ATOM      8  C   UNL     1       5.605  -1.009  -0.337  1.00  0.00    -0.080 C 
ATOM      9  C   UNL     1       4.866  -0.156  -1.341  1.00  0.00     0.039 C 
ENDBRANCH   5   6
ENDBRANCH   4   5
ENDBRANCH   1   4
BRANCH   2  10
ATOM     10  C   UNL     1       4.096  -3.127  -4.366  1.00  0.00     0.035 C 
BRANCH  10  11
ATOM     11  C   UNL     1       4.038  -3.451  -5.865  1.00  0.00     0.079 C 
BRANCH  11  12
ATOM     12  C   UNL     1       4.832  -4.688  -6.195  1.00  0.00     0.130 C 
ATOM     13  O   UNL     1       4.570  -5.742  -5.636  1.00  0.00    -0.300 OA
ATOM     14  C   UNL     1       5.916  -4.656  -7.232  1.00  0.00     0.087 C 
ENDBRANCH  11  12
ENDBRANCH  10  11
ENDBRANCH   2  10
TORSDOF 6
ENDMDL
