MODEL 1
REMARK VINA RESULT:    -3.702      0.000      0.000
REMARK INTER + INTRA:          -4.351
REMARK INTER:                  -4.135
REMARK INTRA:                  -0.216
REMARK UNBOUND:                -0.216
REMARK SMILES O=C([O-])c1ccccc1C(=O)[O-]
REMARK SMILES IDX 4 1 9 2 5 3 8 4 6 5 7 6 2 7 1 8 3 9 10 10 11 11 12 12
REMARK H PARENT
REMARK Flexibility Score: inf
ROOT
ATOM      1  C   UNL     1      23.592  30.402   4.826  1.00  0.00     0.006 A 
ATOM      2  C   UNL     1      22.617  29.802   3.983  1.00  0.00     0.006 A 
ATOM      3  C   UNL     1      23.675  31.806   4.885  1.00  0.00     0.010 A 
ATOM      4  C   UNL     1      21.805  30.625   3.179  1.00  0.00     0.010 A 
ATOM      5  C   UNL     1      22.844  32.604   4.096  1.00  0.00     0.001 A 
ATOM      6  C   UNL     1      21.921  32.014   3.237  1.00  0.00     0.001 A 
ENDROOT
BRANCH   1   7
ATOM      7  C   UNL     1      24.580  29.617   5.602  1.00  0.00     0.072 C 
ATOM      8  O   UNL     1      25.739  29.418   5.154  1.00  0.00    -0.545 OA
ATOM      9  O   UNL     1      24.257  29.147   6.870  1.00  0.00    -0.545 OA
ENDBRANCH   1   7
BRANCH   2  10
ATOM     10  C   UNL     1      22.366  28.343   3.962  1.00  0.00     0.072 C 
ATOM     11  O   UNL     1      22.766  27.644   2.993  1.00  0.00    -0.545 OA
ATOM     12  O   UNL     1      21.631  27.735   4.974  1.00  0.00    -0.545 OA
ENDBRANCH   2  10
TORSDOF 2
ENDMDL
MODEL 2
REMARK VINA RESULT:    -3.698      0.082      2.867
REMARK INTER + INTRA:          -4.346
REMARK INTER:                  -4.122
REMARK INTRA:                  -0.224
REMARK UNBOUND:                -0.216
REMARK SMILES O=C([O-])c1ccccc1C(=O)[O-]
REMARK SMILES IDX 4 1 9 2 5 3 8 4 6 5 7 6 2 7 1 8 3 9 10 10 11 11 12 12
REMARK H PARENT
REMARK Flexibility Score: inf
ROOT
ATOM      1  C   UNL     1      22.612  29.775   4.034  1.00  0.00     0.006 A 
ATOM      2  C   UNL     1      23.609  30.383   4.844  1.00  0.00     0.006 A 
ATOM      3  C   UNL     1      21.777  30.590   3.247  1.00  0.00     0.010 A 
ATOM      4  C   UNL     1      23.693  31.789   4.887  1.00  0.00     0.010 A 
ATOM      5  C   UNL     1      21.892  31.981   3.289  1.00  0.00     0.001 A 
ATOM      6  C   UNL     1      22.840  32.578   4.116  1.00  0.00     0.001 A 
ENDROOT
BRANCH   1   7
ATOM      7  C   UNL     1      22.358  28.315   4.028  1.00  0.00     0.072 C 
ATOM      8  O   UNL     1      22.849  27.580   3.132  1.00  0.00    -0.545 OA
ATOM      9  O   UNL     1      21.626  27.731   5.054  1.00  0.00    -0.545 OA
ENDBRANCH   1   7
BRANCH   2  10
ATOM     10  C   UNL     1      24.618  29.601   5.594  1.00  0.00     0.072 C 
ATOM     11  O   UNL     1      25.740  29.352   5.076  1.00  0.00    -0.545 OA
ATOM     12  O   UNL     1      24.322  29.076   6.846  1.00  0.00    -0.545 OA
ENDBRANCH   2  10
TORSDOF 2
ENDMDL
MODEL 3
REMARK VINA RESULT:    -3.226      2.449      3.902
REMARK INTER + INTRA:          -3.819
REMARK INTER:                  -3.599
REMARK INTRA:                  -0.221
REMARK UNBOUND:                -0.216
REMARK SMILES O=C([O-])c1ccccc1C(=O)[O-]
REMARK SMILES IDX 4 1 9 2 5 3 8 4 6 5 7 6 2 7 1 8 3 9 10 10 11 11 12 12
REMARK H PARENT
REMARK Flexibility Score: inf
ROOT
ATOM      1  C   UNL     1      25.790  28.531   5.294  1.00  0.00     0.006 A 
ATOM      2  C   UNL     1      25.206  29.455   4.384  1.00  0.00     0.006 A 
ATOM      3  C   UNL     1      27.055  27.989   5.001  1.00  0.00     0.010 A 
ATOM      4  C   UNL     1      25.880  29.755   3.184  1.00  0.00     0.010 A 
ATOM      5  C   UNL     1      27.716  28.318   3.816  1.00  0.00     0.001 A 
ATOM      6  C   UNL     1      27.124  29.189   2.905  1.00  0.00     0.001 A 
ENDROOT
BRANCH   1   7
ATOM      7  C   UNL     1      25.096  28.051   6.512  1.00  0.00     0.072 C 
ATOM      8  O   UNL     1      25.234  28.651   7.609  1.00  0.00    -0.545 OA
ATOM      9  O   UNL     1      24.230  26.967   6.439  1.00  0.00    -0.545 OA
ENDBRANCH   1   7
BRANCH   2  10
ATOM     10  C   UNL     1      23.947  30.178   4.675  1.00  0.00     0.072 C 
ATOM     11  O   UNL     1      23.980  31.327   5.190  1.00  0.00    -0.545 OA
ATOM     12  O   UNL     1      22.714  29.576   4.448  1.00  0.00    -0.545 OA
ENDBRANCH   2  10
TORSDOF 2
ENDMDL
MODEL 4
REMARK VINA RESULT:    -3.003      2.325      3.396
REMARK INTER + INTRA:          -3.570
REMARK INTER:                  -3.346
REMARK INTRA:                  -0.223
REMARK UNBOUND:                -0.216
REMARK SMILES O=C([O-])c1ccccc1C(=O)[O-]
REMARK SMILES IDX 4 1 9 2 5 3 8 4 6 5 7 6 2 7 1 8 3 9 10 10 11 11 12 12
REMARK H PARENT
REMARK Flexibility Score: inf
ROOT
ATOM      1  C   UNL     1      24.962  29.066   5.418  1.00  0.00     0.006 A 
ATOM      2  C   UNL     1      25.817  28.926   4.290  1.00  0.00     0.006 A 
ATOM      3  C   UNL     1      24.006  30.099   5.428  1.00  0.00     0.010 A 
ATOM      4  C   UNL     1      25.730  29.864   3.243  1.00  0.00     0.010 A 
ATOM      5  C   UNL     1      23.922  31.004   4.368  1.00  0.00     0.001 A 
ATOM      6  C   UNL     1      24.790  30.893   3.285  1.00  0.00     0.001 A 
ENDROOT
BRANCH   1   7
ATOM      7  C   UNL     1      25.073  28.214   6.625  1.00  0.00     0.072 C 
ATOM      8  O   UNL     1      24.311  27.225   6.787  1.00  0.00    -0.545 OA
ATOM      9  O   UNL     1      26.068  28.460   7.563  1.00  0.00    -0.545 OA
ENDBRANCH   1   7
BRANCH   2  10
ATOM     10  C   UNL     1      26.754  27.790   4.133  1.00  0.00     0.072 C 
ATOM     11  O   UNL     1      27.985  27.949   4.350  1.00  0.00    -0.545 OA
ATOM     12  O   UNL     1      26.303  26.556   3.681  1.00  0.00    -0.545 OA
ENDBRANCH   2  10
TORSDOF 2
ENDMDL
MODEL 5
REMARK VINA RESULT:    -2.991      2.061      3.262
REMARK INTER + INTRA:          -3.556
REMARK INTER:                  -3.331
REMARK INTRA:                  -0.226
REMARK UNBOUND:                -0.216
REMARK SMILES O=C([O-])c1ccccc1C(=O)[O-]
REMARK SMILES IDX 4 1 9 2 5 3 8 4 6 5 7 6 2 7 1 8 3 9 10 10 11 11 12 12
REMARK H PARENT
REMARK Flexibility Score: inf
ROOT
ATOM      1  C   UNL     1      25.519  29.345   3.855  1.00  0.00     0.006 A 
ATOM      2  C   UNL     1      24.781  29.465   5.065  1.00  0.00     0.006 A 
ATOM      3  C   UNL     1      25.439  30.376   2.900  1.00  0.00     0.010 A 
ATOM      4  C   UNL     1      23.940  30.580   5.248  1.00  0.00     0.010 A 
ATOM      5  C   UNL     1      24.617  31.483   3.112  1.00  0.00     0.001 A 
ATOM      6  C   UNL     1      23.860  31.579   4.277  1.00  0.00     0.001 A 
ENDROOT
BRANCH   1   7
ATOM      7  C   UNL     1      26.320  28.146   3.515  1.00  0.00     0.072 C 
ATOM      8  O   UNL     1      25.803  27.182   2.892  1.00  0.00    -0.545 OA
ATOM      9  O   UNL     1      27.675  28.103   3.822  1.00  0.00    -0.545 OA
ENDBRANCH   1   7
BRANCH   2  10
ATOM     10  C   UNL     1      24.911  28.500   6.180  1.00  0.00     0.072 C 
ATOM     11  O   UNL     1      25.825  28.640   7.036  1.00  0.00    -0.545 OA
ATOM     12  O   UNL     1      24.073  27.393   6.263  1.00  0.00    -0.545 OA
ENDBRANCH   2  10
TORSDOF 2
ENDMDL
MODEL 6
REMARK VINA RESULT:    -2.969      2.474      3.942
REMARK INTER + INTRA:          -3.532
REMARK INTER:                  -3.354
REMARK INTRA:                  -0.178
REMARK UNBOUND:                -0.216
REMARK SMILES O=C([O-])c1ccccc1C(=O)[O-]
REMARK SMILES IDX 4 1 9 2 5 3 8 4 6 5 7 6 2 7 1 8 3 9 10 10 11 11 12 12
REMARK H PARENT
REMARK Flexibility Score: inf
ROOT
ATOM      1  C   UNL     1      24.560  27.935   5.930  1.00  0.00     0.006 A 
ATOM      2  C   UNL     1      23.749  28.881   5.246  1.00  0.00     0.006 A 
ATOM      3  C   UNL     1      24.034  26.660   6.214  1.00  0.00     0.010 A 
ATOM      4  C   UNL     1      22.420  28.541   4.927  1.00  0.00     0.010 A 
ATOM      5  C   UNL     1      22.721  26.337   5.868  1.00  0.00     0.001 A 
ATOM      6  C   UNL     1      21.913  27.279   5.237  1.00  0.00     0.001 A 
ENDROOT
BRANCH   1   7
ATOM      7  C   UNL     1      25.920  28.248   6.428  1.00  0.00     0.072 C 
ATOM      8  O   UNL     1      26.132  28.425   7.656  1.00  0.00    -0.545 OA
ATOM      9  O   UNL     1      26.993  28.285   5.546  1.00  0.00    -0.545 OA
ENDBRANCH   1   7
BRANCH   2  10
ATOM     10  C   UNL     1      24.263  30.191   4.786  1.00  0.00     0.072 C 
ATOM     11  O   UNL     1      23.937  31.248   5.390  1.00  0.00    -0.545 OA
ATOM     12  O   UNL     1      25.055  30.283   3.647  1.00  0.00    -0.545 OA
ENDBRANCH   2  10
TORSDOF 2
ENDMDL
MODEL 7
REMARK VINA RESULT:    -2.891      2.764      3.867
REMARK INTER + INTRA:          -3.445
REMARK INTER:                  -3.244
REMARK INTRA:                  -0.201
REMARK UNBOUND:                -0.216
REMARK SMILES O=C([O-])c1ccccc1C(=O)[O-]
REMARK SMILES IDX 4 1 9 2 5 3 8 4 6 5 7 6 2 7 1 8 3 9 10 10 11 11 12 12
REMARK H PARENT
REMARK Flexibility Score: inf
ROOT
ATOM      1  C   UNL     1      23.990  26.987   5.900  1.00  0.00     0.006 A 
ATOM      2  C   UNL     1      23.099  27.858   5.215  1.00  0.00     0.006 A 
ATOM      3  C   UNL     1      25.198  27.502   6.406  1.00  0.00     0.010 A 
ATOM      4  C   UNL     1      23.478  29.198   5.005  1.00  0.00     0.010 A 
ATOM      5  C   UNL     1      25.543  28.839   6.205  1.00  0.00     0.001 A 
ATOM      6  C   UNL     1      24.691  29.682   5.496  1.00  0.00     0.001 A 
ENDROOT
BRANCH   1   7
ATOM      7  C   UNL     1      23.741  25.534   6.049  1.00  0.00     0.072 C 
ATOM      8  O   UNL     1      23.265  25.068   7.118  1.00  0.00    -0.545 OA
ATOM      9  O   UNL     1      23.968  24.674   4.981  1.00  0.00    -0.545 OA
ENDBRANCH   1   7
BRANCH   2  10
ATOM     10  C   UNL     1      21.750  27.438   4.772  1.00  0.00     0.072 C 
ATOM     11  O   UNL     1      20.822  27.295   5.613  1.00  0.00    -0.545 OA
ATOM     12  O   UNL     1      21.504  27.130   3.439  1.00  0.00    -0.545 OA
ENDBRANCH   2  10
TORSDOF 2
ENDMDL
MODEL 8
REMARK VINA RESULT:    -2.886      2.054      3.968
REMARK INTER + INTRA:          -3.439
REMARK INTER:                  -3.220
REMARK INTRA:                  -0.219
REMARK UNBOUND:                -0.216
REMARK SMILES O=C([O-])c1ccccc1C(=O)[O-]
REMARK SMILES IDX 4 1 9 2 5 3 8 4 6 5 7 6 2 7 1 8 3 9 10 10 11 11 12 12
REMARK H PARENT
REMARK Flexibility Score: inf
ROOT
ATOM      1  C   UNL     1      24.901  28.989   5.141  1.00  0.00     0.006 A 
ATOM      2  C   UNL     1      24.081  27.834   5.263  1.00  0.00     0.006 A 
ATOM      3  C   UNL     1      26.212  28.955   5.652  1.00  0.00     0.010 A 
ATOM      4  C   UNL     1      24.579  26.709   5.949  1.00  0.00     0.010 A 
ATOM      5  C   UNL     1      26.693  27.821   6.309  1.00  0.00     0.001 A 
ATOM      6  C   UNL     1      25.874  26.706   6.467  1.00  0.00     0.001 A 
ENDROOT
BRANCH   1   7
ATOM      7  C   UNL     1      24.419  30.263   4.559  1.00  0.00     0.072 C 
ATOM      8  O   UNL     1      23.956  31.173   5.295  1.00  0.00    -0.545 OA
ATOM      9  O   UNL     1      24.534  30.494   3.193  1.00  0.00    -0.545 OA
ENDBRANCH   1   7
BRANCH   2  10
ATOM     10  C   UNL     1      22.744  27.732   4.635  1.00  0.00     0.072 C 
ATOM     11  O   UNL     1      21.704  27.827   5.340  1.00  0.00    -0.545 OA
ATOM     12  O   UNL     1      22.616  27.465   3.277  1.00  0.00    -0.545 OA
ENDBRANCH   2  10
TORSDOF 2
ENDMDL
MODEL 9
REMARK VINA RESULT:    -2.880      2.746      4.326
REMARK INTER + INTRA:          -3.432
REMARK INTER:                  -3.235
REMARK INTRA:                  -0.197
REMARK UNBOUND:                -0.216
REMARK SMILES O=C([O-])c1ccccc1C(=O)[O-]
REMARK SMILES IDX 4 1 9 2 5 3 8 4 6 5 7 6 2 7 1 8 3 9 10 10 11 11 12 12
REMARK H PARENT
REMARK Flexibility Score: inf
ROOT
ATOM      1  C   UNL     1      23.141  27.841   5.211  1.00  0.00     0.006 A 
ATOM      2  C   UNL     1      24.050  27.014   5.927  1.00  0.00     0.006 A 
ATOM      3  C   UNL     1      23.495  29.177   4.947  1.00  0.00     0.010 A 
ATOM      4  C   UNL     1      25.251  27.571   6.408  1.00  0.00     0.010 A 
ATOM      5  C   UNL     1      24.700  29.703   5.414  1.00  0.00     0.001 A 
ATOM      6  C   UNL     1      25.570  28.905   6.153  1.00  0.00     0.001 A 
ENDROOT
BRANCH   1   7
ATOM      7  C   UNL     1      21.798  27.383   4.785  1.00  0.00     0.072 C 
ATOM      8  O   UNL     1      20.855  27.298   5.614  1.00  0.00    -0.545 OA
ATOM      9  O   UNL     1      21.548  27.105   3.447  1.00  0.00    -0.545 OA
ENDBRANCH   1   7
BRANCH   2  10
ATOM     10  C   UNL     1      23.824  25.565   6.129  1.00  0.00     0.072 C 
ATOM     11  O   UNL     1      23.264  25.151   7.179  1.00  0.00    -0.545 OA
ATOM     12  O   UNL     1      24.284  24.638   5.201  1.00  0.00    -0.545 OA
ENDBRANCH   2  10
TORSDOF 2
ENDMDL
