MODEL 1
REMARK VINA RESULT:    -1.651      0.000      0.000
REMARK INTER + INTRA:          -4.031
REMARK INTER:                  -3.580
REMARK INTRA:                  -0.451
REMARK UNBOUND:                -0.451
REMARK SMILES CCCCCCCCCCCCCCCCCCCCCC(=O)[O-]
REMARK SMILES IDX 12 1 11 2 10 3 9 4 8 5 7 6 6 7 5 8 4 9 3 10 2 11 1 12 13 13
REMARK SMILES IDX 14 14 15 15 16 16 17 17 18 18 19 19 20 20 21 21 22 22 23 23
REMARK SMILES IDX 24 24
REMARK H PARENT
REMARK Flexibility Score: inf
ROOT
ATOM      1  C   UNL     1      11.110  -5.082  -6.191  1.00  0.00     0.000 C 
ENDROOT
BRANCH   1   2
ATOM      2  C   UNL     1      12.070  -4.725  -5.044  1.00  0.00     0.000 C 
BRANCH   2   3
ATOM      3  C   UNL     1      11.688  -3.468  -4.238  1.00  0.00     0.000 C 
BRANCH   3   4
ATOM      4  C   UNL     1      10.649  -3.697  -3.126  1.00  0.00    -0.000 C 
BRANCH   4   5
ATOM      5  C   UNL     1      10.671  -5.129  -2.573  1.00  0.00    -0.000 C 
BRANCH   5   6
ATOM      6  C   UNL     1      12.088  -5.530  -2.137  1.00  0.00    -0.000 C 
BRANCH   6   7
ATOM      7  C   UNL     1      12.125  -6.866  -1.371  1.00  0.00    -0.000 C 
BRANCH   7   8
ATOM      8  C   UNL     1      12.080  -8.124  -2.260  1.00  0.00    -0.000 C 
BRANCH   8   9
ATOM      9  C   UNL     1      11.953  -7.855  -3.773  1.00  0.00    -0.000 C 
BRANCH   9  10
ATOM     10  C   UNL     1      10.549  -8.085  -4.358  1.00  0.00    -0.000 C 
BRANCH  10  11
ATOM     11  C   UNL     1      10.538  -8.103  -5.894  1.00  0.00    -0.003 C 
ATOM     12  C   UNL     1       9.146  -7.797  -6.439  1.00  0.00     0.004 C 
ENDBRANCH  10  11
ENDBRANCH   9  10
ENDBRANCH   8   9
ENDBRANCH   7   8
ENDBRANCH   6   7
ENDBRANCH   5   6
ENDBRANCH   4   5
ENDBRANCH   3   4
ENDBRANCH   2   3
ENDBRANCH   1   2
BRANCH   1  13
ATOM     13  C   UNL     1      11.825  -5.218  -7.544  1.00  0.00     0.000 C 
BRANCH  13  14
ATOM     14  C   UNL     1      12.094  -6.693  -7.882  1.00  0.00     0.000 C 
BRANCH  14  15
ATOM     15  C   UNL     1      11.675  -7.044  -9.328  1.00  0.00     0.000 C 
BRANCH  15  16
ATOM     16  C   UNL     1      11.051  -5.865 -10.093  1.00  0.00     0.000 C 
BRANCH  16  17
ATOM     17  C   UNL     1       9.513  -5.887 -10.067  1.00  0.00     0.000 C 
BRANCH  17  18
ATOM     18  C   UNL     1       8.903  -4.481  -9.964  1.00  0.00     0.000 C 
BRANCH  18  19
ATOM     19  C   UNL     1       8.166  -4.245  -8.632  1.00  0.00     0.000 C 
BRANCH  19  20
ATOM     20  C   UNL     1       6.682  -4.640  -8.698  1.00  0.00     0.006 C 
BRANCH  20  21
ATOM     21  C   UNL     1       6.002  -4.175  -9.993  1.00  0.00     0.053 C 
BRANCH  21  22
ATOM     22  C   UNL     1       4.674  -3.546  -9.697  1.00  0.00     0.041 C 
ATOM     23  O   UNL     1       3.654  -4.268  -9.538  1.00  0.00    -0.550 OA
ATOM     24  O   UNL     1       4.565  -2.166  -9.571  1.00  0.00    -0.550 OA
ENDBRANCH  21  22
ENDBRANCH  20  21
ENDBRANCH  19  20
ENDBRANCH  18  19
ENDBRANCH  17  18
ENDBRANCH  16  17
ENDBRANCH  15  16
ENDBRANCH  14  15
ENDBRANCH  13  14
ENDBRANCH   1  13
TORSDOF 20
ENDMDL
MODEL 2
REMARK VINA RESULT:    -0.733      3.427      7.661
REMARK INTER + INTRA:          -2.041
REMARK INTER:                  -0.949
REMARK INTRA:                  -1.092
REMARK UNBOUND:                -0.451
REMARK SMILES CCCCCCCCCCCCCCCCCCCCCC(=O)[O-]
REMARK SMILES IDX 12 1 11 2 10 3 9 4 8 5 7 6 6 7 5 8 4 9 3 10 2 11 1 12 13 13
REMARK SMILES IDX 14 14 15 15 16 16 17 17 18 18 19 19 20 20 21 21 22 22 23 23
REMARK SMILES IDX 24 24
REMARK H PARENT
REMARK Flexibility Score: inf
ROOT
ATOM      1  C   UNL     1       7.547  -6.627  -7.769  1.00  0.00     0.000 C 
ENDROOT
BRANCH   1   2
ATOM      2  C   UNL     1       8.677  -5.590  -7.653  1.00  0.00     0.000 C 
BRANCH   2   3
ATOM      3  C   UNL     1       8.260  -4.134  -7.938  1.00  0.00     0.000 C 
BRANCH   3   4
ATOM      4  C   UNL     1       8.316  -3.717  -9.419  1.00  0.00    -0.000 C 
BRANCH   4   5
ATOM      5  C   UNL     1       6.940  -3.747 -10.099  1.00  0.00    -0.000 C 
BRANCH   5   6
ATOM      6  C   UNL     1       5.814  -3.871  -9.061  1.00  0.00    -0.000 C 
BRANCH   6   7
ATOM      7  C   UNL     1       4.659  -2.883  -9.308  1.00  0.00    -0.000 C 
BRANCH   7   8
ATOM      8  C   UNL     1       3.415  -3.496  -9.980  1.00  0.00    -0.000 C 
BRANCH   8   9
ATOM      9  C   UNL     1       3.435  -5.031 -10.124  1.00  0.00    -0.000 C 
BRANCH   9  10
ATOM     10  C   UNL     1       2.055  -5.707 -10.067  1.00  0.00    -0.000 C 
BRANCH  10  11
ATOM     11  C   UNL     1       1.958  -6.773  -8.964  1.00  0.00    -0.003 C 
ATOM     12  C   UNL     1       0.898  -7.818  -9.301  1.00  0.00     0.004 C 
ENDBRANCH  10  11
ENDBRANCH   9  10
ENDBRANCH   8   9
ENDBRANCH   7   8
ENDBRANCH   6   7
ENDBRANCH   5   6
ENDBRANCH   4   5
ENDBRANCH   3   4
ENDBRANCH   2   3
ENDBRANCH   1   2
BRANCH   1  13
ATOM     13  C   UNL     1       8.005  -7.933  -8.434  1.00  0.00     0.000 C 
BRANCH  13  14
ATOM     14  C   UNL     1       9.537  -7.993  -8.543  1.00  0.00     0.000 C 
BRANCH  14  15
ATOM     15  C   UNL     1      10.042  -7.515  -9.923  1.00  0.00     0.000 C 
BRANCH  15  16
ATOM     16  C   UNL     1      11.554  -7.243  -9.967  1.00  0.00     0.000 C 
BRANCH  16  17
ATOM     17  C   UNL     1      12.000  -6.195  -8.933  1.00  0.00     0.000 C 
BRANCH  17  18
ATOM     18  C   UNL     1      12.125  -6.776  -7.517  1.00  0.00     0.000 C 
BRANCH  18  19
ATOM     19  C   UNL     1      11.955  -5.711  -6.417  1.00  0.00     0.000 C 
BRANCH  19  20
ATOM     20  C   UNL     1      10.869  -6.083  -5.395  1.00  0.00     0.006 C 
BRANCH  20  21
ATOM     21  C   UNL     1      11.382  -6.058  -3.948  1.00  0.00     0.053 C 
BRANCH  21  22
ATOM     22  C   UNL     1      11.156  -4.712  -3.330  1.00  0.00     0.041 C 
ATOM     23  O   UNL     1      10.447  -4.603  -2.294  1.00  0.00    -0.550 OA
ATOM     24  O   UNL     1      11.747  -3.580  -3.879  1.00  0.00    -0.550 OA
ENDBRANCH  21  22
ENDBRANCH  20  21
ENDBRANCH  19  20
ENDBRANCH  18  19
ENDBRANCH  17  18
ENDBRANCH  16  17
ENDBRANCH  15  16
ENDBRANCH  14  15
ENDBRANCH  13  14
ENDBRANCH   1  13
TORSDOF 20
ENDMDL
MODEL 3
REMARK VINA RESULT:     1.019      3.486      8.061
REMARK INTER + INTRA:           1.761
REMARK INTER:                   3.279
REMARK INTRA:                  -1.518
REMARK UNBOUND:                -0.451
REMARK SMILES CCCCCCCCCCCCCCCCCCCCCC(=O)[O-]
REMARK SMILES IDX 12 1 11 2 10 3 9 4 8 5 7 6 6 7 5 8 4 9 3 10 2 11 1 12 13 13
REMARK SMILES IDX 14 14 15 15 16 16 17 17 18 18 19 19 20 20 21 21 22 22 23 23
REMARK SMILES IDX 24 24
REMARK H PARENT
REMARK Flexibility Score: inf
ROOT
ATOM      1  C   UNL     1       7.520  -6.275  -7.108  1.00  0.00     0.000 C 
ENDROOT
BRANCH   1   2
ATOM      2  C   UNL     1       8.464  -5.074  -6.927  1.00  0.00     0.000 C 
BRANCH   2   3
ATOM      3  C   UNL     1       8.008  -3.773  -7.616  1.00  0.00     0.000 C 
BRANCH   3   4
ATOM      4  C   UNL     1       8.326  -3.685  -9.120  1.00  0.00    -0.000 C 
BRANCH   4   5
ATOM      5  C   UNL     1       7.175  -4.185 -10.004  1.00  0.00    -0.000 C 
BRANCH   5   6
ATOM      6  C   UNL     1       5.813  -3.839  -9.384  1.00  0.00    -0.000 C 
BRANCH   6   7
ATOM      7  C   UNL     1       4.823  -5.017  -9.414  1.00  0.00    -0.000 C 
BRANCH   7   8
ATOM      8  C   UNL     1       3.335  -4.614  -9.424  1.00  0.00    -0.000 C 
BRANCH   8   9
ATOM      9  C   UNL     1       2.373  -5.670 -10.003  1.00  0.00    -0.000 C 
BRANCH   9  10
ATOM     10  C   UNL     1       2.174  -6.917  -9.124  1.00  0.00    -0.000 C 
BRANCH  10  11
ATOM     11  C   UNL     1       0.704  -7.150  -8.742  1.00  0.00    -0.003 C 
ATOM     12  C   UNL     1       0.022  -8.097  -9.726  1.00  0.00     0.004 C 
ENDBRANCH  10  11
ENDBRANCH   9  10
ENDBRANCH   8   9
ENDBRANCH   7   8
ENDBRANCH   6   7
ENDBRANCH   5   6
ENDBRANCH   4   5
ENDBRANCH   3   4
ENDBRANCH   2   3
ENDBRANCH   1   2
BRANCH   1  13
ATOM     13  C   UNL     1       8.076  -7.327  -8.080  1.00  0.00     0.000 C 
BRANCH  13  14
ATOM     14  C   UNL     1       9.221  -8.125  -7.436  1.00  0.00     0.000 C 
BRANCH  14  15
ATOM     15  C   UNL     1      10.606  -7.528  -7.771  1.00  0.00     0.000 C 
BRANCH  15  16
ATOM     16  C   UNL     1      11.654  -7.742  -6.666  1.00  0.00     0.000 C 
BRANCH  16  17
ATOM     17  C   UNL     1      11.034  -7.783  -5.259  1.00  0.00     0.000 C 
BRANCH  17  18
ATOM     18  C   UNL     1      12.073  -8.057  -4.161  1.00  0.00     0.000 C 
BRANCH  18  19
ATOM     19  C   UNL     1      11.455  -8.104  -2.751  1.00  0.00     0.000 C 
BRANCH  19  20
ATOM     20  C   UNL     1      11.708  -6.818  -1.949  1.00  0.00     0.006 C 
BRANCH  20  21
ATOM     21  C   UNL     1      12.108  -5.633  -2.839  1.00  0.00     0.053 C 
BRANCH  21  22
ATOM     22  C   UNL     1      10.925  -4.755  -3.114  1.00  0.00     0.041 C 
ATOM     23  O   UNL     1       9.800  -5.040  -2.625  1.00  0.00    -0.550 OA
ATOM     24  O   UNL     1      11.067  -3.609  -3.888  1.00  0.00    -0.550 OA
ENDBRANCH  21  22
ENDBRANCH  20  21
ENDBRANCH  19  20
ENDBRANCH  18  19
ENDBRANCH  17  18
ENDBRANCH  16  17
ENDBRANCH  15  16
ENDBRANCH  14  15
ENDBRANCH  13  14
ENDBRANCH   1  13
TORSDOF 20
ENDMDL
