MODEL 1
REMARK VINA RESULT:    -5.571      0.000      0.000
REMARK INTER + INTRA:          -5.571
REMARK INTER:                  -5.571
REMARK INTRA:                   0.000
REMARK UNBOUND:                 0.000
REMARK SMILES O=c1ccc2ccccc2o1
REMARK SMILES IDX 7 1 8 2 9 3 10 4 5 5 6 6 4 7 3 8 2 9 1 10 11 11
REMARK H PARENT
REMARK Flexibility Score: inf
ROOT
ATOM      1  C   UNL     1     -20.872 -13.875 -13.693  1.00  0.00     0.001 A 
ATOM      2  C   UNL     1     -20.438 -14.995 -12.975  1.00  0.00     0.004 A 
ATOM      3  C   UNL     1     -21.160 -16.192 -13.034  1.00  0.00     0.048 A 
ATOM      4  C   UNL     1     -22.318 -16.274 -13.815  1.00  0.00     0.138 A 
ATOM      5  C   UNL     1     -22.756 -15.144 -14.541  1.00  0.00     0.018 A 
ATOM      6  C   UNL     1     -22.030 -13.947 -14.476  1.00  0.00     0.012 A 
ATOM      7  C   UNL     1     -23.918 -15.256 -15.312  1.00  0.00     0.019 A 
ATOM      8  C   UNL     1     -24.603 -16.470 -15.342  1.00  0.00     0.094 A 
ATOM      9  C   UNL     1     -24.110 -17.547 -14.597  1.00  0.00     0.336 A 
ATOM     10  O   UNL     1     -24.717 -18.651 -14.613  1.00  0.00    -0.246 OA
ATOM     11  O   UNL     1     -23.003 -17.414 -13.871  1.00  0.00    -0.423 OA
ENDROOT
TORSDOF 0
ENDMDL
MODEL 2
REMARK VINA RESULT:    -5.176      2.334      4.322
REMARK INTER + INTRA:          -5.176
REMARK INTER:                  -5.176
REMARK INTRA:                   0.000
REMARK UNBOUND:                 0.000
REMARK SMILES O=c1ccc2ccccc2o1
REMARK SMILES IDX 7 1 8 2 9 3 10 4 5 5 6 6 4 7 3 8 2 9 1 10 11 11
REMARK H PARENT
REMARK Flexibility Score: inf
ROOT
ATOM      1  C   UNL     1     -24.257 -15.761 -15.640  1.00  0.00     0.001 A 
ATOM      2  C   UNL     1     -23.868 -14.497 -16.099  1.00  0.00     0.004 A 
ATOM      3  C   UNL     1     -22.732 -13.875 -15.570  1.00  0.00     0.048 A 
ATOM      4  C   UNL     1     -21.981 -14.515 -14.578  1.00  0.00     0.138 A 
ATOM      5  C   UNL     1     -22.373 -15.790 -14.115  1.00  0.00     0.018 A 
ATOM      6  C   UNL     1     -23.513 -16.409 -14.648  1.00  0.00     0.012 A 
ATOM      7  C   UNL     1     -21.603 -16.406 -13.122  1.00  0.00     0.019 A 
ATOM      8  C   UNL     1     -20.479 -15.748 -12.624  1.00  0.00     0.094 A 
ATOM      9  C   UNL     1     -20.150 -14.486 -13.131  1.00  0.00     0.336 A 
ATOM     10  O   UNL     1     -19.139 -13.877 -12.693  1.00  0.00    -0.246 OA
ATOM     11  O   UNL     1     -20.901 -13.922 -14.075  1.00  0.00    -0.423 OA
ENDROOT
TORSDOF 0
ENDMDL
MODEL 3
REMARK VINA RESULT:    -5.110      1.627      3.837
REMARK INTER + INTRA:          -5.110
REMARK INTER:                  -5.110
REMARK INTRA:                   0.000
REMARK UNBOUND:                 0.000
REMARK SMILES O=c1ccc2ccccc2o1
REMARK SMILES IDX 7 1 8 2 9 3 10 4 5 5 6 6 4 7 3 8 2 9 1 10 11 11
REMARK H PARENT
REMARK Flexibility Score: inf
ROOT
ATOM      1  C   UNL     1     -24.653 -16.729 -15.240  1.00  0.00     0.001 A 
ATOM      2  C   UNL     1     -24.098 -17.780 -14.502  1.00  0.00     0.004 A 
ATOM      3  C   UNL     1     -22.924 -17.582 -13.768  1.00  0.00     0.048 A 
ATOM      4  C   UNL     1     -22.300 -16.329 -13.770  1.00  0.00     0.138 A 
ATOM      5  C   UNL     1     -22.860 -15.268 -14.515  1.00  0.00     0.018 A 
ATOM      6  C   UNL     1     -24.036 -15.473 -15.250  1.00  0.00     0.012 A 
ATOM      7  C   UNL     1     -22.213 -14.027 -14.498  1.00  0.00     0.019 A 
ATOM      8  C   UNL     1     -21.045 -13.876 -13.752  1.00  0.00     0.094 A 
ATOM      9  C   UNL     1     -20.549 -14.972 -13.038  1.00  0.00     0.336 A 
ATOM     10  O   UNL     1     -19.495 -14.854 -12.358  1.00  0.00    -0.246 OA
ATOM     11  O   UNL     1     -21.183 -16.142 -13.071  1.00  0.00    -0.423 OA
ENDROOT
TORSDOF 0
ENDMDL
MODEL 4
REMARK VINA RESULT:    -5.046      2.860      4.383
REMARK INTER + INTRA:          -5.046
REMARK INTER:                  -5.046
REMARK INTRA:                   0.000
REMARK UNBOUND:                 0.000
REMARK SMILES O=c1ccc2ccccc2o1
REMARK SMILES IDX 7 1 8 2 9 3 10 4 5 5 6 6 4 7 3 8 2 9 1 10 11 11
REMARK H PARENT
REMARK Flexibility Score: inf
ROOT
ATOM      1  C   UNL     1     -23.042 -13.884 -15.804  1.00  0.00     0.001 A 
ATOM      2  C   UNL     1     -24.287 -13.887 -15.167  1.00  0.00     0.004 A 
ATOM      3  C   UNL     1     -24.363 -13.887 -13.770  1.00  0.00     0.048 A 
ATOM      4  C   UNL     1     -23.192 -13.883 -13.005  1.00  0.00     0.138 A 
ATOM      5  C   UNL     1     -21.934 -13.880 -13.648  1.00  0.00     0.018 A 
ATOM      6  C   UNL     1     -21.864 -13.881 -15.048  1.00  0.00     0.012 A 
ATOM      7  C   UNL     1     -20.780 -13.876 -12.857  1.00  0.00     0.019 A 
ATOM      8  C   UNL     1     -20.904 -13.875 -11.468  1.00  0.00     0.094 A 
ATOM      9  C   UNL     1     -22.183 -13.878 -10.901  1.00  0.00     0.336 A 
ATOM     10  O   UNL     1     -22.314 -13.877  -9.648  1.00  0.00    -0.246 OA
ATOM     11  O   UNL     1     -23.265 -13.882 -11.676  1.00  0.00    -0.423 OA
ENDROOT
TORSDOF 0
ENDMDL
MODEL 5
REMARK VINA RESULT:    -5.025      2.280      2.635
REMARK INTER + INTRA:          -5.025
REMARK INTER:                  -5.025
REMARK INTRA:                   0.000
REMARK UNBOUND:                 0.000
REMARK SMILES O=c1ccc2ccccc2o1
REMARK SMILES IDX 7 1 8 2 9 3 10 4 5 5 6 6 4 7 3 8 2 9 1 10 11 11
REMARK H PARENT
REMARK Flexibility Score: inf
ROOT
ATOM      1  C   UNL     1     -21.760 -13.875 -11.236  1.00  0.00     0.001 A 
ATOM      2  C   UNL     1     -20.600 -14.161 -11.965  1.00  0.00     0.004 A 
ATOM      3  C   UNL     1     -20.681 -14.449 -13.331  1.00  0.00     0.048 A 
ATOM      4  C   UNL     1     -21.923 -14.452 -13.975  1.00  0.00     0.138 A 
ATOM      5  C   UNL     1     -23.094 -14.163 -13.240  1.00  0.00     0.018 A 
ATOM      6  C   UNL     1     -23.008 -13.876 -11.870  1.00  0.00     0.012 A 
ATOM      7  C   UNL     1     -24.322 -14.173 -13.911  1.00  0.00     0.019 A 
ATOM      8  C   UNL     1     -24.354 -14.465 -15.274  1.00  0.00     0.094 A 
ATOM      9  C   UNL     1     -23.153 -14.741 -15.937  1.00  0.00     0.336 A 
ATOM     10  O   UNL     1     -23.163 -15.007 -17.168  1.00  0.00    -0.246 OA
ATOM     11  O   UNL     1     -21.998 -14.726 -15.275  1.00  0.00    -0.423 OA
ENDROOT
TORSDOF 0
ENDMDL
MODEL 6
REMARK VINA RESULT:    -4.877      1.643      2.651
REMARK INTER + INTRA:          -4.877
REMARK INTER:                  -4.877
REMARK INTRA:                   0.000
REMARK UNBOUND:                 0.000
REMARK SMILES O=c1ccc2ccccc2o1
REMARK SMILES IDX 7 1 8 2 9 3 10 4 5 5 6 6 4 7 3 8 2 9 1 10 11 11
REMARK H PARENT
REMARK Flexibility Score: inf
ROOT
ATOM      1  C   UNL     1     -18.129 -14.301 -12.601  1.00  0.00     0.001 A 
ATOM      2  C   UNL     1     -17.818 -15.620 -12.947  1.00  0.00     0.004 A 
ATOM      3  C   UNL     1     -18.837 -16.522 -13.272  1.00  0.00     0.048 A 
ATOM      4  C   UNL     1     -20.173 -16.106 -13.252  1.00  0.00     0.138 A 
ATOM      5  C   UNL     1     -20.487 -14.774 -12.903  1.00  0.00     0.018 A 
ATOM      6  C   UNL     1     -19.461 -13.875 -12.577  1.00  0.00     0.012 A 
ATOM      7  C   UNL     1     -21.832 -14.387 -12.891  1.00  0.00     0.019 A 
ATOM      8  C   UNL     1     -22.814 -15.319 -13.223  1.00  0.00     0.094 A 
ATOM      9  C   UNL     1     -22.427 -16.622 -13.559  1.00  0.00     0.336 A 
ATOM     10  O   UNL     1     -23.301 -17.477 -13.862  1.00  0.00    -0.246 OA
ATOM     11  O   UNL     1     -21.141 -16.964 -13.562  1.00  0.00    -0.423 OA
ENDROOT
TORSDOF 0
ENDMDL
MODEL 7
REMARK VINA RESULT:    -4.873      2.580      3.725
REMARK INTER + INTRA:          -4.873
REMARK INTER:                  -4.873
REMARK INTRA:                   0.000
REMARK UNBOUND:                 0.000
REMARK SMILES O=c1ccc2ccccc2o1
REMARK SMILES IDX 7 1 8 2 9 3 10 4 5 5 6 6 4 7 3 8 2 9 1 10 11 11
REMARK H PARENT
REMARK Flexibility Score: inf
ROOT
ATOM      1  C   UNL     1     -17.615 -15.872 -13.007  1.00  0.00     0.001 A 
ATOM      2  C   UNL     1     -17.663 -14.528 -12.622  1.00  0.00     0.004 A 
ATOM      3  C   UNL     1     -18.893 -13.875 -12.496  1.00  0.00     0.048 A 
ATOM      4  C   UNL     1     -20.083 -14.566 -12.754  1.00  0.00     0.138 A 
ATOM      5  C   UNL     1     -20.035 -15.923 -13.143  1.00  0.00     0.018 A 
ATOM      6  C   UNL     1     -18.798 -16.571 -13.269  1.00  0.00     0.012 A 
ATOM      7  C   UNL     1     -21.240 -16.587 -13.396  1.00  0.00     0.019 A 
ATOM      8  C   UNL     1     -22.443 -15.896 -13.257  1.00  0.00     0.094 A 
ATOM      9  C   UNL     1     -22.413 -14.552 -12.867  1.00  0.00     0.336 A 
ATOM     10  O   UNL     1     -23.490 -13.913 -12.736  1.00  0.00    -0.246 OA
ATOM     11  O   UNL     1     -21.253 -13.943 -12.634  1.00  0.00    -0.423 OA
ENDROOT
TORSDOF 0
ENDMDL
MODEL 8
REMARK VINA RESULT:    -4.456      1.167      2.133
REMARK INTER + INTRA:          -4.456
REMARK INTER:                  -4.456
REMARK INTRA:                   0.000
REMARK UNBOUND:                 0.000
REMARK SMILES O=c1ccc2ccccc2o1
REMARK SMILES IDX 7 1 8 2 9 3 10 4 5 5 6 6 4 7 3 8 2 9 1 10 11 11
REMARK H PARENT
REMARK Flexibility Score: inf
ROOT
ATOM      1  C   UNL     1     -20.061 -14.997 -12.950  1.00  0.00     0.001 A 
ATOM      2  C   UNL     1     -20.634 -13.875 -13.558  1.00  0.00     0.004 A 
ATOM      3  C   UNL     1     -21.856 -13.986 -14.229  1.00  0.00     0.048 A 
ATOM      4  C   UNL     1     -22.511 -15.221 -14.294  1.00  0.00     0.138 A 
ATOM      5  C   UNL     1     -21.933 -16.353 -13.679  1.00  0.00     0.018 A 
ATOM      6  C   UNL     1     -20.707 -16.237 -13.009  1.00  0.00     0.012 A 
ATOM      7  C   UNL     1     -22.610 -17.575 -13.760  1.00  0.00     0.019 A 
ATOM      8  C   UNL     1     -23.826 -17.638 -14.439  1.00  0.00     0.094 A 
ATOM      9  C   UNL     1     -24.339 -16.474 -15.024  1.00  0.00     0.336 A 
ATOM     10  O   UNL     1     -25.436 -16.512 -15.640  1.00  0.00    -0.246 OA
ATOM     11  O   UNL     1     -23.674 -15.324 -14.932  1.00  0.00    -0.423 OA
ENDROOT
TORSDOF 0
ENDMDL
