MODEL 1
REMARK VINA RESULT:    -2.479      0.000      0.000
REMARK INTER + INTRA:          -2.479
REMARK INTER:                  -2.479
REMARK INTRA:                   0.000
REMARK UNBOUND:                 0.000
REMARK SMILES CC(=O)[O-]
REMARK SMILES IDX 1 1 2 2 3 3 4 4
REMARK H PARENT
REMARK Flexibility Score: inf
ROOT
ATOM      1  C   UNL     1      21.457  29.337  19.241  1.00  0.00     0.063 C 
ATOM      2  C   UNL     1      20.127  28.761  18.887  1.00  0.00     0.038 C 
ATOM      3  O   UNL     1      19.175  29.519  18.565  1.00  0.00    -0.550 OA
ATOM      4  O   UNL     1      19.922  27.390  18.963  1.00  0.00    -0.550 OA
ENDROOT
TORSDOF 0
ENDMDL
MODEL 2
REMARK VINA RESULT:    -2.467      0.081      1.620
REMARK INTER + INTRA:          -2.467
REMARK INTER:                  -2.467
REMARK INTRA:                   0.000
REMARK UNBOUND:                 0.000
REMARK SMILES CC(=O)[O-]
REMARK SMILES IDX 1 1 2 2 3 3 4 4
REMARK H PARENT
REMARK Flexibility Score: inf
ROOT
ATOM      1  C   UNL     1      21.473  29.284  19.218  1.00  0.00     0.063 C 
ATOM      2  C   UNL     1      20.135  28.690  18.932  1.00  0.00     0.038 C 
ATOM      3  O   UNL     1      19.973  27.443  18.983  1.00  0.00    -0.550 OA
ATOM      4  O   UNL     1      19.077  29.508  18.558  1.00  0.00    -0.550 OA
ENDROOT
TORSDOF 0
ENDMDL
MODEL 3
REMARK VINA RESULT:    -2.402     21.874     22.451
REMARK INTER + INTRA:          -2.402
REMARK INTER:                  -2.402
REMARK INTRA:                   0.000
REMARK UNBOUND:                 0.000
REMARK SMILES CC(=O)[O-]
REMARK SMILES IDX 1 1 2 2 3 3 4 4
REMARK H PARENT
REMARK Flexibility Score: inf
ROOT
ATOM      1  C   UNL     1       5.202  10.969  22.591  1.00  0.00     0.063 C 
ATOM      2  C   UNL     1       6.463  11.651  23.004  1.00  0.00     0.038 C 
ATOM      3  O   UNL     1       7.535  10.997  23.093  1.00  0.00    -0.550 OA
ATOM      4  O   UNL     1       6.446  12.998  23.341  1.00  0.00    -0.550 OA
ENDROOT
TORSDOF 0
ENDMDL
MODEL 4
REMARK VINA RESULT:    -2.392     21.940     22.442
REMARK INTER + INTRA:          -2.392
REMARK INTER:                  -2.392
REMARK INTRA:                   0.000
REMARK UNBOUND:                 0.000
REMARK SMILES CC(=O)[O-]
REMARK SMILES IDX 1 1 2 2 3 3 4 4
REMARK H PARENT
REMARK Flexibility Score: inf
ROOT
ATOM      1  C   UNL     1       5.198  10.922  22.557  1.00  0.00     0.063 C 
ATOM      2  C   UNL     1       6.458  11.598  22.981  1.00  0.00     0.038 C 
ATOM      3  O   UNL     1       6.458  12.830  23.239  1.00  0.00    -0.550 OA
ATOM      4  O   UNL     1       7.645  10.880  23.042  1.00  0.00    -0.550 OA
ENDROOT
TORSDOF 0
ENDMDL
MODEL 5
REMARK VINA RESULT:    -2.301      1.445      1.777
REMARK INTER + INTRA:          -2.301
REMARK INTER:                  -2.301
REMARK INTRA:                   0.000
REMARK UNBOUND:                 0.000
REMARK SMILES CC(=O)[O-]
REMARK SMILES IDX 1 1 2 2 3 3 4 4
REMARK H PARENT
REMARK Flexibility Score: inf
ROOT
ATOM      1  C   UNL     1      19.894  27.507  18.717  1.00  0.00     0.063 C 
ATOM      2  C   UNL     1      20.228  28.952  18.879  1.00  0.00     0.038 C 
ATOM      3  O   UNL     1      19.358  29.832  18.645  1.00  0.00    -0.550 OA
ATOM      4  O   UNL     1      21.514  29.332  19.238  1.00  0.00    -0.550 OA
ENDROOT
TORSDOF 0
ENDMDL
MODEL 6
REMARK VINA RESULT:    -2.262     22.618     23.029
REMARK INTER + INTRA:          -2.262
REMARK INTER:                  -2.262
REMARK INTRA:                   0.000
REMARK UNBOUND:                 0.000
REMARK SMILES CC(=O)[O-]
REMARK SMILES IDX 1 1 2 2 3 3 4 4
REMARK H PARENT
REMARK Flexibility Score: inf
ROOT
ATOM      1  C   UNL     1       6.509  12.355  23.036  1.00  0.00     0.063 C 
ATOM      2  C   UNL     1       5.875  11.060  22.654  1.00  0.00     0.038 C 
ATOM      3  O   UNL     1       4.623  10.974  22.556  1.00  0.00    -0.550 OA
ATOM      4  O   UNL     1       6.661   9.933  22.459  1.00  0.00    -0.550 OA
ENDROOT
TORSDOF 0
ENDMDL
MODEL 7
REMARK VINA RESULT:    -2.019     21.674     22.309
REMARK INTER + INTRA:          -2.019
REMARK INTER:                  -2.019
REMARK INTRA:                   0.000
REMARK UNBOUND:                 0.000
REMARK SMILES CC(=O)[O-]
REMARK SMILES IDX 1 1 2 2 3 3 4 4
REMARK H PARENT
REMARK Flexibility Score: inf
ROOT
ATOM      1  C   UNL     1       7.182  11.437  21.411  1.00  0.00     0.063 C 
ATOM      2  C   UNL     1       6.307  11.704  22.589  1.00  0.00     0.038 C 
ATOM      3  O   UNL     1       5.383  10.901  22.885  1.00  0.00    -0.550 OA
ATOM      4  O   UNL     1       6.476  12.865  23.331  1.00  0.00    -0.550 OA
ENDROOT
TORSDOF 0
ENDMDL
MODEL 8
REMARK VINA RESULT:    -1.987     13.970     14.459
REMARK INTER + INTRA:          -1.987
REMARK INTER:                  -1.987
REMARK INTRA:                   0.000
REMARK UNBOUND:                 0.000
REMARK SMILES CC(=O)[O-]
REMARK SMILES IDX 1 1 2 2 3 3 4 4
REMARK H PARENT
REMARK Flexibility Score: inf
ROOT
ATOM      1  C   UNL     1      11.040  19.389  24.993  1.00  0.00     0.063 C 
ATOM      2  C   UNL     1      12.259  18.882  25.687  1.00  0.00     0.038 C 
ATOM      3  O   UNL     1      12.200  18.536  26.896  1.00  0.00    -0.550 OA
ATOM      4  O   UNL     1      13.474  18.842  25.017  1.00  0.00    -0.550 OA
ENDROOT
TORSDOF 0
ENDMDL
MODEL 9
REMARK VINA RESULT:    -1.940     12.862     13.539
REMARK INTER + INTRA:          -1.940
REMARK INTER:                  -1.940
REMARK INTRA:                   0.000
REMARK UNBOUND:                 0.000
REMARK SMILES CC(=O)[O-]
REMARK SMILES IDX 1 1 2 2 3 3 4 4
REMARK H PARENT
REMARK Flexibility Score: inf
ROOT
ATOM      1  C   UNL     1      12.913  18.763  25.164  1.00  0.00     0.063 C 
ATOM      2  C   UNL     1      14.041  18.180  24.381  1.00  0.00     0.038 C 
ATOM      3  O   UNL     1      14.045  16.954  24.096  1.00  0.00    -0.550 OA
ATOM      4  O   UNL     1      15.116  18.978  24.011  1.00  0.00    -0.550 OA
ENDROOT
TORSDOF 0
ENDMDL
