MODEL 1
REMARK VINA RESULT:     7.679      0.000      0.000
REMARK INTER + INTRA:           7.679
REMARK INTER:                   7.679
REMARK INTRA:                   0.000
REMARK UNBOUND:                 0.000
REMARK SMILES CC1=CC[C@@H]2C[C@H]1C2(C)C
REMARK SMILES IDX 1 1 2 2 3 3 4 4 5 5 6 6 7 7 8 8 9 9 10 10
REMARK H PARENT
REMARK Flexibility Score: inf
ROOT
ATOM      1  C   UNL     1      -0.275   7.624  -7.471  1.00  0.00     0.039 C 
ATOM      2  C   UNL     1       0.136   6.531  -8.411  1.00  0.00    -0.074 C 
ATOM      3  C   UNL     1       0.313   5.248  -7.978  1.00  0.00    -0.027 C 
ATOM      4  C   UNL     1       0.708   4.167  -9.003  1.00  0.00     0.031 C 
ATOM      5  C   UNL     1       0.880   4.810 -10.423  1.00  0.00    -0.000 C 
ATOM      6  C   UNL     1       1.726   6.082 -10.208  1.00  0.00     0.013 C 
ATOM      7  C   UNL     1       0.398   6.800  -9.901  1.00  0.00     0.021 C 
ATOM      8  C   UNL     1      -0.331   5.727 -10.751  1.00  0.00    -0.026 C 
ATOM      9  C   UNL     1      -1.751   5.272 -10.309  1.00  0.00     0.012 C 
ATOM     10  C   UNL     1      -0.389   6.106 -12.252  1.00  0.00     0.012 C 
ENDROOT
TORSDOF 0
ENDMDL
MODEL 2
REMARK VINA RESULT:    10.021      0.987      3.310
REMARK INTER + INTRA:          10.021
REMARK INTER:                  10.021
REMARK INTRA:                   0.000
REMARK UNBOUND:                 0.000
REMARK SMILES CC1=CC[C@@H]2C[C@H]1C2(C)C
REMARK SMILES IDX 1 1 2 2 3 3 4 4 5 5 6 6 7 7 8 8 9 9 10 10
REMARK H PARENT
REMARK Flexibility Score: inf
ROOT
ATOM      1  C   UNL     1      -2.049   5.199 -11.880  1.00  0.00     0.039 C 
ATOM      2  C   UNL     1      -0.747   5.509 -11.205  1.00  0.00    -0.074 C 
ATOM      3  C   UNL     1       0.167   6.350 -11.773  1.00  0.00    -0.027 C 
ATOM      4  C   UNL     1       1.474   6.648 -11.011  1.00  0.00     0.031 C 
ATOM      5  C   UNL     1       1.510   5.838  -9.670  1.00  0.00    -0.000 C 
ATOM      6  C   UNL     1       1.086   4.401 -10.036  1.00  0.00     0.013 C 
ATOM      7  C   UNL     1      -0.366   4.884  -9.855  1.00  0.00     0.021 C 
ATOM      8  C   UNL     1       0.164   5.992  -8.908  1.00  0.00    -0.026 C 
ATOM      9  C   UNL     1      -0.544   7.376  -8.921  1.00  0.00     0.012 C 
ATOM     10  C   UNL     1       0.264   5.511  -7.439  1.00  0.00     0.012 C 
ENDROOT
TORSDOF 0
ENDMDL
MODEL 3
REMARK VINA RESULT:    10.070      1.095      2.795
REMARK INTER + INTRA:          10.070
REMARK INTER:                  10.070
REMARK INTRA:                   0.000
REMARK UNBOUND:                 0.000
REMARK SMILES CC1=CC[C@@H]2C[C@H]1C2(C)C
REMARK SMILES IDX 1 1 2 2 3 3 4 4 5 5 6 6 7 7 8 8 9 9 10 10
REMARK H PARENT
REMARK Flexibility Score: inf
ROOT
ATOM      1  C   UNL     1       2.024   3.368  -9.653  1.00  0.00     0.039 C 
ATOM      2  C   UNL     1       1.072   4.525  -9.609  1.00  0.00    -0.074 C 
ATOM      3  C   UNL     1       1.224   5.539  -8.707  1.00  0.00    -0.027 C 
ATOM      4  C   UNL     1       0.224   6.713  -8.736  1.00  0.00     0.031 C 
ATOM      5  C   UNL     1      -0.861   6.468  -9.840  1.00  0.00    -0.000 C 
ATOM      6  C   UNL     1      -1.321   5.007  -9.660  1.00  0.00     0.013 C 
ATOM      7  C   UNL     1      -0.131   4.620 -10.560  1.00  0.00     0.021 C 
ATOM      8  C   UNL     1      -0.187   6.043 -11.175  1.00  0.00    -0.026 C 
ATOM      9  C   UNL     1       1.149   6.724 -11.585  1.00  0.00     0.012 C 
ATOM     10  C   UNL     1      -1.163   6.126 -12.376  1.00  0.00     0.012 C 
ENDROOT
TORSDOF 0
ENDMDL
MODEL 4
REMARK VINA RESULT:    10.103      0.989      3.118
REMARK INTER + INTRA:          10.103
REMARK INTER:                  10.103
REMARK INTRA:                   0.000
REMARK UNBOUND:                 0.000
REMARK SMILES CC1=CC[C@@H]2C[C@H]1C2(C)C
REMARK SMILES IDX 1 1 2 2 3 3 4 4 5 5 6 6 7 7 8 8 9 9 10 10
REMARK H PARENT
REMARK Flexibility Score: inf
ROOT
ATOM      1  C   UNL     1      -1.006   5.571 -12.601  1.00  0.00     0.039 C 
ATOM      2  C   UNL     1      -0.676   5.740 -11.149  1.00  0.00    -0.074 C 
ATOM      3  C   UNL     1      -1.637   5.641 -10.184  1.00  0.00    -0.027 C 
ATOM      4  C   UNL     1      -1.224   5.798  -8.706  1.00  0.00     0.031 C 
ATOM      5  C   UNL     1       0.311   6.100  -8.607  1.00  0.00    -0.000 C 
ATOM      6  C   UNL     1       0.591   7.197  -9.655  1.00  0.00     0.013 C 
ATOM      7  C   UNL     1       0.751   6.051 -10.673  1.00  0.00     0.021 C 
ATOM      8  C   UNL     1       1.116   5.111  -9.495  1.00  0.00    -0.026 C 
ATOM      9  C   UNL     1       0.655   3.627  -9.563  1.00  0.00     0.012 C 
ATOM     10  C   UNL     1       2.631   5.134  -9.172  1.00  0.00     0.012 C 
ENDROOT
TORSDOF 0
ENDMDL
MODEL 5
REMARK VINA RESULT:    10.180      0.969      3.113
REMARK INTER + INTRA:          10.180
REMARK INTER:                  10.180
REMARK INTRA:                   0.000
REMARK UNBOUND:                 0.000
REMARK SMILES CC1=CC[C@@H]2C[C@H]1C2(C)C
REMARK SMILES IDX 1 1 2 2 3 3 4 4 5 5 6 6 7 7 8 8 9 9 10 10
REMARK H PARENT
REMARK Flexibility Score: inf
ROOT
ATOM      1  C   UNL     1       1.176   2.718  -9.319  1.00  0.00     0.039 C 
ATOM      2  C   UNL     1       0.888   4.140  -9.695  1.00  0.00    -0.074 C 
ATOM      3  C   UNL     1       0.270   4.455 -10.871  1.00  0.00    -0.027 C 
ATOM      4  C   UNL     1      -0.021   5.937 -11.183  1.00  0.00     0.031 C 
ATOM      5  C   UNL     1       0.524   6.846 -10.028  1.00  0.00    -0.000 C 
ATOM      6  C   UNL     1       1.951   6.338  -9.732  1.00  0.00     0.013 C 
ATOM      7  C   UNL     1       1.289   5.314  -8.789  1.00  0.00     0.021 C 
ATOM      8  C   UNL     1       0.088   6.285  -8.646  1.00  0.00    -0.026 C 
ATOM      9  C   UNL     1      -1.338   5.681  -8.504  1.00  0.00     0.012 C 
ATOM     10  C   UNL     1       0.296   7.313  -7.505  1.00  0.00     0.012 C 
ENDROOT
TORSDOF 0
ENDMDL
