MODEL 1
REMARK VINA RESULT:    -4.536      0.000      0.000
REMARK INTER + INTRA:          -6.100
REMARK INTER:                  -5.861
REMARK INTRA:                  -0.239
REMARK UNBOUND:                -0.239
REMARK SMILES CCCCCCC(=O)[O-]
REMARK SMILES IDX 5 1 6 2 7 3 8 4 9 5 4 6 3 7 2 8 1 9
REMARK H PARENT
REMARK Flexibility Score: inf
ROOT
ATOM      1  C   UNL     1      22.812   8.953  12.497  1.00  0.00     0.006 C 
ENDROOT
BRANCH   1   2
ATOM      2  C   UNL     1      23.347   9.898  13.581  1.00  0.00     0.053 C 
BRANCH   2   3
ATOM      3  C   UNL     1      24.424  10.797  13.053  1.00  0.00     0.041 C 
ATOM      4  O   UNL     1      25.596  10.715  13.506  1.00  0.00    -0.550 OA
ATOM      5  O   UNL     1      24.139  11.700  12.037  1.00  0.00    -0.550 OA
ENDBRANCH   2   3
ENDBRANCH   1   2
BRANCH   1   6
ATOM      6  C   UNL     1      21.324   8.626  12.694  1.00  0.00     0.000 C 
BRANCH   6   7
ATOM      7  C   UNL     1      20.476   9.906  12.687  1.00  0.00    -0.000 C 
BRANCH   7   8
ATOM      8  C   UNL     1      19.194   9.768  13.523  1.00  0.00    -0.003 C 
ATOM      9  C   UNL     1      19.225   8.560  14.459  1.00  0.00     0.004 C 
ENDBRANCH   7   8
ENDBRANCH   6   7
ENDBRANCH   1   6
TORSDOF 5
ENDMDL
MODEL 2
REMARK VINA RESULT:    -4.427      2.025      2.790
REMARK INTER + INTRA:          -5.960
REMARK INTER:                  -5.722
REMARK INTRA:                  -0.238
REMARK UNBOUND:                -0.239
REMARK SMILES CCCCCCC(=O)[O-]
REMARK SMILES IDX 5 1 6 2 7 3 8 4 9 5 4 6 3 7 2 8 1 9
REMARK H PARENT
REMARK Flexibility Score: inf
ROOT
ATOM      1  C   UNL     1      22.185   9.874  11.551  1.00  0.00     0.006 C 
ENDROOT
BRANCH   1   2
ATOM      2  C   UNL     1      21.498  11.106  10.946  1.00  0.00     0.053 C 
BRANCH   2   3
ATOM      3  C   UNL     1      22.486  12.045  10.324  1.00  0.00     0.041 C 
ATOM      4  O   UNL     1      22.326  12.437   9.138  1.00  0.00    -0.550 OA
ATOM      5  O   UNL     1      23.562  12.515  11.066  1.00  0.00    -0.550 OA
ENDBRANCH   2   3
ENDBRANCH   1   2
BRANCH   1   6
ATOM      6  C   UNL     1      21.696   9.575  12.975  1.00  0.00     0.000 C 
BRANCH   6   7
ATOM      7  C   UNL     1      20.988   8.214  13.037  1.00  0.00    -0.000 C 
BRANCH   7   8
ATOM      8  C   UNL     1      19.650   8.279  13.790  1.00  0.00    -0.003 C 
ATOM      9  C   UNL     1      19.024   9.673  13.764  1.00  0.00     0.004 C 
ENDBRANCH   7   8
ENDBRANCH   6   7
ENDBRANCH   1   6
TORSDOF 5
ENDMDL
MODEL 3
REMARK VINA RESULT:    -4.401     14.452     15.151
REMARK INTER + INTRA:          -5.926
REMARK INTER:                  -5.702
REMARK INTRA:                  -0.224
REMARK UNBOUND:                -0.239
REMARK SMILES CCCCCCC(=O)[O-]
REMARK SMILES IDX 5 1 6 2 7 3 8 4 9 5 4 6 3 7 2 8 1 9
REMARK H PARENT
REMARK Flexibility Score: inf
ROOT
ATOM      1  C   UNL     1       9.894  12.898   5.384  1.00  0.00     0.006 C 
ENDROOT
BRANCH   1   2
ATOM      2  C   UNL     1      11.215  13.389   4.777  1.00  0.00     0.053 C 
BRANCH   2   3
ATOM      3  C   UNL     1      11.098  14.785   4.243  1.00  0.00     0.041 C 
ATOM      4  O   UNL     1      11.732  15.727   4.789  1.00  0.00    -0.550 OA
ATOM      5  O   UNL     1      10.317  15.038   3.123  1.00  0.00    -0.550 OA
ENDBRANCH   2   3
ENDBRANCH   1   2
BRANCH   1   6
ATOM      6  C   UNL     1       9.284  11.736   4.587  1.00  0.00     0.000 C 
BRANCH   6   7
ATOM      7  C   UNL     1       8.578  10.741   5.521  1.00  0.00    -0.000 C 
BRANCH   7   8
ATOM      8  C   UNL     1       9.207   9.340   5.473  1.00  0.00    -0.003 C 
ATOM      9  C   UNL     1      10.529   9.310   4.707  1.00  0.00     0.004 C 
ENDBRANCH   7   8
ENDBRANCH   6   7
ENDBRANCH   1   6
TORSDOF 5
ENDMDL
MODEL 4
REMARK VINA RESULT:    -4.393      2.206      2.754
REMARK INTER + INTRA:          -5.916
REMARK INTER:                  -5.729
REMARK INTRA:                  -0.187
REMARK UNBOUND:                -0.239
REMARK SMILES CCCCCCC(=O)[O-]
REMARK SMILES IDX 5 1 6 2 7 3 8 4 9 5 4 6 3 7 2 8 1 9
REMARK H PARENT
REMARK Flexibility Score: inf
ROOT
ATOM      1  C   UNL     1      21.200  10.730  11.472  1.00  0.00     0.006 C 
ENDROOT
BRANCH   1   2
ATOM      2  C   UNL     1      21.770  11.346  10.187  1.00  0.00     0.053 C 
BRANCH   2   3
ATOM      3  C   UNL     1      22.504  12.624  10.461  1.00  0.00     0.041 C 
ATOM      4  O   UNL     1      23.695  12.595  10.871  1.00  0.00    -0.550 OA
ATOM      5  O   UNL     1      21.884  13.846  10.230  1.00  0.00    -0.550 OA
ENDBRANCH   2   3
ENDBRANCH   1   2
BRANCH   1   6
ATOM      6  C   UNL     1      21.999   9.503  11.934  1.00  0.00     0.000 C 
BRANCH   6   7
ATOM      7  C   UNL     1      21.216   8.703  12.985  1.00  0.00    -0.000 C 
BRANCH   7   8
ATOM      8  C   UNL     1      19.876   9.362  13.350  1.00  0.00    -0.003 C 
ATOM      9  C   UNL     1      19.137   8.621  14.465  1.00  0.00     0.004 C 
ENDBRANCH   7   8
ENDBRANCH   6   7
ENDBRANCH   1   6
TORSDOF 5
ENDMDL
MODEL 5
REMARK VINA RESULT:    -4.317     14.838     15.498
REMARK INTER + INTRA:          -5.818
REMARK INTER:                  -5.665
REMARK INTRA:                  -0.153
REMARK UNBOUND:                -0.239
REMARK SMILES CCCCCCC(=O)[O-]
REMARK SMILES IDX 5 1 6 2 7 3 8 4 9 5 4 6 3 7 2 8 1 9
REMARK H PARENT
REMARK Flexibility Score: inf
ROOT
ATOM      1  C   UNL     1       9.238  12.093   5.091  1.00  0.00     0.006 C 
ENDROOT
BRANCH   1   2
ATOM      2  C   UNL     1      10.022  10.830   4.708  1.00  0.00     0.053 C 
BRANCH   2   3
ATOM      3  C   UNL     1       9.365   9.588   5.230  1.00  0.00     0.041 C 
ATOM      4  O   UNL     1       8.419   9.672   6.057  1.00  0.00    -0.550 OA
ATOM      5  O   UNL     1       9.775   8.341   4.776  1.00  0.00    -0.550 OA
ENDBRANCH   2   3
ENDBRANCH   1   2
BRANCH   1   6
ATOM      6  C   UNL     1      10.137  13.166   5.722  1.00  0.00     0.000 C 
BRANCH   6   7
ATOM      7  C   UNL     1      11.289  13.541   4.779  1.00  0.00    -0.000 C 
BRANCH   7   8
ATOM      8  C   UNL     1      11.044  14.870   4.047  1.00  0.00    -0.003 C 
ATOM      9  C   UNL     1      11.670  16.065   4.765  1.00  0.00     0.004 C 
ENDBRANCH   7   8
ENDBRANCH   6   7
ENDBRANCH   1   6
TORSDOF 5
ENDMDL
MODEL 6
REMARK VINA RESULT:    -4.219      3.957      5.300
REMARK INTER + INTRA:          -5.690
REMARK INTER:                  -5.621
REMARK INTRA:                  -0.070
REMARK UNBOUND:                -0.239
REMARK SMILES CCCCCCC(=O)[O-]
REMARK SMILES IDX 5 1 6 2 7 3 8 4 9 5 4 6 3 7 2 8 1 9
REMARK H PARENT
REMARK Flexibility Score: inf
ROOT
ATOM      1  C   UNL     1      20.793  10.772  11.407  1.00  0.00     0.006 C 
ENDROOT
BRANCH   1   2
ATOM      2  C   UNL     1      21.357   9.850  12.497  1.00  0.00     0.053 C 
BRANCH   2   3
ATOM      3  C   UNL     1      20.271   9.105  13.212  1.00  0.00     0.041 C 
ATOM      4  O   UNL     1      20.402   7.877  13.459  1.00  0.00    -0.550 OA
ATOM      5  O   UNL     1      19.130   9.775  13.637  1.00  0.00    -0.550 OA
ENDBRANCH   2   3
ENDBRANCH   1   2
BRANCH   1   6
ATOM      6  C   UNL     1      21.750  10.919  10.216  1.00  0.00     0.000 C 
BRANCH   6   7
ATOM      7  C   UNL     1      22.348  12.333  10.164  1.00  0.00    -0.000 C 
BRANCH   7   8
ATOM      8  C   UNL     1      22.762  12.746   8.743  1.00  0.00    -0.003 C 
ATOM      9  C   UNL     1      24.145  13.396   8.695  1.00  0.00     0.004 C 
ENDBRANCH   7   8
ENDBRANCH   6   7
ENDBRANCH   1   6
TORSDOF 5
ENDMDL
MODEL 7
REMARK VINA RESULT:    -3.832      2.286      4.062
REMARK INTER + INTRA:          -5.191
REMARK INTER:                  -4.888
REMARK INTRA:                  -0.303
REMARK UNBOUND:                -0.239
REMARK SMILES CCCCCCC(=O)[O-]
REMARK SMILES IDX 5 1 6 2 7 3 8 4 9 5 4 6 3 7 2 8 1 9
REMARK H PARENT
REMARK Flexibility Score: inf
ROOT
ATOM      1  C   UNL     1      21.316   8.875  12.474  1.00  0.00     0.006 C 
ENDROOT
BRANCH   1   2
ATOM      2  C   UNL     1      20.875  10.313  12.168  1.00  0.00     0.053 C 
BRANCH   2   3
ATOM      3  C   UNL     1      21.372  10.775  10.832  1.00  0.00     0.041 C 
ATOM      4  O   UNL     1      21.717  11.975  10.665  1.00  0.00    -0.550 OA
ATOM      5  O   UNL     1      21.489   9.873   9.782  1.00  0.00    -0.550 OA
ENDBRANCH   2   3
ENDBRANCH   1   2
BRANCH   1   6
ATOM      6  C   UNL     1      22.839   8.755  12.629  1.00  0.00     0.000 C 
BRANCH   6   7
ATOM      7  C   UNL     1      23.358   9.718  13.707  1.00  0.00    -0.000 C 
BRANCH   7   8
ATOM      8  C   UNL     1      24.689  10.379  13.315  1.00  0.00    -0.003 C 
ATOM      9  C   UNL     1      24.507  11.791  12.757  1.00  0.00     0.004 C 
ENDBRANCH   7   8
ENDBRANCH   6   7
ENDBRANCH   1   6
TORSDOF 5
ENDMDL
MODEL 8
REMARK VINA RESULT:    -3.820      2.777      3.905
REMARK INTER + INTRA:          -5.176
REMARK INTER:                  -4.964
REMARK INTRA:                  -0.212
REMARK UNBOUND:                -0.239
REMARK SMILES CCCCCCC(=O)[O-]
REMARK SMILES IDX 5 1 6 2 7 3 8 4 9 5 4 6 3 7 2 8 1 9
REMARK H PARENT
REMARK Flexibility Score: inf
ROOT
ATOM      1  C   UNL     1      21.796   9.573  11.620  1.00  0.00     0.006 C 
ENDROOT
BRANCH   1   2
ATOM      2  C   UNL     1      22.190   9.704  13.098  1.00  0.00     0.053 C 
BRANCH   2   3
ATOM      3  C   UNL     1      23.643  10.034  13.259  1.00  0.00     0.041 C 
ATOM      4  O   UNL     1      24.103  11.112  12.798  1.00  0.00    -0.550 OA
ATOM      5  O   UNL     1      24.481   9.166  13.948  1.00  0.00    -0.550 OA
ENDBRANCH   2   3
ENDBRANCH   1   2
BRANCH   1   6
ATOM      6  C   UNL     1      21.136  10.850  11.079  1.00  0.00     0.000 C 
BRANCH   6   7
ATOM      7  C   UNL     1      21.972  11.460   9.944  1.00  0.00    -0.000 C 
BRANCH   7   8
ATOM      8  C   UNL     1      22.405  12.904  10.241  1.00  0.00    -0.003 C 
ATOM      9  C   UNL     1      22.635  13.726   8.972  1.00  0.00     0.004 C 
ENDBRANCH   7   8
ENDBRANCH   6   7
ENDBRANCH   1   6
TORSDOF 5
ENDMDL
MODEL 9
REMARK VINA RESULT:    -3.744      2.903      4.024
REMARK INTER + INTRA:          -5.077
REMARK INTER:                  -4.903
REMARK INTRA:                  -0.175
REMARK UNBOUND:                -0.239
REMARK SMILES CCCCCCC(=O)[O-]
REMARK SMILES IDX 5 1 6 2 7 3 8 4 9 5 4 6 3 7 2 8 1 9
REMARK H PARENT
REMARK Flexibility Score: inf
ROOT
ATOM      1  C   UNL     1      21.267  11.026  10.727  1.00  0.00     0.006 C 
ENDROOT
BRANCH   1   2
ATOM      2  C   UNL     1      22.524  11.906  10.758  1.00  0.00     0.053 C 
BRANCH   2   3
ATOM      3  C   UNL     1      22.492  12.959   9.692  1.00  0.00     0.041 C 
ATOM      4  O   UNL     1      22.067  14.115   9.956  1.00  0.00    -0.550 OA
ATOM      5  O   UNL     1      22.964  12.673   8.417  1.00  0.00    -0.550 OA
ENDBRANCH   2   3
ENDBRANCH   1   2
BRANCH   1   6
ATOM      6  C   UNL     1      21.162  10.118  11.961  1.00  0.00     0.000 C 
BRANCH   6   7
ATOM      7  C   UNL     1      22.504   9.429  12.251  1.00  0.00    -0.000 C 
BRANCH   7   8
ATOM      8  C   UNL     1      23.016   9.710  13.673  1.00  0.00    -0.003 C 
ATOM      9  C   UNL     1      24.530   9.545  13.799  1.00  0.00     0.004 C 
ENDBRANCH   7   8
ENDBRANCH   6   7
ENDBRANCH   1   6
TORSDOF 5
ENDMDL
