MODEL 1
REMARK VINA RESULT:    -3.390      0.000      0.000
REMARK INTER + INTRA:          -4.733
REMARK INTER:                  -4.579
REMARK INTRA:                  -0.154
REMARK UNBOUND:                -0.154
REMARK SMILES CCCCCCCC(=O)[O-]
REMARK SMILES IDX 5 1 6 2 7 3 8 4 9 5 10 6 4 7 3 8 2 9 1 10
REMARK H PARENT
REMARK Flexibility Score: inf
ROOT
ATOM      1  C   UNL     1      17.625   1.432  25.437  1.00  0.00     0.000 C 
ENDROOT
BRANCH   1   2
ATOM      2  C   UNL     1      17.020   2.773  24.987  1.00  0.00     0.006 C 
BRANCH   2   3
ATOM      3  C   UNL     1      15.759   3.148  25.777  1.00  0.00     0.053 C 
BRANCH   3   4
ATOM      4  C   UNL     1      14.533   2.742  25.024  1.00  0.00     0.041 C 
ATOM      5  O   UNL     1      13.666   2.010  25.571  1.00  0.00    -0.550 OA
ATOM      6  O   UNL     1      14.320   3.213  23.734  1.00  0.00    -0.550 OA
ENDBRANCH   3   4
ENDBRANCH   2   3
ENDBRANCH   1   2
BRANCH   1   7
ATOM      7  C   UNL     1      18.950   1.608  26.199  1.00  0.00     0.000 C 
BRANCH   7   8
ATOM      8  C   UNL     1      18.819   2.561  27.397  1.00  0.00    -0.000 C 
BRANCH   8   9
ATOM      9  C   UNL     1      19.267   1.917  28.718  1.00  0.00    -0.003 C 
ATOM     10  C   UNL     1      19.239   2.930  29.860  1.00  0.00     0.004 C 
ENDBRANCH   8   9
ENDBRANCH   7   8
ENDBRANCH   1   7
TORSDOF 6
ENDMDL
MODEL 2
REMARK VINA RESULT:    -3.118      3.198      5.718
REMARK INTER + INTRA:          -4.365
REMARK INTER:                  -4.147
REMARK INTRA:                  -0.219
REMARK UNBOUND:                -0.154
REMARK SMILES CCCCCCCC(=O)[O-]
REMARK SMILES IDX 5 1 6 2 7 3 8 4 9 5 10 6 4 7 3 8 2 9 1 10
REMARK H PARENT
REMARK Flexibility Score: inf
ROOT
ATOM      1  C   UNL     1      16.009   3.048  24.965  1.00  0.00     0.000 C 
ENDROOT
BRANCH   1   2
ATOM      2  C   UNL     1      17.262   2.822  25.829  1.00  0.00     0.006 C 
BRANCH   2   3
ATOM      3  C   UNL     1      17.997   1.522  25.475  1.00  0.00     0.053 C 
BRANCH   3   4
ATOM      4  C   UNL     1      19.218   1.366  26.324  1.00  0.00     0.041 C 
ATOM      5  O   UNL     1      20.276   0.890  25.831  1.00  0.00    -0.550 OA
ATOM      6  O   UNL     1      19.206   1.793  27.646  1.00  0.00    -0.550 OA
ENDBRANCH   3   4
ENDBRANCH   2   3
ENDBRANCH   1   2
BRANCH   1   7
ATOM      7  C   UNL     1      14.707   2.724  25.718  1.00  0.00     0.000 C 
BRANCH   7   8
ATOM      8  C   UNL     1      13.491   2.640  24.782  1.00  0.00    -0.000 C 
BRANCH   8   9
ATOM      9  C   UNL     1      13.800   3.137  23.362  1.00  0.00    -0.003 C 
ATOM     10  C   UNL     1      13.073   4.446  23.067  1.00  0.00     0.004 C 
ENDBRANCH   8   9
ENDBRANCH   7   8
ENDBRANCH   1   7
TORSDOF 6
ENDMDL
MODEL 3
REMARK VINA RESULT:    -2.727     15.472     16.562
REMARK INTER + INTRA:          -3.837
REMARK INTER:                  -3.666
REMARK INTRA:                  -0.171
REMARK UNBOUND:                -0.154
REMARK SMILES CCCCCCCC(=O)[O-]
REMARK SMILES IDX 5 1 6 2 7 3 8 4 9 5 10 6 4 7 3 8 2 9 1 10
REMARK H PARENT
REMARK Flexibility Score: inf
ROOT
ATOM      1  C   UNL     1      11.474  16.652  22.104  1.00  0.00     0.000 C 
ENDROOT
BRANCH   1   2
ATOM      2  C   UNL     1      10.974  17.248  23.431  1.00  0.00     0.006 C 
BRANCH   2   3
ATOM      3  C   UNL     1      11.302  16.360  24.639  1.00  0.00     0.053 C 
BRANCH   3   4
ATOM      4  C   UNL     1      12.229  17.071  25.572  1.00  0.00     0.041 C 
ATOM      5  O   UNL     1      12.070  16.974  26.818  1.00  0.00    -0.550 OA
ATOM      6  O   UNL     1      13.299  17.800  25.069  1.00  0.00    -0.550 OA
ENDBRANCH   3   4
ENDBRANCH   2   3
ENDBRANCH   1   2
BRANCH   1   7
ATOM      7  C   UNL     1      12.292  17.659  21.276  1.00  0.00     0.000 C 
BRANCH   7   8
ATOM      8  C   UNL     1      13.001  17.002  20.081  1.00  0.00    -0.000 C 
BRANCH   8   9
ATOM      9  C   UNL     1      13.632  18.029  19.128  1.00  0.00    -0.003 C 
ATOM     10  C   UNL     1      15.142  18.114  19.334  1.00  0.00     0.004 C 
ENDBRANCH   8   9
ENDBRANCH   7   8
ENDBRANCH   1   7
TORSDOF 6
ENDMDL
MODEL 4
REMARK VINA RESULT:    -2.719      1.064      1.655
REMARK INTER + INTRA:          -3.826
REMARK INTER:                  -3.613
REMARK INTRA:                  -0.213
REMARK UNBOUND:                -0.154
REMARK SMILES CCCCCCCC(=O)[O-]
REMARK SMILES IDX 5 1 6 2 7 3 8 4 9 5 10 6 4 7 3 8 2 9 1 10
REMARK H PARENT
REMARK Flexibility Score: inf
ROOT
ATOM      1  C   UNL     1      19.065   1.477  26.094  1.00  0.00     0.000 C 
ENDROOT
BRANCH   1   2
ATOM      2  C   UNL     1      17.686   1.401  25.416  1.00  0.00     0.006 C 
BRANCH   2   3
ATOM      3  C   UNL     1      17.172   2.774  24.964  1.00  0.00     0.053 C 
BRANCH   3   4
ATOM      4  C   UNL     1      15.810   3.032  25.524  1.00  0.00     0.041 C 
ATOM      5  O   UNL     1      15.654   3.877  26.445  1.00  0.00    -0.550 OA
ATOM      6  O   UNL     1      14.705   2.376  24.996  1.00  0.00    -0.550 OA
ENDBRANCH   3   4
ENDBRANCH   2   3
ENDBRANCH   1   2
BRANCH   1   7
ATOM      7  C   UNL     1      19.075   2.424  27.306  1.00  0.00     0.000 C 
BRANCH   7   8
ATOM      8  C   UNL     1      19.159   1.669  28.642  1.00  0.00    -0.000 C 
BRANCH   8   9
ATOM      9  C   UNL     1      19.686   2.548  29.787  1.00  0.00    -0.003 C 
ATOM     10  C   UNL     1      18.670   3.621  30.170  1.00  0.00     0.004 C 
ENDBRANCH   8   9
ENDBRANCH   7   8
ENDBRANCH   1   7
TORSDOF 6
ENDMDL
MODEL 5
REMARK VINA RESULT:    -2.551     15.287     15.925
REMARK INTER + INTRA:          -3.601
REMARK INTER:                  -3.358
REMARK INTRA:                  -0.243
REMARK UNBOUND:                -0.154
REMARK SMILES CCCCCCCC(=O)[O-]
REMARK SMILES IDX 5 1 6 2 7 3 8 4 9 5 10 6 4 7 3 8 2 9 1 10
REMARK H PARENT
REMARK Flexibility Score: inf
ROOT
ATOM      1  C   UNL     1      10.998  15.890  22.722  1.00  0.00     0.000 C 
ENDROOT
BRANCH   1   2
ATOM      2  C   UNL     1      11.120  17.089  21.766  1.00  0.00     0.006 C 
BRANCH   2   3
ATOM      3  C   UNL     1      12.432  17.078  20.970  1.00  0.00     0.053 C 
BRANCH   3   4
ATOM      4  C   UNL     1      12.173  16.708  19.544  1.00  0.00     0.041 C 
ATOM      5  O   UNL     1      12.477  17.505  18.617  1.00  0.00    -0.550 OA
ATOM      6  O   UNL     1      11.644  15.462  19.234  1.00  0.00    -0.550 OA
ENDBRANCH   3   4
ENDBRANCH   2   3
ENDBRANCH   1   2
BRANCH   1   7
ATOM      7  C   UNL     1      10.903  16.318  24.197  1.00  0.00     0.000 C 
BRANCH   7   8
ATOM      8  C   UNL     1      12.062  17.234  24.620  1.00  0.00    -0.000 C 
BRANCH   8   9
ATOM      9  C   UNL     1      12.369  17.146  26.123  1.00  0.00    -0.003 C 
ATOM     10  C   UNL     1      11.189  16.554  26.891  1.00  0.00     0.004 C 
ENDBRANCH   8   9
ENDBRANCH   7   8
ENDBRANCH   1   7
TORSDOF 6
ENDMDL
MODEL 6
REMARK VINA RESULT:    -2.507      3.355      5.505
REMARK INTER + INTRA:          -3.540
REMARK INTER:                  -3.463
REMARK INTRA:                  -0.078
REMARK UNBOUND:                -0.154
REMARK SMILES CCCCCCCC(=O)[O-]
REMARK SMILES IDX 5 1 6 2 7 3 8 4 9 5 10 6 4 7 3 8 2 9 1 10
REMARK H PARENT
REMARK Flexibility Score: inf
ROOT
ATOM      1  C   UNL     1      17.336   2.025  25.187  1.00  0.00     0.000 C 
ENDROOT
BRANCH   1   2
ATOM      2  C   UNL     1      18.443   2.489  26.148  1.00  0.00     0.006 C 
BRANCH   2   3
ATOM      3  C   UNL     1      19.298   1.326  26.670  1.00  0.00     0.053 C 
BRANCH   3   4
ATOM      4  C   UNL     1      20.335   0.948  25.662  1.00  0.00     0.041 C 
ATOM      5  O   UNL     1      20.012   0.294  24.635  1.00  0.00    -0.550 OA
ATOM      6  O   UNL     1      21.651   1.360  25.829  1.00  0.00    -0.550 OA
ENDBRANCH   3   4
ENDBRANCH   2   3
ENDBRANCH   1   2
BRANCH   1   7
ATOM      7  C   UNL     1      16.216   3.069  25.029  1.00  0.00     0.000 C 
BRANCH   7   8
ATOM      8  C   UNL     1      14.993   2.758  25.906  1.00  0.00    -0.000 C 
BRANCH   8   9
ATOM      9  C   UNL     1      13.720   2.512  25.081  1.00  0.00    -0.003 C 
ATOM     10  C   UNL     1      13.748   3.305  23.777  1.00  0.00     0.004 C 
ENDBRANCH   8   9
ENDBRANCH   7   8
ENDBRANCH   1   7
TORSDOF 6
ENDMDL
MODEL 7
REMARK VINA RESULT:    -2.459      3.466      5.311
REMARK INTER + INTRA:          -3.476
REMARK INTER:                  -3.234
REMARK INTRA:                  -0.242
REMARK UNBOUND:                -0.154
REMARK SMILES CCCCCCCC(=O)[O-]
REMARK SMILES IDX 5 1 6 2 7 3 8 4 9 5 10 6 4 7 3 8 2 9 1 10
REMARK H PARENT
REMARK Flexibility Score: inf
ROOT
ATOM      1  C   UNL     1      18.943   1.849  25.715  1.00  0.00     0.000 C 
ENDROOT
BRANCH   1   2
ATOM      2  C   UNL     1      19.157   1.617  27.220  1.00  0.00     0.006 C 
BRANCH   2   3
ATOM      3  C   UNL     1      18.616   2.769  28.078  1.00  0.00     0.053 C 
BRANCH   3   4
ATOM      4  C   UNL     1      19.224   2.732  29.444  1.00  0.00     0.041 C 
ATOM      5  O   UNL     1      20.162   1.931  29.698  1.00  0.00    -0.550 OA
ATOM      6  O   UNL     1      18.790   3.617  30.423  1.00  0.00    -0.550 OA
ENDBRANCH   3   4
ENDBRANCH   2   3
ENDBRANCH   1   2
BRANCH   1   7
ATOM      7  C   UNL     1      17.501   1.552  25.271  1.00  0.00     0.000 C 
BRANCH   7   8
ATOM      8  C   UNL     1      16.692   2.831  25.002  1.00  0.00    -0.000 C 
BRANCH   8   9
ATOM      9  C   UNL     1      15.346   2.848  25.743  1.00  0.00    -0.003 C 
ATOM     10  C   UNL     1      14.179   2.914  24.761  1.00  0.00     0.004 C 
ENDBRANCH   8   9
ENDBRANCH   7   8
ENDBRANCH   1   7
TORSDOF 6
ENDMDL
MODEL 8
REMARK VINA RESULT:    -2.088      1.898      2.528
REMARK INTER + INTRA:          -2.975
REMARK INTER:                  -2.791
REMARK INTRA:                  -0.185
REMARK UNBOUND:                -0.154
REMARK SMILES CCCCCCCC(=O)[O-]
REMARK SMILES IDX 5 1 6 2 7 3 8 4 9 5 10 6 4 7 3 8 2 9 1 10
REMARK H PARENT
REMARK Flexibility Score: inf
ROOT
ATOM      1  C   UNL     1      16.094   2.013  25.407  1.00  0.00     0.000 C 
ENDROOT
BRANCH   1   2
ATOM      2  C   UNL     1      15.108   3.191  25.486  1.00  0.00     0.006 C 
BRANCH   2   3
ATOM      3  C   UNL     1      13.728   2.847  24.908  1.00  0.00     0.053 C 
BRANCH   3   4
ATOM      4  C   UNL     1      13.590   3.403  23.526  1.00  0.00     0.041 C 
ATOM      5  O   UNL     1      13.823   2.675  22.525  1.00  0.00    -0.550 OA
ATOM      6  O   UNL     1      13.154   4.709  23.342  1.00  0.00    -0.550 OA
ENDBRANCH   3   4
ENDBRANCH   2   3
ENDBRANCH   1   2
BRANCH   1   7
ATOM      7  C   UNL     1      17.518   2.459  25.037  1.00  0.00     0.000 C 
BRANCH   7   8
ATOM      8  C   UNL     1      18.466   2.471  26.246  1.00  0.00    -0.000 C 
BRANCH   8   9
ATOM      9  C   UNL     1      19.207   1.138  26.432  1.00  0.00    -0.003 C 
ATOM     10  C   UNL     1      20.435   1.061  25.530  1.00  0.00     0.004 C 
ENDBRANCH   8   9
ENDBRANCH   7   8
ENDBRANCH   1   7
TORSDOF 6
ENDMDL
MODEL 9
REMARK VINA RESULT:    -1.577      3.499      5.353
REMARK INTER + INTRA:          -2.284
REMARK INTER:                  -2.072
REMARK INTRA:                  -0.212
REMARK UNBOUND:                -0.154
REMARK SMILES CCCCCCCC(=O)[O-]
REMARK SMILES IDX 5 1 6 2 7 3 8 4 9 5 10 6 4 7 3 8 2 9 1 10
REMARK H PARENT
REMARK Flexibility Score: inf
ROOT
ATOM      1  C   UNL     1      19.309   1.286  27.325  1.00  0.00     0.000 C 
ENDROOT
BRANCH   1   2
ATOM      2  C   UNL     1      18.855   2.481  28.182  1.00  0.00     0.006 C 
BRANCH   2   3
ATOM      3  C   UNL     1      19.311   2.368  29.643  1.00  0.00     0.053 C 
BRANCH   3   4
ATOM      4  C   UNL     1      18.930   3.598  30.403  1.00  0.00     0.041 C 
ATOM      5  O   UNL     1      17.841   4.181  30.160  1.00  0.00    -0.550 OA
ATOM      6  O   UNL     1      19.753   4.071  31.417  1.00  0.00    -0.550 OA
ENDBRANCH   3   4
ENDBRANCH   2   3
ENDBRANCH   1   2
BRANCH   1   7
ATOM      7  C   UNL     1      19.191   1.563  25.817  1.00  0.00     0.000 C 
BRANCH   7   8
ATOM      8  C   UNL     1      17.744   1.465  25.311  1.00  0.00    -0.000 C 
BRANCH   8   9
ATOM      9  C   UNL     1      17.091   2.841  25.111  1.00  0.00    -0.003 C 
ATOM     10  C   UNL     1      15.639   2.835  25.582  1.00  0.00     0.004 C 
ENDBRANCH   8   9
ENDBRANCH   7   8
ENDBRANCH   1   7
TORSDOF 6
ENDMDL
