MODEL 1
REMARK VINA RESULT:    -4.319      0.000      0.000
REMARK INTER + INTRA:          -5.043
REMARK INTER:                  -4.824
REMARK INTRA:                  -0.218
REMARK UNBOUND:                -0.218
REMARK SMILES CC(C)c1ccc(C(=O)[O-])cc1
REMARK SMILES IDX 7 1 6 2 11 3 5 4 12 5 4 6 8 7 9 8 10 9 2 10 1 11 3 12
REMARK H PARENT
REMARK Flexibility Score: inf
ROOT
ATOM      1  C   UNL     1       7.872   0.156  16.904  1.00  0.00    -0.003 A 
ATOM      2  C   UNL     1       8.960  -0.053  16.039  1.00  0.00     0.010 A 
ATOM      3  C   UNL     1       8.107   0.706  18.174  1.00  0.00     0.010 A 
ATOM      4  C   UNL     1      10.258   0.282  16.439  1.00  0.00     0.004 A 
ATOM      5  C   UNL     1       9.405   1.041  18.573  1.00  0.00     0.004 A 
ATOM      6  C   UNL     1      10.495   0.833  17.708  1.00  0.00    -0.045 A 
ENDROOT
BRANCH   1   7
ATOM      7  C   UNL     1       6.497  -0.198  16.485  1.00  0.00     0.071 C 
ATOM      8  O   UNL     1       6.145  -0.089  15.281  1.00  0.00    -0.545 OA
ATOM      9  O   UNL     1       5.574  -0.656  17.418  1.00  0.00    -0.545 OA
ENDBRANCH   1   7
BRANCH   6  10
ATOM     10  C   UNL     1      11.908   1.192  18.128  1.00  0.00     0.013 C 
ATOM     11  C   UNL     1      12.809   1.405  16.906  1.00  0.00     0.012 C 
ATOM     12  C   UNL     1      11.919   2.423  19.042  1.00  0.00     0.012 C 
ENDBRANCH   6  10
TORSDOF 2
ENDMDL
MODEL 2
REMARK VINA RESULT:    -4.306      0.079      1.399
REMARK INTER + INTRA:          -5.027
REMARK INTER:                  -4.809
REMARK INTRA:                  -0.218
REMARK UNBOUND:                -0.218
REMARK SMILES CC(C)c1ccc(C(=O)[O-])cc1
REMARK SMILES IDX 7 1 6 2 11 3 5 4 12 5 4 6 8 7 9 8 10 9 2 10 1 11 3 12
REMARK H PARENT
REMARK Flexibility Score: inf
ROOT
ATOM      1  C   UNL     1       7.845   0.185  16.854  1.00  0.00    -0.003 A 
ATOM      2  C   UNL     1       8.083   0.678  18.148  1.00  0.00     0.010 A 
ATOM      3  C   UNL     1       8.931   0.015  15.979  1.00  0.00     0.010 A 
ATOM      4  C   UNL     1       9.382   0.994  18.559  1.00  0.00     0.004 A 
ATOM      5  C   UNL     1      10.229   0.332  16.390  1.00  0.00     0.004 A 
ATOM      6  C   UNL     1      10.469   0.824  17.686  1.00  0.00    -0.045 A 
ENDROOT
BRANCH   1   7
ATOM      7  C   UNL     1       6.472  -0.150  16.415  1.00  0.00     0.071 C 
ATOM      8  O   UNL     1       6.118   0.031  15.220  1.00  0.00    -0.545 OA
ATOM      9  O   UNL     1       5.552  -0.670  17.318  1.00  0.00    -0.545 OA
ENDBRANCH   1   7
BRANCH   6  10
ATOM     10  C   UNL     1      11.872   1.172  18.146  1.00  0.00     0.013 C 
ATOM     11  C   UNL     1      12.798   1.424  16.949  1.00  0.00     0.012 C 
ATOM     12  C   UNL     1      11.861   2.375  19.097  1.00  0.00     0.012 C 
ENDBRANCH   6  10
TORSDOF 2
ENDMDL
MODEL 3
REMARK VINA RESULT:    -4.085      3.319      4.907
REMARK INTER + INTRA:          -4.781
REMARK INTER:                  -4.566
REMARK INTRA:                  -0.215
REMARK UNBOUND:                -0.218
REMARK SMILES CC(C)c1ccc(C(=O)[O-])cc1
REMARK SMILES IDX 7 1 6 2 11 3 5 4 12 5 4 6 8 7 9 8 10 9 2 10 1 11 3 12
REMARK H PARENT
REMARK Flexibility Score: inf
ROOT
ATOM      1  C   UNL     1       3.130  -0.426  18.253  1.00  0.00    -0.003 A 
ATOM      2  C   UNL     1       3.846  -0.781  17.097  1.00  0.00     0.010 A 
ATOM      3  C   UNL     1       3.837   0.002  19.387  1.00  0.00     0.010 A 
ATOM      4  C   UNL     1       5.243  -0.709  17.078  1.00  0.00     0.004 A 
ATOM      5  C   UNL     1       5.233   0.075  19.368  1.00  0.00     0.004 A 
ATOM      6  C   UNL     1       5.952  -0.279  18.212  1.00  0.00    -0.045 A 
ENDROOT
BRANCH   1   7
ATOM      7  C   UNL     1       1.652  -0.503  18.277  1.00  0.00     0.071 C 
ATOM      8  O   UNL     1       0.973  -0.119  17.288  1.00  0.00    -0.545 OA
ATOM      9  O   UNL     1       0.992  -1.000  19.395  1.00  0.00    -0.545 OA
ENDBRANCH   1   7
BRANCH   6  10
ATOM     10  C   UNL     1       7.467  -0.206  18.177  1.00  0.00     0.013 C 
ATOM     11  C   UNL     1       8.004  -0.561  16.785  1.00  0.00     0.012 C 
ATOM     12  C   UNL     1       7.964   1.174  18.623  1.00  0.00     0.012 C 
ENDBRANCH   6  10
TORSDOF 2
ENDMDL
MODEL 4
REMARK VINA RESULT:    -3.698      5.221      7.185
REMARK INTER + INTRA:          -4.349
REMARK INTER:                  -4.128
REMARK INTRA:                  -0.221
REMARK UNBOUND:                -0.218
REMARK SMILES CC(C)c1ccc(C(=O)[O-])cc1
REMARK SMILES IDX 7 1 6 2 11 3 5 4 12 5 4 6 8 7 9 8 10 9 2 10 1 11 3 12
REMARK H PARENT
REMARK Flexibility Score: inf
ROOT
ATOM      1  C   UNL     1      14.153   4.384  18.856  1.00  0.00    -0.003 A 
ATOM      2  C   UNL     1      12.800   4.004  18.846  1.00  0.00     0.010 A 
ATOM      3  C   UNL     1      15.115   3.489  18.361  1.00  0.00     0.010 A 
ATOM      4  C   UNL     1      12.418   2.753  18.350  1.00  0.00     0.004 A 
ATOM      5  C   UNL     1      14.734   2.239  17.865  1.00  0.00     0.004 A 
ATOM      6  C   UNL     1      13.379   1.858  17.853  1.00  0.00    -0.045 A 
ENDROOT
BRANCH   1   7
ATOM      7  C   UNL     1      14.561   5.706  19.382  1.00  0.00     0.071 C 
ATOM      8  O   UNL     1      13.716   6.474  19.913  1.00  0.00    -0.545 OA
ATOM      9  O   UNL     1      15.886   6.119  19.296  1.00  0.00    -0.545 OA
ENDBRANCH   1   7
BRANCH   6  10
ATOM     10  C   UNL     1      12.950   0.504  17.317  1.00  0.00     0.013 C 
ATOM     11  C   UNL     1      11.486   0.530  16.863  1.00  0.00     0.012 C 
ATOM     12  C   UNL     1      13.871   0.042  16.182  1.00  0.00     0.012 C 
ENDBRANCH   6  10
TORSDOF 2
ENDMDL
MODEL 5
REMARK VINA RESULT:    -3.688      5.209      7.091
REMARK INTER + INTRA:          -4.338
REMARK INTER:                  -4.116
REMARK INTRA:                  -0.221
REMARK UNBOUND:                -0.218
REMARK SMILES CC(C)c1ccc(C(=O)[O-])cc1
REMARK SMILES IDX 7 1 6 2 11 3 5 4 12 5 4 6 8 7 9 8 10 9 2 10 1 11 3 12
REMARK H PARENT
REMARK Flexibility Score: inf
ROOT
ATOM      1  C   UNL     1      14.160   4.344  18.827  1.00  0.00    -0.003 A 
ATOM      2  C   UNL     1      15.102   3.413  18.356  1.00  0.00     0.010 A 
ATOM      3  C   UNL     1      12.796   4.013  18.788  1.00  0.00     0.010 A 
ATOM      4  C   UNL     1      14.686   2.175  17.856  1.00  0.00     0.004 A 
ATOM      5  C   UNL     1      12.381   2.775  18.288  1.00  0.00     0.004 A 
ATOM      6  C   UNL     1      13.322   1.841  17.817  1.00  0.00    -0.045 A 
ENDROOT
BRANCH   1   7
ATOM      7  C   UNL     1      14.596   5.656  19.356  1.00  0.00     0.071 C 
ATOM      8  O   UNL     1      13.762   6.454  19.860  1.00  0.00    -0.545 OA
ATOM      9  O   UNL     1      15.935   6.026  19.302  1.00  0.00    -0.545 OA
ENDBRANCH   1   7
BRANCH   6  10
ATOM     10  C   UNL     1      12.886   0.494  17.271  1.00  0.00     0.013 C 
ATOM     11  C   UNL     1      11.426   0.534  16.806  1.00  0.00     0.012 C 
ATOM     12  C   UNL     1      13.812   0.029  16.141  1.00  0.00     0.012 C 
ENDBRANCH   6  10
TORSDOF 2
ENDMDL
MODEL 6
REMARK VINA RESULT:    -3.626      4.582      6.430
REMARK INTER + INTRA:          -4.268
REMARK INTER:                  -4.048
REMARK INTRA:                  -0.221
REMARK UNBOUND:                -0.218
REMARK SMILES CC(C)c1ccc(C(=O)[O-])cc1
REMARK SMILES IDX 7 1 6 2 11 3 5 4 12 5 4 6 8 7 9 8 10 9 2 10 1 11 3 12
REMARK H PARENT
REMARK Flexibility Score: inf
ROOT
ATOM      1  C   UNL     1      12.915   3.997  18.849  1.00  0.00    -0.003 A 
ATOM      2  C   UNL     1      11.820   3.772  19.701  1.00  0.00     0.010 A 
ATOM      3  C   UNL     1      13.243   3.024  17.891  1.00  0.00     0.010 A 
ATOM      4  C   UNL     1      11.069   2.597  19.596  1.00  0.00     0.004 A 
ATOM      5  C   UNL     1      12.493   1.849  17.786  1.00  0.00     0.004 A 
ATOM      6  C   UNL     1      11.395   1.623  18.638  1.00  0.00    -0.045 A 
ENDROOT
BRANCH   1   7
ATOM      7  C   UNL     1      13.712   5.239  18.958  1.00  0.00     0.071 C 
ATOM      8  O   UNL     1      13.341   6.175  19.714  1.00  0.00    -0.545 OA
ATOM      9  O   UNL     1      14.884   5.389  18.224  1.00  0.00    -0.545 OA
ENDBRANCH   1   7
BRANCH   6  10
ATOM     10  C   UNL     1      10.572   0.353  18.535  1.00  0.00     0.013 C 
ATOM     11  C   UNL     1       9.078   0.648  18.715  1.00  0.00     0.012 C 
ATOM     12  C   UNL     1      10.835  -0.371  17.210  1.00  0.00     0.012 C 
ENDBRANCH   6  10
TORSDOF 2
ENDMDL
MODEL 7
REMARK VINA RESULT:    -3.502      4.594      6.313
REMARK INTER + INTRA:          -4.130
REMARK INTER:                  -3.913
REMARK INTRA:                  -0.217
REMARK UNBOUND:                -0.218
REMARK SMILES CC(C)c1ccc(C(=O)[O-])cc1
REMARK SMILES IDX 7 1 6 2 11 3 5 4 12 5 4 6 8 7 9 8 10 9 2 10 1 11 3 12
REMARK H PARENT
REMARK Flexibility Score: inf
ROOT
ATOM      1  C   UNL     1      13.689   2.966  18.237  1.00  0.00    -0.003 A 
ATOM      2  C   UNL     1      13.523   1.900  17.336  1.00  0.00     0.010 A 
ATOM      3  C   UNL     1      12.660   3.254  19.148  1.00  0.00     0.010 A 
ATOM      4  C   UNL     1      12.351   1.138  17.347  1.00  0.00     0.004 A 
ATOM      5  C   UNL     1      11.487   2.491  19.159  1.00  0.00     0.004 A 
ATOM      6  C   UNL     1      11.321   1.423  18.258  1.00  0.00    -0.045 A 
ENDROOT
BRANCH   1   7
ATOM      7  C   UNL     1      14.927   3.776  18.228  1.00  0.00     0.071 C 
ATOM      8  O   UNL     1      16.054   3.224  18.113  1.00  0.00    -0.545 OA
ATOM      9  O   UNL     1      14.864   5.160  18.348  1.00  0.00    -0.545 OA
ENDBRANCH   1   7
BRANCH   6  10
ATOM     10  C   UNL     1      10.055   0.588  18.258  1.00  0.00     0.013 C 
ATOM     11  C   UNL     1       8.882   1.364  18.869  1.00  0.00     0.012 C 
ATOM     12  C   UNL     1       9.715   0.098  16.845  1.00  0.00     0.012 C 
ENDBRANCH   6  10
TORSDOF 2
ENDMDL
MODEL 8
REMARK VINA RESULT:    -3.420      2.034      3.143
REMARK INTER + INTRA:          -4.038
REMARK INTER:                  -3.819
REMARK INTRA:                  -0.219
REMARK UNBOUND:                -0.218
REMARK SMILES CC(C)c1ccc(C(=O)[O-])cc1
REMARK SMILES IDX 7 1 6 2 11 3 5 4 12 5 4 6 8 7 9 8 10 9 2 10 1 11 3 12
REMARK H PARENT
REMARK Flexibility Score: inf
ROOT
ATOM      1  C   UNL     1       5.097  -0.310  18.167  1.00  0.00    -0.003 A 
ATOM      2  C   UNL     1       5.657  -0.502  16.892  1.00  0.00     0.010 A 
ATOM      3  C   UNL     1       5.949  -0.065  19.255  1.00  0.00     0.010 A 
ATOM      4  C   UNL     1       7.042  -0.449  16.711  1.00  0.00     0.004 A 
ATOM      5  C   UNL     1       7.335  -0.012  19.074  1.00  0.00     0.004 A 
ATOM      6  C   UNL     1       7.897  -0.203  17.798  1.00  0.00    -0.045 A 
ENDROOT
BRANCH   1   7
ATOM      7  C   UNL     1       3.631  -0.367  18.363  1.00  0.00     0.071 C 
ATOM      8  O   UNL     1       2.917  -1.125  17.654  1.00  0.00    -0.545 OA
ATOM      9  O   UNL     1       3.020   0.418  19.335  1.00  0.00    -0.545 OA
ENDBRANCH   1   7
BRANCH   6  10
ATOM     10  C   UNL     1       9.398  -0.148  17.586  1.00  0.00     0.013 C 
ATOM     11  C   UNL     1       9.737   0.178  16.127  1.00  0.00     0.012 C 
ATOM     12  C   UNL     1      10.055   0.855  18.542  1.00  0.00     0.012 C 
ENDBRANCH   6  10
TORSDOF 2
ENDMDL
MODEL 9
REMARK VINA RESULT:    -3.355      3.383      5.110
REMARK INTER + INTRA:          -3.966
REMARK INTER:                  -3.759
REMARK INTRA:                  -0.207
REMARK UNBOUND:                -0.218
REMARK SMILES CC(C)c1ccc(C(=O)[O-])cc1
REMARK SMILES IDX 7 1 6 2 11 3 5 4 12 5 4 6 8 7 9 8 10 9 2 10 1 11 3 12
REMARK H PARENT
REMARK Flexibility Score: inf
ROOT
ATOM      1  C   UNL     1      11.295   1.043  17.974  1.00  0.00    -0.003 A 
ATOM      2  C   UNL     1      11.124   0.400  16.736  1.00  0.00     0.010 A 
ATOM      3  C   UNL     1      10.183   1.207  18.815  1.00  0.00     0.010 A 
ATOM      4  C   UNL     1       9.865  -0.070  16.349  1.00  0.00     0.004 A 
ATOM      5  C   UNL     1       8.924   0.737  18.428  1.00  0.00     0.004 A 
ATOM      6  C   UNL     1       8.752   0.092  17.190  1.00  0.00    -0.045 A 
ENDROOT
BRANCH   1   7
ATOM      7  C   UNL     1      12.626   1.543  18.386  1.00  0.00     0.071 C 
ATOM      8  O   UNL     1      13.201   2.451  17.731  1.00  0.00    -0.545 OA
ATOM      9  O   UNL     1      13.260   1.014  19.505  1.00  0.00    -0.545 OA
ENDBRANCH   1   7
BRANCH   6  10
ATOM     10  C   UNL     1       7.392  -0.423  16.757  1.00  0.00     0.013 C 
ATOM     11  C   UNL     1       6.408  -0.437  17.932  1.00  0.00     0.012 C 
ATOM     12  C   UNL     1       6.838   0.396  15.585  1.00  0.00     0.012 C 
ENDBRANCH   6  10
TORSDOF 2
ENDMDL
