MODEL 1
REMARK VINA RESULT:    -3.295      0.000      0.000
REMARK INTER + INTRA:          -3.967
REMARK INTER:                  -3.873
REMARK INTRA:                  -0.095
REMARK UNBOUND:                -0.095
REMARK SMILES O=C([O-])CCC(=O)[O-]
REMARK SMILES IDX 4 1 2 2 1 3 3 4 5 5 6 6 7 7 8 8
REMARK H PARENT
REMARK Flexibility Score: inf
ROOT
ATOM      1  C   UNL     1       4.762 -29.117  -1.899  1.00  0.00     0.059 C 
ENDROOT
BRANCH   1   2
ATOM      2  C   UNL     1       4.692 -30.527  -2.400  1.00  0.00     0.042 C 
ATOM      3  O   UNL     1       4.140 -31.421  -1.704  1.00  0.00    -0.550 OA
ATOM      4  O   UNL     1       5.201 -30.848  -3.652  1.00  0.00    -0.550 OA
ENDBRANCH   1   2
BRANCH   1   5
ATOM      5  C   UNL     1       5.635 -29.006  -0.644  1.00  0.00     0.059 C 
BRANCH   5   6
ATOM      6  C   UNL     1       6.949 -28.350  -0.942  1.00  0.00     0.042 C 
ATOM      7  O   UNL     1       7.719 -28.021  -0.002  1.00  0.00    -0.550 OA
ATOM      8  O   UNL     1       7.304 -28.064  -2.254  1.00  0.00    -0.550 OA
ENDBRANCH   5   6
ENDBRANCH   1   5
TORSDOF 3
ENDMDL
MODEL 2
REMARK VINA RESULT:    -3.210     17.933     19.339
REMARK INTER + INTRA:          -3.867
REMARK INTER:                  -3.753
REMARK INTRA:                  -0.114
REMARK UNBOUND:                -0.095
REMARK SMILES O=C([O-])CCC(=O)[O-]
REMARK SMILES IDX 4 1 2 2 1 3 3 4 5 5 6 6 7 7 8 8
REMARK H PARENT
REMARK Flexibility Score: inf
ROOT
ATOM      1  C   UNL     1      13.943 -17.701 -15.506  1.00  0.00     0.059 C 
ENDROOT
BRANCH   1   2
ATOM      2  C   UNL     1      14.232 -16.657 -14.470  1.00  0.00     0.042 C 
ATOM      3  O   UNL     1      13.289 -16.019 -13.932  1.00  0.00    -0.550 OA
ATOM      4  O   UNL     1      15.541 -16.419 -14.070  1.00  0.00    -0.550 OA
ENDBRANCH   1   2
BRANCH   1   5
ATOM      5  C   UNL     1      13.378 -18.979 -14.876  1.00  0.00     0.059 C 
BRANCH   5   6
ATOM      6  C   UNL     1      11.917 -19.138 -15.166  1.00  0.00     0.042 C 
ATOM      7  O   UNL     1      11.538 -19.623 -16.264  1.00  0.00    -0.550 OA
ATOM      8  O   UNL     1      10.972 -18.712 -14.240  1.00  0.00    -0.550 OA
ENDBRANCH   5   6
ENDBRANCH   1   5
TORSDOF 3
ENDMDL
MODEL 3
REMARK VINA RESULT:    -3.190     17.927     19.347
REMARK INTER + INTRA:          -3.844
REMARK INTER:                  -3.727
REMARK INTRA:                  -0.117
REMARK UNBOUND:                -0.095
REMARK SMILES O=C([O-])CCC(=O)[O-]
REMARK SMILES IDX 4 1 2 2 1 3 3 4 5 5 6 6 7 7 8 8
REMARK H PARENT
REMARK Flexibility Score: inf
ROOT
ATOM      1  C   UNL     1      13.953 -17.739 -15.534  1.00  0.00     0.059 C 
ENDROOT
BRANCH   1   2
ATOM      2  C   UNL     1      14.270 -16.706 -14.496  1.00  0.00     0.042 C 
ATOM      3  O   UNL     1      15.467 -16.442 -14.207  1.00  0.00    -0.550 OA
ATOM      4  O   UNL     1      13.243 -16.004 -13.877  1.00  0.00    -0.550 OA
ENDBRANCH   1   2
BRANCH   1   5
ATOM      5  C   UNL     1      13.390 -19.017 -14.904  1.00  0.00     0.059 C 
BRANCH   5   6
ATOM      6  C   UNL     1      11.919 -19.154 -15.155  1.00  0.00     0.042 C 
ATOM      7  O   UNL     1      11.505 -19.654 -16.233  1.00  0.00    -0.550 OA
ATOM      8  O   UNL     1      11.005 -18.690 -14.216  1.00  0.00    -0.550 OA
ENDBRANCH   5   6
ENDBRANCH   1   5
TORSDOF 3
ENDMDL
MODEL 4
REMARK VINA RESULT:    -3.186     17.299     18.448
REMARK INTER + INTRA:          -3.839
REMARK INTER:                  -3.717
REMARK INTRA:                  -0.123
REMARK UNBOUND:                -0.095
REMARK SMILES O=C([O-])CCC(=O)[O-]
REMARK SMILES IDX 4 1 2 2 1 3 3 4 5 5 6 6 7 7 8 8
REMARK H PARENT
REMARK Flexibility Score: inf
ROOT
ATOM      1  C   UNL     1      11.097 -19.107 -14.895  1.00  0.00     0.059 C 
ENDROOT
BRANCH   1   2
ATOM      2  C   UNL     1      11.468 -18.524 -13.566  1.00  0.00     0.042 C 
ATOM      3  O   UNL     1      11.041 -19.046 -12.502  1.00  0.00    -0.550 OA
ATOM      4  O   UNL     1      12.319 -17.427 -13.500  1.00  0.00    -0.550 OA
ENDBRANCH   1   2
BRANCH   1   5
ATOM      5  C   UNL     1      12.236 -19.950 -15.478  1.00  0.00     0.059 C 
BRANCH   5   6
ATOM      6  C   UNL     1      12.928 -19.241 -16.602  1.00  0.00     0.042 C 
ATOM      7  O   UNL     1      13.830 -18.397 -16.358  1.00  0.00    -0.550 OA
ATOM      8  O   UNL     1      12.548 -19.481 -17.917  1.00  0.00    -0.550 OA
ENDBRANCH   5   6
ENDBRANCH   1   5
TORSDOF 3
ENDMDL
MODEL 5
REMARK VINA RESULT:    -3.166     17.200     18.300
REMARK INTER + INTRA:          -3.816
REMARK INTER:                  -3.693
REMARK INTRA:                  -0.123
REMARK UNBOUND:                -0.095
REMARK SMILES O=C([O-])CCC(=O)[O-]
REMARK SMILES IDX 4 1 2 2 1 3 3 4 5 5 6 6 7 7 8 8
REMARK H PARENT
REMARK Flexibility Score: inf
ROOT
ATOM      1  C   UNL     1      12.181 -19.913 -15.355  1.00  0.00     0.059 C 
ENDROOT
BRANCH   1   2
ATOM      2  C   UNL     1      12.887 -19.183 -16.457  1.00  0.00     0.042 C 
ATOM      3  O   UNL     1      13.754 -18.310 -16.186  1.00  0.00    -0.550 OA
ATOM      4  O   UNL     1      12.615 -19.495 -17.783  1.00  0.00    -0.550 OA
ENDBRANCH   1   2
BRANCH   1   5
ATOM      5  C   UNL     1      11.039 -19.078 -14.766  1.00  0.00     0.059 C 
BRANCH   5   6
ATOM      6  C   UNL     1      11.409 -18.496 -13.436  1.00  0.00     0.042 C 
ATOM      7  O   UNL     1      11.023 -19.050 -12.373  1.00  0.00    -0.550 OA
ATOM      8  O   UNL     1      12.143 -17.318 -13.370  1.00  0.00    -0.550 OA
ENDBRANCH   5   6
ENDBRANCH   1   5
TORSDOF 3
ENDMDL
MODEL 6
REMARK VINA RESULT:    -3.153     18.022     19.096
REMARK INTER + INTRA:          -3.801
REMARK INTER:                  -3.694
REMARK INTRA:                  -0.107
REMARK UNBOUND:                -0.095
REMARK SMILES O=C([O-])CCC(=O)[O-]
REMARK SMILES IDX 4 1 2 2 1 3 3 4 5 5 6 6 7 7 8 8
REMARK H PARENT
REMARK Flexibility Score: inf
ROOT
ATOM      1  C   UNL     1      13.476 -19.076 -15.001  1.00  0.00     0.059 C 
ENDROOT
BRANCH   1   2
ATOM      2  C   UNL     1      12.031 -19.195 -15.380  1.00  0.00     0.042 C 
ATOM      3  O   UNL     1      11.705 -19.704 -16.485  1.00  0.00    -0.550 OA
ATOM      4  O   UNL     1      11.044 -18.779 -14.496  1.00  0.00    -0.550 OA
ENDBRANCH   1   2
BRANCH   1   5
ATOM      5  C   UNL     1      14.110 -17.808 -15.583  1.00  0.00     0.059 C 
BRANCH   5   6
ATOM      6  C   UNL     1      14.407 -16.800 -14.515  1.00  0.00     0.042 C 
ATOM      7  O   UNL     1      13.476 -16.118 -14.012  1.00  0.00    -0.550 OA
ATOM      8  O   UNL     1      15.717 -16.585 -14.105  1.00  0.00    -0.550 OA
ENDBRANCH   5   6
ENDBRANCH   1   5
TORSDOF 3
ENDMDL
MODEL 7
REMARK VINA RESULT:    -3.125     17.060     18.423
REMARK INTER + INTRA:          -3.768
REMARK INTER:                  -3.593
REMARK INTRA:                  -0.175
REMARK UNBOUND:                -0.095
REMARK SMILES O=C([O-])CCC(=O)[O-]
REMARK SMILES IDX 4 1 2 2 1 3 3 4 5 5 6 6 7 7 8 8
REMARK H PARENT
REMARK Flexibility Score: inf
ROOT
ATOM      1  C   UNL     1      13.286 -17.429 -13.024  1.00  0.00     0.059 C 
ENDROOT
BRANCH   1   2
ATOM      2  C   UNL     1      14.024 -17.408 -14.327  1.00  0.00     0.042 C 
ATOM      3  O   UNL     1      13.916 -16.420 -15.101  1.00  0.00    -0.550 OA
ATOM      4  O   UNL     1      14.863 -18.461 -14.669  1.00  0.00    -0.550 OA
ENDBRANCH   1   2
BRANCH   1   5
ATOM      5  C   UNL     1      11.783 -17.647 -13.230  1.00  0.00     0.059 C 
BRANCH   5   6
ATOM      6  C   UNL     1      11.497 -18.992 -13.825  1.00  0.00     0.042 C 
ATOM      7  O   UNL     1      11.732 -20.039 -13.166  1.00  0.00    -0.550 OA
ATOM      8  O   UNL     1      11.008 -19.090 -15.122  1.00  0.00    -0.550 OA
ENDBRANCH   5   6
ENDBRANCH   1   5
TORSDOF 3
ENDMDL
MODEL 8
REMARK VINA RESULT:    -3.086     17.284     18.609
REMARK INTER + INTRA:          -3.722
REMARK INTER:                  -3.602
REMARK INTRA:                  -0.120
REMARK UNBOUND:                -0.095
REMARK SMILES O=C([O-])CCC(=O)[O-]
REMARK SMILES IDX 4 1 2 2 1 3 3 4 5 5 6 6 7 7 8 8
REMARK H PARENT
REMARK Flexibility Score: inf
ROOT
ATOM      1  C   UNL     1      12.507 -18.747 -13.982  1.00  0.00     0.059 C 
ENDROOT
BRANCH   1   2
ATOM      2  C   UNL     1      13.249 -17.556 -14.507  1.00  0.00     0.042 C 
ATOM      3  O   UNL     1      13.198 -16.456 -13.895  1.00  0.00    -0.550 OA
ATOM      4  O   UNL     1      14.029 -17.671 -15.650  1.00  0.00    -0.550 OA
ENDBRANCH   1   2
BRANCH   1   5
ATOM      5  C   UNL     1      11.409 -19.200 -14.950  1.00  0.00     0.059 C 
BRANCH   5   6
ATOM      6  C   UNL     1      11.782 -20.470 -15.651  1.00  0.00     0.042 C 
ATOM      7  O   UNL     1      12.439 -20.432 -16.725  1.00  0.00    -0.550 OA
ATOM      8  O   UNL     1      11.368 -21.695 -15.141  1.00  0.00    -0.550 OA
ENDBRANCH   5   6
ENDBRANCH   1   5
TORSDOF 3
ENDMDL
