MODEL 1
REMARK VINA RESULT:    -6.610      0.000      0.000
REMARK INTER + INTRA:          -6.996
REMARK INTER:                  -6.996
REMARK INTRA:                   0.000
REMARK UNBOUND:                 0.000
REMARK SMILES O=c1ccc2cc(O)c(O)cc2o1
REMARK SMILES IDX 4 1 3 2 2 3 1 4 13 5 12 6 11 7 9 8 7 9 6 10 5 11 8 12 10 14
REMARK H PARENT 8 13 10 15
REMARK Flexibility Score: inf
ROOT
ATOM      1  C   UNL     1      -6.785   5.438   8.020  1.00  0.00     0.019 A 
ATOM      2  C   UNL     1      -6.393   4.102   7.938  1.00  0.00     0.094 A 
ATOM      3  C   UNL     1      -5.239   3.778   7.216  1.00  0.00     0.336 A 
ATOM      4  O   UNL     1      -4.868   2.579   7.130  1.00  0.00    -0.246 OA
ATOM      5  O   UNL     1      -4.528   4.732   6.619  1.00  0.00    -0.423 OA
ATOM      6  C   UNL     1      -4.868   6.018   6.673  1.00  0.00     0.142 A 
ATOM      7  C   UNL     1      -4.082   6.976   6.025  1.00  0.00     0.098 A 
ATOM      8  C   UNL     1      -4.432   8.330   6.076  1.00  0.00     0.161 A 
ATOM      9  C   UNL     1      -5.580   8.733   6.784  1.00  0.00     0.158 A 
ATOM     10  C   UNL     1      -6.371   7.774   7.435  1.00  0.00     0.062 A 
ATOM     11  C   UNL     1      -6.020   6.419   7.383  1.00  0.00     0.022 A 
ENDROOT
BRANCH   9  12
ATOM     12  O   UNL     1      -5.930  10.081   6.836  1.00  0.00    -0.504 OA
ATOM     13  H   UNL     1      -5.742  10.647   7.656  1.00  0.00     0.293 HD
ENDBRANCH   9  12
BRANCH   8  14
ATOM     14  O   UNL     1      -3.628   9.262   5.419  1.00  0.00    -0.504 OA
ATOM     15  H   UNL     1      -3.450  10.182   5.801  1.00  0.00     0.293 HD
ENDBRANCH   8  14
TORSDOF 2
ENDMDL
MODEL 2
REMARK VINA RESULT:    -6.353      1.203      2.285
REMARK INTER + INTRA:          -6.724
REMARK INTER:                  -6.724
REMARK INTRA:                   0.000
REMARK UNBOUND:                 0.000
REMARK SMILES O=c1ccc2cc(O)c(O)cc2o1
REMARK SMILES IDX 4 1 3 2 2 3 1 4 13 5 12 6 11 7 9 8 7 9 6 10 5 11 8 12 10 14
REMARK H PARENT 8 13 10 15
REMARK Flexibility Score: inf
ROOT
ATOM      1  C   UNL     1      -4.544   4.731   6.728  1.00  0.00     0.019 A 
ATOM      2  C   UNL     1      -5.356   3.837   7.427  1.00  0.00     0.094 A 
ATOM      3  C   UNL     1      -6.489   4.325   8.087  1.00  0.00     0.336 A 
ATOM      4  O   UNL     1      -7.234   3.535   8.723  1.00  0.00    -0.246 OA
ATOM      5  O   UNL     1      -6.785   5.621   8.048  1.00  0.00    -0.423 OA
ATOM      6  C   UNL     1      -6.037   6.507   7.393  1.00  0.00     0.142 A 
ATOM      7  C   UNL     1      -6.399   7.858   7.387  1.00  0.00     0.098 A 
ATOM      8  C   UNL     1      -5.618   8.796   6.702  1.00  0.00     0.161 A 
ATOM      9  C   UNL     1      -4.462   8.380   6.014  1.00  0.00     0.158 A 
ATOM     10  C   UNL     1      -4.097   7.025   6.018  1.00  0.00     0.062 A 
ATOM     11  C   UNL     1      -4.879   6.087   6.704  1.00  0.00     0.022 A 
ENDROOT
BRANCH   9  12
ATOM     12  O   UNL     1      -3.685   9.313   5.331  1.00  0.00    -0.504 OA
ATOM     13  H   UNL     1      -3.547  10.252   5.686  1.00  0.00     0.293 HD
ENDBRANCH   9  12
BRANCH   8  14
ATOM     14  O   UNL     1      -6.004  10.136   6.715  1.00  0.00    -0.504 OA
ATOM     15  H   UNL     1      -6.059  10.672   7.573  1.00  0.00     0.293 HD
ENDBRANCH   8  14
TORSDOF 2
ENDMDL
MODEL 3
REMARK VINA RESULT:    -6.213      1.093      5.044
REMARK INTER + INTRA:          -6.576
REMARK INTER:                  -6.576
REMARK INTRA:                   0.000
REMARK UNBOUND:                 0.000
REMARK SMILES O=c1ccc2cc(O)c(O)cc2o1
REMARK SMILES IDX 4 1 3 2 2 3 1 4 13 5 12 6 11 7 9 8 7 9 6 10 5 11 8 12 10 14
REMARK H PARENT 8 13 10 15
REMARK Flexibility Score: inf
ROOT
ATOM      1  C   UNL     1      -4.148   7.249   5.913  1.00  0.00     0.019 A 
ATOM      2  C   UNL     1      -4.551   8.581   5.995  1.00  0.00     0.094 A 
ATOM      3  C   UNL     1      -5.690   8.900   6.743  1.00  0.00     0.336 A 
ATOM      4  O   UNL     1      -6.070  10.097   6.829  1.00  0.00    -0.246 OA
ATOM      5  O   UNL     1      -6.376   7.945   7.366  1.00  0.00    -0.423 OA
ATOM      6  C   UNL     1      -6.026   6.662   7.313  1.00  0.00     0.142 A 
ATOM      7  C   UNL     1      -6.786   5.701   7.988  1.00  0.00     0.098 A 
ATOM      8  C   UNL     1      -6.425   4.350   7.937  1.00  0.00     0.161 A 
ATOM      9  C   UNL     1      -5.290   3.953   7.204  1.00  0.00     0.158 A 
ATOM     10  C   UNL     1      -4.526   4.914   6.526  1.00  0.00     0.062 A 
ATOM     11  C   UNL     1      -4.888   6.266   6.577  1.00  0.00     0.022 A 
ENDROOT
BRANCH   9  12
ATOM     12  O   UNL     1      -4.930   2.608   7.154  1.00  0.00    -0.504 OA
ATOM     13  H   UNL     1      -4.956   2.083   6.287  1.00  0.00     0.293 HD
ENDBRANCH   9  12
BRANCH   8  14
ATOM     14  O   UNL     1      -7.204   3.416   8.620  1.00  0.00    -0.504 OA
ATOM     15  H   UNL     1      -7.439   2.516   8.220  1.00  0.00     0.293 HD
ENDBRANCH   8  14
TORSDOF 2
ENDMDL
MODEL 4
REMARK VINA RESULT:    -6.023     14.188     15.563
REMARK INTER + INTRA:          -6.375
REMARK INTER:                  -6.375
REMARK INTRA:                   0.000
REMARK UNBOUND:                 0.000
REMARK SMILES O=c1ccc2cc(O)c(O)cc2o1
REMARK SMILES IDX 4 1 3 2 2 3 1 4 13 5 12 6 11 7 9 8 7 9 6 10 5 11 8 12 10 14
REMARK H PARENT 8 13 10 15
REMARK Flexibility Score: inf
ROOT
ATOM      1  C   UNL     1       8.365  11.125   1.653  1.00  0.00     0.019 A 
ATOM      2  C   UNL     1       8.205  10.820   3.004  1.00  0.00     0.094 A 
ATOM      3  C   UNL     1       8.024   9.485   3.381  1.00  0.00     0.336 A 
ATOM      4  O   UNL     1       7.877   9.189   4.595  1.00  0.00    -0.246 OA
ATOM      5  O   UNL     1       8.006   8.523   2.462  1.00  0.00    -0.423 OA
ATOM      6  C   UNL     1       8.155   8.771   1.163  1.00  0.00     0.142 A 
ATOM      7  C   UNL     1       8.127   7.717   0.243  1.00  0.00     0.098 A 
ATOM      8  C   UNL     1       8.283   7.970  -1.125  1.00  0.00     0.161 A 
ATOM      9  C   UNL     1       8.469   9.289  -1.580  1.00  0.00     0.158 A 
ATOM     10  C   UNL     1       8.498  10.347  -0.660  1.00  0.00     0.062 A 
ATOM     11  C   UNL     1       8.342  10.094   0.709  1.00  0.00     0.022 A 
ENDROOT
BRANCH   9  12
ATOM     12  O   UNL     1       8.625   9.541  -2.942  1.00  0.00    -0.504 OA
ATOM     13  H   UNL     1       9.235   8.975  -3.520  1.00  0.00     0.293 HD
ENDBRANCH   9  12
BRANCH   8  14
ATOM     14  O   UNL     1       8.250   6.898  -2.018  1.00  0.00    -0.504 OA
ATOM     15  H   UNL     1       8.519   5.961  -1.744  1.00  0.00     0.293 HD
ENDBRANCH   8  14
TORSDOF 2
ENDMDL
MODEL 5
REMARK VINA RESULT:    -5.837      1.137      4.506
REMARK INTER + INTRA:          -6.178
REMARK INTER:                  -6.178
REMARK INTRA:                   0.000
REMARK UNBOUND:                 0.000
REMARK SMILES O=c1ccc2cc(O)c(O)cc2o1
REMARK SMILES IDX 4 1 3 2 2 3 1 4 13 5 12 6 11 7 9 8 7 9 6 10 5 11 8 12 10 14
REMARK H PARENT 8 13 10 15
REMARK Flexibility Score: inf
ROOT
ATOM      1  C   UNL     1      -6.332   7.985   7.419  1.00  0.00     0.019 A 
ATOM      2  C   UNL     1      -5.522   8.863   6.699  1.00  0.00     0.094 A 
ATOM      3  C   UNL     1      -4.444   8.347   5.970  1.00  0.00     0.336 A 
ATOM      4  O   UNL     1      -3.701   9.123   5.314  1.00  0.00    -0.246 OA
ATOM      5  O   UNL     1      -4.199   7.040   5.965  1.00  0.00    -0.423 OA
ATOM      6  C   UNL     1      -4.947   6.168   6.639  1.00  0.00     0.142 A 
ATOM      7  C   UNL     1      -4.640   4.804   6.596  1.00  0.00     0.098 A 
ATOM      8  C   UNL     1      -5.421   3.882   7.301  1.00  0.00     0.161 A 
ATOM      9  C   UNL     1      -6.523   4.326   8.057  1.00  0.00     0.158 A 
ATOM     10  C   UNL     1      -6.834   5.693   8.102  1.00  0.00     0.062 A 
ATOM     11  C   UNL     1      -6.051   6.616   7.396  1.00  0.00     0.022 A 
ENDROOT
BRANCH   9  12
ATOM     12  O   UNL     1      -7.302   3.408   8.759  1.00  0.00    -0.504 OA
ATOM     13  H   UNL     1      -8.298   3.544   8.886  1.00  0.00     0.293 HD
ENDBRANCH   9  12
BRANCH   8  14
ATOM     14  O   UNL     1      -5.090   2.529   7.240  1.00  0.00    -0.504 OA
ATOM     15  H   UNL     1      -4.550   2.073   7.966  1.00  0.00     0.293 HD
ENDBRANCH   8  14
TORSDOF 2
ENDMDL
MODEL 6
REMARK VINA RESULT:    -5.515     14.226     14.985
REMARK INTER + INTRA:          -5.837
REMARK INTER:                  -5.837
REMARK INTRA:                   0.000
REMARK UNBOUND:                 0.000
REMARK SMILES O=c1ccc2cc(O)c(O)cc2o1
REMARK SMILES IDX 4 1 3 2 2 3 1 4 13 5 12 6 11 7 9 8 7 9 6 10 5 11 8 12 10 14
REMARK H PARENT 8 13 10 15
REMARK Flexibility Score: inf
ROOT
ATOM      1  C   UNL     1       7.493   9.830   3.274  1.00  0.00     0.019 A 
ATOM      2  C   UNL     1       8.249   9.027   4.126  1.00  0.00     0.094 A 
ATOM      3  C   UNL     1       9.156   8.116   3.573  1.00  0.00     0.336 A 
ATOM      4  O   UNL     1       9.848   7.382   4.325  1.00  0.00    -0.246 OA
ATOM      5  O   UNL     1       9.293   8.021   2.253  1.00  0.00    -0.423 OA
ATOM      6  C   UNL     1       8.590   8.768   1.404  1.00  0.00     0.142 A 
ATOM      7  C   UNL     1       8.777   8.623   0.025  1.00  0.00     0.098 A 
ATOM      8  C   UNL     1       8.042   9.405  -0.873  1.00  0.00     0.161 A 
ATOM      9  C   UNL     1       7.110  10.343  -0.390  1.00  0.00     0.158 A 
ATOM     10  C   UNL     1       6.921  10.491   0.992  1.00  0.00     0.062 A 
ATOM     11  C   UNL     1       7.656   9.708   1.891  1.00  0.00     0.022 A 
ENDROOT
BRANCH   9  12
ATOM     12  O   UNL     1       6.379  11.122  -1.284  1.00  0.00    -0.504 OA
ATOM     13  H   UNL     1       6.323  10.890  -2.269  1.00  0.00     0.293 HD
ENDBRANCH   9  12
BRANCH   8  14
ATOM     14  O   UNL     1       8.250   9.237  -2.242  1.00  0.00    -0.504 OA
ATOM     15  H   UNL     1       8.016   8.375  -2.720  1.00  0.00     0.293 HD
ENDBRANCH   8  14
TORSDOF 2
ENDMDL
MODEL 7
REMARK VINA RESULT:    -4.818     14.436     15.561
REMARK INTER + INTRA:          -5.100
REMARK INTER:                  -5.100
REMARK INTRA:                   0.000
REMARK UNBOUND:                 0.000
REMARK SMILES O=c1ccc2cc(O)c(O)cc2o1
REMARK SMILES IDX 4 1 3 2 2 3 1 4 13 5 12 6 11 7 9 8 7 9 6 10 5 11 8 12 10 14
REMARK H PARENT 8 13 10 15
REMARK Flexibility Score: inf
ROOT
ATOM      1  C   UNL     1      -9.166  -9.116   3.546  1.00  0.00     0.019 A 
ATOM      2  C   UNL     1      -8.743  -8.726   2.276  1.00  0.00     0.094 A 
ATOM      3  C   UNL     1      -7.563  -7.984   2.152  1.00  0.00     0.336 A 
ATOM      4  O   UNL     1      -7.165  -7.622   1.015  1.00  0.00    -0.246 OA
ATOM      5  O   UNL     1      -6.858  -7.657   3.232  1.00  0.00    -0.423 OA
ATOM      6  C   UNL     1      -7.226  -8.009   4.462  1.00  0.00     0.142 A 
ATOM      7  C   UNL     1      -6.443  -7.636   5.559  1.00  0.00     0.098 A 
ATOM      8  C   UNL     1      -6.823  -8.001   6.855  1.00  0.00     0.161 A 
ATOM      9  C   UNL     1      -7.998  -8.749   7.059  1.00  0.00     0.158 A 
ATOM     10  C   UNL     1      -8.786  -9.125   5.960  1.00  0.00     0.062 A 
ATOM     11  C   UNL     1      -8.405  -8.758   4.663  1.00  0.00     0.022 A 
ENDROOT
BRANCH   9  12
ATOM     12  O   UNL     1      -8.377  -9.114   8.349  1.00  0.00    -0.504 OA
ATOM     13  H   UNL     1      -7.866  -9.813   8.876  1.00  0.00     0.293 HD
ENDBRANCH   9  12
BRANCH   8  14
ATOM     14  O   UNL     1      -6.022  -7.614   7.929  1.00  0.00    -0.504 OA
ATOM     15  H   UNL     1      -6.406  -7.172   8.756  1.00  0.00     0.293 HD
ENDBRANCH   8  14
TORSDOF 2
ENDMDL
MODEL 8
REMARK VINA RESULT:    -4.784     13.178     14.617
REMARK INTER + INTRA:          -5.063
REMARK INTER:                  -5.063
REMARK INTRA:                   0.000
REMARK UNBOUND:                 0.000
REMARK SMILES O=c1ccc2cc(O)c(O)cc2o1
REMARK SMILES IDX 4 1 3 2 2 3 1 4 13 5 12 6 11 7 9 8 7 9 6 10 5 11 8 12 10 14
REMARK H PARENT 8 13 10 15
REMARK Flexibility Score: inf
ROOT
ATOM      1  C   UNL     1      -7.689  -8.719   3.539  1.00  0.00     0.019 A 
ATOM      2  C   UNL     1      -6.488  -9.125   2.956  1.00  0.00     0.094 A 
ATOM      3  C   UNL     1      -5.282  -8.769   3.569  1.00  0.00     0.336 A 
ATOM      4  O   UNL     1      -4.189  -9.125   3.059  1.00  0.00    -0.246 OA
ATOM      5  O   UNL     1      -5.283  -8.054   4.692  1.00  0.00    -0.423 OA
ATOM      6  C   UNL     1      -6.406  -7.646   5.280  1.00  0.00     0.142 A 
ATOM      7  C   UNL     1      -6.345  -6.896   6.459  1.00  0.00     0.098 A 
ATOM      8  C   UNL     1      -7.520  -6.464   7.083  1.00  0.00     0.161 A 
ATOM      9  C   UNL     1      -8.772  -6.784   6.524  1.00  0.00     0.158 A 
ATOM     10  C   UNL     1      -8.837  -7.536   5.342  1.00  0.00     0.062 A 
ATOM     11  C   UNL     1      -7.660  -7.968   4.717  1.00  0.00     0.022 A 
ENDROOT
BRANCH   9  12
ATOM     12  O   UNL     1      -9.943  -6.354   7.146  1.00  0.00    -0.504 OA
ATOM     13  H   UNL     1     -10.259  -5.393   7.079  1.00  0.00     0.293 HD
ENDBRANCH   9  12
BRANCH   8  14
ATOM     14  O   UNL     1      -7.426  -5.717   8.258  1.00  0.00    -0.504 OA
ATOM     15  H   UNL     1      -7.073  -4.768   8.266  1.00  0.00     0.293 HD
ENDBRANCH   8  14
TORSDOF 2
ENDMDL
MODEL 9
REMARK VINA RESULT:    -4.538      1.835      4.230
REMARK INTER + INTRA:          -4.803
REMARK INTER:                  -4.803
REMARK INTRA:                   0.000
REMARK UNBOUND:                 0.000
REMARK SMILES O=c1ccc2cc(O)c(O)cc2o1
REMARK SMILES IDX 4 1 3 2 2 3 1 4 13 5 12 6 11 7 9 8 7 9 6 10 5 11 8 12 10 14
REMARK H PARENT 8 13 10 15
REMARK Flexibility Score: inf
ROOT
ATOM      1  C   UNL     1      -5.017   8.147   6.732  1.00  0.00     0.019 A 
ATOM      2  C   UNL     1      -4.097   8.219   5.687  1.00  0.00     0.094 A 
ATOM      3  C   UNL     1      -3.704   7.038   5.048  1.00  0.00     0.336 A 
ATOM      4  O   UNL     1      -2.874   7.082   4.103  1.00  0.00    -0.246 OA
ATOM      5  O   UNL     1      -4.202   5.866   5.433  1.00  0.00    -0.423 OA
ATOM      6  C   UNL     1      -5.082   5.754   6.426  1.00  0.00     0.142 A 
ATOM      7  C   UNL     1      -5.571   4.494   6.787  1.00  0.00     0.098 A 
ATOM      8  C   UNL     1      -6.496   4.368   7.830  1.00  0.00     0.161 A 
ATOM      9  C   UNL     1      -6.939   5.512   8.520  1.00  0.00     0.158 A 
ATOM     10  C   UNL     1      -6.450   6.777   8.160  1.00  0.00     0.062 A 
ATOM     11  C   UNL     1      -5.524   6.903   7.116  1.00  0.00     0.022 A 
ENDROOT
BRANCH   9  12
ATOM     12  O   UNL     1      -7.860   5.387   9.558  1.00  0.00    -0.504 OA
ATOM     13  H   UNL     1      -8.138   6.183  10.121  1.00  0.00     0.293 HD
ENDBRANCH   9  12
BRANCH   8  14
ATOM     14  O   UNL     1      -6.965   3.098   8.167  1.00  0.00    -0.504 OA
ATOM     15  H   UNL     1      -7.608   2.948   8.935  1.00  0.00     0.293 HD
ENDBRANCH   8  14
TORSDOF 2
ENDMDL
