MODEL 1
REMARK VINA RESULT:    -4.397      0.000      0.000
REMARK INTER + INTRA:          -9.155
REMARK INTER:                  -7.996
REMARK INTRA:                  -1.160
REMARK UNBOUND:                -1.160
REMARK SMILES CCCCCCCCCCCCCCCC(=O)[O-]
REMARK SMILES IDX 9 1 10 2 11 3 12 4 13 5 14 6 15 7 16 8 17 9 18 10 8 11 7 12
REMARK SMILES IDX 6 13 5 14 4 15 3 16 2 17 1 18
REMARK H PARENT
REMARK Flexibility Score: inf
ROOT
ATOM      1  C   UNL     1       7.442  -4.859  -4.050  1.00  0.00     0.000 C 
ENDROOT
BRANCH   1   2
ATOM      2  C   UNL     1       8.479  -5.838  -3.478  1.00  0.00     0.000 C 
BRANCH   2   3
ATOM      3  C   UNL     1       8.535  -7.164  -4.257  1.00  0.00     0.000 C 
BRANCH   3   4
ATOM      4  C   UNL     1       8.050  -8.366  -3.427  1.00  0.00     0.000 C 
BRANCH   4   5
ATOM      5  C   UNL     1       8.018  -8.130  -1.906  1.00  0.00     0.000 C 
BRANCH   5   6
ATOM      6  C   UNL     1       7.678  -9.402  -1.109  1.00  0.00     0.006 C 
BRANCH   6   7
ATOM      7  C   UNL     1       8.072  -9.280   0.369  1.00  0.00     0.053 C 
BRANCH   7   8
ATOM      8  C   UNL     1       6.986  -9.777   1.273  1.00  0.00     0.041 C 
ATOM      9  O   UNL     1       7.275 -10.352   2.355  1.00  0.00    -0.550 OA
ATOM     10  O   UNL     1       5.654  -9.637   0.902  1.00  0.00    -0.550 OA
ENDBRANCH   7   8
ENDBRANCH   6   7
ENDBRANCH   5   6
ENDBRANCH   4   5
ENDBRANCH   3   4
ENDBRANCH   2   3
ENDBRANCH   1   2
BRANCH   1  11
ATOM     11  C   UNL     1       8.093  -3.625  -4.699  1.00  0.00     0.000 C 
BRANCH  11  12
ATOM     12  C   UNL     1       7.877  -3.576  -6.220  1.00  0.00    -0.000 C 
BRANCH  12  13
ATOM     13  C   UNL     1       8.766  -4.576  -6.980  1.00  0.00    -0.000 C 
BRANCH  13  14
ATOM     14  C   UNL     1       7.953  -5.545  -7.852  1.00  0.00    -0.000 C 
BRANCH  14  15
ATOM     15  C   UNL     1       8.680  -6.881  -8.088  1.00  0.00    -0.000 C 
BRANCH  15  16
ATOM     16  C   UNL     1       7.961  -7.758  -9.134  1.00  0.00    -0.000 C 
BRANCH  16  17
ATOM     17  C   UNL     1       7.094  -8.868  -8.515  1.00  0.00    -0.003 C 
ATOM     18  C   UNL     1       7.780  -9.591  -7.358  1.00  0.00     0.004 C 
ENDBRANCH  16  17
ENDBRANCH  15  16
ENDBRANCH  14  15
ENDBRANCH  13  14
ENDBRANCH  12  13
ENDBRANCH  11  12
ENDBRANCH   1  11
TORSDOF 14
ENDMDL
MODEL 2
REMARK VINA RESULT:    -4.358      3.611      8.343
REMARK INTER + INTRA:          -9.084
REMARK INTER:                  -8.234
REMARK INTRA:                  -0.850
REMARK UNBOUND:                -1.160
REMARK SMILES CCCCCCCCCCCCCCCC(=O)[O-]
REMARK SMILES IDX 9 1 10 2 11 3 12 4 13 5 14 6 15 7 16 8 17 9 18 10 8 11 7 12
REMARK SMILES IDX 6 13 5 14 4 15 3 16 2 17 1 18
REMARK H PARENT
REMARK Flexibility Score: inf
ROOT
ATOM      1  C   UNL     1       8.023  -7.358  -3.578  1.00  0.00     0.000 C 
ENDROOT
BRANCH   1   2
ATOM      2  C   UNL     1       8.898  -6.210  -3.049  1.00  0.00     0.000 C 
BRANCH   2   3
ATOM      3  C   UNL     1       8.378  -4.825  -3.472  1.00  0.00     0.000 C 
BRANCH   3   4
ATOM      4  C   UNL     1       7.522  -4.872  -4.751  1.00  0.00     0.000 C 
BRANCH   4   5
ATOM      5  C   UNL     1       7.893  -3.823  -5.815  1.00  0.00     0.000 C 
BRANCH   5   6
ATOM      6  C   UNL     1       8.714  -4.413  -6.975  1.00  0.00     0.006 C 
BRANCH   6   7
ATOM      7  C   UNL     1       8.994  -5.909  -6.783  1.00  0.00     0.053 C 
BRANCH   7   8
ATOM      8  C   UNL     1       8.419  -6.727  -7.898  1.00  0.00     0.041 C 
ATOM      9  O   UNL     1       7.563  -6.228  -8.675  1.00  0.00    -0.550 OA
ATOM     10  O   UNL     1       8.801  -8.054  -8.056  1.00  0.00    -0.550 OA
ENDBRANCH   7   8
ENDBRANCH   6   7
ENDBRANCH   5   6
ENDBRANCH   4   5
ENDBRANCH   3   4
ENDBRANCH   2   3
ENDBRANCH   1   2
BRANCH   1  11
ATOM     11  C   UNL     1       8.203  -8.655  -2.771  1.00  0.00     0.000 C 
BRANCH  11  12
ATOM     12  C   UNL     1       7.751  -8.508  -1.309  1.00  0.00    -0.000 C 
BRANCH  12  13
ATOM     13  C   UNL     1       8.864  -8.855  -0.305  1.00  0.00    -0.000 C 
BRANCH  13  14
ATOM     14  C   UNL     1       8.387  -9.815   0.796  1.00  0.00    -0.000 C 
BRANCH  14  15
ATOM     15  C   UNL     1       6.900  -9.619   1.147  1.00  0.00    -0.000 C 
BRANCH  15  16
ATOM     16  C   UNL     1       6.543 -10.221   2.522  1.00  0.00    -0.000 C 
BRANCH  16  17
ATOM     17  C   UNL     1       5.138 -10.845   2.575  1.00  0.00    -0.003 C 
ATOM     18  C   UNL     1       4.315 -10.367   3.770  1.00  0.00     0.004 C 
ENDBRANCH  16  17
ENDBRANCH  15  16
ENDBRANCH  14  15
ENDBRANCH  13  14
ENDBRANCH  12  13
ENDBRANCH  11  12
ENDBRANCH   1  11
TORSDOF 14
ENDMDL
MODEL 3
REMARK VINA RESULT:    -4.283      3.360      6.805
REMARK INTER + INTRA:          -8.948
REMARK INTER:                  -7.752
REMARK INTRA:                  -1.197
REMARK UNBOUND:                -1.160
REMARK SMILES CCCCCCCCCCCCCCCC(=O)[O-]
REMARK SMILES IDX 9 1 10 2 11 3 12 4 13 5 14 6 15 7 16 8 17 9 18 10 8 11 7 12
REMARK SMILES IDX 6 13 5 14 4 15 3 16 2 17 1 18
REMARK H PARENT
REMARK Flexibility Score: inf
ROOT
ATOM      1  C   UNL     1       7.902  -3.449  -6.051  1.00  0.00     0.000 C 
ENDROOT
BRANCH   1   2
ATOM      2  C   UNL     1       7.949  -4.398  -7.259  1.00  0.00     0.000 C 
BRANCH   2   3
ATOM      3  C   UNL     1       9.101  -5.414  -7.171  1.00  0.00     0.000 C 
BRANCH   3   4
ATOM      4  C   UNL     1       8.714  -6.804  -7.707  1.00  0.00     0.000 C 
BRANCH   4   5
ATOM      5  C   UNL     1       7.737  -6.789  -8.897  1.00  0.00     0.000 C 
BRANCH   5   6
ATOM      6  C   UNL     1       7.779  -8.087  -9.722  1.00  0.00     0.006 C 
BRANCH   6   7
ATOM      7  C   UNL     1       6.376  -8.657  -9.974  1.00  0.00     0.053 C 
BRANCH   7   8
ATOM      8  C   UNL     1       5.846  -9.374  -8.771  1.00  0.00     0.041 C 
ATOM      9  O   UNL     1       6.635  -9.957  -7.981  1.00  0.00    -0.550 OA
ATOM     10  O   UNL     1       4.477  -9.429  -8.543  1.00  0.00    -0.550 OA
ENDBRANCH   7   8
ENDBRANCH   6   7
ENDBRANCH   5   6
ENDBRANCH   4   5
ENDBRANCH   3   4
ENDBRANCH   2   3
ENDBRANCH   1   2
BRANCH   1  11
ATOM     11  C   UNL     1       7.519  -4.173  -4.749  1.00  0.00     0.000 C 
BRANCH  11  12
ATOM     12  C   UNL     1       8.667  -4.194  -3.727  1.00  0.00    -0.000 C 
BRANCH  12  13
ATOM     13  C   UNL     1       8.924  -5.598  -3.149  1.00  0.00    -0.000 C 
BRANCH  13  14
ATOM     14  C   UNL     1       8.087  -6.683  -3.844  1.00  0.00    -0.000 C 
BRANCH  14  15
ATOM     15  C   UNL     1       8.297  -8.077  -3.226  1.00  0.00    -0.000 C 
BRANCH  15  16
ATOM     16  C   UNL     1       7.919  -8.114  -1.730  1.00  0.00    -0.000 C 
BRANCH  16  17
ATOM     17  C   UNL     1       8.342  -9.411  -1.020  1.00  0.00    -0.003 C 
ATOM     18  C   UNL     1       7.929  -9.450   0.450  1.00  0.00     0.004 C 
ENDBRANCH  16  17
ENDBRANCH  15  16
ENDBRANCH  14  15
ENDBRANCH  13  14
ENDBRANCH  12  13
ENDBRANCH  11  12
ENDBRANCH   1  11
TORSDOF 14
ENDMDL
MODEL 4
REMARK VINA RESULT:    -4.228      4.025      6.629
REMARK INTER + INTRA:          -8.847
REMARK INTER:                  -7.440
REMARK INTRA:                  -1.407
REMARK UNBOUND:                -1.160
REMARK SMILES CCCCCCCCCCCCCCCC(=O)[O-]
REMARK SMILES IDX 9 1 10 2 11 3 12 4 13 5 14 6 15 7 16 8 17 9 18 10 8 11 7 12
REMARK SMILES IDX 6 13 5 14 4 15 3 16 2 17 1 18
REMARK H PARENT
REMARK Flexibility Score: inf
ROOT
ATOM      1  C   UNL     1       7.726  -4.391  -6.968  1.00  0.00     0.000 C 
ENDROOT
BRANCH   1   2
ATOM      2  C   UNL     1       9.074  -5.087  -7.216  1.00  0.00     0.000 C 
BRANCH   2   3
ATOM      3  C   UNL     1       8.920  -6.587  -7.520  1.00  0.00     0.000 C 
BRANCH   3   4
ATOM      4  C   UNL     1       8.100  -6.858  -8.795  1.00  0.00     0.000 C 
BRANCH   4   5
ATOM      5  C   UNL     1       7.933  -8.346  -9.151  1.00  0.00     0.000 C 
BRANCH   5   6
ATOM      6  C   UNL     1       6.550  -8.667  -9.746  1.00  0.00     0.006 C 
BRANCH   6   7
ATOM      7  C   UNL     1       5.562  -9.158  -8.680  1.00  0.00     0.053 C 
BRANCH   7   8
ATOM      8  C   UNL     1       4.424  -9.918  -9.289  1.00  0.00     0.041 C 
ATOM      9  O   UNL     1       4.209 -11.113  -8.956  1.00  0.00    -0.550 OA
ATOM     10  O   UNL     1       3.622  -9.317 -10.252  1.00  0.00    -0.550 OA
ENDBRANCH   7   8
ENDBRANCH   6   7
ENDBRANCH   5   6
ENDBRANCH   4   5
ENDBRANCH   3   4
ENDBRANCH   2   3
ENDBRANCH   1   2
BRANCH   1  11
ATOM     11  C   UNL     1       7.744  -3.505  -5.710  1.00  0.00     0.000 C 
BRANCH  11  12
ATOM     12  C   UNL     1       7.544  -4.312  -4.418  1.00  0.00    -0.000 C 
BRANCH  12  13
ATOM     13  C   UNL     1       8.844  -4.470  -3.608  1.00  0.00    -0.000 C 
BRANCH  13  14
ATOM     14  C   UNL     1       9.007  -5.881  -3.023  1.00  0.00    -0.000 C 
BRANCH  14  15
ATOM     15  C   UNL     1       8.236  -6.946  -3.825  1.00  0.00    -0.000 C 
BRANCH  15  16
ATOM     16  C   UNL     1       8.055  -8.255  -3.030  1.00  0.00    -0.000 C 
BRANCH  16  17
ATOM     17  C   UNL     1       7.444  -9.399  -3.857  1.00  0.00    -0.003 C 
ATOM     18  C   UNL     1       7.725  -9.274  -5.353  1.00  0.00     0.004 C 
ENDBRANCH  16  17
ENDBRANCH  15  16
ENDBRANCH  14  15
ENDBRANCH  13  14
ENDBRANCH  12  13
ENDBRANCH  11  12
ENDBRANCH   1  11
TORSDOF 14
ENDMDL
MODEL 5
REMARK VINA RESULT:    -4.189      1.588      2.907
REMARK INTER + INTRA:          -8.777
REMARK INTER:                  -7.621
REMARK INTRA:                  -1.156
REMARK UNBOUND:                -1.160
REMARK SMILES CCCCCCCCCCCCCCCC(=O)[O-]
REMARK SMILES IDX 9 1 10 2 11 3 12 4 13 5 14 6 15 7 16 8 17 9 18 10 8 11 7 12
REMARK SMILES IDX 6 13 5 14 4 15 3 16 2 17 1 18
REMARK H PARENT
REMARK Flexibility Score: inf
ROOT
ATOM      1  C   UNL     1       7.810  -4.161  -6.483  1.00  0.00     0.000 C 
ENDROOT
BRANCH   1   2
ATOM      2  C   UNL     1       7.625  -3.950  -4.972  1.00  0.00     0.000 C 
BRANCH   2   3
ATOM      3  C   UNL     1       8.942  -4.086  -4.189  1.00  0.00     0.000 C 
BRANCH   3   4
ATOM      4  C   UNL     1       8.894  -5.201  -3.128  1.00  0.00     0.000 C 
BRANCH   4   5
ATOM      5  C   UNL     1       8.061  -6.433  -3.523  1.00  0.00     0.000 C 
BRANCH   5   6
ATOM      6  C   UNL     1       8.705  -7.759  -3.078  1.00  0.00     0.006 C 
BRANCH   6   7
ATOM      7  C   UNL     1       8.362  -8.108  -1.624  1.00  0.00     0.053 C 
BRANCH   7   8
ATOM      8  C   UNL     1       8.040  -9.563  -1.466  1.00  0.00     0.041 C 
ATOM      9  O   UNL     1       7.625 -10.231  -2.449  1.00  0.00    -0.550 OA
ATOM     10  O   UNL     1       8.165 -10.171  -0.223  1.00  0.00    -0.550 OA
ENDBRANCH   7   8
ENDBRANCH   6   7
ENDBRANCH   5   6
ENDBRANCH   4   5
ENDBRANCH   3   4
ENDBRANCH   2   3
ENDBRANCH   1   2
BRANCH   1  11
ATOM     11  C   UNL     1       9.098  -4.934  -6.816  1.00  0.00     0.000 C 
BRANCH  11  12
ATOM     12  C   UNL     1       8.826  -6.400  -7.188  1.00  0.00    -0.000 C 
BRANCH  12  13
ATOM     13  C   UNL     1       7.862  -6.542  -8.380  1.00  0.00    -0.000 C 
BRANCH  13  14
ATOM     14  C   UNL     1       8.412  -7.469  -9.475  1.00  0.00    -0.000 C 
BRANCH  14  15
ATOM     15  C   UNL     1       7.384  -8.520  -9.931  1.00  0.00    -0.000 C 
BRANCH  15  16
ATOM     16  C   UNL     1       6.752  -9.270  -8.740  1.00  0.00    -0.000 C 
BRANCH  16  17
ATOM     17  C   UNL     1       5.214  -9.251  -8.747  1.00  0.00    -0.003 C 
ATOM     18  C   UNL     1       4.601 -10.552  -9.261  1.00  0.00     0.004 C 
ENDBRANCH  16  17
ENDBRANCH  15  16
ENDBRANCH  14  15
ENDBRANCH  13  14
ENDBRANCH  12  13
ENDBRANCH  11  12
ENDBRANCH   1  11
TORSDOF 14
ENDMDL
MODEL 6
REMARK VINA RESULT:    -4.097      3.524      6.539
REMARK INTER + INTRA:          -8.610
REMARK INTER:                  -7.424
REMARK INTRA:                  -1.186
REMARK UNBOUND:                -1.160
REMARK SMILES CCCCCCCCCCCCCCCC(=O)[O-]
REMARK SMILES IDX 9 1 10 2 11 3 12 4 13 5 14 6 15 7 16 8 17 9 18 10 8 11 7 12
REMARK SMILES IDX 6 13 5 14 4 15 3 16 2 17 1 18
REMARK H PARENT
REMARK Flexibility Score: inf
ROOT
ATOM      1  C   UNL     1       7.760  -3.876  -5.167  1.00  0.00     0.000 C 
ENDROOT
BRANCH   1   2
ATOM      2  C   UNL     1       7.874  -3.999  -6.695  1.00  0.00     0.000 C 
BRANCH   2   3
ATOM      3  C   UNL     1       9.092  -4.830  -7.134  1.00  0.00     0.000 C 
BRANCH   3   4
ATOM      4  C   UNL     1       8.743  -6.305  -7.408  1.00  0.00     0.000 C 
BRANCH   4   5
ATOM      5  C   UNL     1       7.696  -6.525  -8.515  1.00  0.00     0.000 C 
BRANCH   5   6
ATOM      6  C   UNL     1       7.970  -7.785  -9.355  1.00  0.00     0.006 C 
BRANCH   6   7
ATOM      7  C   UNL     1       6.674  -8.458  -9.827  1.00  0.00     0.053 C 
BRANCH   7   8
ATOM      8  C   UNL     1       6.026  -9.243  -8.727  1.00  0.00     0.041 C 
ATOM      9  O   UNL     1       6.731  -9.900  -7.917  1.00  0.00    -0.550 OA
ATOM     10  O   UNL     1       4.641  -9.276  -8.620  1.00  0.00    -0.550 OA
ENDBRANCH   7   8
ENDBRANCH   6   7
ENDBRANCH   5   6
ENDBRANCH   4   5
ENDBRANCH   3   4
ENDBRANCH   2   3
ENDBRANCH   1   2
BRANCH   1  11
ATOM     11  C   UNL     1       9.123  -4.005  -4.464  1.00  0.00     0.000 C 
BRANCH  11  12
ATOM     12  C   UNL     1       9.037  -4.807  -3.156  1.00  0.00    -0.000 C 
BRANCH  12  13
ATOM     13  C   UNL     1       9.121  -6.327  -3.384  1.00  0.00    -0.000 C 
BRANCH  13  14
ATOM     14  C   UNL     1       9.125  -7.120  -2.068  1.00  0.00    -0.000 C 
BRANCH  14  15
ATOM     15  C   UNL     1       7.962  -8.126  -1.981  1.00  0.00    -0.000 C 
BRANCH  15  16
ATOM     16  C   UNL     1       8.442  -9.584  -2.135  1.00  0.00    -0.000 C 
BRANCH  16  17
ATOM     17  C   UNL     1       8.141 -10.189  -3.517  1.00  0.00    -0.003 C 
ATOM     18  C   UNL     1       7.271  -9.288  -4.390  1.00  0.00     0.004 C 
ENDBRANCH  16  17
ENDBRANCH  15  16
ENDBRANCH  14  15
ENDBRANCH  13  14
ENDBRANCH  12  13
ENDBRANCH  11  12
ENDBRANCH   1  11
TORSDOF 14
ENDMDL
MODEL 7
REMARK VINA RESULT:    -4.095      1.321      2.851
REMARK INTER + INTRA:          -8.607
REMARK INTER:                  -7.904
REMARK INTRA:                  -0.703
REMARK UNBOUND:                -1.160
REMARK SMILES CCCCCCCCCCCCCCCC(=O)[O-]
REMARK SMILES IDX 9 1 10 2 11 3 12 4 13 5 14 6 15 7 16 8 17 9 18 10 8 11 7 12
REMARK SMILES IDX 6 13 5 14 4 15 3 16 2 17 1 18
REMARK H PARENT
REMARK Flexibility Score: inf
ROOT
ATOM      1  C   UNL     1       8.715  -7.085  -1.889  1.00  0.00     0.000 C 
ENDROOT
BRANCH   1   2
ATOM      2  C   UNL     1       8.594  -8.279  -2.849  1.00  0.00     0.000 C 
BRANCH   2   3
ATOM      3  C   UNL     1       8.276  -9.596  -2.120  1.00  0.00     0.000 C 
BRANCH   3   4
ATOM      4  C   UNL     1       8.081  -9.408  -0.604  1.00  0.00     0.000 C 
BRANCH   4   5
ATOM      5  C   UNL     1       8.837 -10.421   0.275  1.00  0.00     0.000 C 
BRANCH   5   6
ATOM      6  C   UNL     1       8.217 -10.579   1.675  1.00  0.00     0.006 C 
BRANCH   6   7
ATOM      7  C   UNL     1       6.873  -9.847   1.797  1.00  0.00     0.053 C 
BRANCH   7   8
ATOM      8  C   UNL     1       6.089 -10.325   2.981  1.00  0.00     0.041 C 
ATOM      9  O   UNL     1       6.662 -10.520   4.085  1.00  0.00    -0.550 OA
ATOM     10  O   UNL     1       4.731 -10.590   2.854  1.00  0.00    -0.550 OA
ENDBRANCH   7   8
ENDBRANCH   6   7
ENDBRANCH   5   6
ENDBRANCH   4   5
ENDBRANCH   3   4
ENDBRANCH   2   3
ENDBRANCH   1   2
BRANCH   1  11
ATOM     11  C   UNL     1       9.119  -5.788  -2.612  1.00  0.00     0.000 C 
BRANCH  11  12
ATOM     12  C   UNL     1       8.132  -5.403  -3.727  1.00  0.00    -0.000 C 
BRANCH  12  13
ATOM     13  C   UNL     1       8.526  -4.100  -4.444  1.00  0.00    -0.000 C 
BRANCH  13  14
ATOM     14  C   UNL     1       7.495  -3.675  -5.502  1.00  0.00    -0.000 C 
BRANCH  14  15
ATOM     15  C   UNL     1       8.024  -3.834  -6.939  1.00  0.00    -0.000 C 
BRANCH  15  16
ATOM     16  C   UNL     1       8.845  -5.128  -7.118  1.00  0.00    -0.000 C 
BRANCH  16  17
ATOM     17  C   UNL     1       8.171  -6.163  -8.036  1.00  0.00    -0.003 C 
ATOM     18  C   UNL     1       8.677  -7.586  -7.807  1.00  0.00     0.004 C 
ENDBRANCH  16  17
ENDBRANCH  15  16
ENDBRANCH  14  15
ENDBRANCH  13  14
ENDBRANCH  12  13
ENDBRANCH  11  12
ENDBRANCH   1  11
TORSDOF 14
ENDMDL
MODEL 8
REMARK VINA RESULT:    -4.088      3.086      7.363
REMARK INTER + INTRA:          -8.593
REMARK INTER:                  -7.350
REMARK INTRA:                  -1.243
REMARK UNBOUND:                -1.160
REMARK SMILES CCCCCCCCCCCCCCCC(=O)[O-]
REMARK SMILES IDX 9 1 10 2 11 3 12 4 13 5 14 6 15 7 16 8 17 9 18 10 8 11 7 12
REMARK SMILES IDX 6 13 5 14 4 15 3 16 2 17 1 18
REMARK H PARENT
REMARK Flexibility Score: inf
ROOT
ATOM      1  C   UNL     1       8.743  -5.474  -3.233  1.00  0.00     0.000 C 
ENDROOT
BRANCH   1   2
ATOM      2  C   UNL     1       8.302  -4.195  -3.963  1.00  0.00     0.000 C 
BRANCH   2   3
ATOM      3  C   UNL     1       7.485  -4.489  -5.233  1.00  0.00     0.000 C 
BRANCH   3   4
ATOM      4  C   UNL     1       8.091  -3.849  -6.496  1.00  0.00     0.000 C 
BRANCH   4   5
ATOM      5  C   UNL     1       9.037  -4.765  -7.294  1.00  0.00     0.000 C 
BRANCH   5   6
ATOM      6  C   UNL     1       8.314  -5.971  -7.920  1.00  0.00     0.006 C 
BRANCH   6   7
ATOM      7  C   UNL     1       9.125  -7.267  -7.779  1.00  0.00     0.053 C 
BRANCH   7   8
ATOM      8  C   UNL     1       8.235  -8.467  -7.673  1.00  0.00     0.041 C 
ATOM      9  O   UNL     1       8.385  -9.286  -6.729  1.00  0.00    -0.550 OA
ATOM     10  O   UNL     1       7.263  -8.700  -8.638  1.00  0.00    -0.550 OA
ENDBRANCH   7   8
ENDBRANCH   6   7
ENDBRANCH   5   6
ENDBRANCH   4   5
ENDBRANCH   3   4
ENDBRANCH   2   3
ENDBRANCH   1   2
BRANCH   1  11
ATOM     11  C   UNL     1       8.783  -6.698  -4.165  1.00  0.00     0.000 C 
BRANCH  11  12
ATOM     12  C   UNL     1       8.533  -8.017  -3.415  1.00  0.00    -0.000 C 
BRANCH  12  13
ATOM     13  C   UNL     1       7.945  -7.800  -2.009  1.00  0.00    -0.000 C 
BRANCH  13  14
ATOM     14  C   UNL     1       7.637  -9.121  -1.288  1.00  0.00    -0.000 C 
BRANCH  14  15
ATOM     15  C   UNL     1       8.858  -9.684  -0.538  1.00  0.00    -0.000 C 
BRANCH  15  16
ATOM     16  C   UNL     1       8.526 -10.047   0.924  1.00  0.00    -0.000 C 
BRANCH  16  17
ATOM     17  C   UNL     1       7.097  -9.665   1.344  1.00  0.00    -0.003 C 
ATOM     18  C   UNL     1       6.498 -10.622   2.372  1.00  0.00     0.004 C 
ENDBRANCH  16  17
ENDBRANCH  15  16
ENDBRANCH  14  15
ENDBRANCH  13  14
ENDBRANCH  12  13
ENDBRANCH  11  12
ENDBRANCH   1  11
TORSDOF 14
ENDMDL
MODEL 9
REMARK VINA RESULT:    -4.009      2.091      3.752
REMARK INTER + INTRA:          -8.450
REMARK INTER:                  -7.367
REMARK INTRA:                  -1.084
REMARK UNBOUND:                -1.160
REMARK SMILES CCCCCCCCCCCCCCCC(=O)[O-]
REMARK SMILES IDX 9 1 10 2 11 3 12 4 13 5 14 6 15 7 16 8 17 9 18 10 8 11 7 12
REMARK SMILES IDX 6 13 5 14 4 15 3 16 2 17 1 18
REMARK H PARENT
REMARK Flexibility Score: inf
ROOT
ATOM      1  C   UNL     1       8.101  -4.685  -7.486  1.00  0.00     0.000 C 
ENDROOT
BRANCH   1   2
ATOM      2  C   UNL     1       7.899  -3.658  -6.361  1.00  0.00     0.000 C 
BRANCH   2   3
ATOM      3  C   UNL     1       8.777  -3.946  -5.131  1.00  0.00     0.000 C 
BRANCH   3   4
ATOM      4  C   UNL     1       7.959  -4.386  -3.902  1.00  0.00     0.000 C 
BRANCH   4   5
ATOM      5  C   UNL     1       8.639  -5.448  -3.019  1.00  0.00     0.000 C 
BRANCH   5   6
ATOM      6  C   UNL     1       8.351  -6.886  -3.484  1.00  0.00     0.006 C 
BRANCH   6   7
ATOM      7  C   UNL     1       8.082  -7.831  -2.304  1.00  0.00     0.053 C 
BRANCH   7   8
ATOM      8  C   UNL     1       7.761  -9.218  -2.769  1.00  0.00     0.041 C 
ATOM      9  O   UNL     1       7.962 -10.204  -2.012  1.00  0.00    -0.550 OA
ATOM     10  O   UNL     1       7.273  -9.425  -4.054  1.00  0.00    -0.550 OA
ENDBRANCH   7   8
ENDBRANCH   6   7
ENDBRANCH   5   6
ENDBRANCH   4   5
ENDBRANCH   3   4
ENDBRANCH   2   3
ENDBRANCH   1   2
BRANCH   1  11
ATOM     11  C   UNL     1       9.122  -5.774  -7.112  1.00  0.00     0.000 C 
BRANCH  11  12
ATOM     12  C   UNL     1       8.754  -7.150  -7.690  1.00  0.00    -0.000 C 
BRANCH  12  13
ATOM     13  C   UNL     1       7.745  -7.058  -8.849  1.00  0.00    -0.000 C 
BRANCH  13  14
ATOM     14  C   UNL     1       7.385  -8.435  -9.427  1.00  0.00    -0.000 C 
BRANCH  14  15
ATOM     15  C   UNL     1       6.727  -9.360  -8.387  1.00  0.00    -0.000 C 
BRANCH  15  16
ATOM     16  C   UNL     1       5.642 -10.260  -9.013  1.00  0.00    -0.000 C 
BRANCH  16  17
ATOM     17  C   UNL     1       4.226  -9.666  -8.932  1.00  0.00    -0.003 C 
ATOM     18  C   UNL     1       3.599  -9.418 -10.302  1.00  0.00     0.004 C 
ENDBRANCH  16  17
ENDBRANCH  15  16
ENDBRANCH  14  15
ENDBRANCH  13  14
ENDBRANCH  12  13
ENDBRANCH  11  12
ENDBRANCH   1  11
TORSDOF 14
ENDMDL
