MODEL 1
REMARK VINA RESULT:    -6.687      0.000      0.000
REMARK INTER + INTRA:         -13.750
REMARK INTER:                 -12.159
REMARK INTRA:                  -1.590
REMARK UNBOUND:                -1.590
REMARK SMILES CCCCCCCCCCCCCC[C@H](C)C(=O)[O-]
REMARK SMILES IDX 9 1 10 2 11 3 12 4 13 5 14 6 15 7 16 8 17 9 18 10 19 11 8 12
REMARK SMILES IDX 7 13 6 14 5 15 4 16 3 17 2 18 1 19
REMARK H PARENT
REMARK Flexibility Score: inf
ROOT
ATOM      1  C   UNL     1      19.032  72.765  72.059  1.00  0.00     0.000 C 
ENDROOT
BRANCH   1   2
ATOM      2  C   UNL     1      19.190  71.305  71.606  1.00  0.00     0.000 C 
BRANCH   2   3
ATOM      3  C   UNL     1      20.633  70.968  71.186  1.00  0.00     0.000 C 
BRANCH   3   4
ATOM      4  C   UNL     1      21.289  69.935  72.118  1.00  0.00     0.000 C 
BRANCH   4   5
ATOM      5  C   UNL     1      22.360  70.559  73.028  1.00  0.00     0.001 C 
BRANCH   5   6
ATOM      6  C   UNL     1      21.782  71.207  74.303  1.00  0.00     0.009 C 
BRANCH   6   7
ATOM      7  C   UNL     1      20.783  70.354  75.125  1.00  0.00     0.032 C 
ATOM      8  C   UNL     1      19.503  71.123  75.489  1.00  0.00     0.014 C 
BRANCH   7   9
ATOM      9  C   UNL     1      21.436  69.704  76.322  1.00  0.00     0.044 C 
ATOM     10  O   UNL     1      22.689  69.651  76.433  1.00  0.00    -0.550 OA
ATOM     11  O   UNL     1      20.642  69.176  77.333  1.00  0.00    -0.550 OA
ENDBRANCH   7   9
ENDBRANCH   6   7
ENDBRANCH   5   6
ENDBRANCH   4   5
ENDBRANCH   3   4
ENDBRANCH   2   3
ENDBRANCH   1   2
BRANCH   1  12
ATOM     12  C   UNL     1      17.572  73.130  72.377  1.00  0.00     0.000 C 
BRANCH  12  13
ATOM     13  C   UNL     1      16.576  72.025  71.983  1.00  0.00    -0.000 C 
BRANCH  13  14
ATOM     14  C   UNL     1      15.730  71.458  73.139  1.00  0.00    -0.000 C 
BRANCH  14  15
ATOM     15  C   UNL     1      14.254  71.888  73.068  1.00  0.00    -0.000 C 
BRANCH  15  16
ATOM     16  C   UNL     1      13.319  70.903  73.789  1.00  0.00    -0.000 C 
BRANCH  16  17
ATOM     17  C   UNL     1      14.081  69.764  74.486  1.00  0.00    -0.000 C 
BRANCH  17  18
ATOM     18  C   UNL     1      13.896  69.833  76.006  1.00  0.00    -0.003 C 
ATOM     19  C   UNL     1      15.068  70.547  76.674  1.00  0.00     0.004 C 
ENDBRANCH  17  18
ENDBRANCH  16  17
ENDBRANCH  15  16
ENDBRANCH  14  15
ENDBRANCH  13  14
ENDBRANCH  12  13
ENDBRANCH   1  12
TORSDOF 14
ENDMDL
MODEL 2
REMARK VINA RESULT:    -6.660      6.490     10.286
REMARK INTER + INTRA:         -13.700
REMARK INTER:                 -12.134
REMARK INTRA:                  -1.567
REMARK UNBOUND:                -1.590
REMARK SMILES CCCCCCCCCCCCCC[C@H](C)C(=O)[O-]
REMARK SMILES IDX 9 1 10 2 11 3 12 4 13 5 14 6 15 7 16 8 17 9 18 10 19 11 8 12
REMARK SMILES IDX 7 13 6 14 5 15 4 16 3 17 2 18 1 19
REMARK H PARENT
REMARK Flexibility Score: inf
ROOT
ATOM      1  C   UNL     1      11.176  71.645  72.548  1.00  0.00     0.000 C 
ENDROOT
BRANCH   1   2
ATOM      2  C   UNL     1      11.395  72.284  73.929  1.00  0.00     0.000 C 
BRANCH   2   3
ATOM      3  C   UNL     1      10.126  72.260  74.800  1.00  0.00     0.000 C 
BRANCH   3   4
ATOM      4  C   UNL     1      10.444  72.118  76.298  1.00  0.00     0.000 C 
BRANCH   4   5
ATOM      5  C   UNL     1       9.176  72.011  77.162  1.00  0.00     0.001 C 
BRANCH   5   6
ATOM      6  C   UNL     1       8.083  73.030  76.780  1.00  0.00     0.009 C 
BRANCH   6   7
ATOM      7  C   UNL     1       6.615  72.541  76.870  1.00  0.00     0.032 C 
ATOM      8  C   UNL     1       6.470  71.240  77.675  1.00  0.00     0.014 C 
BRANCH   7   9
ATOM      9  C   UNL     1       5.952  72.469  75.516  1.00  0.00     0.044 C 
ATOM     10  O   UNL     1       4.816  72.975  75.317  1.00  0.00    -0.550 OA
ATOM     11  O   UNL     1       6.615  71.855  74.460  1.00  0.00    -0.550 OA
ENDBRANCH   7   9
ENDBRANCH   6   7
ENDBRANCH   5   6
ENDBRANCH   4   5
ENDBRANCH   3   4
ENDBRANCH   2   3
ENDBRANCH   1   2
BRANCH   1  12
ATOM     12  C   UNL     1      12.354  71.891  71.590  1.00  0.00     0.000 C 
BRANCH  12  13
ATOM     13  C   UNL     1      13.250  73.064  72.028  1.00  0.00    -0.000 C 
BRANCH  13  14
ATOM     14  C   UNL     1      14.709  72.690  72.356  1.00  0.00    -0.000 C 
BRANCH  14  15
ATOM     15  C   UNL     1      14.937  71.170  72.423  1.00  0.00    -0.000 C 
BRANCH  15  16
ATOM     16  C   UNL     1      15.164  70.671  73.860  1.00  0.00    -0.000 C 
BRANCH  16  17
ATOM     17  C   UNL     1      13.993  69.824  74.384  1.00  0.00    -0.000 C 
BRANCH  17  18
ATOM     18  C   UNL     1      13.915  69.886  75.914  1.00  0.00    -0.003 C 
ATOM     19  C   UNL     1      15.104  70.643  76.498  1.00  0.00     0.004 C 
ENDBRANCH  17  18
ENDBRANCH  16  17
ENDBRANCH  15  16
ENDBRANCH  14  15
ENDBRANCH  13  14
ENDBRANCH  12  13
ENDBRANCH   1  12
TORSDOF 14
ENDMDL
MODEL 3
REMARK VINA RESULT:    -6.643      2.000      3.862
REMARK INTER + INTRA:         -13.671
REMARK INTER:                 -11.926
REMARK INTRA:                  -1.745
REMARK UNBOUND:                -1.590
REMARK SMILES CCCCCCCCCCCCCC[C@H](C)C(=O)[O-]
REMARK SMILES IDX 9 1 10 2 11 3 12 4 13 5 14 6 15 7 16 8 17 9 18 10 19 11 8 12
REMARK SMILES IDX 7 13 6 14 5 15 4 16 3 17 2 18 1 19
REMARK H PARENT
REMARK Flexibility Score: inf
ROOT
ATOM      1  C   UNL     1      15.522  70.709  72.311  1.00  0.00     0.000 C 
ENDROOT
BRANCH   1   2
ATOM      2  C   UNL     1      15.397  72.240  72.261  1.00  0.00     0.000 C 
BRANCH   2   3
ATOM      3  C   UNL     1      16.641  72.954  72.821  1.00  0.00     0.000 C 
BRANCH   3   4
ATOM      4  C   UNL     1      17.755  73.101  71.771  1.00  0.00     0.000 C 
BRANCH   4   5
ATOM      5  C   UNL     1      18.941  72.158  72.034  1.00  0.00     0.001 C 
BRANCH   5   6
ATOM      6  C   UNL     1      18.983  71.611  73.476  1.00  0.00     0.009 C 
BRANCH   6   7
ATOM      7  C   UNL     1      20.046  70.523  73.776  1.00  0.00     0.032 C 
ATOM      8  C   UNL     1      20.350  70.387  75.276  1.00  0.00     0.014 C 
BRANCH   7   9
ATOM      9  C   UNL     1      21.291  70.694  72.940  1.00  0.00     0.044 C 
ATOM     10  O   UNL     1      21.542  69.921  71.977  1.00  0.00    -0.550 OA
ATOM     11  O   UNL     1      22.166  71.736  73.218  1.00  0.00    -0.550 OA
ENDBRANCH   7   9
ENDBRANCH   6   7
ENDBRANCH   5   6
ENDBRANCH   4   5
ENDBRANCH   3   4
ENDBRANCH   2   3
ENDBRANCH   1   2
BRANCH   1  12
ATOM     12  C   UNL     1      14.255  70.030  72.860  1.00  0.00     0.000 C 
BRANCH  12  13
ATOM     13  C   UNL     1      13.777  70.636  74.191  1.00  0.00    -0.000 C 
BRANCH  13  14
ATOM     14  C   UNL     1      14.003  69.754  75.434  1.00  0.00    -0.000 C 
BRANCH  14  15
ATOM     15  C   UNL     1      14.815  70.463  76.532  1.00  0.00    -0.000 C 
BRANCH  15  16
ATOM     16  C   UNL     1      16.102  71.108  75.991  1.00  0.00    -0.000 C 
BRANCH  16  17
ATOM     17  C   UNL     1      17.180  71.277  77.072  1.00  0.00    -0.000 C 
BRANCH  17  18
ATOM     18  C   UNL     1      16.600  71.017  78.468  1.00  0.00    -0.003 C 
ATOM     19  C   UNL     1      17.337  69.880  79.169  1.00  0.00     0.004 C 
ENDBRANCH  17  18
ENDBRANCH  16  17
ENDBRANCH  15  16
ENDBRANCH  14  15
ENDBRANCH  13  14
ENDBRANCH  12  13
ENDBRANCH   1  12
TORSDOF 14
ENDMDL
MODEL 4
REMARK VINA RESULT:    -6.630      2.003      3.956
REMARK INTER + INTRA:         -13.646
REMARK INTER:                 -12.238
REMARK INTRA:                  -1.409
REMARK UNBOUND:                -1.590
REMARK SMILES CCCCCCCCCCCCCC[C@H](C)C(=O)[O-]
REMARK SMILES IDX 9 1 10 2 11 3 12 4 13 5 14 6 15 7 16 8 17 9 18 10 19 11 8 12
REMARK SMILES IDX 7 13 6 14 5 15 4 16 3 17 2 18 1 19
REMARK H PARENT
REMARK Flexibility Score: inf
ROOT
ATOM      1  C   UNL     1      15.204  72.258  72.481  1.00  0.00     0.000 C 
ENDROOT
BRANCH   1   2
ATOM      2  C   UNL     1      16.589  72.890  72.272  1.00  0.00     0.000 C 
BRANCH   2   3
ATOM      3  C   UNL     1      17.738  71.924  72.611  1.00  0.00     0.000 C 
BRANCH   3   4
ATOM      4  C   UNL     1      19.027  72.249  71.837  1.00  0.00     0.000 C 
BRANCH   4   5
ATOM      5  C   UNL     1      19.655  71.005  71.189  1.00  0.00     0.001 C 
BRANCH   5   6
ATOM      6  C   UNL     1      21.179  70.901  71.406  1.00  0.00     0.009 C 
BRANCH   6   7
ATOM      7  C   UNL     1      21.985  72.223  71.325  1.00  0.00     0.032 C 
ATOM      8  C   UNL     1      22.585  72.469  69.932  1.00  0.00     0.014 C 
BRANCH   7   9
ATOM      9  C   UNL     1      23.005  72.339  72.431  1.00  0.00     0.044 C 
ATOM     10  O   UNL     1      24.114  72.906  72.240  1.00  0.00    -0.550 OA
ATOM     11  O   UNL     1      22.712  71.834  73.692  1.00  0.00    -0.550 OA
ENDBRANCH   7   9
ENDBRANCH   6   7
ENDBRANCH   5   6
ENDBRANCH   4   5
ENDBRANCH   3   4
ENDBRANCH   2   3
ENDBRANCH   1   2
BRANCH   1  12
ATOM     12  C   UNL     1      15.231  70.724  72.365  1.00  0.00     0.000 C 
BRANCH  12  13
ATOM     13  C   UNL     1      14.074  70.044  73.120  1.00  0.00    -0.000 C 
BRANCH  13  14
ATOM     14  C   UNL     1      13.704  70.686  74.471  1.00  0.00    -0.000 C 
BRANCH  14  15
ATOM     15  C   UNL     1      14.078  69.804  75.676  1.00  0.00    -0.000 C 
BRANCH  15  16
ATOM     16  C   UNL     1      15.084  70.488  76.617  1.00  0.00    -0.000 C 
BRANCH  16  17
ATOM     17  C   UNL     1      16.217  71.197  75.858  1.00  0.00    -0.000 C 
BRANCH  17  18
ATOM     18  C   UNL     1      17.352  71.589  76.811  1.00  0.00    -0.003 C 
ATOM     19  C   UNL     1      18.717  71.298  76.194  1.00  0.00     0.004 C 
ENDBRANCH  17  18
ENDBRANCH  16  17
ENDBRANCH  15  16
ENDBRANCH  14  15
ENDBRANCH  13  14
ENDBRANCH  12  13
ENDBRANCH   1  12
TORSDOF 14
ENDMDL
MODEL 5
REMARK VINA RESULT:    -6.594      2.945      6.373
REMARK INTER + INTRA:         -13.582
REMARK INTER:                 -11.646
REMARK INTRA:                  -1.936
REMARK UNBOUND:                -1.590
REMARK SMILES CCCCCCCCCCCCCC[C@H](C)C(=O)[O-]
REMARK SMILES IDX 9 1 10 2 11 3 12 4 13 5 14 6 15 7 16 8 17 9 18 10 19 11 8 12
REMARK SMILES IDX 7 13 6 14 5 15 4 16 3 17 2 18 1 19
REMARK H PARENT
REMARK Flexibility Score: inf
ROOT
ATOM      1  C   UNL     1      19.242  71.267  71.326  1.00  0.00     0.000 C 
ENDROOT
BRANCH   1   2
ATOM      2  C   UNL     1      19.143  72.772  71.622  1.00  0.00     0.000 C 
BRANCH   2   3
ATOM      3  C   UNL     1      17.690  73.242  71.814  1.00  0.00     0.000 C 
BRANCH   3   4
ATOM      4  C   UNL     1      16.766  72.112  72.299  1.00  0.00     0.000 C 
BRANCH   4   5
ATOM      5  C   UNL     1      16.054  72.457  73.618  1.00  0.00     0.001 C 
BRANCH   5   6
ATOM      6  C   UNL     1      15.721  71.221  74.479  1.00  0.00     0.009 C 
BRANCH   6   7
ATOM      7  C   UNL     1      14.234  70.787  74.527  1.00  0.00     0.032 C 
ATOM      8  C   UNL     1      13.962  69.714  75.593  1.00  0.00     0.014 C 
BRANCH   7   9
ATOM      9  C   UNL     1      13.705  70.407  73.165  1.00  0.00     0.044 C 
ATOM     10  O   UNL     1      12.690  70.972  72.678  1.00  0.00    -0.550 OA
ATOM     11  O   UNL     1      14.361  69.433  72.422  1.00  0.00    -0.550 OA
ENDBRANCH   7   9
ENDBRANCH   6   7
ENDBRANCH   5   6
ENDBRANCH   4   5
ENDBRANCH   3   4
ENDBRANCH   2   3
ENDBRANCH   1   2
BRANCH   1  12
ATOM     12  C   UNL     1      20.653  70.844  70.881  1.00  0.00     0.000 C 
BRANCH  12  13
ATOM     13  C   UNL     1      21.176  69.607  71.634  1.00  0.00    -0.000 C 
BRANCH  13  14
ATOM     14  C   UNL     1      22.095  69.908  72.834  1.00  0.00    -0.000 C 
BRANCH  14  15
ATOM     15  C   UNL     1      22.383  71.410  73.006  1.00  0.00    -0.000 C 
BRANCH  15  16
ATOM     16  C   UNL     1      21.708  72.000  74.255  1.00  0.00    -0.000 C 
BRANCH  16  17
ATOM     17  C   UNL     1      20.854  70.968  75.009  1.00  0.00    -0.000 C 
BRANCH  17  18
ATOM     18  C   UNL     1      19.389  71.416  75.078  1.00  0.00    -0.003 C 
ATOM     19  C   UNL     1      18.825  71.247  76.486  1.00  0.00     0.004 C 
ENDBRANCH  17  18
ENDBRANCH  16  17
ENDBRANCH  15  16
ENDBRANCH  14  15
ENDBRANCH  13  14
ENDBRANCH  12  13
ENDBRANCH   1  12
TORSDOF 14
ENDMDL
MODEL 6
REMARK VINA RESULT:    -6.584      5.869      9.757
REMARK INTER + INTRA:         -13.562
REMARK INTER:                 -12.025
REMARK INTRA:                  -1.537
REMARK UNBOUND:                -1.590
REMARK SMILES CCCCCCCCCCCCCC[C@H](C)C(=O)[O-]
REMARK SMILES IDX 9 1 10 2 11 3 12 4 13 5 14 6 15 7 16 8 17 9 18 10 19 11 8 12
REMARK SMILES IDX 7 13 6 14 5 15 4 16 3 17 2 18 1 19
REMARK H PARENT
REMARK Flexibility Score: inf
ROOT
ATOM      1  C   UNL     1      11.150  71.619  72.700  1.00  0.00     0.000 C 
ENDROOT
BRANCH   1   2
ATOM      2  C   UNL     1      11.478  72.329  74.023  1.00  0.00     0.000 C 
BRANCH   2   3
ATOM      3  C   UNL     1      10.312  72.281  75.026  1.00  0.00     0.000 C 
BRANCH   3   4
ATOM      4  C   UNL     1       9.109  71.487  74.489  1.00  0.00     0.000 C 
BRANCH   4   5
ATOM      5  C   UNL     1       7.852  71.661  75.358  1.00  0.00     0.001 C 
BRANCH   5   6
ATOM      6  C   UNL     1       8.115  71.461  76.865  1.00  0.00     0.009 C 
BRANCH   6   7
ATOM      7  C   UNL     1       7.417  72.454  77.830  1.00  0.00     0.032 C 
ATOM      8  C   UNL     1       6.365  73.326  77.127  1.00  0.00     0.014 C 
BRANCH   7   9
ATOM      9  C   UNL     1       8.407  73.264  78.631  1.00  0.00     0.044 C 
ATOM     10  O   UNL     1       8.145  73.642  79.804  1.00  0.00    -0.550 OA
ATOM     11  O   UNL     1       9.643  73.580  78.078  1.00  0.00    -0.550 OA
ENDBRANCH   7   9
ENDBRANCH   6   7
ENDBRANCH   5   6
ENDBRANCH   4   5
ENDBRANCH   3   4
ENDBRANCH   2   3
ENDBRANCH   1   2
BRANCH   1  12
ATOM     12  C   UNL     1      12.309  71.684  71.690  1.00  0.00     0.000 C 
BRANCH  12  13
ATOM     13  C   UNL     1      13.192  72.932  71.869  1.00  0.00    -0.000 C 
BRANCH  13  14
ATOM     14  C   UNL     1      14.648  72.652  72.287  1.00  0.00    -0.000 C 
BRANCH  14  15
ATOM     15  C   UNL     1      14.954  71.151  72.426  1.00  0.00    -0.000 C 
BRANCH  15  16
ATOM     16  C   UNL     1      15.133  70.719  73.891  1.00  0.00    -0.000 C 
BRANCH  16  17
ATOM     17  C   UNL     1      13.993  69.813  74.384  1.00  0.00    -0.000 C 
BRANCH  17  18
ATOM     18  C   UNL     1      13.985  69.728  75.915  1.00  0.00    -0.003 C 
ATOM     19  C   UNL     1      15.018  70.670  76.526  1.00  0.00     0.004 C 
ENDBRANCH  17  18
ENDBRANCH  16  17
ENDBRANCH  15  16
ENDBRANCH  14  15
ENDBRANCH  13  14
ENDBRANCH  12  13
ENDBRANCH   1  12
TORSDOF 14
ENDMDL
MODEL 7
REMARK VINA RESULT:    -6.551      6.203     10.018
REMARK INTER + INTRA:         -13.503
REMARK INTER:                 -12.009
REMARK INTRA:                  -1.495
REMARK UNBOUND:                -1.590
REMARK SMILES CCCCCCCCCCCCCC[C@H](C)C(=O)[O-]
REMARK SMILES IDX 9 1 10 2 11 3 12 4 13 5 14 6 15 7 16 8 17 9 18 10 19 11 8 12
REMARK SMILES IDX 7 13 6 14 5 15 4 16 3 17 2 18 1 19
REMARK H PARENT
REMARK Flexibility Score: inf
ROOT
ATOM      1  C   UNL     1      11.254  71.378  72.513  1.00  0.00     0.000 C 
ENDROOT
BRANCH   1   2
ATOM      2  C   UNL     1      10.159  71.535  71.446  1.00  0.00     0.000 C 
BRANCH   2   3
ATOM      3  C   UNL     1       9.097  70.423  71.521  1.00  0.00     0.000 C 
BRANCH   3   4
ATOM      4  C   UNL     1       7.885  70.825  72.379  1.00  0.00     0.000 C 
BRANCH   4   5
ATOM      5  C   UNL     1       8.205  70.832  73.883  1.00  0.00     0.001 C 
BRANCH   5   6
ATOM      6  C   UNL     1       7.310  71.791  74.696  1.00  0.00     0.009 C 
BRANCH   6   7
ATOM      7  C   UNL     1       7.828  72.202  76.098  1.00  0.00     0.032 C 
ATOM      8  C   UNL     1       9.332  71.940  76.277  1.00  0.00     0.014 C 
BRANCH   7   9
ATOM      9  C   UNL     1       6.995  71.613  77.211  1.00  0.00     0.044 C 
ATOM     10  O   UNL     1       5.774  71.350  77.044  1.00  0.00    -0.550 OA
ATOM     11  O   UNL     1       7.587  71.330  78.436  1.00  0.00    -0.550 OA
ENDBRANCH   7   9
ENDBRANCH   6   7
ENDBRANCH   5   6
ENDBRANCH   4   5
ENDBRANCH   3   4
ENDBRANCH   2   3
ENDBRANCH   1   2
BRANCH   1  12
ATOM     12  C   UNL     1      11.447  72.652  73.354  1.00  0.00     0.000 C 
BRANCH  12  13
ATOM     13  C   UNL     1      12.448  73.640  72.728  1.00  0.00    -0.000 C 
BRANCH  13  14
ATOM     14  C   UNL     1      13.449  73.020  71.734  1.00  0.00    -0.000 C 
BRANCH  14  15
ATOM     15  C   UNL     1      14.807  72.688  72.378  1.00  0.00    -0.000 C 
BRANCH  15  16
ATOM     16  C   UNL     1      15.044  71.175  72.507  1.00  0.00    -0.000 C 
BRANCH  16  17
ATOM     17  C   UNL     1      15.241  70.729  73.965  1.00  0.00    -0.000 C 
BRANCH  17  18
ATOM     18  C   UNL     1      14.051  69.889  74.445  1.00  0.00    -0.003 C 
ATOM     19  C   UNL     1      13.987  69.842  75.969  1.00  0.00     0.004 C 
ENDBRANCH  17  18
ENDBRANCH  16  17
ENDBRANCH  15  16
ENDBRANCH  14  15
ENDBRANCH  13  14
ENDBRANCH  12  13
ENDBRANCH   1  12
TORSDOF 14
ENDMDL
MODEL 8
REMARK VINA RESULT:    -6.547      2.013      3.736
REMARK INTER + INTRA:         -13.496
REMARK INTER:                 -11.584
REMARK INTRA:                  -1.913
REMARK UNBOUND:                -1.590
REMARK SMILES CCCCCCCCCCCCCC[C@H](C)C(=O)[O-]
REMARK SMILES IDX 9 1 10 2 11 3 12 4 13 5 14 6 15 7 16 8 17 9 18 10 19 11 8 12
REMARK SMILES IDX 7 13 6 14 5 15 4 16 3 17 2 18 1 19
REMARK H PARENT
REMARK Flexibility Score: inf
ROOT
ATOM      1  C   UNL     1      16.223  71.139  74.481  1.00  0.00     0.000 C 
ENDROOT
BRANCH   1   2
ATOM      2  C   UNL     1      16.285  72.621  74.080  1.00  0.00     0.000 C 
BRANCH   2   3
ATOM      3  C   UNL     1      16.764  72.822  72.631  1.00  0.00     0.000 C 
BRANCH   3   4
ATOM      4  C   UNL     1      17.257  71.515  71.988  1.00  0.00     0.000 C 
BRANCH   4   5
ATOM      5  C   UNL     1      18.750  71.563  71.625  1.00  0.00     0.001 C 
BRANCH   5   6
ATOM      6  C   UNL     1      19.663  71.910  72.819  1.00  0.00     0.009 C 
BRANCH   6   7
ATOM      7  C   UNL     1      20.362  70.722  73.528  1.00  0.00     0.032 C 
ATOM      8  C   UNL     1      19.985  70.613  75.015  1.00  0.00     0.014 C 
BRANCH   7   9
ATOM      9  C   UNL     1      21.854  70.717  73.301  1.00  0.00     0.044 C 
ATOM     10  O   UNL     1      22.584  69.805  73.772  1.00  0.00    -0.550 OA
ATOM     11  O   UNL     1      22.435  71.723  72.537  1.00  0.00    -0.550 OA
ENDBRANCH   7   9
ENDBRANCH   6   7
ENDBRANCH   5   6
ENDBRANCH   4   5
ENDBRANCH   3   4
ENDBRANCH   2   3
ENDBRANCH   1   2
BRANCH   1  12
ATOM     12  C   UNL     1      14.910  70.774  75.195  1.00  0.00     0.000 C 
BRANCH  12  13
ATOM     13  C   UNL     1      14.013  69.839  74.364  1.00  0.00    -0.000 C 
BRANCH  13  14
ATOM     14  C   UNL     1      14.127  70.005  72.836  1.00  0.00    -0.000 C 
BRANCH  14  15
ATOM     15  C   UNL     1      12.944  70.780  72.228  1.00  0.00    -0.000 C 
BRANCH  15  16
ATOM     16  C   UNL     1      12.910  72.251  72.676  1.00  0.00    -0.000 C 
BRANCH  16  17
ATOM     17  C   UNL     1      11.508  72.706  73.108  1.00  0.00    -0.000 C 
BRANCH  17  18
ATOM     18  C   UNL     1      11.196  72.239  74.535  1.00  0.00    -0.003 C 
ATOM     19  C   UNL     1       9.703  71.979  74.718  1.00  0.00     0.004 C 
ENDBRANCH  17  18
ENDBRANCH  16  17
ENDBRANCH  15  16
ENDBRANCH  14  15
ENDBRANCH  13  14
ENDBRANCH  12  13
ENDBRANCH   1  12
TORSDOF 14
ENDMDL
MODEL 9
REMARK VINA RESULT:    -6.421      2.304      3.631
REMARK INTER + INTRA:         -13.266
REMARK INTER:                 -12.125
REMARK INTRA:                  -1.141
REMARK UNBOUND:                -1.590
REMARK SMILES CCCCCCCCCCCCCC[C@H](C)C(=O)[O-]
REMARK SMILES IDX 9 1 10 2 11 3 12 4 13 5 14 6 15 7 16 8 17 9 18 10 19 11 8 12
REMARK SMILES IDX 7 13 6 14 5 15 4 16 3 17 2 18 1 19
REMARK H PARENT
REMARK Flexibility Score: inf
ROOT
ATOM      1  C   UNL     1      16.649  72.155  72.020  1.00  0.00     0.000 C 
ENDROOT
BRANCH   1   2
ATOM      2  C   UNL     1      17.551  73.367  71.737  1.00  0.00     0.000 C 
BRANCH   2   3
ATOM      3  C   UNL     1      19.028  72.975  71.549  1.00  0.00     0.000 C 
BRANCH   3   4
ATOM      4  C   UNL     1      19.338  71.574  72.103  1.00  0.00     0.000 C 
BRANCH   4   5
ATOM      5  C   UNL     1      20.414  70.841  71.285  1.00  0.00     0.001 C 
BRANCH   5   6
ATOM      6  C   UNL     1      21.797  70.816  71.970  1.00  0.00     0.009 C 
BRANCH   6   7
ATOM      7  C   UNL     1      22.439  72.190  72.290  1.00  0.00     0.032 C 
ATOM      8  C   UNL     1      22.971  72.904  71.037  1.00  0.00     0.014 C 
BRANCH   7   9
ATOM      9  C   UNL     1      23.467  72.097  73.392  1.00  0.00     0.044 C 
ATOM     10  O   UNL     1      23.758  70.992  73.922  1.00  0.00    -0.550 OA
ATOM     11  O   UNL     1      24.124  73.246  73.815  1.00  0.00    -0.550 OA
ENDBRANCH   7   9
ENDBRANCH   6   7
ENDBRANCH   5   6
ENDBRANCH   4   5
ENDBRANCH   3   4
ENDBRANCH   2   3
ENDBRANCH   1   2
BRANCH   1  12
ATOM     12  C   UNL     1      15.654  72.413  73.165  1.00  0.00     0.000 C 
BRANCH  12  13
ATOM     13  C   UNL     1      15.546  71.232  74.146  1.00  0.00    -0.000 C 
BRANCH  13  14
ATOM     14  C   UNL     1      14.381  70.260  73.879  1.00  0.00    -0.000 C 
BRANCH  14  15
ATOM     15  C   UNL     1      13.964  70.216  72.399  1.00  0.00    -0.000 C 
BRANCH  15  16
ATOM     16  C   UNL     1      12.574  70.829  72.160  1.00  0.00    -0.000 C 
BRANCH  16  17
ATOM     17  C   UNL     1      12.042  71.585  73.388  1.00  0.00    -0.000 C 
BRANCH  17  18
ATOM     18  C   UNL     1      11.948  73.089  73.106  1.00  0.00    -0.003 C 
ATOM     19  C   UNL     1      12.329  73.406  71.663  1.00  0.00     0.004 C 
ENDBRANCH  17  18
ENDBRANCH  16  17
ENDBRANCH  15  16
ENDBRANCH  14  15
ENDBRANCH  13  14
ENDBRANCH  12  13
ENDBRANCH   1  12
TORSDOF 14
ENDMDL
