MODEL 1
REMARK VINA RESULT:    -2.848      0.000      0.000
REMARK INTER + INTRA:         -14.179
REMARK INTER:                  -7.510
REMARK INTRA:                  -6.669
REMARK UNBOUND:                -6.669
REMARK SMILES CCCCCCCCCCCCCCCCCCCCCCCCCCCCCC(=O)[O-]
REMARK SMILES IDX 16 1 17 2 18 3 19 4 20 5 21 6 22 7 23 8 24 9 25 10 26 11
REMARK SMILES IDX 27 12 28 13 29 14 30 15 31 16 32 17 15 18 14 19 13 20 12 21
REMARK SMILES IDX 11 22 10 23 9 24 8 25 7 26 6 27 5 28 4 29 3 30 2 31 1 32
REMARK H PARENT
REMARK Flexibility Score: inf
ROOT
ATOM      1  C   UNL     1      11.439   4.857  33.834  1.00  0.00     0.000 C 
ENDROOT
BRANCH   1   2
ATOM      2  C   UNL     1      12.142   6.149  33.385  1.00  0.00     0.000 C 
BRANCH   2   3
ATOM      3  C   UNL     1      11.338   7.414  33.732  1.00  0.00     0.000 C 
BRANCH   3   4
ATOM      4  C   UNL     1      10.841   8.232  32.523  1.00  0.00     0.000 C 
BRANCH   4   5
ATOM      5  C   UNL     1       9.329   8.518  32.505  1.00  0.00     0.000 C 
BRANCH   5   6
ATOM      6  C   UNL     1       8.637   7.989  31.239  1.00  0.00     0.000 C 
BRANCH   6   7
ATOM      7  C   UNL     1       8.486   6.460  31.289  1.00  0.00     0.000 C 
BRANCH   7   8
ATOM      8  C   UNL     1       8.232   5.850  29.894  1.00  0.00     0.000 C 
BRANCH   8   9
ATOM      9  C   UNL     1       9.499   5.292  29.220  1.00  0.00     0.000 C 
BRANCH   9  10
ATOM     10  C   UNL     1      10.675   5.124  30.196  1.00  0.00     0.000 C 
BRANCH  10  11
ATOM     11  C   UNL     1      12.008   5.654  29.619  1.00  0.00     0.000 C 
BRANCH  11  12
ATOM     12  C   UNL     1      13.253   4.905  30.130  1.00  0.00     0.000 C 
BRANCH  12  13
ATOM     13  C   UNL     1      14.430   4.860  29.144  1.00  0.00     0.006 C 
BRANCH  13  14
ATOM     14  C   UNL     1      14.003   4.479  27.720  1.00  0.00     0.053 C 
BRANCH  14  15
ATOM     15  C   UNL     1      14.530   5.467  26.724  1.00  0.00     0.041 C 
ATOM     16  O   UNL     1      15.462   5.143  25.940  1.00  0.00    -0.550 OA
ATOM     17  O   UNL     1      13.991   6.746  26.661  1.00  0.00    -0.550 OA
ENDBRANCH  14  15
ENDBRANCH  13  14
ENDBRANCH  12  13
ENDBRANCH  11  12
ENDBRANCH  10  11
ENDBRANCH   9  10
ENDBRANCH   8   9
ENDBRANCH   7   8
ENDBRANCH   6   7
ENDBRANCH   5   6
ENDBRANCH   4   5
ENDBRANCH   3   4
ENDBRANCH   2   3
ENDBRANCH   1   2
BRANCH   1  18
ATOM     18  C   UNL     1      10.107   5.115  34.562  1.00  0.00     0.000 C 
BRANCH  18  19
ATOM     19  C   UNL     1       8.924   4.239  34.107  1.00  0.00     0.000 C 
BRANCH  19  20
ATOM     20  C   UNL     1       9.284   3.291  32.951  1.00  0.00     0.000 C 
BRANCH  20  21
ATOM     21  C   UNL     1       8.251   2.166  32.753  1.00  0.00     0.000 C 
BRANCH  21  22
ATOM     22  C   UNL     1       8.586   1.152  31.644  1.00  0.00     0.000 C 
BRANCH  22  23
ATOM     23  C   UNL     1       9.050   1.819  30.341  1.00  0.00     0.000 C 
BRANCH  23  24
ATOM     24  C   UNL     1      10.025   0.910  29.575  1.00  0.00    -0.000 C 
BRANCH  24  25
ATOM     25  C   UNL     1      11.185   1.700  28.933  1.00  0.00    -0.000 C 
BRANCH  25  26
ATOM     26  C   UNL     1      12.569   1.335  29.495  1.00  0.00    -0.000 C 
BRANCH  26  27
ATOM     27  C   UNL     1      12.507   0.812  30.941  1.00  0.00    -0.000 C 
BRANCH  27  28
ATOM     28  C   UNL     1      12.524   1.942  31.983  1.00  0.00    -0.000 C 
BRANCH  28  29
ATOM     29  C   UNL     1      12.951   1.457  33.376  1.00  0.00    -0.000 C 
BRANCH  29  30
ATOM     30  C   UNL     1      11.993   0.377  33.898  1.00  0.00    -0.000 C 
BRANCH  30  31
ATOM     31  C   UNL     1      11.017   0.957  34.927  1.00  0.00    -0.003 C 
ATOM     32  C   UNL     1      11.757   1.743  36.007  1.00  0.00     0.004 C 
ENDBRANCH  30  31
ENDBRANCH  29  30
ENDBRANCH  28  29
ENDBRANCH  27  28
ENDBRANCH  26  27
ENDBRANCH  25  26
ENDBRANCH  24  25
ENDBRANCH  23  24
ENDBRANCH  22  23
ENDBRANCH  21  22
ENDBRANCH  20  21
ENDBRANCH  19  20
ENDBRANCH  18  19
ENDBRANCH   1  18
TORSDOF 28
ENDMDL
MODEL 2
REMARK VINA RESULT:    -2.848      2.280      5.768
REMARK INTER + INTRA:         -14.179
REMARK INTER:                  -8.197
REMARK INTRA:                  -5.982
REMARK UNBOUND:                -6.669
REMARK SMILES CCCCCCCCCCCCCCCCCCCCCCCCCCCCCC(=O)[O-]
REMARK SMILES IDX 16 1 17 2 18 3 19 4 20 5 21 6 22 7 23 8 24 9 25 10 26 11
REMARK SMILES IDX 27 12 28 13 29 14 30 15 31 16 32 17 15 18 14 19 13 20 12 21
REMARK SMILES IDX 11 22 10 23 9 24 8 25 7 26 6 27 5 28 4 29 3 30 2 31 1 32
REMARK H PARENT
REMARK Flexibility Score: inf
ROOT
ATOM      1  C   UNL     1       8.217   7.447  30.827  1.00  0.00     0.000 C 
ENDROOT
BRANCH   1   2
ATOM      2  C   UNL     1       8.949   8.250  31.916  1.00  0.00     0.000 C 
BRANCH   2   3
ATOM      3  C   UNL     1      10.476   8.247  31.730  1.00  0.00     0.000 C 
BRANCH   3   4
ATOM      4  C   UNL     1      11.276   7.557  32.853  1.00  0.00     0.000 C 
BRANCH   4   5
ATOM      5  C   UNL     1      10.423   6.883  33.942  1.00  0.00     0.000 C 
BRANCH   5   6
ATOM      6  C   UNL     1      10.565   5.353  33.949  1.00  0.00     0.000 C 
BRANCH   6   7
ATOM      7  C   UNL     1      11.732   4.901  33.056  1.00  0.00     0.000 C 
BRANCH   7   8
ATOM      8  C   UNL     1      11.660   3.397  32.715  1.00  0.00     0.000 C 
BRANCH   8   9
ATOM      9  C   UNL     1      10.243   2.803  32.817  1.00  0.00     0.000 C 
BRANCH   9  10
ATOM     10  C   UNL     1      10.090   1.477  32.054  1.00  0.00     0.000 C 
BRANCH  10  11
ATOM     11  C   UNL     1       8.847   1.459  31.136  1.00  0.00     0.000 C 
BRANCH  11  12
ATOM     12  C   UNL     1       9.155   1.090  29.673  1.00  0.00     0.000 C 
BRANCH  12  13
ATOM     13  C   UNL     1      10.259   0.036  29.490  1.00  0.00     0.006 C 
BRANCH  13  14
ATOM     14  C   UNL     1      10.255  -0.599  28.093  1.00  0.00     0.053 C 
BRANCH  14  15
ATOM     15  C   UNL     1      11.443  -0.148  27.300  1.00  0.00     0.041 C 
ATOM     16  O   UNL     1      11.307   0.703  26.381  1.00  0.00    -0.550 OA
ATOM     17  O   UNL     1      12.702  -0.667  27.577  1.00  0.00    -0.550 OA
ENDBRANCH  14  15
ENDBRANCH  13  14
ENDBRANCH  12  13
ENDBRANCH  11  12
ENDBRANCH  10  11
ENDBRANCH   9  10
ENDBRANCH   8   9
ENDBRANCH   7   8
ENDBRANCH   6   7
ENDBRANCH   5   6
ENDBRANCH   4   5
ENDBRANCH   3   4
ENDBRANCH   2   3
ENDBRANCH   1   2
BRANCH   1  18
ATOM     18  C   UNL     1       8.018   5.966  31.197  1.00  0.00     0.000 C 
BRANCH  18  19
ATOM     19  C   UNL     1       8.892   4.965  30.418  1.00  0.00     0.000 C 
BRANCH  19  20
ATOM     20  C   UNL     1       9.652   5.611  29.248  1.00  0.00     0.000 C 
BRANCH  20  21
ATOM     21  C   UNL     1      11.182   5.515  29.399  1.00  0.00     0.000 C 
BRANCH  21  22
ATOM     22  C   UNL     1      11.883   4.568  28.408  1.00  0.00     0.000 C 
BRANCH  22  23
ATOM     23  C   UNL     1      12.087   3.153  28.970  1.00  0.00     0.000 C 
BRANCH  23  24
ATOM     24  C   UNL     1      13.564   2.734  28.880  1.00  0.00    -0.000 C 
BRANCH  24  25
ATOM     25  C   UNL     1      14.341   3.035  30.179  1.00  0.00    -0.000 C 
BRANCH  25  26
ATOM     26  C   UNL     1      15.278   4.250  30.073  1.00  0.00    -0.000 C 
BRANCH  26  27
ATOM     27  C   UNL     1      16.366   4.073  29.000  1.00  0.00    -0.000 C 
BRANCH  27  28
ATOM     28  C   UNL     1      16.452   5.270  28.039  1.00  0.00    -0.000 C 
BRANCH  28  29
ATOM     29  C   UNL     1      15.208   6.169  28.100  1.00  0.00    -0.000 C 
BRANCH  29  30
ATOM     30  C   UNL     1      14.539   6.274  26.723  1.00  0.00    -0.000 C 
BRANCH  30  31
ATOM     31  C   UNL     1      14.965   5.117  25.812  1.00  0.00    -0.003 C 
ATOM     32  C   UNL     1      13.751   4.393  25.235  1.00  0.00     0.004 C 
ENDBRANCH  30  31
ENDBRANCH  29  30
ENDBRANCH  28  29
ENDBRANCH  27  28
ENDBRANCH  26  27
ENDBRANCH  25  26
ENDBRANCH  24  25
ENDBRANCH  23  24
ENDBRANCH  22  23
ENDBRANCH  21  22
ENDBRANCH  20  21
ENDBRANCH  19  20
ENDBRANCH  18  19
ENDBRANCH   1  18
TORSDOF 28
ENDMDL
MODEL 3
REMARK VINA RESULT:    -2.750      2.084      5.635
REMARK INTER + INTRA:         -13.919
REMARK INTER:                  -8.551
REMARK INTRA:                  -5.368
REMARK UNBOUND:                -6.669
REMARK SMILES CCCCCCCCCCCCCCCCCCCCCCCCCCCCCC(=O)[O-]
REMARK SMILES IDX 16 1 17 2 18 3 19 4 20 5 21 6 22 7 23 8 24 9 25 10 26 11
REMARK SMILES IDX 27 12 28 13 29 14 30 15 31 16 32 17 15 18 14 19 13 20 12 21
REMARK SMILES IDX 11 22 10 23 9 24 8 25 7 26 6 27 5 28 4 29 3 30 2 31 1 32
REMARK H PARENT
REMARK Flexibility Score: inf
ROOT
ATOM      1  C   UNL     1       9.479   5.006  29.659  1.00  0.00     0.000 C 
ENDROOT
BRANCH   1   2
ATOM      2  C   UNL     1      10.938   5.211  29.216  1.00  0.00     0.000 C 
BRANCH   2   3
ATOM      3  C   UNL     1      11.644   3.889  28.868  1.00  0.00     0.000 C 
BRANCH   3   4
ATOM      4  C   UNL     1      12.759   3.460  29.842  1.00  0.00     0.000 C 
BRANCH   4   5
ATOM      5  C   UNL     1      13.447   4.613  30.594  1.00  0.00     0.000 C 
BRANCH   5   6
ATOM      6  C   UNL     1      14.957   4.687  30.320  1.00  0.00     0.000 C 
BRANCH   6   7
ATOM      7  C   UNL     1      15.278   4.274  28.874  1.00  0.00     0.000 C 
BRANCH   7   8
ATOM      8  C   UNL     1      15.795   5.458  28.028  1.00  0.00     0.000 C 
BRANCH   8   9
ATOM      9  C   UNL     1      14.711   6.496  27.685  1.00  0.00     0.000 C 
BRANCH   9  10
ATOM     10  C   UNL     1      14.095   6.284  26.291  1.00  0.00     0.000 C 
BRANCH  10  11
ATOM     11  C   UNL     1      14.924   5.317  25.416  1.00  0.00     0.000 C 
BRANCH  11  12
ATOM     12  C   UNL     1      14.086   4.221  24.730  1.00  0.00     0.000 C 
BRANCH  12  13
ATOM     13  C   UNL     1      13.294   3.318  25.689  1.00  0.00     0.006 C 
BRANCH  13  14
ATOM     14  C   UNL     1      14.070   2.059  26.102  1.00  0.00     0.053 C 
BRANCH  14  15
ATOM     15  C   UNL     1      14.571   1.324  24.898  1.00  0.00     0.041 C 
ATOM     16  O   UNL     1      13.758   0.787  24.098  1.00  0.00    -0.550 OA
ATOM     17  O   UNL     1      15.937   1.232  24.657  1.00  0.00    -0.550 OA
ENDBRANCH  14  15
ENDBRANCH  13  14
ENDBRANCH  12  13
ENDBRANCH  11  12
ENDBRANCH  10  11
ENDBRANCH   9  10
ENDBRANCH   8   9
ENDBRANCH   7   8
ENDBRANCH   6   7
ENDBRANCH   5   6
ENDBRANCH   4   5
ENDBRANCH   3   4
ENDBRANCH   2   3
ENDBRANCH   1   2
BRANCH   1  18
ATOM     18  C   UNL     1       8.645   6.299  29.610  1.00  0.00     0.000 C 
BRANCH  18  19
ATOM     19  C   UNL     1       8.027   6.740  30.950  1.00  0.00     0.000 C 
BRANCH  19  20
ATOM     20  C   UNL     1       8.624   8.052  31.487  1.00  0.00     0.000 C 
BRANCH  20  21
ATOM     21  C   UNL     1      10.153   8.128  31.318  1.00  0.00     0.000 C 
BRANCH  21  22
ATOM     22  C   UNL     1      10.944   8.428  32.605  1.00  0.00     0.000 C 
BRANCH  22  23
ATOM     23  C   UNL     1      10.786   7.337  33.675  1.00  0.00     0.000 C 
BRANCH  23  24
ATOM     24  C   UNL     1      11.867   6.255  33.518  1.00  0.00    -0.000 C 
BRANCH  24  25
ATOM     25  C   UNL     1      11.301   4.829  33.689  1.00  0.00    -0.000 C 
BRANCH  25  26
ATOM     26  C   UNL     1       9.774   4.787  33.866  1.00  0.00    -0.000 C 
BRANCH  26  27
ATOM     27  C   UNL     1       9.103   3.700  33.010  1.00  0.00    -0.000 C 
BRANCH  27  28
ATOM     28  C   UNL     1      10.117   2.750  32.353  1.00  0.00    -0.000 C 
BRANCH  28  29
ATOM     29  C   UNL     1       9.628   1.295  32.316  1.00  0.00    -0.000 C 
BRANCH  29  30
ATOM     30  C   UNL     1       8.439   1.140  31.358  1.00  0.00    -0.000 C 
BRANCH  30  31
ATOM     31  C   UNL     1       8.839   1.494  29.921  1.00  0.00    -0.003 C 
ATOM     32  C   UNL     1       9.867   0.506  29.375  1.00  0.00     0.004 C 
ENDBRANCH  30  31
ENDBRANCH  29  30
ENDBRANCH  28  29
ENDBRANCH  27  28
ENDBRANCH  26  27
ENDBRANCH  25  26
ENDBRANCH  24  25
ENDBRANCH  23  24
ENDBRANCH  22  23
ENDBRANCH  21  22
ENDBRANCH  20  21
ENDBRANCH  19  20
ENDBRANCH  18  19
ENDBRANCH   1  18
TORSDOF 28
ENDMDL
MODEL 4
REMARK VINA RESULT:    -2.727      2.342      4.394
REMARK INTER + INTRA:         -13.859
REMARK INTER:                  -7.454
REMARK INTRA:                  -6.406
REMARK UNBOUND:                -6.669
REMARK SMILES CCCCCCCCCCCCCCCCCCCCCCCCCCCCCC(=O)[O-]
REMARK SMILES IDX 16 1 17 2 18 3 19 4 20 5 21 6 22 7 23 8 24 9 25 10 26 11
REMARK SMILES IDX 27 12 28 13 29 14 30 15 31 16 32 17 15 18 14 19 13 20 12 21
REMARK SMILES IDX 11 22 10 23 9 24 8 25 7 26 6 27 5 28 4 29 3 30 2 31 1 32
REMARK H PARENT
REMARK Flexibility Score: inf
ROOT
ATOM      1  C   UNL     1      11.562   5.196  34.173  1.00  0.00     0.000 C 
ENDROOT
BRANCH   1   2
ATOM      2  C   UNL     1      11.897   6.466  33.372  1.00  0.00     0.000 C 
BRANCH   2   3
ATOM      3  C   UNL     1      10.738   7.477  33.352  1.00  0.00     0.000 C 
BRANCH   3   4
ATOM      4  C   UNL     1      10.554   8.243  32.026  1.00  0.00     0.000 C 
BRANCH   4   5
ATOM      5  C   UNL     1       9.194   8.034  31.335  1.00  0.00     0.000 C 
BRANCH   5   6
ATOM      6  C   UNL     1       8.610   6.634  31.577  1.00  0.00     0.000 C 
BRANCH   6   7
ATOM      7  C   UNL     1       8.095   6.015  30.268  1.00  0.00     0.000 C 
BRANCH   7   8
ATOM      8  C   UNL     1       9.208   5.880  29.206  1.00  0.00     0.000 C 
BRANCH   8   9
ATOM      9  C   UNL     1      10.358   4.946  29.627  1.00  0.00     0.000 C 
BRANCH   9  10
ATOM     10  C   UNL     1      11.731   5.638  29.611  1.00  0.00     0.000 C 
BRANCH  10  11
ATOM     11  C   UNL     1      12.811   4.835  30.372  1.00  0.00     0.000 C 
BRANCH  11  12
ATOM     12  C   UNL     1      12.325   3.469  30.891  1.00  0.00     0.000 C 
BRANCH  12  13
ATOM     13  C   UNL     1      13.375   2.664  31.673  1.00  0.00     0.006 C 
BRANCH  13  14
ATOM     14  C   UNL     1      12.775   1.462  32.416  1.00  0.00     0.053 C 
BRANCH  14  15
ATOM     15  C   UNL     1      13.532   0.209  32.100  1.00  0.00     0.041 C 
ATOM     16  O   UNL     1      14.548   0.253  31.355  1.00  0.00    -0.550 OA
ATOM     17  O   UNL     1      13.118  -1.007  32.628  1.00  0.00    -0.550 OA
ENDBRANCH  14  15
ENDBRANCH  13  14
ENDBRANCH  12  13
ENDBRANCH  11  12
ENDBRANCH  10  11
ENDBRANCH   9  10
ENDBRANCH   8   9
ENDBRANCH   7   8
ENDBRANCH   6   7
ENDBRANCH   5   6
ENDBRANCH   4   5
ENDBRANCH   3   4
ENDBRANCH   2   3
ENDBRANCH   1   2
BRANCH   1  18
ATOM     18  C   UNL     1      10.191   5.265  34.871  1.00  0.00     0.000 C 
BRANCH  18  19
ATOM     19  C   UNL     1       9.199   4.148  34.496  1.00  0.00     0.000 C 
BRANCH  19  20
ATOM     20  C   UNL     1       9.701   3.255  33.349  1.00  0.00     0.000 C 
BRANCH  20  21
ATOM     21  C   UNL     1       8.619   2.976  32.288  1.00  0.00     0.000 C 
BRANCH  21  22
ATOM     22  C   UNL     1       8.617   1.548  31.711  1.00  0.00     0.000 C 
BRANCH  22  23
ATOM     23  C   UNL     1       8.949   1.506  30.212  1.00  0.00     0.000 C 
BRANCH  23  24
ATOM     24  C   UNL     1      10.115   0.543  29.934  1.00  0.00    -0.000 C 
BRANCH  24  25
ATOM     25  C   UNL     1      10.980   0.995  28.739  1.00  0.00    -0.000 C 
BRANCH  25  26
ATOM     26  C   UNL     1      12.302   0.221  28.604  1.00  0.00    -0.000 C 
BRANCH  26  27
ATOM     27  C   UNL     1      13.260   0.849  27.577  1.00  0.00    -0.000 C 
BRANCH  27  28
ATOM     28  C   UNL     1      13.183   2.384  27.555  1.00  0.00    -0.000 C 
BRANCH  28  29
ATOM     29  C   UNL     1      14.557   3.048  27.727  1.00  0.00    -0.000 C 
BRANCH  29  30
ATOM     30  C   UNL     1      14.785   4.123  26.656  1.00  0.00    -0.000 C 
BRANCH  30  31
ATOM     31  C   UNL     1      15.704   5.235  27.176  1.00  0.00    -0.003 C 
ATOM     32  C   UNL     1      14.894   6.406  27.727  1.00  0.00     0.004 C 
ENDBRANCH  30  31
ENDBRANCH  29  30
ENDBRANCH  28  29
ENDBRANCH  27  28
ENDBRANCH  26  27
ENDBRANCH  25  26
ENDBRANCH  24  25
ENDBRANCH  23  24
ENDBRANCH  22  23
ENDBRANCH  21  22
ENDBRANCH  20  21
ENDBRANCH  19  20
ENDBRANCH  18  19
ENDBRANCH   1  18
TORSDOF 28
ENDMDL
MODEL 5
REMARK VINA RESULT:    -2.705      2.619      5.541
REMARK INTER + INTRA:         -13.801
REMARK INTER:                  -7.838
REMARK INTRA:                  -5.963
REMARK UNBOUND:                -6.669
REMARK SMILES CCCCCCCCCCCCCCCCCCCCCCCCCCCCCC(=O)[O-]
REMARK SMILES IDX 16 1 17 2 18 3 19 4 20 5 21 6 22 7 23 8 24 9 25 10 26 11
REMARK SMILES IDX 27 12 28 13 29 14 30 15 31 16 32 17 15 18 14 19 13 20 12 21
REMARK SMILES IDX 11 22 10 23 9 24 8 25 7 26 6 27 5 28 4 29 3 30 2 31 1 32
REMARK H PARENT
REMARK Flexibility Score: inf
ROOT
ATOM      1  C   UNL     1       9.049   4.572  29.636  1.00  0.00     0.000 C 
ENDROOT
BRANCH   1   2
ATOM      2  C   UNL     1       8.304   5.917  29.683  1.00  0.00     0.000 C 
BRANCH   2   3
ATOM      3  C   UNL     1       8.124   6.446  31.116  1.00  0.00     0.000 C 
BRANCH   3   4
ATOM      4  C   UNL     1       8.727   7.839  31.386  1.00  0.00     0.000 C 
BRANCH   4   5
ATOM      5  C   UNL     1      10.259   7.922  31.267  1.00  0.00     0.000 C 
BRANCH   5   6
ATOM      6  C   UNL     1      10.925   8.489  32.530  1.00  0.00     0.000 C 
BRANCH   6   7
ATOM      7  C   UNL     1      10.796   7.512  33.711  1.00  0.00     0.000 C 
BRANCH   7   8
ATOM      8  C   UNL     1      11.705   6.275  33.549  1.00  0.00     0.000 C 
BRANCH   8   9
ATOM      9  C   UNL     1      11.217   5.040  34.329  1.00  0.00     0.000 C 
BRANCH   9  10
ATOM     10  C   UNL     1       9.686   4.980  34.466  1.00  0.00     0.000 C 
BRANCH  10  11
ATOM     11  C   UNL     1       9.121   3.563  34.219  1.00  0.00     0.000 C 
BRANCH  11  12
ATOM     12  C   UNL     1      10.199   2.503  33.924  1.00  0.00     0.000 C 
BRANCH  12  13
ATOM     13  C   UNL     1       9.664   1.178  33.357  1.00  0.00     0.006 C 
BRANCH  13  14
ATOM     14  C   UNL     1      10.369   0.753  32.062  1.00  0.00     0.053 C 
BRANCH  14  15
ATOM     15  C   UNL     1       9.420   0.788  30.903  1.00  0.00     0.041 C 
ATOM     16  O   UNL     1       9.796   0.405  29.763  1.00  0.00    -0.550 OA
ATOM     17  O   UNL     1       8.119   1.242  31.082  1.00  0.00    -0.550 OA
ENDBRANCH  14  15
ENDBRANCH  13  14
ENDBRANCH  12  13
ENDBRANCH  11  12
ENDBRANCH  10  11
ENDBRANCH   9  10
ENDBRANCH   8   9
ENDBRANCH   7   8
ENDBRANCH   6   7
ENDBRANCH   5   6
ENDBRANCH   4   5
ENDBRANCH   3   4
ENDBRANCH   2   3
ENDBRANCH   1   2
BRANCH   1  18
ATOM     18  C   UNL     1      10.051   4.395  30.792  1.00  0.00     0.000 C 
BRANCH  18  19
ATOM     19  C   UNL     1      11.449   3.892  30.385  1.00  0.00     0.000 C 
BRANCH  19  20
ATOM     20  C   UNL     1      12.483   5.024  30.255  1.00  0.00     0.000 C 
BRANCH  20  21
ATOM     21  C   UNL     1      12.346   5.813  28.940  1.00  0.00     0.000 C 
BRANCH  21  22
ATOM     22  C   UNL     1      12.972   5.142  27.702  1.00  0.00     0.000 C 
BRANCH  22  23
ATOM     23  C   UNL     1      13.944   6.061  26.948  1.00  0.00     0.000 C 
BRANCH  23  24
ATOM     24  C   UNL     1      15.141   6.441  27.836  1.00  0.00    -0.000 C 
BRANCH  24  25
ATOM     25  C   UNL     1      16.027   5.226  28.179  1.00  0.00    -0.000 C 
BRANCH  25  26
ATOM     26  C   UNL     1      16.786   5.369  29.509  1.00  0.00    -0.000 C 
BRANCH  26  27
ATOM     27  C   UNL     1      16.184   4.511  30.636  1.00  0.00    -0.000 C 
BRANCH  27  28
ATOM     28  C   UNL     1      15.572   3.198  30.120  1.00  0.00    -0.000 C 
BRANCH  28  29
ATOM     29  C   UNL     1      15.575   2.087  31.180  1.00  0.00    -0.000 C 
BRANCH  29  30
ATOM     30  C   UNL     1      15.369   2.669  32.585  1.00  0.00    -0.000 C 
BRANCH  30  31
ATOM     31  C   UNL     1      13.891   2.627  32.989  1.00  0.00    -0.003 C 
ATOM     32  C   UNL     1      13.735   2.316  34.476  1.00  0.00     0.004 C 
ENDBRANCH  30  31
ENDBRANCH  29  30
ENDBRANCH  28  29
ENDBRANCH  27  28
ENDBRANCH  26  27
ENDBRANCH  25  26
ENDBRANCH  24  25
ENDBRANCH  23  24
ENDBRANCH  22  23
ENDBRANCH  21  22
ENDBRANCH  20  21
ENDBRANCH  19  20
ENDBRANCH  18  19
ENDBRANCH   1  18
TORSDOF 28
ENDMDL
MODEL 6
REMARK VINA RESULT:    -2.700      1.381      2.476
REMARK INTER + INTRA:         -13.788
REMARK INTER:                  -7.928
REMARK INTRA:                  -5.859
REMARK UNBOUND:                -6.669
REMARK SMILES CCCCCCCCCCCCCCCCCCCCCCCCCCCCCC(=O)[O-]
REMARK SMILES IDX 16 1 17 2 18 3 19 4 20 5 21 6 22 7 23 8 24 9 25 10 26 11
REMARK SMILES IDX 27 12 28 13 29 14 30 15 31 16 32 17 15 18 14 19 13 20 12 21
REMARK SMILES IDX 11 22 10 23 9 24 8 25 7 26 6 27 5 28 4 29 3 30 2 31 1 32
REMARK H PARENT
REMARK Flexibility Score: inf
ROOT
ATOM      1  C   UNL     1      11.992   6.375  33.067  1.00  0.00     0.000 C 
ENDROOT
BRANCH   1   2
ATOM      2  C   UNL     1      11.106   7.610  33.303  1.00  0.00     0.000 C 
BRANCH   2   3
ATOM      3  C   UNL     1      10.568   8.213  31.993  1.00  0.00     0.000 C 
BRANCH   3   4
ATOM      4  C   UNL     1       9.034   8.346  31.910  1.00  0.00     0.000 C 
BRANCH   4   5
ATOM      5  C   UNL     1       8.367   7.527  30.790  1.00  0.00     0.000 C 
BRANCH   5   6
ATOM      6  C   UNL     1       8.041   6.088  31.218  1.00  0.00     0.000 C 
BRANCH   6   7
ATOM      7  C   UNL     1       8.598   5.071  30.208  1.00  0.00     0.000 C 
BRANCH   7   8
ATOM      8  C   UNL     1       9.638   5.700  29.257  1.00  0.00     0.000 C 
BRANCH   8   9
ATOM      9  C   UNL     1      10.980   4.945  29.217  1.00  0.00     0.000 C 
BRANCH   9  10
ATOM     10  C   UNL     1      12.189   5.853  29.498  1.00  0.00     0.000 C 
BRANCH  10  11
ATOM     11  C   UNL     1      13.340   5.642  28.488  1.00  0.00     0.000 C 
BRANCH  11  12
ATOM     12  C   UNL     1      13.554   4.171  28.082  1.00  0.00     0.000 C 
BRANCH  12  13
ATOM     13  C   UNL     1      14.479   3.963  26.873  1.00  0.00     0.006 C 
BRANCH  13  14
ATOM     14  C   UNL     1      15.137   5.264  26.392  1.00  0.00     0.053 C 
BRANCH  14  15
ATOM     15  C   UNL     1      14.606   5.664  25.050  1.00  0.00     0.041 C 
ATOM     16  O   UNL     1      13.889   6.694  24.931  1.00  0.00    -0.550 OA
ATOM     17  O   UNL     1      14.903   4.900  23.928  1.00  0.00    -0.550 OA
ENDBRANCH  14  15
ENDBRANCH  13  14
ENDBRANCH  12  13
ENDBRANCH  11  12
ENDBRANCH  10  11
ENDBRANCH   9  10
ENDBRANCH   8   9
ENDBRANCH   7   8
ENDBRANCH   6   7
ENDBRANCH   5   6
ENDBRANCH   4   5
ENDBRANCH   3   4
ENDBRANCH   2   3
ENDBRANCH   1   2
BRANCH   1  18
ATOM     18  C   UNL     1      11.193   5.061  33.001  1.00  0.00     0.000 C 
BRANCH  18  19
ATOM     19  C   UNL     1      10.853   4.423  34.362  1.00  0.00     0.000 C 
BRANCH  19  20
ATOM     20  C   UNL     1       9.341   4.342  34.629  1.00  0.00     0.000 C 
BRANCH  20  21
ATOM     21  C   UNL     1       8.751   2.954  34.321  1.00  0.00     0.000 C 
BRANCH  21  22
ATOM     22  C   UNL     1       8.337   2.725  32.855  1.00  0.00     0.000 C 
BRANCH  22  23
ATOM     23  C   UNL     1       8.972   1.469  32.241  1.00  0.00     0.000 C 
BRANCH  23  24
ATOM     24  C   UNL     1       8.570   1.315  30.765  1.00  0.00    -0.000 C 
BRANCH  24  25
ATOM     25  C   UNL     1       9.623   0.540  29.946  1.00  0.00    -0.000 C 
BRANCH  25  26
ATOM     26  C   UNL     1      10.694   1.440  29.306  1.00  0.00    -0.000 C 
BRANCH  26  27
ATOM     27  C   UNL     1      12.092   1.231  29.915  1.00  0.00    -0.000 C 
BRANCH  27  28
ATOM     28  C   UNL     1      12.405   2.230  31.040  1.00  0.00    -0.000 C 
BRANCH  28  29
ATOM     29  C   UNL     1      13.898   2.271  31.397  1.00  0.00    -0.000 C 
BRANCH  29  30
ATOM     30  C   UNL     1      14.105   2.764  32.835  1.00  0.00    -0.000 C 
BRANCH  30  31
ATOM     31  C   UNL     1      14.957   4.038  32.865  1.00  0.00    -0.003 C 
ATOM     32  C   UNL     1      15.297   4.507  31.452  1.00  0.00     0.004 C 
ENDBRANCH  30  31
ENDBRANCH  29  30
ENDBRANCH  28  29
ENDBRANCH  27  28
ENDBRANCH  26  27
ENDBRANCH  25  26
ENDBRANCH  24  25
ENDBRANCH  23  24
ENDBRANCH  22  23
ENDBRANCH  21  22
ENDBRANCH  20  21
ENDBRANCH  19  20
ENDBRANCH  18  19
ENDBRANCH   1  18
TORSDOF 28
ENDMDL
MODEL 7
REMARK VINA RESULT:    -2.676      2.095      5.124
REMARK INTER + INTRA:         -13.724
REMARK INTER:                  -7.520
REMARK INTRA:                  -6.204
REMARK UNBOUND:                -6.669
REMARK SMILES CCCCCCCCCCCCCCCCCCCCCCCCCCCCCC(=O)[O-]
REMARK SMILES IDX 16 1 17 2 18 3 19 4 20 5 21 6 22 7 23 8 24 9 25 10 26 11
REMARK SMILES IDX 27 12 28 13 29 14 30 15 31 16 32 17 15 18 14 19 13 20 12 21
REMARK SMILES IDX 11 22 10 23 9 24 8 25 7 26 6 27 5 28 4 29 3 30 2 31 1 32
REMARK H PARENT
REMARK Flexibility Score: inf
ROOT
ATOM      1  C   UNL     1      14.265   2.726  34.015  1.00  0.00     0.000 C 
ENDROOT
BRANCH   1   2
ATOM      2  C   UNL     1      13.345   2.012  33.010  1.00  0.00     0.000 C 
BRANCH   2   3
ATOM      3  C   UNL     1      13.712   2.321  31.548  1.00  0.00     0.000 C 
BRANCH   3   4
ATOM      4  C   UNL     1      14.845   3.349  31.355  1.00  0.00     0.000 C 
BRANCH   4   5
ATOM      5  C   UNL     1      14.383   4.762  30.954  1.00  0.00     0.000 C 
BRANCH   5   6
ATOM      6  C   UNL     1      12.903   4.812  30.545  1.00  0.00     0.000 C 
BRANCH   6   7
ATOM      7  C   UNL     1      12.720   5.577  29.224  1.00  0.00     0.000 C 
BRANCH   7   8
ATOM      8  C   UNL     1      12.188   4.672  28.092  1.00  0.00     0.000 C 
BRANCH   8   9
ATOM      9  C   UNL     1      12.114   3.181  28.471  1.00  0.00     0.000 C 
BRANCH   9  10
ATOM     10  C   UNL     1      13.138   2.317  27.716  1.00  0.00     0.000 C 
BRANCH  10  11
ATOM     11  C   UNL     1      14.215   3.162  26.997  1.00  0.00     0.000 C 
BRANCH  11  12
ATOM     12  C   UNL     1      15.560   3.226  27.744  1.00  0.00     0.000 C 
BRANCH  12  13
ATOM     13  C   UNL     1      16.178   4.630  27.843  1.00  0.00     0.006 C 
BRANCH  13  14
ATOM     14  C   UNL     1      17.709   4.618  27.735  1.00  0.00     0.053 C 
BRANCH  14  15
ATOM     15  C   UNL     1      18.339   4.850  29.074  1.00  0.00     0.041 C 
ATOM     16  O   UNL     1      19.113   5.829  29.251  1.00  0.00    -0.550 OA
ATOM     17  O   UNL     1      18.071   3.985  30.128  1.00  0.00    -0.550 OA
ENDBRANCH  14  15
ENDBRANCH  13  14
ENDBRANCH  12  13
ENDBRANCH  11  12
ENDBRANCH  10  11
ENDBRANCH   9  10
ENDBRANCH   8   9
ENDBRANCH   7   8
ENDBRANCH   6   7
ENDBRANCH   5   6
ENDBRANCH   4   5
ENDBRANCH   3   4
ENDBRANCH   2   3
ENDBRANCH   1   2
BRANCH   1  18
ATOM     18  C   UNL     1      13.506   3.673  34.963  1.00  0.00     0.000 C 
BRANCH  18  19
ATOM     19  C   UNL     1      12.786   4.854  34.283  1.00  0.00     0.000 C 
BRANCH  19  20
ATOM     20  C   UNL     1      11.279   4.898  34.587  1.00  0.00     0.000 C 
BRANCH  20  21
ATOM     21  C   UNL     1      10.595   6.167  34.046  1.00  0.00     0.000 C 
BRANCH  21  22
ATOM     22  C   UNL     1      11.487   7.078  33.182  1.00  0.00     0.000 C 
BRANCH  22  23
ATOM     23  C   UNL     1      10.728   8.274  32.588  1.00  0.00     0.000 C 
BRANCH  23  24
ATOM     24  C   UNL     1      10.338   8.005  31.125  1.00  0.00    -0.000 C 
BRANCH  24  25
ATOM     25  C   UNL     1       8.811   7.889  30.935  1.00  0.00    -0.000 C 
BRANCH  25  26
ATOM     26  C   UNL     1       8.274   6.457  31.101  1.00  0.00    -0.000 C 
BRANCH  26  27
ATOM     27  C   UNL     1       9.224   5.392  30.527  1.00  0.00    -0.000 C 
BRANCH  27  28
ATOM     28  C   UNL     1       8.885   3.972  31.007  1.00  0.00    -0.000 C 
BRANCH  28  29
ATOM     29  C   UNL     1      10.112   3.219  31.543  1.00  0.00    -0.000 C 
BRANCH  29  30
ATOM     30  C   UNL     1       9.807   1.725  31.712  1.00  0.00    -0.000 C 
BRANCH  30  31
ATOM     31  C   UNL     1       8.835   1.234  30.633  1.00  0.00    -0.003 C 
ATOM     32  C   UNL     1       9.588   0.697  29.418  1.00  0.00     0.004 C 
ENDBRANCH  30  31
ENDBRANCH  29  30
ENDBRANCH  28  29
ENDBRANCH  27  28
ENDBRANCH  26  27
ENDBRANCH  25  26
ENDBRANCH  24  25
ENDBRANCH  23  24
ENDBRANCH  22  23
ENDBRANCH  21  22
ENDBRANCH  20  21
ENDBRANCH  19  20
ENDBRANCH  18  19
ENDBRANCH   1  18
TORSDOF 28
ENDMDL
MODEL 8
REMARK VINA RESULT:    -2.657      2.227      5.444
REMARK INTER + INTRA:         -13.675
REMARK INTER:                  -7.852
REMARK INTRA:                  -5.823
REMARK UNBOUND:                -6.669
REMARK SMILES CCCCCCCCCCCCCCCCCCCCCCCCCCCCCC(=O)[O-]
REMARK SMILES IDX 16 1 17 2 18 3 19 4 20 5 21 6 22 7 23 8 24 9 25 10 26 11
REMARK SMILES IDX 27 12 28 13 29 14 30 15 31 16 32 17 15 18 14 19 13 20 12 21
REMARK SMILES IDX 11 22 10 23 9 24 8 25 7 26 6 27 5 28 4 29 3 30 2 31 1 32
REMARK H PARENT
REMARK Flexibility Score: inf
ROOT
ATOM      1  C   UNL     1      11.652   0.255  31.803  1.00  0.00     0.000 C 
ENDROOT
BRANCH   1   2
ATOM      2  C   UNL     1      11.057   0.209  30.385  1.00  0.00     0.000 C 
BRANCH   2   3
ATOM      3  C   UNL     1      10.976   1.599  29.730  1.00  0.00     0.000 C 
BRANCH   3   4
ATOM      4  C   UNL     1      11.929   1.823  28.539  1.00  0.00     0.000 C 
BRANCH   4   5
ATOM      5  C   UNL     1      13.098   2.787  28.810  1.00  0.00     0.000 C 
BRANCH   5   6
ATOM      6  C   UNL     1      12.883   3.646  30.066  1.00  0.00     0.000 C 
BRANCH   6   7
ATOM      7  C   UNL     1      12.925   5.145  29.724  1.00  0.00     0.000 C 
BRANCH   7   8
ATOM      8  C   UNL     1      12.761   5.405  28.212  1.00  0.00     0.000 C 
BRANCH   8   9
ATOM      9  C   UNL     1      13.882   6.270  27.604  1.00  0.00     0.000 C 
BRANCH   9  10
ATOM     10  C   UNL     1      14.555   5.613  26.387  1.00  0.00     0.000 C 
BRANCH  10  11
ATOM     11  C   UNL     1      15.694   4.648  26.787  1.00  0.00     0.000 C 
BRANCH  11  12
ATOM     12  C   UNL     1      16.545   5.140  27.972  1.00  0.00     0.000 C 
BRANCH  12  13
ATOM     13  C   UNL     1      16.674   4.143  29.134  1.00  0.00     0.006 C 
BRANCH  13  14
ATOM     14  C   UNL     1      16.396   4.780  30.503  1.00  0.00     0.053 C 
BRANCH  14  15
ATOM     15  C   UNL     1      17.266   4.171  31.559  1.00  0.00     0.041 C 
ATOM     16  O   UNL     1      16.750   3.544  32.524  1.00  0.00    -0.550 OA
ATOM     17  O   UNL     1      18.648   4.293  31.479  1.00  0.00    -0.550 OA
ENDBRANCH  14  15
ENDBRANCH  13  14
ENDBRANCH  12  13
ENDBRANCH  11  12
ENDBRANCH  10  11
ENDBRANCH   9  10
ENDBRANCH   8   9
ENDBRANCH   7   8
ENDBRANCH   6   7
ENDBRANCH   5   6
ENDBRANCH   4   5
ENDBRANCH   3   4
ENDBRANCH   2   3
ENDBRANCH   1   2
BRANCH   1  18
ATOM     18  C   UNL     1      11.502   1.632  32.477  1.00  0.00     0.000 C 
BRANCH  18  19
ATOM     19  C   UNL     1      10.662   1.649  33.768  1.00  0.00     0.000 C 
BRANCH  19  20
ATOM     20  C   UNL     1       9.724   2.865  33.860  1.00  0.00     0.000 C 
BRANCH  20  21
ATOM     21  C   UNL     1       8.738   2.952  32.680  1.00  0.00     0.000 C 
BRANCH  21  22
ATOM     22  C   UNL     1       8.622   4.340  32.021  1.00  0.00     0.000 C 
BRANCH  22  23
ATOM     23  C   UNL     1       9.336   4.422  30.664  1.00  0.00     0.000 C 
BRANCH  23  24
ATOM     24  C   UNL     1       8.613   5.399  29.721  1.00  0.00    -0.000 C 
BRANCH  24  25
ATOM     25  C   UNL     1       8.274   6.738  30.409  1.00  0.00    -0.000 C 
BRANCH  25  26
ATOM     26  C   UNL     1       9.254   7.874  30.068  1.00  0.00    -0.000 C 
BRANCH  26  27
ATOM     27  C   UNL     1      10.467   7.920  31.012  1.00  0.00    -0.000 C 
BRANCH  27  28
ATOM     28  C   UNL     1      10.084   8.285  32.455  1.00  0.00    -0.000 C 
BRANCH  28  29
ATOM     29  C   UNL     1      10.993   7.614  33.497  1.00  0.00    -0.000 C 
BRANCH  29  30
ATOM     30  C   UNL     1      11.595   6.316  32.944  1.00  0.00    -0.000 C 
BRANCH  30  31
ATOM     31  C   UNL     1      12.313   5.528  34.045  1.00  0.00    -0.003 C 
ATOM     32  C   UNL     1      13.633   4.952  33.540  1.00  0.00     0.004 C 
ENDBRANCH  30  31
ENDBRANCH  29  30
ENDBRANCH  28  29
ENDBRANCH  27  28
ENDBRANCH  26  27
ENDBRANCH  25  26
ENDBRANCH  24  25
ENDBRANCH  23  24
ENDBRANCH  22  23
ENDBRANCH  21  22
ENDBRANCH  20  21
ENDBRANCH  19  20
ENDBRANCH  18  19
ENDBRANCH   1  18
TORSDOF 28
ENDMDL
MODEL 9
REMARK VINA RESULT:    -2.647      1.509      3.506
REMARK INTER + INTRA:         -13.648
REMARK INTER:                  -7.145
REMARK INTRA:                  -6.503
REMARK UNBOUND:                -6.669
REMARK SMILES CCCCCCCCCCCCCCCCCCCCCCCCCCCCCC(=O)[O-]
REMARK SMILES IDX 16 1 17 2 18 3 19 4 20 5 21 6 22 7 23 8 24 9 25 10 26 11
REMARK SMILES IDX 27 12 28 13 29 14 30 15 31 16 32 17 15 18 14 19 13 20 12 21
REMARK SMILES IDX 11 22 10 23 9 24 8 25 7 26 6 27 5 28 4 29 3 30 2 31 1 32
REMARK H PARENT
REMARK Flexibility Score: inf
ROOT
ATOM      1  C   UNL     1       8.519   5.648  31.354  1.00  0.00     0.000 C 
ENDROOT
BRANCH   1   2
ATOM      2  C   UNL     1       9.172   6.205  30.077  1.00  0.00     0.000 C 
BRANCH   2   3
ATOM      3  C   UNL     1       9.919   7.527  30.321  1.00  0.00     0.000 C 
BRANCH   3   4
ATOM      4  C   UNL     1       9.637   8.203  31.678  1.00  0.00     0.000 C 
BRANCH   4   5
ATOM      5  C   UNL     1      10.826   8.225  32.655  1.00  0.00     0.000 C 
BRANCH   5   6
ATOM      6  C   UNL     1      10.500   7.573  34.007  1.00  0.00     0.000 C 
BRANCH   6   7
ATOM      7  C   UNL     1      10.964   6.108  34.042  1.00  0.00     0.000 C 
BRANCH   7   8
ATOM      8  C   UNL     1      12.241   5.879  33.205  1.00  0.00     0.000 C 
BRANCH   8   9
ATOM      9  C   UNL     1      12.190   4.614  32.327  1.00  0.00     0.000 C 
BRANCH   9  10
ATOM     10  C   UNL     1      12.710   4.852  30.899  1.00  0.00     0.000 C 
BRANCH  10  11
ATOM     11  C   UNL     1      13.698   3.757  30.436  1.00  0.00     0.000 C 
BRANCH  11  12
ATOM     12  C   UNL     1      13.378   3.173  29.047  1.00  0.00     0.000 C 
BRANCH  12  13
ATOM     13  C   UNL     1      12.332   3.959  28.240  1.00  0.00     0.006 C 
BRANCH  13  14
ATOM     14  C   UNL     1      12.876   4.477  26.901  1.00  0.00     0.053 C 
BRANCH  14  15
ATOM     15  C   UNL     1      14.086   5.333  27.113  1.00  0.00     0.041 C 
ATOM     16  O   UNL     1      14.002   6.398  27.782  1.00  0.00    -0.550 OA
ATOM     17  O   UNL     1      15.310   4.955  26.573  1.00  0.00    -0.550 OA
ENDBRANCH  14  15
ENDBRANCH  13  14
ENDBRANCH  12  13
ENDBRANCH  11  12
ENDBRANCH  10  11
ENDBRANCH   9  10
ENDBRANCH   8   9
ENDBRANCH   7   8
ENDBRANCH   6   7
ENDBRANCH   5   6
ENDBRANCH   4   5
ENDBRANCH   3   4
ENDBRANCH   2   3
ENDBRANCH   1   2
BRANCH   1  18
ATOM     18  C   UNL     1       8.647   4.119  31.481  1.00  0.00     0.000 C 
BRANCH  18  19
ATOM     19  C   UNL     1       9.397   3.419  30.332  1.00  0.00     0.000 C 
BRANCH  19  20
ATOM     20  C   UNL     1       8.888   1.993  30.059  1.00  0.00     0.000 C 
BRANCH  20  21
ATOM     21  C   UNL     1       9.981   0.922  30.233  1.00  0.00     0.000 C 
BRANCH  21  22
ATOM     22  C   UNL     1      11.025   1.219  31.326  1.00  0.00     0.000 C 
BRANCH  22  23
ATOM     23  C   UNL     1      11.874  -0.007  31.693  1.00  0.00     0.000 C 
BRANCH  23  24
ATOM     24  C   UNL     1      11.415  -0.613  33.029  1.00  0.00    -0.000 C 
BRANCH  24  25
ATOM     25  C   UNL     1      10.134  -1.461  32.881  1.00  0.00    -0.000 C 
BRANCH  25  26
ATOM     26  C   UNL     1       9.039  -1.110  33.902  1.00  0.00    -0.000 C 
BRANCH  26  27
ATOM     27  C   UNL     1       7.875  -0.318  33.280  1.00  0.00    -0.000 C 
BRANCH  27  28
ATOM     28  C   UNL     1       7.979   1.193  33.541  1.00  0.00    -0.000 C 
BRANCH  28  29
ATOM     29  C   UNL     1       8.803   1.523  34.795  1.00  0.00    -0.000 C 
BRANCH  29  30
ATOM     30  C   UNL     1       9.916   2.528  34.471  1.00  0.00    -0.000 C 
BRANCH  30  31
ATOM     31  C   UNL     1      10.761   2.834  35.712  1.00  0.00    -0.003 C 
ATOM     32  C   UNL     1      11.006   1.573  36.537  1.00  0.00     0.004 C 
ENDBRANCH  30  31
ENDBRANCH  29  30
ENDBRANCH  28  29
ENDBRANCH  27  28
ENDBRANCH  26  27
ENDBRANCH  25  26
ENDBRANCH  24  25
ENDBRANCH  23  24
ENDBRANCH  22  23
ENDBRANCH  21  22
ENDBRANCH  20  21
ENDBRANCH  19  20
ENDBRANCH  18  19
ENDBRANCH   1  18
TORSDOF 28
ENDMDL
