MODEL 1
REMARK VINA RESULT:    -4.580      0.000      0.000
REMARK INTER + INTRA:          -8.851
REMARK INTER:                  -7.258
REMARK INTRA:                  -1.593
REMARK UNBOUND:                -1.593
REMARK SMILES CCCCCCCCCCCC(=O)[O-]
REMARK SMILES IDX 7 1 8 2 9 3 10 4 11 5 12 6 13 7 14 8 6 9 5 10 4 11 3 12 2 13
REMARK SMILES IDX 1 14
REMARK H PARENT
REMARK Flexibility Score: inf
ROOT
ATOM      1  C   UNL     1      20.026  20.391  47.770  1.00  0.00     0.000 C 
ENDROOT
BRANCH   1   2
ATOM      2  C   UNL     1      18.583  20.870  47.570  1.00  0.00     0.000 C 
BRANCH   2   3
ATOM      3  C   UNL     1      18.194  20.840  46.084  1.00  0.00     0.000 C 
BRANCH   3   4
ATOM      4  C   UNL     1      19.351  20.389  45.178  1.00  0.00     0.006 C 
BRANCH   4   5
ATOM      5  C   UNL     1      18.864  19.744  43.875  1.00  0.00     0.053 C 
BRANCH   5   6
ATOM      6  C   UNL     1      18.013  20.702  43.104  1.00  0.00     0.041 C 
ATOM      7  O   UNL     1      16.810  20.425  42.857  1.00  0.00    -0.550 OA
ATOM      8  O   UNL     1      18.534  21.926  42.702  1.00  0.00    -0.550 OA
ENDBRANCH   5   6
ENDBRANCH   4   5
ENDBRANCH   3   4
ENDBRANCH   2   3
ENDBRANCH   1   2
BRANCH   1   9
ATOM      9  C   UNL     1      20.155  19.552  49.049  1.00  0.00     0.000 C 
BRANCH   9  10
ATOM     10  C   UNL     1      20.987  18.273  48.842  1.00  0.00    -0.000 C 
BRANCH  10  11
ATOM     11  C   UNL     1      21.038  17.756  47.390  1.00  0.00    -0.000 C 
BRANCH  11  12
ATOM     12  C   UNL     1      20.126  16.548  47.092  1.00  0.00    -0.000 C 
BRANCH  12  13
ATOM     13  C   UNL     1      18.816  16.894  46.362  1.00  0.00    -0.003 C 
ATOM     14  C   UNL     1      17.673  17.232  47.318  1.00  0.00     0.004 C 
ENDBRANCH  12  13
ENDBRANCH  11  12
ENDBRANCH  10  11
ENDBRANCH   9  10
ENDBRANCH   1   9
TORSDOF 10
ENDMDL
MODEL 2
REMARK VINA RESULT:    -4.409      1.188      2.256
REMARK INTER + INTRA:          -8.580
REMARK INTER:                  -7.088
REMARK INTRA:                  -1.492
REMARK UNBOUND:                -1.593
REMARK SMILES CCCCCCCCCCCC(=O)[O-]
REMARK SMILES IDX 7 1 8 2 9 3 10 4 11 5 12 6 13 7 14 8 6 9 5 10 4 11 3 12 2 13
REMARK SMILES IDX 1 14
REMARK H PARENT
REMARK Flexibility Score: inf
ROOT
ATOM      1  C   UNL     1      21.558  18.233  47.608  1.00  0.00     0.000 C 
ENDROOT
BRANCH   1   2
ATOM      2  C   UNL     1      20.983  19.336  46.710  1.00  0.00     0.000 C 
BRANCH   2   3
ATOM      3  C   UNL     1      19.810  20.050  47.398  1.00  0.00     0.000 C 
BRANCH   3   4
ATOM      4  C   UNL     1      19.025  20.958  46.437  1.00  0.00     0.006 C 
BRANCH   4   5
ATOM      5  C   UNL     1      19.304  20.642  44.963  1.00  0.00     0.053 C 
BRANCH   5   6
ATOM      6  C   UNL     1      18.253  21.248  44.090  1.00  0.00     0.041 C 
ATOM      7  O   UNL     1      17.072  21.367  44.509  1.00  0.00    -0.550 OA
ATOM      8  O   UNL     1      18.587  21.729  42.830  1.00  0.00    -0.550 OA
ENDBRANCH   5   6
ENDBRANCH   4   5
ENDBRANCH   3   4
ENDBRANCH   2   3
ENDBRANCH   1   2
BRANCH   1   9
ATOM      9  C   UNL     1      20.459  17.259  48.054  1.00  0.00     0.000 C 
BRANCH   9  10
ATOM     10  C   UNL     1      20.168  16.167  47.008  1.00  0.00    -0.000 C 
BRANCH  10  11
ATOM     11  C   UNL     1      18.744  16.195  46.416  1.00  0.00    -0.000 C 
BRANCH  11  12
ATOM     12  C   UNL     1      17.706  16.984  47.241  1.00  0.00    -0.000 C 
BRANCH  12  13
ATOM     13  C   UNL     1      16.824  17.942  46.422  1.00  0.00    -0.003 C 
ATOM     14  C   UNL     1      17.001  17.774  44.914  1.00  0.00     0.004 C 
ENDBRANCH  12  13
ENDBRANCH  11  12
ENDBRANCH  10  11
ENDBRANCH   9  10
ENDBRANCH   1   9
TORSDOF 10
ENDMDL
MODEL 3
REMARK VINA RESULT:    -4.338      1.365      3.125
REMARK INTER + INTRA:          -8.466
REMARK INTER:                  -6.821
REMARK INTRA:                  -1.645
REMARK UNBOUND:                -1.593
REMARK SMILES CCCCCCCCCCCC(=O)[O-]
REMARK SMILES IDX 7 1 8 2 9 3 10 4 11 5 12 6 13 7 14 8 6 9 5 10 4 11 3 12 2 13
REMARK SMILES IDX 1 14
REMARK H PARENT
REMARK Flexibility Score: inf
ROOT
ATOM      1  C   UNL     1      19.000  16.104  46.494  1.00  0.00     0.000 C 
ENDROOT
BRANCH   1   2
ATOM      2  C   UNL     1      17.960  16.929  47.262  1.00  0.00     0.000 C 
BRANCH   2   3
ATOM      3  C   UNL     1      17.190  17.863  46.317  1.00  0.00     0.000 C 
BRANCH   3   4
ATOM      4  C   UNL     1      17.713  17.806  44.872  1.00  0.00     0.006 C 
BRANCH   4   5
ATOM      5  C   UNL     1      18.025  19.195  44.301  1.00  0.00     0.053 C 
BRANCH   5   6
ATOM      6  C   UNL     1      16.764  19.976  44.111  1.00  0.00     0.041 C 
ATOM      7  O   UNL     1      16.679  21.157  44.537  1.00  0.00    -0.550 OA
ATOM      8  O   UNL     1      15.697  19.417  43.417  1.00  0.00    -0.550 OA
ENDBRANCH   5   6
ENDBRANCH   4   5
ENDBRANCH   3   4
ENDBRANCH   2   3
ENDBRANCH   1   2
BRANCH   1   9
ATOM      9  C   UNL     1      20.350  16.104  47.224  1.00  0.00     0.000 C 
BRANCH   9  10
ATOM     10  C   UNL     1      20.605  17.404  48.009  1.00  0.00    -0.000 C 
BRANCH  10  11
ATOM     11  C   UNL     1      21.343  18.506  47.221  1.00  0.00    -0.000 C 
BRANCH  11  12
ATOM     12  C   UNL     1      20.515  19.776  46.940  1.00  0.00    -0.000 C 
BRANCH  12  13
ATOM     13  C   UNL     1      19.602  20.220  48.096  1.00  0.00    -0.003 C 
ATOM     14  C   UNL     1      18.389  21.022  47.624  1.00  0.00     0.004 C 
ENDBRANCH  12  13
ENDBRANCH  11  12
ENDBRANCH  10  11
ENDBRANCH   9  10
ENDBRANCH   1   9
TORSDOF 10
ENDMDL
MODEL 4
REMARK VINA RESULT:    -4.295      2.012      4.087
REMARK INTER + INTRA:          -8.399
REMARK INTER:                  -6.854
REMARK INTRA:                  -1.546
REMARK UNBOUND:                -1.593
REMARK SMILES CCCCCCCCCCCC(=O)[O-]
REMARK SMILES IDX 7 1 8 2 9 3 10 4 11 5 12 6 13 7 14 8 6 9 5 10 4 11 3 12 2 13
REMARK SMILES IDX 1 14
REMARK H PARENT
REMARK Flexibility Score: inf
ROOT
ATOM      1  C   UNL     1      20.830  18.821  49.369  1.00  0.00     0.000 C 
ENDROOT
BRANCH   1   2
ATOM      2  C   UNL     1      21.218  18.247  48.001  1.00  0.00     0.000 C 
BRANCH   2   3
ATOM      3  C   UNL     1      20.620  16.847  47.802  1.00  0.00     0.000 C 
BRANCH   3   4
ATOM      4  C   UNL     1      19.585  16.801  46.666  1.00  0.00     0.006 C 
BRANCH   4   5
ATOM      5  C   UNL     1      18.152  17.027  47.164  1.00  0.00     0.053 C 
BRANCH   5   6
ATOM      6  C   UNL     1      17.215  17.175  46.008  1.00  0.00     0.041 C 
ATOM      7  O   UNL     1      16.155  17.842  46.132  1.00  0.00    -0.550 OA
ATOM      8  O   UNL     1      17.537  16.617  44.776  1.00  0.00    -0.550 OA
ENDBRANCH   5   6
ENDBRANCH   4   5
ENDBRANCH   3   4
ENDBRANCH   2   3
ENDBRANCH   1   2
BRANCH   1   9
ATOM      9  C   UNL     1      20.029  20.122  49.212  1.00  0.00     0.000 C 
BRANCH   9  10
ATOM     10  C   UNL     1      19.858  20.544  47.742  1.00  0.00    -0.000 C 
BRANCH  10  11
ATOM     11  C   UNL     1      18.398  20.763  47.293  1.00  0.00    -0.000 C 
BRANCH  11  12
ATOM     12  C   UNL     1      18.187  20.846  45.767  1.00  0.00    -0.000 C 
BRANCH  12  13
ATOM     13  C   UNL     1      19.269  20.146  44.927  1.00  0.00    -0.003 C 
ATOM     14  C   UNL     1      18.778  19.744  43.537  1.00  0.00     0.004 C 
ENDBRANCH  12  13
ENDBRANCH  11  12
ENDBRANCH  10  11
ENDBRANCH   9  10
ENDBRANCH   1   9
TORSDOF 10
ENDMDL
MODEL 5
REMARK VINA RESULT:    -4.284      1.126      2.860
REMARK INTER + INTRA:          -8.381
REMARK INTER:                  -7.082
REMARK INTRA:                  -1.299
REMARK UNBOUND:                -1.593
REMARK SMILES CCCCCCCCCCCC(=O)[O-]
REMARK SMILES IDX 7 1 8 2 9 3 10 4 11 5 12 6 13 7 14 8 6 9 5 10 4 11 3 12 2 13
REMARK SMILES IDX 1 14
REMARK H PARENT
REMARK Flexibility Score: inf
ROOT
ATOM      1  C   UNL     1      17.905  17.093  47.117  1.00  0.00     0.000 C 
ENDROOT
BRANCH   1   2
ATOM      2  C   UNL     1      17.561  18.453  46.495  1.00  0.00     0.000 C 
BRANCH   2   3
ATOM      3  C   UNL     1      18.221  18.610  45.118  1.00  0.00     0.000 C 
BRANCH   3   4
ATOM      4  C   UNL     1      19.092  19.873  45.018  1.00  0.00     0.006 C 
BRANCH   4   5
ATOM      5  C   UNL     1      18.356  21.136  45.484  1.00  0.00     0.053 C 
BRANCH   5   6
ATOM      6  C   UNL     1      17.494  21.672  44.386  1.00  0.00     0.041 C 
ATOM      7  O   UNL     1      16.269  21.386  44.345  1.00  0.00    -0.550 OA
ATOM      8  O   UNL     1      18.032  22.531  43.435  1.00  0.00    -0.550 OA
ENDBRANCH   5   6
ENDBRANCH   4   5
ENDBRANCH   3   4
ENDBRANCH   2   3
ENDBRANCH   1   2
BRANCH   1   9
ATOM      9  C   UNL     1      19.175  16.505  46.487  1.00  0.00     0.000 C 
BRANCH   9  10
ATOM     10  C   UNL     1      20.389  16.554  47.433  1.00  0.00    -0.000 C 
BRANCH  10  11
ATOM     11  C   UNL     1      21.047  17.941  47.576  1.00  0.00    -0.000 C 
BRANCH  11  12
ATOM     12  C   UNL     1      20.681  18.711  48.862  1.00  0.00    -0.000 C 
BRANCH  12  13
ATOM     13  C   UNL     1      19.970  20.055  48.628  1.00  0.00    -0.003 C 
ATOM     14  C   UNL     1      19.936  20.937  49.876  1.00  0.00     0.004 C 
ENDBRANCH  12  13
ENDBRANCH  11  12
ENDBRANCH  10  11
ENDBRANCH   9  10
ENDBRANCH   1   9
TORSDOF 10
ENDMDL
MODEL 6
REMARK VINA RESULT:    -4.197      1.522      3.513
REMARK INTER + INTRA:          -8.244
REMARK INTER:                  -6.905
REMARK INTRA:                  -1.339
REMARK UNBOUND:                -1.593
REMARK SMILES CCCCCCCCCCCC(=O)[O-]
REMARK SMILES IDX 7 1 8 2 9 3 10 4 11 5 12 6 13 7 14 8 6 9 5 10 4 11 3 12 2 13
REMARK SMILES IDX 1 14
REMARK H PARENT
REMARK Flexibility Score: inf
ROOT
ATOM      1  C   UNL     1      20.402  16.041  47.182  1.00  0.00     0.000 C 
ENDROOT
BRANCH   1   2
ATOM      2  C   UNL     1      19.044  16.136  46.476  1.00  0.00     0.000 C 
BRANCH   2   3
ATOM      3  C   UNL     1      18.047  16.956  47.307  1.00  0.00     0.000 C 
BRANCH   3   4
ATOM      4  C   UNL     1      16.980  17.646  46.441  1.00  0.00     0.006 C 
BRANCH   4   5
ATOM      5  C   UNL     1      17.174  17.382  44.943  1.00  0.00     0.053 C 
BRANCH   5   6
ATOM      6  C   UNL     1      17.066  18.657  44.169  1.00  0.00     0.041 C 
ATOM      7  O   UNL     1      17.882  18.909  43.245  1.00  0.00    -0.550 OA
ATOM      8  O   UNL     1      16.032  19.546  44.435  1.00  0.00    -0.550 OA
ENDBRANCH   5   6
ENDBRANCH   4   5
ENDBRANCH   3   4
ENDBRANCH   2   3
ENDBRANCH   1   2
BRANCH   1   9
ATOM      9  C   UNL     1      20.635  17.256  48.091  1.00  0.00     0.000 C 
BRANCH   9  10
ATOM     10  C   UNL     1      21.438  18.373  47.400  1.00  0.00    -0.000 C 
BRANCH  10  11
ATOM     11  C   UNL     1      20.605  19.589  46.945  1.00  0.00    -0.000 C 
BRANCH  11  12
ATOM     12  C   UNL     1      19.692  20.200  48.028  1.00  0.00    -0.000 C 
BRANCH  12  13
ATOM     13  C   UNL     1      18.412  20.865  47.492  1.00  0.00    -0.003 C 
ATOM     14  C   UNL     1      18.571  21.409  46.073  1.00  0.00     0.004 C 
ENDBRANCH  12  13
ENDBRANCH  11  12
ENDBRANCH  10  11
ENDBRANCH   9  10
ENDBRANCH   1   9
TORSDOF 10
ENDMDL
MODEL 7
REMARK VINA RESULT:    -4.197      4.023      5.981
REMARK INTER + INTRA:          -8.243
REMARK INTER:                  -6.701
REMARK INTRA:                  -1.542
REMARK UNBOUND:                -1.593
REMARK SMILES CCCCCCCCCCCC(=O)[O-]
REMARK SMILES IDX 7 1 8 2 9 3 10 4 11 5 12 6 13 7 14 8 6 9 5 10 4 11 3 12 2 13
REMARK SMILES IDX 1 14
REMARK H PARENT
REMARK Flexibility Score: inf
ROOT
ATOM      1  C   UNL     1      17.456  17.414  46.700  1.00  0.00     0.000 C 
ENDROOT
BRANCH   1   2
ATOM      2  C   UNL     1      18.608  17.090  47.659  1.00  0.00     0.000 C 
BRANCH   2   3
ATOM      3  C   UNL     1      19.806  16.500  46.900  1.00  0.00     0.000 C 
BRANCH   3   4
ATOM      4  C   UNL     1      21.137  16.706  47.643  1.00  0.00     0.006 C 
BRANCH   4   5
ATOM      5  C   UNL     1      20.962  17.442  48.977  1.00  0.00     0.053 C 
BRANCH   5   6
ATOM      6  C   UNL     1      21.496  16.616  50.103  1.00  0.00     0.041 C 
ATOM      7  O   UNL     1      20.942  16.649  51.233  1.00  0.00    -0.550 OA
ATOM      8  O   UNL     1      22.578  15.769  49.892  1.00  0.00    -0.550 OA
ENDBRANCH   5   6
ENDBRANCH   4   5
ENDBRANCH   3   4
ENDBRANCH   2   3
ENDBRANCH   1   2
BRANCH   1   9
ATOM      9  C   UNL     1      17.989  17.880  45.337  1.00  0.00     0.000 C 
BRANCH   9  10
ATOM     10  C   UNL     1      18.197  19.404  45.268  1.00  0.00    -0.000 C 
BRANCH  10  11
ATOM     11  C   UNL     1      19.668  19.864  45.318  1.00  0.00    -0.000 C 
BRANCH  11  12
ATOM     12  C   UNL     1      20.152  20.363  46.695  1.00  0.00    -0.000 C 
BRANCH  12  13
ATOM     13  C   UNL     1      19.028  20.748  47.673  1.00  0.00    -0.003 C 
ATOM     14  C   UNL     1      19.482  20.747  49.132  1.00  0.00     0.004 C 
ENDBRANCH  12  13
ENDBRANCH  11  12
ENDBRANCH  10  11
ENDBRANCH   9  10
ENDBRANCH   1   9
TORSDOF 10
ENDMDL
MODEL 8
REMARK VINA RESULT:    -4.107      3.841      5.440
REMARK INTER + INTRA:          -8.101
REMARK INTER:                  -6.735
REMARK INTRA:                  -1.366
REMARK UNBOUND:                -1.593
REMARK SMILES CCCCCCCCCCCC(=O)[O-]
REMARK SMILES IDX 7 1 8 2 9 3 10 4 11 5 12 6 13 7 14 8 6 9 5 10 4 11 3 12 2 13
REMARK SMILES IDX 1 14
REMARK H PARENT
REMARK Flexibility Score: inf
ROOT
ATOM      1  C   UNL     1      19.312  20.867  45.887  1.00  0.00     0.000 C 
ENDROOT
BRANCH   1   2
ATOM      2  C   UNL     1      20.137  20.492  47.125  1.00  0.00     0.000 C 
BRANCH   2   3
ATOM      3  C   UNL     1      20.873  19.161  46.914  1.00  0.00     0.000 C 
BRANCH   3   4
ATOM      4  C   UNL     1      21.032  18.360  48.216  1.00  0.00     0.006 C 
BRANCH   4   5
ATOM      5  C   UNL     1      21.863  17.084  48.027  1.00  0.00     0.053 C 
BRANCH   5   6
ATOM      6  C   UNL     1      21.680  16.164  49.192  1.00  0.00     0.041 C 
ATOM      7  O   UNL     1      22.057  14.966  49.119  1.00  0.00    -0.550 OA
ATOM      8  O   UNL     1      21.139  16.645  50.379  1.00  0.00    -0.550 OA
ENDBRANCH   5   6
ENDBRANCH   4   5
ENDBRANCH   3   4
ENDBRANCH   2   3
ENDBRANCH   1   2
BRANCH   1   9
ATOM      9  C   UNL     1      19.423  19.784  44.804  1.00  0.00     0.000 C 
BRANCH   9  10
ATOM     10  C   UNL     1      18.052  19.342  44.260  1.00  0.00    -0.000 C 
BRANCH  10  11
ATOM     11  C   UNL     1      17.588  17.945  44.721  1.00  0.00    -0.000 C 
BRANCH  11  12
ATOM     12  C   UNL     1      17.010  17.885  46.150  1.00  0.00    -0.000 C 
BRANCH  12  13
ATOM     13  C   UNL     1      17.796  16.992  47.127  1.00  0.00    -0.003 C 
ATOM     14  C   UNL     1      18.658  15.948  46.419  1.00  0.00     0.004 C 
ENDBRANCH  12  13
ENDBRANCH  11  12
ENDBRANCH  10  11
ENDBRANCH   9  10
ENDBRANCH   1   9
TORSDOF 10
ENDMDL
MODEL 9
REMARK VINA RESULT:    -4.085      4.713      6.456
REMARK INTER + INTRA:          -8.066
REMARK INTER:                  -6.925
REMARK INTRA:                  -1.141
REMARK UNBOUND:                -1.593
REMARK SMILES CCCCCCCCCCCC(=O)[O-]
REMARK SMILES IDX 7 1 8 2 9 3 10 4 11 5 12 6 13 7 14 8 6 9 5 10 4 11 3 12 2 13
REMARK SMILES IDX 1 14
REMARK H PARENT
REMARK Flexibility Score: inf
ROOT
ATOM      1  C   UNL     1      21.249  18.750  47.203  1.00  0.00     0.000 C 
ENDROOT
BRANCH   1   2
ATOM      2  C   UNL     1      21.274  17.648  48.270  1.00  0.00     0.000 C 
BRANCH   2   3
ATOM      3  C   UNL     1      21.051  16.266  47.640  1.00  0.00     0.000 C 
BRANCH   3   4
ATOM      4  C   UNL     1      22.051  15.215  48.148  1.00  0.00     0.006 C 
BRANCH   4   5
ATOM      5  C   UNL     1      23.094  15.805  49.106  1.00  0.00     0.053 C 
BRANCH   5   6
ATOM      6  C   UNL     1      22.925  15.234  50.478  1.00  0.00     0.041 C 
ATOM      7  O   UNL     1      23.933  14.926  51.165  1.00  0.00    -0.550 OA
ATOM      8  O   UNL     1      21.653  15.090  51.019  1.00  0.00    -0.550 OA
ENDBRANCH   5   6
ENDBRANCH   4   5
ENDBRANCH   3   4
ENDBRANCH   2   3
ENDBRANCH   1   2
BRANCH   1   9
ATOM      9  C   UNL     1      20.272  19.868  47.590  1.00  0.00     0.000 C 
BRANCH   9  10
ATOM     10  C   UNL     1      19.637  20.556  46.368  1.00  0.00    -0.000 C 
BRANCH  10  11
ATOM     11  C   UNL     1      19.418  19.641  45.146  1.00  0.00    -0.000 C 
BRANCH  11  12
ATOM     12  C   UNL     1      18.068  18.895  45.120  1.00  0.00    -0.000 C 
BRANCH  12  13
ATOM     13  C   UNL     1      18.110  17.465  45.689  1.00  0.00    -0.003 C 
ATOM     14  C   UNL     1      17.508  17.363  47.089  1.00  0.00     0.004 C 
ENDBRANCH  12  13
ENDBRANCH  11  12
ENDBRANCH  10  11
ENDBRANCH   9  10
ENDBRANCH   1   9
TORSDOF 10
ENDMDL
