MODEL 1
REMARK VINA RESULT:    -3.940      0.000      0.000
REMARK INTER + INTRA:          -5.446
REMARK INTER:                  -5.206
REMARK INTRA:                  -0.240
REMARK UNBOUND:                -0.240
REMARK SMILES C=C[C@@H](O)CCCCC
REMARK SMILES IDX 6 1 7 2 8 3 9 4 5 5 3 6 2 7 1 8 4 9
REMARK H PARENT 4 10
REMARK Flexibility Score: inf
ROOT
ATOM      1  C   UNL     1     114.185 120.871 130.850  1.00  0.00     0.003 C 
ENDROOT
BRANCH   1   2
ATOM      2  C   UNL     1     114.636 119.824 129.825  1.00  0.00    -0.000 C 
BRANCH   2   3
ATOM      3  C   UNL     1     114.263 120.252 128.400  1.00  0.00    -0.003 C 
ATOM      4  C   UNL     1     114.071 121.763 128.311  1.00  0.00     0.004 C 
ENDBRANCH   2   3
ENDBRANCH   1   2
BRANCH   1   5
ATOM      5  C   UNL     1     113.895 120.221 132.210  1.00  0.00     0.036 C 
BRANCH   5   6
ATOM      6  C   UNL     1     114.607 120.960 133.356  1.00  0.00     0.136 C 
BRANCH   6   7
ATOM      7  C   UNL     1     115.496 120.013 134.122  1.00  0.00    -0.004 C 
ATOM      8  C   UNL     1     116.823 120.002 133.954  1.00  0.00     0.007 C 
ENDBRANCH   6   7
BRANCH   6   9
ATOM      9  O   UNL     1     115.384 122.002 132.824  1.00  0.00    -0.389 OA
ATOM     10  H   UNL     1     114.789 122.530 132.229  1.00  0.00     0.211 HD
ENDBRANCH   6   9
ENDBRANCH   5   6
ENDBRANCH   1   5
TORSDOF 6
ENDMDL
MODEL 2
REMARK VINA RESULT:    -3.882     14.143     15.663
REMARK INTER + INTRA:          -5.370
REMARK INTER:                  -5.082
REMARK INTRA:                  -0.288
REMARK UNBOUND:                -0.240
REMARK SMILES C=C[C@@H](O)CCCCC
REMARK SMILES IDX 6 1 7 2 8 3 9 4 5 5 3 6 2 7 1 8 4 9
REMARK H PARENT 4 10
REMARK Flexibility Score: inf
ROOT
ATOM      1  C   UNL     1     124.863 120.038 118.810  1.00  0.00     0.003 C 
ENDROOT
BRANCH   1   2
ATOM      2  C   UNL     1     126.058 120.877 118.343  1.00  0.00    -0.000 C 
BRANCH   2   3
ATOM      3  C   UNL     1     127.151 120.924 119.418  1.00  0.00    -0.003 C 
ATOM      4  C   UNL     1     127.973 122.205 119.312  1.00  0.00     0.004 C 
ENDBRANCH   2   3
ENDBRANCH   1   2
BRANCH   1   5
ATOM      5  C   UNL     1     125.298 118.979 119.832  1.00  0.00     0.036 C 
BRANCH   5   6
ATOM      6  C   UNL     1     124.174 118.661 120.833  1.00  0.00     0.136 C 
BRANCH   6   7
ATOM      7  C   UNL     1     123.904 119.852 121.720  1.00  0.00    -0.004 C 
ATOM      8  C   UNL     1     122.804 119.931 122.475  1.00  0.00     0.007 C 
ENDBRANCH   6   7
BRANCH   6   9
ATOM      9  O   UNL     1     123.005 118.330 120.128  1.00  0.00    -0.389 OA
ATOM     10  H   UNL     1     122.826 119.080 119.501  1.00  0.00     0.211 HD
ENDBRANCH   6   9
ENDBRANCH   5   6
ENDBRANCH   1   5
TORSDOF 6
ENDMDL
MODEL 3
REMARK VINA RESULT:    -3.867      1.519      4.576
REMARK INTER + INTRA:          -5.351
REMARK INTER:                  -5.021
REMARK INTRA:                  -0.330
REMARK UNBOUND:                -0.240
REMARK SMILES C=C[C@@H](O)CCCCC
REMARK SMILES IDX 6 1 7 2 8 3 9 4 5 5 3 6 2 7 1 8 4 9
REMARK H PARENT 4 10
REMARK Flexibility Score: inf
ROOT
ATOM      1  C   UNL     1     114.757 120.681 131.038  1.00  0.00     0.003 C 
ENDROOT
BRANCH   1   2
ATOM      2  C   UNL     1     113.945 120.186 132.240  1.00  0.00    -0.000 C 
BRANCH   2   3
ATOM      3  C   UNL     1     114.468 120.795 133.547  1.00  0.00    -0.003 C 
ATOM      4  C   UNL     1     115.614 119.968 134.120  1.00  0.00     0.004 C 
ENDBRANCH   2   3
ENDBRANCH   1   2
BRANCH   1   5
ATOM      5  C   UNL     1     115.164 122.150 131.214  1.00  0.00     0.036 C 
BRANCH   5   6
ATOM      6  C   UNL     1     114.364 123.076 130.282  1.00  0.00     0.136 C 
BRANCH   6   7
ATOM      7  C   UNL     1     113.738 122.283 129.161  1.00  0.00    -0.004 C 
ATOM      8  C   UNL     1     113.944 122.596 127.878  1.00  0.00     0.007 C 
ENDBRANCH   6   7
BRANCH   6   9
ATOM      9  O   UNL     1     113.355 123.719 131.019  1.00  0.00    -0.389 OA
ATOM     10  H   UNL     1     112.487 123.396 130.658  1.00  0.00     0.211 HD
ENDBRANCH   6   9
ENDBRANCH   5   6
ENDBRANCH   1   5
TORSDOF 6
ENDMDL
MODEL 4
REMARK VINA RESULT:    -3.844     11.459     12.448
REMARK INTER + INTRA:          -5.320
REMARK INTER:                  -4.994
REMARK INTRA:                  -0.326
REMARK UNBOUND:                -0.240
REMARK SMILES C=C[C@@H](O)CCCCC
REMARK SMILES IDX 6 1 7 2 8 3 9 4 5 5 3 6 2 7 1 8 4 9
REMARK H PARENT 4 10
REMARK Flexibility Score: inf
ROOT
ATOM      1  C   UNL     1     121.063 131.727 129.274  1.00  0.00     0.003 C 
ENDROOT
BRANCH   1   2
ATOM      2  C   UNL     1     122.197 131.348 128.315  1.00  0.00    -0.000 C 
BRANCH   2   3
ATOM      3  C   UNL     1     123.054 132.571 127.964  1.00  0.00    -0.003 C 
ATOM      4  C   UNL     1     122.599 133.803 128.740  1.00  0.00     0.004 C 
ENDBRANCH   2   3
ENDBRANCH   1   2
BRANCH   1   5
ATOM      5  C   UNL     1     119.761 131.003 128.902  1.00  0.00     0.036 C 
BRANCH   5   6
ATOM      6  C   UNL     1     119.348 129.989 129.982  1.00  0.00     0.136 C 
BRANCH   6   7
ATOM      7  C   UNL     1     119.248 128.603 129.392  1.00  0.00    -0.004 C 
ATOM      8  C   UNL     1     120.008 128.221 128.361  1.00  0.00     0.007 C 
ENDBRANCH   6   7
BRANCH   6   9
ATOM      9  O   UNL     1     120.304 129.989 131.011  1.00  0.00    -0.389 OA
ATOM     10  H   UNL     1     120.160 129.159 131.537  1.00  0.00     0.211 HD
ENDBRANCH   6   9
ENDBRANCH   5   6
ENDBRANCH   1   5
TORSDOF 6
ENDMDL
MODEL 5
REMARK VINA RESULT:    -3.836     13.543     14.697
REMARK INTER + INTRA:          -5.309
REMARK INTER:                  -5.105
REMARK INTRA:                  -0.205
REMARK UNBOUND:                -0.240
REMARK SMILES C=C[C@@H](O)CCCCC
REMARK SMILES IDX 6 1 7 2 8 3 9 4 5 5 3 6 2 7 1 8 4 9
REMARK H PARENT 4 10
REMARK Flexibility Score: inf
ROOT
ATOM      1  C   UNL     1     119.831 132.731 127.634  1.00  0.00     0.003 C 
ENDROOT
BRANCH   1   2
ATOM      2  C   UNL     1     120.626 132.178 128.823  1.00  0.00    -0.000 C 
BRANCH   2   3
ATOM      3  C   UNL     1     121.866 131.411 128.347  1.00  0.00    -0.003 C 
ATOM      4  C   UNL     1     123.019 132.362 128.043  1.00  0.00     0.004 C 
ENDBRANCH   2   3
ENDBRANCH   1   2
BRANCH   1   5
ATOM      5  C   UNL     1     118.540 133.415 128.105  1.00  0.00     0.036 C 
BRANCH   5   6
ATOM      6  C   UNL     1     117.975 134.361 127.032  1.00  0.00     0.136 C 
BRANCH   6   7
ATOM      7  C   UNL     1     118.784 134.260 125.762  1.00  0.00    -0.004 C 
ATOM      8  C   UNL     1     118.206 134.044 124.575  1.00  0.00     0.007 C 
ENDBRANCH   6   7
BRANCH   6   9
ATOM      9  O   UNL     1     116.641 134.015 126.763  1.00  0.00    -0.389 OA
ATOM     10  H   UNL     1     116.563 133.910 125.778  1.00  0.00     0.211 HD
ENDBRANCH   6   9
ENDBRANCH   5   6
ENDBRANCH   1   5
TORSDOF 6
ENDMDL
MODEL 6
REMARK VINA RESULT:    -3.825      1.505      1.906
REMARK INTER + INTRA:          -5.294
REMARK INTER:                  -4.696
REMARK INTRA:                  -0.598
REMARK UNBOUND:                -0.240
REMARK SMILES C=C[C@@H](O)CCCCC
REMARK SMILES IDX 6 1 7 2 8 3 9 4 5 5 3 6 2 7 1 8 4 9
REMARK H PARENT 4 10
REMARK Flexibility Score: inf
ROOT
ATOM      1  C   UNL     1     114.509 120.303 130.734  1.00  0.00     0.003 C 
ENDROOT
BRANCH   1   2
ATOM      2  C   UNL     1     114.049 121.474 129.859  1.00  0.00    -0.000 C 
BRANCH   2   3
ATOM      3  C   UNL     1     113.932 122.764 130.680  1.00  0.00    -0.003 C 
ATOM      4  C   UNL     1     115.271 123.491 130.758  1.00  0.00     0.004 C 
ENDBRANCH   2   3
ENDBRANCH   1   2
BRANCH   1   5
ATOM      5  C   UNL     1     113.739 120.271 132.062  1.00  0.00     0.036 C 
BRANCH   5   6
ATOM      6  C   UNL     1     114.689 120.315 133.270  1.00  0.00     0.136 C 
BRANCH   6   7
ATOM      7  C   UNL     1     116.126 120.348 132.810  1.00  0.00    -0.004 C 
ATOM      8  C   UNL     1     117.021 121.177 133.357  1.00  0.00     0.007 C 
ENDBRANCH   6   7
BRANCH   6   9
ATOM      9  O   UNL     1     114.418 121.463 134.033  1.00  0.00    -0.389 OA
ATOM     10  H   UNL     1     113.732 121.206 134.705  1.00  0.00     0.211 HD
ENDBRANCH   6   9
ENDBRANCH   5   6
ENDBRANCH   1   5
TORSDOF 6
ENDMDL
MODEL 7
REMARK VINA RESULT:    -3.801      1.246      1.592
REMARK INTER + INTRA:          -5.262
REMARK INTER:                  -4.706
REMARK INTRA:                  -0.557
REMARK UNBOUND:                -0.240
REMARK SMILES C=C[C@@H](O)CCCCC
REMARK SMILES IDX 6 1 7 2 8 3 9 4 5 5 3 6 2 7 1 8 4 9
REMARK H PARENT 4 10
REMARK Flexibility Score: inf
ROOT
ATOM      1  C   UNL     1     113.885 121.485 131.189  1.00  0.00     0.003 C 
ENDROOT
BRANCH   1   2
ATOM      2  C   UNL     1     114.193 121.168 129.721  1.00  0.00    -0.000 C 
BRANCH   2   3
ATOM      3  C   UNL     1     114.663 119.718 129.558  1.00  0.00    -0.003 C 
ATOM      4  C   UNL     1     116.071 119.657 128.974  1.00  0.00     0.004 C 
ENDBRANCH   2   3
ENDBRANCH   1   2
BRANCH   1   5
ATOM      5  C   UNL     1     114.045 120.237 132.068  1.00  0.00     0.036 C 
BRANCH   5   6
ATOM      6  C   UNL     1     114.846 120.541 133.345  1.00  0.00     0.136 C 
BRANCH   6   7
ATOM      7  C   UNL     1     116.177 121.162 132.997  1.00  0.00    -0.004 C 
ATOM      8  C   UNL     1     117.172 120.442 132.467  1.00  0.00     0.007 C 
ENDBRANCH   6   7
BRANCH   6   9
ATOM      9  O   UNL     1     114.115 121.428 134.152  1.00  0.00    -0.389 OA
ATOM     10  H   UNL     1     113.742 120.893 134.902  1.00  0.00     0.211 HD
ENDBRANCH   6   9
ENDBRANCH   5   6
ENDBRANCH   1   5
TORSDOF 6
ENDMDL
MODEL 8
REMARK VINA RESULT:    -3.775      1.189      2.058
REMARK INTER + INTRA:          -5.228
REMARK INTER:                  -4.969
REMARK INTRA:                  -0.260
REMARK UNBOUND:                -0.240
REMARK SMILES C=C[C@@H](O)CCCCC
REMARK SMILES IDX 6 1 7 2 8 3 9 4 5 5 3 6 2 7 1 8 4 9
REMARK H PARENT 4 10
REMARK Flexibility Score: inf
ROOT
ATOM      1  C   UNL     1     114.496 120.117 129.596  1.00  0.00     0.003 C 
ENDROOT
BRANCH   1   2
ATOM      2  C   UNL     1     114.422 119.833 128.092  1.00  0.00    -0.000 C 
BRANCH   2   3
ATOM      3  C   UNL     1     114.463 121.135 127.283  1.00  0.00    -0.003 C 
ATOM      4  C   UNL     1     113.641 121.015 126.003  1.00  0.00     0.004 C 
ENDBRANCH   2   3
ENDBRANCH   1   2
BRANCH   1   5
ATOM      5  C   UNL     1     114.114 121.572 129.903  1.00  0.00     0.036 C 
BRANCH   5   6
ATOM      6  C   UNL     1     114.057 121.837 131.416  1.00  0.00     0.136 C 
BRANCH   6   7
ATOM      7  C   UNL     1     114.096 120.536 132.181  1.00  0.00    -0.004 C 
ATOM      8  C   UNL     1     114.669 120.446 133.387  1.00  0.00     0.007 C 
ENDBRANCH   6   7
BRANCH   6   9
ATOM      9  O   UNL     1     115.154 122.631 131.791  1.00  0.00    -0.389 OA
ATOM     10  H   UNL     1     114.878 123.577 131.669  1.00  0.00     0.211 HD
ENDBRANCH   6   9
ENDBRANCH   5   6
ENDBRANCH   1   5
TORSDOF 6
ENDMDL
MODEL 9
REMARK VINA RESULT:    -3.755      1.749      4.006
REMARK INTER + INTRA:          -5.201
REMARK INTER:                  -4.609
REMARK INTRA:                  -0.593
REMARK UNBOUND:                -0.240
REMARK SMILES C=C[C@@H](O)CCCCC
REMARK SMILES IDX 6 1 7 2 8 3 9 4 5 5 3 6 2 7 1 8 4 9
REMARK H PARENT 4 10
REMARK Flexibility Score: inf
ROOT
ATOM      1  C   UNL     1     113.905 120.213 132.128  1.00  0.00     0.003 C 
ENDROOT
BRANCH   1   2
ATOM      2  C   UNL     1     114.336 120.881 133.439  1.00  0.00    -0.000 C 
BRANCH   2   3
ATOM      3  C   UNL     1     115.477 120.101 134.104  1.00  0.00    -0.003 C 
ATOM      4  C   UNL     1     116.790 120.875 134.031  1.00  0.00     0.004 C 
ENDBRANCH   2   3
ENDBRANCH   1   2
BRANCH   1   5
ATOM      5  C   UNL     1     114.053 121.177 130.943  1.00  0.00     0.036 C 
BRANCH   5   6
ATOM      6  C   UNL     1     114.597 122.545 131.389  1.00  0.00     0.136 C 
BRANCH   6   7
ATOM      7  C   UNL     1     115.926 122.824 130.729  1.00  0.00    -0.004 C 
ATOM      8  C   UNL     1     116.763 121.838 130.390  1.00  0.00     0.007 C 
ENDBRANCH   6   7
BRANCH   6   9
ATOM      9  O   UNL     1     113.681 123.548 131.033  1.00  0.00    -0.389 OA
ATOM     10  H   UNL     1     112.976 123.555 131.734  1.00  0.00     0.211 HD
ENDBRANCH   6   9
ENDBRANCH   5   6
ENDBRANCH   1   5
TORSDOF 6
ENDMDL
