MODEL 1
REMARK VINA RESULT:    -4.196      0.000      0.000
REMARK INTER + INTRA:          -4.196
REMARK INTER:                  -4.196
REMARK INTRA:                   0.000
REMARK UNBOUND:                 0.000
REMARK SMILES CC1(C)O[C@]2(C)CC[C@H]1CC2
REMARK SMILES IDX 1 1 2 2 9 3 8 4 7 5 5 6 4 7 11 8 10 9 6 10 3 11
REMARK H PARENT
REMARK Flexibility Score: inf
ROOT
ATOM      1  C   UNL     1      25.519   0.246  32.535  1.00  0.00     0.042 C 
ATOM      2  C   UNL     1      25.304   0.102  34.059  1.00  0.00     0.066 C 
ATOM      3  C   UNL     1      26.106  -1.135  34.620  1.00  0.00     0.021 C 
ATOM      4  C   UNL     1      25.545  -2.421  33.966  1.00  0.00     0.009 C 
ATOM      5  C   UNL     1      24.007  -2.448  34.138  1.00  0.00     0.035 C 
ATOM      6  C   UNL     1      23.549  -1.228  34.985  1.00  0.00     0.066 C 
ATOM      7  O   UNL     1      23.894  -0.024  34.300  1.00  0.00    -0.369 OA
ATOM      8  C   UNL     1      24.281  -1.262  36.358  1.00  0.00     0.035 C 
ATOM      9  C   UNL     1      25.813  -1.262  36.135  1.00  0.00     0.009 C 
ATOM     10  C   UNL     1      22.030  -1.262  35.192  1.00  0.00     0.042 C 
ATOM     11  C   UNL     1      25.787   1.412  34.717  1.00  0.00     0.042 C 
ENDROOT
TORSDOF 0
ENDMDL
MODEL 2
REMARK VINA RESULT:    -4.167      1.181      2.986
REMARK INTER + INTRA:          -4.167
REMARK INTER:                  -4.167
REMARK INTRA:                   0.000
REMARK UNBOUND:                 0.000
REMARK SMILES CC1(C)O[C@]2(C)CC[C@H]1CC2
REMARK SMILES IDX 1 1 2 2 9 3 8 4 7 5 5 6 4 7 11 8 10 9 6 10 3 11
REMARK H PARENT
REMARK Flexibility Score: inf
ROOT
ATOM      1  C   UNL     1      24.776   1.572  34.505  1.00  0.00     0.042 C 
ATOM      2  C   UNL     1      25.218   0.174  34.016  1.00  0.00     0.066 C 
ATOM      3  C   UNL     1      24.097  -0.897  34.309  1.00  0.00     0.021 C 
ATOM      4  C   UNL     1      23.905  -1.000  35.842  1.00  0.00     0.009 C 
ATOM      5  C   UNL     1      25.282  -1.225  36.512  1.00  0.00     0.035 C 
ATOM      6  C   UNL     1      26.383  -1.366  35.423  1.00  0.00     0.066 C 
ATOM      7  O   UNL     1      26.454  -0.156  34.668  1.00  0.00    -0.369 OA
ATOM      8  C   UNL     1      26.007  -2.539  34.472  1.00  0.00     0.035 C 
ATOM      9  C   UNL     1      24.613  -2.283  33.849  1.00  0.00     0.009 C 
ATOM     10  C   UNL     1      27.747  -1.624  36.072  1.00  0.00     0.042 C 
ATOM     11  C   UNL     1      25.488   0.282  32.501  1.00  0.00     0.042 C 
ENDROOT
TORSDOF 0
ENDMDL
MODEL 3
REMARK VINA RESULT:    -3.965      1.625      3.340
REMARK INTER + INTRA:          -3.965
REMARK INTER:                  -3.965
REMARK INTRA:                   0.000
REMARK UNBOUND:                 0.000
REMARK SMILES CC1(C)O[C@]2(C)CC[C@H]1CC2
REMARK SMILES IDX 1 1 2 2 9 3 8 4 7 5 5 6 4 7 11 8 10 9 6 10 3 11
REMARK H PARENT
REMARK Flexibility Score: inf
ROOT
ATOM      1  C   UNL     1      25.514  -0.242  32.886  1.00  0.00     0.042 C 
ATOM      2  C   UNL     1      25.260  -0.794  34.306  1.00  0.00     0.066 C 
ATOM      3  C   UNL     1      25.108   0.385  35.343  1.00  0.00     0.021 C 
ATOM      4  C   UNL     1      26.444   1.165  35.399  1.00  0.00     0.009 C 
ATOM      5  C   UNL     1      27.604   0.167  35.638  1.00  0.00     0.035 C 
ATOM      6  C   UNL     1      27.035  -1.266  35.834  1.00  0.00     0.066 C 
ATOM      7  O   UNL     1      26.350  -1.666  34.647  1.00  0.00    -0.369 OA
ATOM      8  C   UNL     1      26.032  -1.255  37.024  1.00  0.00     0.035 C 
ATOM      9  C   UNL     1      24.909  -0.225  36.752  1.00  0.00     0.009 C 
ATOM     10  C   UNL     1      28.171  -2.259  36.106  1.00  0.00     0.042 C 
ATOM     11  C   UNL     1      23.970  -1.639  34.246  1.00  0.00     0.042 C 
ENDROOT
TORSDOF 0
ENDMDL
MODEL 4
REMARK VINA RESULT:    -3.916      1.192      2.741
REMARK INTER + INTRA:          -3.916
REMARK INTER:                  -3.916
REMARK INTRA:                   0.000
REMARK UNBOUND:                 0.000
REMARK SMILES CC1(C)O[C@]2(C)CC[C@H]1CC2
REMARK SMILES IDX 1 1 2 2 9 3 8 4 7 5 5 6 4 7 11 8 10 9 6 10 3 11
REMARK H PARENT
REMARK Flexibility Score: inf
ROOT
ATOM      1  C   UNL     1      26.539   1.508  33.970  1.00  0.00     0.042 C 
ATOM      2  C   UNL     1      25.403   0.501  33.679  1.00  0.00     0.066 C 
ATOM      3  C   UNL     1      24.434   0.383  34.918  1.00  0.00     0.021 C 
ATOM      4  C   UNL     1      25.235  -0.181  36.116  1.00  0.00     0.009 C 
ATOM      5  C   UNL     1      25.968  -1.471  35.675  1.00  0.00     0.035 C 
ATOM      6  C   UNL     1      25.584  -1.821  34.209  1.00  0.00     0.066 C 
ATOM      7  O   UNL     1      26.002  -0.762  33.348  1.00  0.00    -0.369 OA
ATOM      8  C   UNL     1      24.038  -1.977  34.114  1.00  0.00     0.035 C 
ATOM      9  C   UNL     1      23.350  -0.674  34.592  1.00  0.00     0.009 C 
ATOM     10  C   UNL     1      26.276  -3.117  33.770  1.00  0.00     0.042 C 
ATOM     11  C   UNL     1      24.643   1.012  32.437  1.00  0.00     0.042 C 
ENDROOT
TORSDOF 0
ENDMDL
MODEL 5
REMARK VINA RESULT:    -3.869      1.258      2.900
REMARK INTER + INTRA:          -3.869
REMARK INTER:                  -3.869
REMARK INTRA:                   0.000
REMARK UNBOUND:                 0.000
REMARK SMILES CC1(C)O[C@]2(C)CC[C@H]1CC2
REMARK SMILES IDX 1 1 2 2 9 3 8 4 7 5 5 6 4 7 11 8 10 9 6 10 3 11
REMARK H PARENT
REMARK Flexibility Score: inf
ROOT
ATOM      1  C   UNL     1      24.037  -2.912  34.035  1.00  0.00     0.042 C 
ATOM      2  C   UNL     1      24.720  -1.650  34.606  1.00  0.00     0.066 C 
ATOM      3  C   UNL     1      24.029  -1.205  35.953  1.00  0.00     0.021 C 
ATOM      4  C   UNL     1      22.562  -0.819  35.647  1.00  0.00     0.009 C 
ATOM      5  C   UNL     1      22.537   0.196  34.478  1.00  0.00     0.035 C 
ATOM      6  C   UNL     1      23.991   0.559  34.063  1.00  0.00     0.066 C 
ATOM      7  O   UNL     1      24.657  -0.619  33.609  1.00  0.00    -0.369 OA
ATOM      8  C   UNL     1      24.744   1.126  35.301  1.00  0.00     0.035 C 
ATOM      9  C   UNL     1      24.718   0.090  36.451  1.00  0.00     0.009 C 
ATOM     10  C   UNL     1      23.980   1.590  32.929  1.00  0.00     0.042 C 
ATOM     11  C   UNL     1      26.205  -1.998  34.843  1.00  0.00     0.042 C 
ENDROOT
TORSDOF 0
ENDMDL
MODEL 6
REMARK VINA RESULT:    -3.845      1.010      2.324
REMARK INTER + INTRA:          -3.845
REMARK INTER:                  -3.845
REMARK INTRA:                   0.000
REMARK UNBOUND:                 0.000
REMARK SMILES CC1(C)O[C@]2(C)CC[C@H]1CC2
REMARK SMILES IDX 1 1 2 2 9 3 8 4 7 5 5 6 4 7 11 8 10 9 6 10 3 11
REMARK H PARENT
REMARK Flexibility Score: inf
ROOT
ATOM      1  C   UNL     1      26.224   0.927  36.160  1.00  0.00     0.042 C 
ATOM      2  C   UNL     1      25.774  -0.501  35.778  1.00  0.00     0.066 C 
ATOM      3  C   UNL     1      26.115  -0.807  34.268  1.00  0.00     0.021 C 
ATOM      4  C   UNL     1      25.310   0.169  33.376  1.00  0.00     0.009 C 
ATOM      5  C   UNL     1      23.817   0.113  33.782  1.00  0.00     0.035 C 
ATOM      6  C   UNL     1      23.609  -0.966  34.881  1.00  0.00     0.066 C 
ATOM      7  O   UNL     1      24.366  -0.609  36.038  1.00  0.00    -0.369 OA
ATOM      8  C   UNL     1      24.110  -2.338  34.346  1.00  0.00     0.035 C 
ATOM      9  C   UNL     1      25.597  -2.226  33.927  1.00  0.00     0.009 C 
ATOM     10  C   UNL     1      22.128  -1.055  35.268  1.00  0.00     0.042 C 
ATOM     11  C   UNL     1      26.512  -1.481  36.714  1.00  0.00     0.042 C 
ENDROOT
TORSDOF 0
ENDMDL
MODEL 7
REMARK VINA RESULT:    -3.817      1.301      2.904
REMARK INTER + INTRA:          -3.817
REMARK INTER:                  -3.817
REMARK INTRA:                   0.000
REMARK UNBOUND:                 0.000
REMARK SMILES CC1(C)O[C@]2(C)CC[C@H]1CC2
REMARK SMILES IDX 1 1 2 2 9 3 8 4 7 5 5 6 4 7 11 8 10 9 6 10 3 11
REMARK H PARENT
REMARK Flexibility Score: inf
ROOT
ATOM      1  C   UNL     1      26.480  -0.969  36.639  1.00  0.00     0.042 C 
ATOM      2  C   UNL     1      25.287  -0.215  36.011  1.00  0.00     0.066 C 
ATOM      3  C   UNL     1      24.095  -1.206  35.716  1.00  0.00     0.021 C 
ATOM      4  C   UNL     1      24.568  -2.245  34.670  1.00  0.00     0.009 C 
ATOM      5  C   UNL     1      25.177  -1.501  33.456  1.00  0.00     0.035 C 
ATOM      6  C   UNL     1      25.029   0.034  33.649  1.00  0.00     0.066 C 
ATOM      7  O   UNL     1      25.749   0.433  34.816  1.00  0.00    -0.369 OA
ATOM      8  C   UNL     1      23.523   0.378  33.837  1.00  0.00     0.035 C 
ATOM      9  C   UNL     1      22.952  -0.408  35.042  1.00  0.00     0.009 C 
ATOM     10  C   UNL     1      25.598   0.782  32.437  1.00  0.00     0.042 C 
ATOM     11  C   UNL     1      24.855   0.877  37.012  1.00  0.00     0.042 C 
ENDROOT
TORSDOF 0
ENDMDL
MODEL 8
REMARK VINA RESULT:    -3.756      1.575      2.372
REMARK INTER + INTRA:          -3.756
REMARK INTER:                  -3.756
REMARK INTRA:                   0.000
REMARK UNBOUND:                 0.000
REMARK SMILES CC1(C)O[C@]2(C)CC[C@H]1CC2
REMARK SMILES IDX 1 1 2 2 9 3 8 4 7 5 5 6 4 7 11 8 10 9 6 10 3 11
REMARK H PARENT
REMARK Flexibility Score: inf
ROOT
ATOM      1  C   UNL     1      22.754   1.448  33.174  1.00  0.00     0.042 C 
ATOM      2  C   UNL     1      23.106   0.653  34.451  1.00  0.00     0.066 C 
ATOM      3  C   UNL     1      24.576   0.978  34.922  1.00  0.00     0.021 C 
ATOM      4  C   UNL     1      25.559   0.512  33.820  1.00  0.00     0.009 C 
ATOM      5  C   UNL     1      25.251  -0.960  33.455  1.00  0.00     0.035 C 
ATOM      6  C   UNL     1      24.123  -1.508  34.375  1.00  0.00     0.066 C 
ATOM      7  O   UNL     1      22.935  -0.745  34.167  1.00  0.00    -0.369 OA
ATOM      8  C   UNL     1      24.568  -1.365  35.860  1.00  0.00     0.035 C 
ATOM      9  C   UNL     1      24.892   0.117  36.170  1.00  0.00     0.009 C 
ATOM     10  C   UNL     1      23.832  -2.976  34.047  1.00  0.00     0.042 C 
ATOM     11  C   UNL     1      22.084   1.050  35.536  1.00  0.00     0.042 C 
ENDROOT
TORSDOF 0
ENDMDL
MODEL 9
REMARK VINA RESULT:    -3.670      1.324      2.896
REMARK INTER + INTRA:          -3.670
REMARK INTER:                  -3.670
REMARK INTRA:                   0.000
REMARK UNBOUND:                 0.000
REMARK SMILES CC1(C)O[C@]2(C)CC[C@H]1CC2
REMARK SMILES IDX 1 1 2 2 9 3 8 4 7 5 5 6 4 7 11 8 10 9 6 10 3 11
REMARK H PARENT
REMARK Flexibility Score: inf
ROOT
ATOM      1  C   UNL     1      22.571  -1.250  35.004  1.00  0.00     0.042 C 
ATOM      2  C   UNL     1      23.735  -0.246  35.162  1.00  0.00     0.066 C 
ATOM      3  C   UNL     1      24.577  -0.156  33.830  1.00  0.00     0.021 C 
ATOM      4  C   UNL     1      25.214  -1.540  33.558  1.00  0.00     0.009 C 
ATOM      5  C   UNL     1      25.962  -2.013  34.828  1.00  0.00     0.035 C 
ATOM      6  C   UNL     1      25.903  -0.907  35.919  1.00  0.00     0.066 C 
ATOM      7  O   UNL     1      24.540  -0.669  36.273  1.00  0.00    -0.369 OA
ATOM      8  C   UNL     1      26.517   0.403  35.345  1.00  0.00     0.035 C 
ATOM      9  C   UNL     1      25.756   0.821  34.063  1.00  0.00     0.009 C 
ATOM     10  C   UNL     1      26.669  -1.349  37.171  1.00  0.00     0.042 C 
ATOM     11  C   UNL     1      23.116   1.124  35.511  1.00  0.00     0.042 C 
ENDROOT
TORSDOF 0
ENDMDL
