MODEL 1
REMARK VINA RESULT:    -4.356      0.000      0.000
REMARK INTER + INTRA:         -17.177
REMARK INTER:                 -11.486
REMARK INTRA:                  -5.691
REMARK UNBOUND:                -5.691
REMARK SMILES CCCCCCCCCCCCCCCCCCCCCCCCCCCCCC(=O)[O-]
REMARK SMILES IDX 16 1 17 2 18 3 19 4 20 5 21 6 22 7 23 8 24 9 25 10 26 11
REMARK SMILES IDX 27 12 28 13 29 14 30 15 31 16 32 17 15 18 14 19 13 20 12 21
REMARK SMILES IDX 11 22 10 23 9 24 8 25 7 26 6 27 5 28 4 29 3 30 2 31 1 32
REMARK H PARENT
REMARK Flexibility Score: inf
ROOT
ATOM      1  C   UNL     1      47.868  -4.274  73.086  1.00  0.00     0.000 C 
ENDROOT
BRANCH   1   2
ATOM      2  C   UNL     1      46.982  -5.443  73.550  1.00  0.00     0.000 C 
BRANCH   2   3
ATOM      3  C   UNL     1      45.969  -5.020  74.630  1.00  0.00     0.000 C 
BRANCH   3   4
ATOM      4  C   UNL     1      45.643  -6.162  75.611  1.00  0.00     0.000 C 
BRANCH   4   5
ATOM      5  C   UNL     1      46.868  -6.708  76.370  1.00  0.00     0.000 C 
BRANCH   5   6
ATOM      6  C   UNL     1      47.594  -5.619  77.185  1.00  0.00     0.000 C 
BRANCH   6   7
ATOM      7  C   UNL     1      48.085  -6.138  78.551  1.00  0.00     0.000 C 
BRANCH   7   8
ATOM      8  C   UNL     1      49.057  -7.326  78.457  1.00  0.00     0.000 C 
BRANCH   8   9
ATOM      9  C   UNL     1      50.530  -6.903  78.549  1.00  0.00     0.000 C 
BRANCH   9  10
ATOM     10  C   UNL     1      50.725  -5.379  78.485  1.00  0.00     0.000 C 
BRANCH  10  11
ATOM     11  C   UNL     1      52.135  -4.915  78.905  1.00  0.00     0.000 C 
BRANCH  11  12
ATOM     12  C   UNL     1      52.119  -3.544  79.598  1.00  0.00     0.000 C 
BRANCH  12  13
ATOM     13  C   UNL     1      50.707  -2.944  79.600  1.00  0.00     0.006 C 
BRANCH  13  14
ATOM     14  C   UNL     1      50.761  -1.417  79.722  1.00  0.00     0.053 C 
BRANCH  14  15
ATOM     15  C   UNL     1      49.404  -0.804  79.554  1.00  0.00     0.041 C 
ATOM     16  O   UNL     1      48.389  -1.530  79.390  1.00  0.00    -0.550 OA
ATOM     17  O   UNL     1      49.269   0.580  79.519  1.00  0.00    -0.550 OA
ENDBRANCH  14  15
ENDBRANCH  13  14
ENDBRANCH  12  13
ENDBRANCH  11  12
ENDBRANCH  10  11
ENDBRANCH   9  10
ENDBRANCH   8   9
ENDBRANCH   7   8
ENDBRANCH   6   7
ENDBRANCH   5   6
ENDBRANCH   4   5
ENDBRANCH   3   4
ENDBRANCH   2   3
ENDBRANCH   1   2
BRANCH   1  18
ATOM     18  C   UNL     1      49.289  -4.731  72.709  1.00  0.00     0.000 C 
BRANCH  18  19
ATOM     19  C   UNL     1      49.856  -5.760  73.708  1.00  0.00     0.000 C 
BRANCH  19  20
ATOM     20  C   UNL     1      50.398  -5.119  74.997  1.00  0.00     0.000 C 
BRANCH  20  21
ATOM     21  C   UNL     1      51.319  -3.921  74.716  1.00  0.00     0.000 C 
BRANCH  21  22
ATOM     22  C   UNL     1      50.876  -2.635  75.438  1.00  0.00     0.000 C 
BRANCH  22  23
ATOM     23  C   UNL     1      49.578  -2.746  76.266  1.00  0.00     0.000 C 
BRANCH  23  24
ATOM     24  C   UNL     1      48.421  -1.843  75.798  1.00  0.00    -0.000 C 
BRANCH  24  25
ATOM     25  C   UNL     1      48.783  -0.349  75.805  1.00  0.00    -0.000 C 
BRANCH  25  26
ATOM     26  C   UNL     1      48.616   0.330  74.431  1.00  0.00    -0.000 C 
BRANCH  26  27
ATOM     27  C   UNL     1      48.181  -0.609  73.286  1.00  0.00    -0.000 C 
BRANCH  27  28
ATOM     28  C   UNL     1      49.004  -0.531  71.982  1.00  0.00    -0.000 C 
BRANCH  28  29
ATOM     29  C   UNL     1      50.284  -1.384  71.945  1.00  0.00    -0.000 C 
BRANCH  29  30
ATOM     30  C   UNL     1      51.563  -0.558  72.156  1.00  0.00    -0.000 C 
BRANCH  30  31
ATOM     31  C   UNL     1      52.809  -1.455  72.266  1.00  0.00    -0.003 C 
ATOM     32  C   UNL     1      54.003  -0.874  71.505  1.00  0.00     0.004 C 
ENDBRANCH  30  31
ENDBRANCH  29  30
ENDBRANCH  28  29
ENDBRANCH  27  28
ENDBRANCH  26  27
ENDBRANCH  25  26
ENDBRANCH  24  25
ENDBRANCH  23  24
ENDBRANCH  22  23
ENDBRANCH  21  22
ENDBRANCH  20  21
ENDBRANCH  19  20
ENDBRANCH  18  19
ENDBRANCH   1  18
TORSDOF 28
ENDMDL
MODEL 2
REMARK VINA RESULT:    -4.343      1.464      2.298
REMARK INTER + INTRA:         -17.143
REMARK INTER:                 -11.826
REMARK INTRA:                  -5.318
REMARK UNBOUND:                -5.691
REMARK SMILES CCCCCCCCCCCCCCCCCCCCCCCCCCCCCC(=O)[O-]
REMARK SMILES IDX 16 1 17 2 18 3 19 4 20 5 21 6 22 7 23 8 24 9 25 10 26 11
REMARK SMILES IDX 27 12 28 13 29 14 30 15 31 16 32 17 15 18 14 19 13 20 12 21
REMARK SMILES IDX 11 22 10 23 9 24 8 25 7 26 6 27 5 28 4 29 3 30 2 31 1 32
REMARK H PARENT
REMARK Flexibility Score: inf
ROOT
ATOM      1  C   UNL     1      47.532  -4.597  73.608  1.00  0.00     0.000 C 
ENDROOT
BRANCH   1   2
ATOM      2  C   UNL     1      46.753  -5.864  73.214  1.00  0.00     0.000 C 
BRANCH   2   3
ATOM      3  C   UNL     1      47.635  -6.892  72.481  1.00  0.00     0.000 C 
BRANCH   3   4
ATOM      4  C   UNL     1      47.657  -8.260  73.188  1.00  0.00     0.000 C 
BRANCH   4   5
ATOM      5  C   UNL     1      48.182  -8.210  74.636  1.00  0.00     0.000 C 
BRANCH   5   6
ATOM      6  C   UNL     1      47.208  -8.856  75.642  1.00  0.00     0.000 C 
BRANCH   6   7
ATOM      7  C   UNL     1      46.545  -7.816  76.567  1.00  0.00     0.000 C 
BRANCH   7   8
ATOM      8  C   UNL     1      47.448  -6.621  76.914  1.00  0.00     0.000 C 
BRANCH   8   9
ATOM      9  C   UNL     1      48.026  -6.700  78.335  1.00  0.00     0.000 C 
BRANCH   9  10
ATOM     10  C   UNL     1      49.556  -6.549  78.373  1.00  0.00     0.000 C 
BRANCH  10  11
ATOM     11  C   UNL     1      50.031  -5.163  78.856  1.00  0.00     0.000 C 
BRANCH  11  12
ATOM     12  C   UNL     1      51.558  -5.009  78.783  1.00  0.00     0.000 C 
BRANCH  12  13
ATOM     13  C   UNL     1      51.995  -3.616  79.253  1.00  0.00     0.006 C 
BRANCH  13  14
ATOM     14  C   UNL     1      50.814  -2.843  79.850  1.00  0.00     0.053 C 
BRANCH  14  15
ATOM     15  C   UNL     1      51.215  -1.459  80.264  1.00  0.00     0.041 C 
ATOM     16  O   UNL     1      50.402  -0.502  80.172  1.00  0.00    -0.550 OA
ATOM     17  O   UNL     1      52.514  -1.214  80.695  1.00  0.00    -0.550 OA
ENDBRANCH  14  15
ENDBRANCH  13  14
ENDBRANCH  12  13
ENDBRANCH  11  12
ENDBRANCH  10  11
ENDBRANCH   9  10
ENDBRANCH   8   9
ENDBRANCH   7   8
ENDBRANCH   6   7
ENDBRANCH   5   6
ENDBRANCH   4   5
ENDBRANCH   3   4
ENDBRANCH   2   3
ENDBRANCH   1   2
BRANCH   1  18
ATOM     18  C   UNL     1      48.802  -4.404  72.760  1.00  0.00     0.000 C 
BRANCH  18  19
ATOM     19  C   UNL     1      50.083  -4.789  73.529  1.00  0.00     0.000 C 
BRANCH  19  20
ATOM     20  C   UNL     1      49.967  -4.574  75.047  1.00  0.00     0.000 C 
BRANCH  20  21
ATOM     21  C   UNL     1      50.575  -3.236  75.499  1.00  0.00     0.000 C 
BRANCH  21  22
ATOM     22  C   UNL     1      49.633  -2.417  76.400  1.00  0.00     0.000 C 
BRANCH  22  23
ATOM     23  C   UNL     1      49.250  -1.019  75.870  1.00  0.00     0.000 C 
BRANCH  23  24
ATOM     24  C   UNL     1      48.256  -1.012  74.693  1.00  0.00    -0.000 C 
BRANCH  24  25
ATOM     25  C   UNL     1      48.697  -0.100  73.537  1.00  0.00    -0.000 C 
BRANCH  25  26
ATOM     26  C   UNL     1      48.639  -0.784  72.157  1.00  0.00    -0.000 C 
BRANCH  26  27
ATOM     27  C   UNL     1      50.011  -1.162  71.556  1.00  0.00    -0.000 C 
BRANCH  27  28
ATOM     28  C   UNL     1      51.202  -1.207  72.537  1.00  0.00    -0.000 C 
BRANCH  28  29
ATOM     29  C   UNL     1      52.547  -0.706  71.982  1.00  0.00    -0.000 C 
BRANCH  29  30
ATOM     30  C   UNL     1      53.688  -1.718  72.169  1.00  0.00    -0.000 C 
BRANCH  30  31
ATOM     31  C   UNL     1      53.161  -3.097  72.603  1.00  0.00    -0.003 C 
ATOM     32  C   UNL     1      54.161  -3.838  73.495  1.00  0.00     0.004 C 
ENDBRANCH  30  31
ENDBRANCH  29  30
ENDBRANCH  28  29
ENDBRANCH  27  28
ENDBRANCH  26  27
ENDBRANCH  25  26
ENDBRANCH  24  25
ENDBRANCH  23  24
ENDBRANCH  22  23
ENDBRANCH  21  22
ENDBRANCH  20  21
ENDBRANCH  19  20
ENDBRANCH  18  19
ENDBRANCH   1  18
TORSDOF 28
ENDMDL
MODEL 3
REMARK VINA RESULT:    -4.193      2.801      7.435
REMARK INTER + INTRA:         -16.747
REMARK INTER:                 -10.738
REMARK INTRA:                  -6.009
REMARK UNBOUND:                -5.691
REMARK SMILES CCCCCCCCCCCCCCCCCCCCCCCCCCCCCC(=O)[O-]
REMARK SMILES IDX 16 1 17 2 18 3 19 4 20 5 21 6 22 7 23 8 24 9 25 10 26 11
REMARK SMILES IDX 27 12 28 13 29 14 30 15 31 16 32 17 15 18 14 19 13 20 12 21
REMARK SMILES IDX 11 22 10 23 9 24 8 25 7 26 6 27 5 28 4 29 3 30 2 31 1 32
REMARK H PARENT
REMARK Flexibility Score: inf
ROOT
ATOM      1  C   UNL     1      48.975  -6.459  78.667  1.00  0.00     0.000 C 
ENDROOT
BRANCH   1   2
ATOM      2  C   UNL     1      49.496  -5.021  78.827  1.00  0.00     0.000 C 
BRANCH   2   3
ATOM      3  C   UNL     1      51.026  -4.931  78.678  1.00  0.00     0.000 C 
BRANCH   3   4
ATOM      4  C   UNL     1      51.687  -6.314  78.539  1.00  0.00     0.000 C 
BRANCH   4   5
ATOM      5  C   UNL     1      52.530  -6.483  77.260  1.00  0.00     0.000 C 
BRANCH   5   6
ATOM      6  C   UNL     1      51.787  -7.265  76.159  1.00  0.00     0.000 C 
BRANCH   6   7
ATOM      7  C   UNL     1      50.838  -6.366  75.341  1.00  0.00     0.000 C 
BRANCH   7   8
ATOM      8  C   UNL     1      51.537  -5.184  74.648  1.00  0.00     0.000 C 
BRANCH   8   9
ATOM      9  C   UNL     1      51.090  -3.821  75.194  1.00  0.00     0.000 C 
BRANCH   9  10
ATOM     10  C   UNL     1      49.561  -3.659  75.234  1.00  0.00     0.000 C 
BRANCH  10  11
ATOM     11  C   UNL     1      49.031  -2.540  74.313  1.00  0.00     0.000 C 
BRANCH  11  12
ATOM     12  C   UNL     1      48.797  -3.026  72.875  1.00  0.00     0.000 C 
BRANCH  12  13
ATOM     13  C   UNL     1      49.923  -2.557  71.944  1.00  0.00     0.006 C 
BRANCH  13  14
ATOM     14  C   UNL     1      50.135  -1.044  72.059  1.00  0.00     0.053 C 
BRANCH  14  15
ATOM     15  C   UNL     1      51.586  -0.704  72.228  1.00  0.00     0.041 C 
ATOM     16  O   UNL     1      52.028   0.415  71.857  1.00  0.00    -0.550 OA
ATOM     17  O   UNL     1      52.464  -1.652  72.741  1.00  0.00    -0.550 OA
ENDBRANCH  14  15
ENDBRANCH  13  14
ENDBRANCH  12  13
ENDBRANCH  11  12
ENDBRANCH  10  11
ENDBRANCH   9  10
ENDBRANCH   8   9
ENDBRANCH   7   8
ENDBRANCH   6   7
ENDBRANCH   5   6
ENDBRANCH   4   5
ENDBRANCH   3   4
ENDBRANCH   2   3
ENDBRANCH   1   2
BRANCH   1  18
ATOM     18  C   UNL     1      47.523  -6.502  78.157  1.00  0.00     0.000 C 
BRANCH  18  19
ATOM     19  C   UNL     1      47.438  -6.358  76.623  1.00  0.00     0.000 C 
BRANCH  19  20
ATOM     20  C   UNL     1      46.063  -6.748  76.053  1.00  0.00     0.000 C 
BRANCH  20  21
ATOM     21  C   UNL     1      45.402  -5.599  75.276  1.00  0.00     0.000 C 
BRANCH  21  22
ATOM     22  C   UNL     1      46.160  -5.223  73.990  1.00  0.00     0.000 C 
BRANCH  22  23
ATOM     23  C   UNL     1      46.526  -6.400  73.061  1.00  0.00     0.000 C 
BRANCH  23  24
ATOM     24  C   UNL     1      48.035  -6.648  72.880  1.00  0.00    -0.000 C 
BRANCH  24  25
ATOM     25  C   UNL     1      48.344  -7.874  72.007  1.00  0.00    -0.000 C 
BRANCH  25  26
ATOM     26  C   UNL     1      48.435  -9.190  72.804  1.00  0.00    -0.000 C 
BRANCH  26  27
ATOM     27  C   UNL     1      48.738  -9.023  74.309  1.00  0.00    -0.000 C 
BRANCH  27  28
ATOM     28  C   UNL     1      48.209 -10.132  75.244  1.00  0.00    -0.000 C 
BRANCH  28  29
ATOM     29  C   UNL     1      48.271  -9.825  76.750  1.00  0.00    -0.000 C 
BRANCH  29  30
ATOM     30  C   UNL     1      49.678 -10.009  77.343  1.00  0.00    -0.000 C 
BRANCH  30  31
ATOM     31  C   UNL     1      49.664  -9.923  78.879  1.00  0.00    -0.003 C 
ATOM     32  C   UNL     1      48.259 -10.122  79.452  1.00  0.00     0.004 C 
ENDBRANCH  30  31
ENDBRANCH  29  30
ENDBRANCH  28  29
ENDBRANCH  27  28
ENDBRANCH  26  27
ENDBRANCH  25  26
ENDBRANCH  24  25
ENDBRANCH  23  24
ENDBRANCH  22  23
ENDBRANCH  21  22
ENDBRANCH  20  21
ENDBRANCH  19  20
ENDBRANCH  18  19
ENDBRANCH   1  18
TORSDOF 28
ENDMDL
MODEL 4
REMARK VINA RESULT:    -4.182      3.037      4.165
REMARK INTER + INTRA:         -16.719
REMARK INTER:                 -11.120
REMARK INTRA:                  -5.598
REMARK UNBOUND:                -5.691
REMARK SMILES CCCCCCCCCCCCCCCCCCCCCCCCCCCCCC(=O)[O-]
REMARK SMILES IDX 16 1 17 2 18 3 19 4 20 5 21 6 22 7 23 8 24 9 25 10 26 11
REMARK SMILES IDX 27 12 28 13 29 14 30 15 31 16 32 17 15 18 14 19 13 20 12 21
REMARK SMILES IDX 11 22 10 23 9 24 8 25 7 26 6 27 5 28 4 29 3 30 2 31 1 32
REMARK H PARENT
REMARK Flexibility Score: inf
ROOT
ATOM      1  C   UNL     1      47.695  -4.742  73.349  1.00  0.00     0.000 C 
ENDROOT
BRANCH   1   2
ATOM      2  C   UNL     1      47.118  -6.152  73.135  1.00  0.00     0.000 C 
BRANCH   2   3
ATOM      3  C   UNL     1      48.179  -7.152  72.640  1.00  0.00     0.000 C 
BRANCH   3   4
ATOM      4  C   UNL     1      48.356  -8.345  73.598  1.00  0.00     0.000 C 
BRANCH   4   5
ATOM      5  C   UNL     1      48.555  -7.944  75.072  1.00  0.00     0.000 C 
BRANCH   5   6
ATOM      6  C   UNL     1      47.420  -8.452  75.984  1.00  0.00     0.000 C 
BRANCH   6   7
ATOM      7  C   UNL     1      46.727  -7.307  76.751  1.00  0.00     0.000 C 
BRANCH   7   8
ATOM      8  C   UNL     1      47.653  -6.123  77.078  1.00  0.00     0.000 C 
BRANCH   8   9
ATOM      9  C   UNL     1      48.098  -6.100  78.547  1.00  0.00     0.000 C 
BRANCH   9  10
ATOM     10  C   UNL     1      49.515  -5.531  78.738  1.00  0.00     0.000 C 
BRANCH  10  11
ATOM     11  C   UNL     1      50.624  -6.405  78.117  1.00  0.00     0.000 C 
BRANCH  11  12
ATOM     12  C   UNL     1      50.376  -7.905  78.330  1.00  0.00     0.000 C 
BRANCH  12  13
ATOM     13  C   UNL     1      51.656  -8.716  78.090  1.00  0.00     0.006 C 
BRANCH  13  14
ATOM     14  C   UNL     1      52.817  -7.801  77.684  1.00  0.00     0.053 C 
BRANCH  14  15
ATOM     15  C   UNL     1      54.122  -8.537  77.681  1.00  0.00     0.041 C 
ATOM     16  O   UNL     1      54.969  -8.335  76.772  1.00  0.00    -0.550 OA
ATOM     17  O   UNL     1      54.378  -9.496  78.654  1.00  0.00    -0.550 OA
ENDBRANCH  14  15
ENDBRANCH  13  14
ENDBRANCH  12  13
ENDBRANCH  11  12
ENDBRANCH  10  11
ENDBRANCH   9  10
ENDBRANCH   8   9
ENDBRANCH   7   8
ENDBRANCH   6   7
ENDBRANCH   5   6
ENDBRANCH   4   5
ENDBRANCH   3   4
ENDBRANCH   2   3
ENDBRANCH   1   2
BRANCH   1  18
ATOM     18  C   UNL     1      48.852  -4.431  72.382  1.00  0.00     0.000 C 
BRANCH  18  19
ATOM     19  C   UNL     1      50.217  -4.385  73.100  1.00  0.00     0.000 C 
BRANCH  19  20
ATOM     20  C   UNL     1      50.110  -4.579  74.622  1.00  0.00     0.000 C 
BRANCH  20  21
ATOM     21  C   UNL     1      50.674  -3.385  75.408  1.00  0.00     0.000 C 
BRANCH  21  22
ATOM     22  C   UNL     1      49.643  -2.740  76.352  1.00  0.00     0.000 C 
BRANCH  22  23
ATOM     23  C   UNL     1      49.218  -1.300  75.996  1.00  0.00     0.000 C 
BRANCH  23  24
ATOM     24  C   UNL     1      48.207  -1.180  74.840  1.00  0.00    -0.000 C 
BRANCH  24  25
ATOM     25  C   UNL     1      48.605  -0.121  73.799  1.00  0.00    -0.000 C 
BRANCH  25  26
ATOM     26  C   UNL     1      48.568  -0.640  72.348  1.00  0.00    -0.000 C 
BRANCH  26  27
ATOM     27  C   UNL     1      49.940  -1.026  71.756  1.00  0.00    -0.000 C 
BRANCH  27  28
ATOM     28  C   UNL     1      51.161  -0.859  72.686  1.00  0.00    -0.000 C 
BRANCH  28  29
ATOM     29  C   UNL     1      52.514  -1.304  72.103  1.00  0.00    -0.000 C 
BRANCH  29  30
ATOM     30  C   UNL     1      53.388  -2.057  73.119  1.00  0.00    -0.000 C 
BRANCH  30  31
ATOM     31  C   UNL     1      53.844  -3.423  72.577  1.00  0.00    -0.003 C 
ATOM     32  C   UNL     1      54.354  -4.341  73.691  1.00  0.00     0.004 C 
ENDBRANCH  30  31
ENDBRANCH  29  30
ENDBRANCH  28  29
ENDBRANCH  27  28
ENDBRANCH  26  27
ENDBRANCH  25  26
ENDBRANCH  24  25
ENDBRANCH  23  24
ENDBRANCH  22  23
ENDBRANCH  21  22
ENDBRANCH  20  21
ENDBRANCH  19  20
ENDBRANCH  18  19
ENDBRANCH   1  18
TORSDOF 28
ENDMDL
MODEL 5
REMARK VINA RESULT:    -4.155      2.968      6.708
REMARK INTER + INTRA:         -16.647
REMARK INTER:                 -10.943
REMARK INTRA:                  -5.704
REMARK UNBOUND:                -5.691
REMARK SMILES CCCCCCCCCCCCCCCCCCCCCCCCCCCCCC(=O)[O-]
REMARK SMILES IDX 16 1 17 2 18 3 19 4 20 5 21 6 22 7 23 8 24 9 25 10 26 11
REMARK SMILES IDX 27 12 28 13 29 14 30 15 31 16 32 17 15 18 14 19 13 20 12 21
REMARK SMILES IDX 11 22 10 23 9 24 8 25 7 26 6 27 5 28 4 29 3 30 2 31 1 32
REMARK H PARENT
REMARK Flexibility Score: inf
ROOT
ATOM      1  C   UNL     1      48.433  -6.186  72.721  1.00  0.00     0.000 C 
ENDROOT
BRANCH   1   2
ATOM      2  C   UNL     1      49.018  -4.774  72.544  1.00  0.00     0.000 C 
BRANCH   2   3
ATOM      3  C   UNL     1      48.228  -3.708  73.325  1.00  0.00     0.000 C 
BRANCH   3   4
ATOM      4  C   UNL     1      49.080  -2.470  73.659  1.00  0.00     0.000 C 
BRANCH   4   5
ATOM      5  C   UNL     1      48.914  -1.305  72.665  1.00  0.00     0.000 C 
BRANCH   5   6
ATOM      6  C   UNL     1      50.080  -1.212  71.660  1.00  0.00     0.000 C 
BRANCH   6   7
ATOM      7  C   UNL     1      51.296  -0.463  72.241  1.00  0.00     0.000 C 
BRANCH   7   8
ATOM      8  C   UNL     1      52.608  -1.265  72.189  1.00  0.00     0.000 C 
BRANCH   8   9
ATOM      9  C   UNL     1      52.771  -2.223  73.377  1.00  0.00     0.000 C 
BRANCH   9  10
ATOM     10  C   UNL     1      52.520  -3.694  73.005  1.00  0.00     0.000 C 
BRANCH  10  11
ATOM     11  C   UNL     1      52.841  -4.687  74.141  1.00  0.00     0.000 C 
BRANCH  11  12
ATOM     12  C   UNL     1      51.587  -5.116  74.916  1.00  0.00     0.000 C 
BRANCH  12  13
ATOM     13  C   UNL     1      51.826  -6.431  75.669  1.00  0.00     0.006 C 
BRANCH  13  14
ATOM     14  C   UNL     1      50.953  -7.555  75.101  1.00  0.00     0.053 C 
BRANCH  14  15
ATOM     15  C   UNL     1      51.784  -8.645  74.494  1.00  0.00     0.041 C 
ATOM     16  O   UNL     1      51.537  -9.854  74.744  1.00  0.00    -0.550 OA
ATOM     17  O   UNL     1      52.876  -8.320  73.697  1.00  0.00    -0.550 OA
ENDBRANCH  14  15
ENDBRANCH  13  14
ENDBRANCH  12  13
ENDBRANCH  11  12
ENDBRANCH  10  11
ENDBRANCH   9  10
ENDBRANCH   8   9
ENDBRANCH   7   8
ENDBRANCH   6   7
ENDBRANCH   5   6
ENDBRANCH   4   5
ENDBRANCH   3   4
ENDBRANCH   2   3
ENDBRANCH   1   2
BRANCH   1  18
ATOM     18  C   UNL     1      46.963  -6.269  72.274  1.00  0.00     0.000 C 
BRANCH  18  19
ATOM     19  C   UNL     1      46.051  -6.864  73.367  1.00  0.00     0.000 C 
BRANCH  19  20
ATOM     20  C   UNL     1      45.225  -5.802  74.112  1.00  0.00     0.000 C 
BRANCH  20  21
ATOM     21  C   UNL     1      45.618  -5.682  75.592  1.00  0.00     0.000 C 
BRANCH  21  22
ATOM     22  C   UNL     1      46.600  -6.777  76.048  1.00  0.00     0.000 C 
BRANCH  22  23
ATOM     23  C   UNL     1      47.901  -6.275  76.710  1.00  0.00     0.000 C 
BRANCH  23  24
ATOM     24  C   UNL     1      48.192  -6.855  78.107  1.00  0.00    -0.000 C 
BRANCH  24  25
ATOM     25  C   UNL     1      49.587  -6.484  78.635  1.00  0.00    -0.000 C 
BRANCH  25  26
ATOM     26  C   UNL     1      49.726  -4.996  79.011  1.00  0.00    -0.000 C 
BRANCH  26  27
ATOM     27  C   UNL     1      51.087  -4.357  78.658  1.00  0.00    -0.000 C 
BRANCH  27  28
ATOM     28  C   UNL     1      51.051  -2.901  78.146  1.00  0.00    -0.000 C 
BRANCH  28  29
ATOM     29  C   UNL     1      50.012  -2.601  77.051  1.00  0.00    -0.000 C 
BRANCH  29  30
ATOM     30  C   UNL     1      48.694  -2.041  77.610  1.00  0.00    -0.000 C 
BRANCH  30  31
ATOM     31  C   UNL     1      47.471  -2.743  76.995  1.00  0.00    -0.003 C 
ATOM     32  C   UNL     1      46.327  -1.764  76.719  1.00  0.00     0.004 C 
ENDBRANCH  30  31
ENDBRANCH  29  30
ENDBRANCH  28  29
ENDBRANCH  27  28
ENDBRANCH  26  27
ENDBRANCH  25  26
ENDBRANCH  24  25
ENDBRANCH  23  24
ENDBRANCH  22  23
ENDBRANCH  21  22
ENDBRANCH  20  21
ENDBRANCH  19  20
ENDBRANCH  18  19
ENDBRANCH   1  18
TORSDOF 28
ENDMDL
MODEL 6
REMARK VINA RESULT:    -4.138      2.785      7.235
REMARK INTER + INTRA:         -16.603
REMARK INTER:                 -11.596
REMARK INTRA:                  -5.007
REMARK UNBOUND:                -5.691
REMARK SMILES CCCCCCCCCCCCCCCCCCCCCCCCCCCCCC(=O)[O-]
REMARK SMILES IDX 16 1 17 2 18 3 19 4 20 5 21 6 22 7 23 8 24 9 25 10 26 11
REMARK SMILES IDX 27 12 28 13 29 14 30 15 31 16 32 17 15 18 14 19 13 20 12 21
REMARK SMILES IDX 11 22 10 23 9 24 8 25 7 26 6 27 5 28 4 29 3 30 2 31 1 32
REMARK H PARENT
REMARK Flexibility Score: inf
ROOT
ATOM      1  C   UNL     1      46.951  -6.387  72.281  1.00  0.00     0.000 C 
ENDROOT
BRANCH   1   2
ATOM      2  C   UNL     1      47.754  -5.076  72.326  1.00  0.00     0.000 C 
BRANCH   2   3
ATOM      3  C   UNL     1      48.900  -5.124  73.354  1.00  0.00     0.000 C 
BRANCH   3   4
ATOM      4  C   UNL     1      48.591  -4.300  74.618  1.00  0.00     0.000 C 
BRANCH   4   5
ATOM      5  C   UNL     1      49.844  -3.822  75.378  1.00  0.00     0.000 C 
BRANCH   5   6
ATOM      6  C   UNL     1      49.654  -2.433  76.019  1.00  0.00     0.000 C 
BRANCH   6   7
ATOM      7  C   UNL     1      48.182  -2.150  76.381  1.00  0.00     0.000 C 
BRANCH   7   8
ATOM      8  C   UNL     1      47.757  -0.687  76.175  1.00  0.00     0.000 C 
BRANCH   8   9
ATOM      9  C   UNL     1      48.670   0.070  75.199  1.00  0.00     0.000 C 
BRANCH   9  10
ATOM     10  C   UNL     1      47.941   0.530  73.925  1.00  0.00     0.000 C 
BRANCH  10  11
ATOM     11  C   UNL     1      48.667   0.140  72.620  1.00  0.00     0.000 C 
BRANCH  11  12
ATOM     12  C   UNL     1      48.841  -1.379  72.478  1.00  0.00     0.000 C 
BRANCH  12  13
ATOM     13  C   UNL     1      50.197  -1.723  71.850  1.00  0.00     0.006 C 
BRANCH  13  14
ATOM     14  C   UNL     1      51.328  -1.583  72.875  1.00  0.00     0.053 C 
BRANCH  14  15
ATOM     15  C   UNL     1      52.447  -2.539  72.593  1.00  0.00     0.041 C 
ATOM     16  O   UNL     1      52.249  -3.782  72.620  1.00  0.00    -0.550 OA
ATOM     17  O   UNL     1      53.729  -2.055  72.359  1.00  0.00    -0.550 OA
ENDBRANCH  14  15
ENDBRANCH  13  14
ENDBRANCH  12  13
ENDBRANCH  11  12
ENDBRANCH  10  11
ENDBRANCH   9  10
ENDBRANCH   8   9
ENDBRANCH   7   8
ENDBRANCH   6   7
ENDBRANCH   5   6
ENDBRANCH   4   5
ENDBRANCH   3   4
ENDBRANCH   2   3
ENDBRANCH   1   2
BRANCH   1  18
ATOM     18  C   UNL     1      47.859  -7.628  72.213  1.00  0.00     0.000 C 
BRANCH  18  19
ATOM     19  C   UNL     1      47.086  -8.896  71.796  1.00  0.00     0.000 C 
BRANCH  19  20
ATOM     20  C   UNL     1      46.668  -9.771  72.990  1.00  0.00     0.000 C 
BRANCH  20  21
ATOM     21  C   UNL     1      45.306  -9.360  73.572  1.00  0.00     0.000 C 
BRANCH  21  22
ATOM     22  C   UNL     1      45.351  -9.093  75.088  1.00  0.00     0.000 C 
BRANCH  22  23
ATOM     23  C   UNL     1      45.578  -7.624  75.502  1.00  0.00     0.000 C 
BRANCH  23  24
ATOM     24  C   UNL     1      46.633  -7.407  76.603  1.00  0.00    -0.000 C 
BRANCH  24  25
ATOM     25  C   UNL     1      47.015  -8.704  77.335  1.00  0.00    -0.000 C 
BRANCH  25  26
ATOM     26  C   UNL     1      47.790  -8.465  78.645  1.00  0.00    -0.000 C 
BRANCH  26  27
ATOM     27  C   UNL     1      49.229  -9.026  78.665  1.00  0.00    -0.000 C 
BRANCH  27  28
ATOM     28  C   UNL     1      50.214  -8.426  77.640  1.00  0.00    -0.000 C 
BRANCH  28  29
ATOM     29  C   UNL     1      50.160  -6.897  77.472  1.00  0.00    -0.000 C 
BRANCH  29  30
ATOM     30  C   UNL     1      50.711  -6.139  78.690  1.00  0.00    -0.000 C 
BRANCH  30  31
ATOM     31  C   UNL     1      50.015  -4.780  78.879  1.00  0.00    -0.003 C 
ATOM     32  C   UNL     1      48.494  -4.924  78.976  1.00  0.00     0.004 C 
ENDBRANCH  30  31
ENDBRANCH  29  30
ENDBRANCH  28  29
ENDBRANCH  27  28
ENDBRANCH  26  27
ENDBRANCH  25  26
ENDBRANCH  24  25
ENDBRANCH  23  24
ENDBRANCH  22  23
ENDBRANCH  21  22
ENDBRANCH  20  21
ENDBRANCH  19  20
ENDBRANCH  18  19
ENDBRANCH   1  18
TORSDOF 28
ENDMDL
MODEL 7
REMARK VINA RESULT:    -4.118      3.427      5.961
REMARK INTER + INTRA:         -16.549
REMARK INTER:                 -11.088
REMARK INTRA:                  -5.461
REMARK UNBOUND:                -5.691
REMARK SMILES CCCCCCCCCCCCCCCCCCCCCCCCCCCCCC(=O)[O-]
REMARK SMILES IDX 16 1 17 2 18 3 19 4 20 5 21 6 22 7 23 8 24 9 25 10 26 11
REMARK SMILES IDX 27 12 28 13 29 14 30 15 31 16 32 17 15 18 14 19 13 20 12 21
REMARK SMILES IDX 11 22 10 23 9 24 8 25 7 26 6 27 5 28 4 29 3 30 2 31 1 32
REMARK H PARENT
REMARK Flexibility Score: inf
ROOT
ATOM      1  C   UNL     1      48.269  -8.788  78.592  1.00  0.00     0.000 C 
ENDROOT
BRANCH   1   2
ATOM      2  C   UNL     1      48.975  -9.724  77.596  1.00  0.00     0.000 C 
BRANCH   2   3
ATOM      3  C   UNL     1      48.101 -10.042  76.368  1.00  0.00     0.000 C 
BRANCH   3   4
ATOM      4  C   UNL     1      47.643  -8.772  75.627  1.00  0.00     0.000 C 
BRANCH   4   5
ATOM      5  C   UNL     1      46.121  -8.691  75.400  1.00  0.00     0.000 C 
BRANCH   5   6
ATOM      6  C   UNL     1      45.498  -7.418  76.006  1.00  0.00     0.000 C 
BRANCH   6   7
ATOM      7  C   UNL     1      44.963  -6.456  74.926  1.00  0.00     0.000 C 
BRANCH   7   8
ATOM      8  C   UNL     1      45.571  -5.044  74.988  1.00  0.00     0.000 C 
BRANCH   8   9
ATOM      9  C   UNL     1      46.896  -4.997  75.762  1.00  0.00     0.000 C 
BRANCH   9  10
ATOM     10  C   UNL     1      48.115  -4.758  74.854  1.00  0.00     0.000 C 
BRANCH  10  11
ATOM     11  C   UNL     1      47.750  -4.246  73.445  1.00  0.00     0.000 C 
BRANCH  11  12
ATOM     12  C   UNL     1      48.327  -5.134  72.333  1.00  0.00     0.000 C 
BRANCH  12  13
ATOM     13  C   UNL     1      47.341  -6.245  71.946  1.00  0.00     0.006 C 
BRANCH  13  14
ATOM     14  C   UNL     1      47.884  -7.622  72.343  1.00  0.00     0.053 C 
BRANCH  14  15
ATOM     15  C   UNL     1      47.274  -8.713  71.515  1.00  0.00     0.041 C 
ATOM     16  O   UNL     1      46.816  -8.466  70.369  1.00  0.00    -0.550 OA
ATOM     17  O   UNL     1      47.156  -9.995  72.038  1.00  0.00    -0.550 OA
ENDBRANCH  14  15
ENDBRANCH  13  14
ENDBRANCH  12  13
ENDBRANCH  11  12
ENDBRANCH  10  11
ENDBRANCH   9  10
ENDBRANCH   8   9
ENDBRANCH   7   8
ENDBRANCH   6   7
ENDBRANCH   5   6
ENDBRANCH   4   5
ENDBRANCH   3   4
ENDBRANCH   2   3
ENDBRANCH   1   2
BRANCH   1  18
ATOM     18  C   UNL     1      48.904  -7.386  78.627  1.00  0.00     0.000 C 
BRANCH  18  19
ATOM     19  C   UNL     1      47.875  -6.286  78.959  1.00  0.00     0.000 C 
BRANCH  19  20
ATOM     20  C   UNL     1      48.498  -4.883  79.057  1.00  0.00     0.000 C 
BRANCH  20  21
ATOM     21  C   UNL     1      49.985  -4.871  78.669  1.00  0.00     0.000 C 
BRANCH  21  22
ATOM     22  C   UNL     1      50.535  -3.455  78.423  1.00  0.00     0.000 C 
BRANCH  22  23
ATOM     23  C   UNL     1      50.573  -2.999  76.948  1.00  0.00     0.000 C 
BRANCH  23  24
ATOM     24  C   UNL     1      50.043  -1.576  76.688  1.00  0.00    -0.000 C 
BRANCH  24  25
ATOM     25  C   UNL     1      48.508  -1.499  76.665  1.00  0.00    -0.000 C 
BRANCH  25  26
ATOM     26  C   UNL     1      47.933  -1.079  75.298  1.00  0.00    -0.000 C 
BRANCH  26  27
ATOM     27  C   UNL     1      48.717   0.036  74.574  1.00  0.00    -0.000 C 
BRANCH  27  28
ATOM     28  C   UNL     1      48.533   0.124  73.044  1.00  0.00    -0.000 C 
BRANCH  28  29
ATOM     29  C   UNL     1      49.104  -1.052  72.232  1.00  0.00    -0.000 C 
BRANCH  29  30
ATOM     30  C   UNL     1      50.624  -1.215  72.399  1.00  0.00    -0.000 C 
BRANCH  30  31
ATOM     31  C   UNL     1      50.976  -2.482  73.198  1.00  0.00    -0.003 C 
ATOM     32  C   UNL     1      52.162  -3.233  72.587  1.00  0.00     0.004 C 
ENDBRANCH  30  31
ENDBRANCH  29  30
ENDBRANCH  28  29
ENDBRANCH  27  28
ENDBRANCH  26  27
ENDBRANCH  25  26
ENDBRANCH  24  25
ENDBRANCH  23  24
ENDBRANCH  22  23
ENDBRANCH  21  22
ENDBRANCH  20  21
ENDBRANCH  19  20
ENDBRANCH  18  19
ENDBRANCH   1  18
TORSDOF 28
ENDMDL
MODEL 8
REMARK VINA RESULT:    -4.092      2.622      6.393
REMARK INTER + INTRA:         -16.482
REMARK INTER:                 -10.556
REMARK INTRA:                  -5.926
REMARK UNBOUND:                -5.691
REMARK SMILES CCCCCCCCCCCCCCCCCCCCCCCCCCCCCC(=O)[O-]
REMARK SMILES IDX 16 1 17 2 18 3 19 4 20 5 21 6 22 7 23 8 24 9 25 10 26 11
REMARK SMILES IDX 27 12 28 13 29 14 30 15 31 16 32 17 15 18 14 19 13 20 12 21
REMARK SMILES IDX 11 22 10 23 9 24 8 25 7 26 6 27 5 28 4 29 3 30 2 31 1 32
REMARK H PARENT
REMARK Flexibility Score: inf
ROOT
ATOM      1  C   UNL     1      48.318  -3.661  78.234  1.00  0.00     0.000 C 
ENDROOT
BRANCH   1   2
ATOM      2  C   UNL     1      49.007  -2.470  78.921  1.00  0.00     0.000 C 
BRANCH   2   3
ATOM      3  C   UNL     1      50.521  -2.425  78.641  1.00  0.00     0.000 C 
BRANCH   3   4
ATOM      4  C   UNL     1      51.361  -2.685  79.905  1.00  0.00     0.000 C 
BRANCH   4   5
ATOM      5  C   UNL     1      52.362  -3.849  79.766  1.00  0.00     0.000 C 
BRANCH   5   6
ATOM      6  C   UNL     1      51.959  -4.849  78.665  1.00  0.00     0.000 C 
BRANCH   6   7
ATOM      7  C   UNL     1      52.743  -6.173  78.760  1.00  0.00     0.000 C 
BRANCH   7   8
ATOM      8  C   UNL     1      52.528  -7.115  77.563  1.00  0.00     0.000 C 
BRANCH   8   9
ATOM      9  C   UNL     1      51.776  -6.448  76.403  1.00  0.00     0.000 C 
BRANCH   9  10
ATOM     10  C   UNL     1      52.655  -6.232  75.160  1.00  0.00     0.000 C 
BRANCH  10  11
ATOM     11  C   UNL     1      52.353  -4.920  74.407  1.00  0.00     0.000 C 
BRANCH  11  12
ATOM     12  C   UNL     1      51.182  -4.144  75.027  1.00  0.00     0.000 C 
BRANCH  12  13
ATOM     13  C   UNL     1      51.293  -2.644  74.726  1.00  0.00     0.006 C 
BRANCH  13  14
ATOM     14  C   UNL     1      50.899  -2.345  73.276  1.00  0.00     0.053 C 
BRANCH  14  15
ATOM     15  C   UNL     1      51.898  -1.448  72.608  1.00  0.00     0.041 C 
ATOM     16  O   UNL     1      53.093  -1.817  72.464  1.00  0.00    -0.550 OA
ATOM     17  O   UNL     1      51.520  -0.174  72.199  1.00  0.00    -0.550 OA
ENDBRANCH  14  15
ENDBRANCH  13  14
ENDBRANCH  12  13
ENDBRANCH  11  12
ENDBRANCH  10  11
ENDBRANCH   9  10
ENDBRANCH   8   9
ENDBRANCH   7   8
ENDBRANCH   6   7
ENDBRANCH   5   6
ENDBRANCH   4   5
ENDBRANCH   3   4
ENDBRANCH   2   3
ENDBRANCH   1   2
BRANCH   1  18
ATOM     18  C   UNL     1      48.435  -4.957  79.055  1.00  0.00     0.000 C 
BRANCH  18  19
ATOM     19  C   UNL     1      47.916  -6.188  78.282  1.00  0.00     0.000 C 
BRANCH  19  20
ATOM     20  C   UNL     1      48.860  -7.400  78.367  1.00  0.00     0.000 C 
BRANCH  20  21
ATOM     21  C   UNL     1      48.359  -8.594  77.539  1.00  0.00     0.000 C 
BRANCH  21  22
ATOM     22  C   UNL     1      48.187  -8.265  76.045  1.00  0.00     0.000 C 
BRANCH  22  23
ATOM     23  C   UNL     1      49.333  -8.730  75.122  1.00  0.00     0.000 C 
BRANCH  23  24
ATOM     24  C   UNL     1      49.157  -8.382  73.631  1.00  0.00    -0.000 C 
BRANCH  24  25
ATOM     25  C   UNL     1      47.711  -8.011  73.266  1.00  0.00    -0.000 C 
BRANCH  25  26
ATOM     26  C   UNL     1      47.609  -6.826  72.285  1.00  0.00    -0.000 C 
BRANCH  26  27
ATOM     27  C   UNL     1      48.477  -5.601  72.647  1.00  0.00    -0.000 C 
BRANCH  27  28
ATOM     28  C   UNL     1      47.769  -4.456  73.402  1.00  0.00    -0.000 C 
BRANCH  28  29
ATOM     29  C   UNL     1      47.558  -4.678  74.910  1.00  0.00    -0.000 C 
BRANCH  29  30
ATOM     30  C   UNL     1      46.083  -4.577  75.331  1.00  0.00    -0.000 C 
BRANCH  30  31
ATOM     31  C   UNL     1      45.390  -5.950  75.310  1.00  0.00    -0.003 C 
ATOM     32  C   UNL     1      44.332  -6.041  74.207  1.00  0.00     0.004 C 
ENDBRANCH  30  31
ENDBRANCH  29  30
ENDBRANCH  28  29
ENDBRANCH  27  28
ENDBRANCH  26  27
ENDBRANCH  25  26
ENDBRANCH  24  25
ENDBRANCH  23  24
ENDBRANCH  22  23
ENDBRANCH  21  22
ENDBRANCH  20  21
ENDBRANCH  19  20
ENDBRANCH  18  19
ENDBRANCH   1  18
TORSDOF 28
ENDMDL
MODEL 9
REMARK VINA RESULT:    -4.065      1.855      6.683
REMARK INTER + INTRA:         -16.409
REMARK INTER:                 -11.254
REMARK INTRA:                  -5.155
REMARK UNBOUND:                -5.691
REMARK SMILES CCCCCCCCCCCCCCCCCCCCCCCCCCCCCC(=O)[O-]
REMARK SMILES IDX 16 1 17 2 18 3 19 4 20 5 21 6 22 7 23 8 24 9 25 10 26 11
REMARK SMILES IDX 27 12 28 13 29 14 30 15 31 16 32 17 15 18 14 19 13 20 12 21
REMARK SMILES IDX 11 22 10 23 9 24 8 25 7 26 6 27 5 28 4 29 3 30 2 31 1 32
REMARK H PARENT
REMARK Flexibility Score: inf
ROOT
ATOM      1  C   UNL     1      51.942  -5.357  78.632  1.00  0.00     0.000 C 
ENDROOT
BRANCH   1   2
ATOM      2  C   UNL     1      52.021  -4.014  79.377  1.00  0.00     0.000 C 
BRANCH   2   3
ATOM      3  C   UNL     1      50.712  -3.209  79.278  1.00  0.00     0.000 C 
BRANCH   3   4
ATOM      4  C   UNL     1      50.810  -2.048  78.272  1.00  0.00     0.000 C 
BRANCH   4   5
ATOM      5  C   UNL     1      49.635  -1.979  77.276  1.00  0.00     0.000 C 
BRANCH   5   6
ATOM      6  C   UNL     1      50.101  -2.003  75.807  1.00  0.00     0.000 C 
BRANCH   6   7
ATOM      7  C   UNL     1      50.992  -3.221  75.494  1.00  0.00     0.000 C 
BRANCH   7   8
ATOM      8  C   UNL     1      52.127  -2.928  74.499  1.00  0.00     0.000 C 
BRANCH   8   9
ATOM      9  C   UNL     1      52.084  -3.830  73.257  1.00  0.00     0.000 C 
BRANCH   9  10
ATOM     10  C   UNL     1      50.963  -3.451  72.275  1.00  0.00     0.000 C 
BRANCH  10  11
ATOM     11  C   UNL     1      50.944  -1.954  71.902  1.00  0.00     0.000 C 
BRANCH  11  12
ATOM     12  C   UNL     1      49.534  -1.349  71.975  1.00  0.00     0.000 C 
BRANCH  12  13
ATOM     13  C   UNL     1      49.540  -0.026  72.751  1.00  0.00     0.006 C 
BRANCH  13  14
ATOM     14  C   UNL     1      48.238   0.153  73.540  1.00  0.00     0.053 C 
BRANCH  14  15
ATOM     15  C   UNL     1      48.282   1.378  74.402  1.00  0.00     0.041 C 
ATOM     16  O   UNL     1      48.105   1.292  75.646  1.00  0.00    -0.550 OA
ATOM     17  O   UNL     1      48.459   2.628  73.821  1.00  0.00    -0.550 OA
ENDBRANCH  14  15
ENDBRANCH  13  14
ENDBRANCH  12  13
ENDBRANCH  11  12
ENDBRANCH  10  11
ENDBRANCH   9  10
ENDBRANCH   8   9
ENDBRANCH   7   8
ENDBRANCH   6   7
ENDBRANCH   5   6
ENDBRANCH   4   5
ENDBRANCH   3   4
ENDBRANCH   2   3
ENDBRANCH   1   2
BRANCH   1  18
ATOM     18  C   UNL     1      50.519  -5.942  78.631  1.00  0.00     0.000 C 
BRANCH  18  19
ATOM     19  C   UNL     1      50.463  -7.344  77.988  1.00  0.00     0.000 C 
BRANCH  19  20
ATOM     20  C   UNL     1      49.410  -8.264  78.629  1.00  0.00     0.000 C 
BRANCH  20  21
ATOM     21  C   UNL     1      48.005  -7.641  78.625  1.00  0.00     0.000 C 
BRANCH  21  22
ATOM     22  C   UNL     1      47.450  -7.410  77.207  1.00  0.00     0.000 C 
BRANCH  22  23
ATOM     23  C   UNL     1      47.104  -5.948  76.854  1.00  0.00     0.000 C 
BRANCH  23  24
ATOM     24  C   UNL     1      48.062  -5.268  75.858  1.00  0.00    -0.000 C 
BRANCH  24  25
ATOM     25  C   UNL     1      47.379  -4.185  75.008  1.00  0.00    -0.000 C 
BRANCH  25  26
ATOM     26  C   UNL     1      47.793  -4.217  73.524  1.00  0.00    -0.000 C 
BRANCH  26  27
ATOM     27  C   UNL     1      48.009  -5.628  72.935  1.00  0.00    -0.000 C 
BRANCH  27  28
ATOM     28  C   UNL     1      46.737  -6.409  72.538  1.00  0.00    -0.000 C 
BRANCH  28  29
ATOM     29  C   UNL     1      46.271  -7.482  73.538  1.00  0.00    -0.000 C 
BRANCH  29  30
ATOM     30  C   UNL     1      44.794  -7.332  73.935  1.00  0.00    -0.000 C 
BRANCH  30  31
ATOM     31  C   UNL     1      44.429  -5.866  74.227  1.00  0.00    -0.003 C 
ATOM     32  C   UNL     1      42.916  -5.636  74.205  1.00  0.00     0.004 C 
ENDBRANCH  30  31
ENDBRANCH  29  30
ENDBRANCH  28  29
ENDBRANCH  27  28
ENDBRANCH  26  27
ENDBRANCH  25  26
ENDBRANCH  24  25
ENDBRANCH  23  24
ENDBRANCH  22  23
ENDBRANCH  21  22
ENDBRANCH  20  21
ENDBRANCH  19  20
ENDBRANCH  18  19
ENDBRANCH   1  18
TORSDOF 28
ENDMDL
