MODEL 1
REMARK VINA RESULT:    -3.686      0.000      0.000
REMARK INTER + INTRA:          -4.204
REMARK INTER:                  -4.117
REMARK INTRA:                  -0.087
REMARK UNBOUND:                -0.087
REMARK SMILES CCc1ccc(O)cc1O
REMARK SMILES IDX 3 1 9 2 8 3 6 4 5 5 4 6 2 7 1 8 10 9 7 11
REMARK H PARENT 10 10 7 12
REMARK Flexibility Score: inf
ROOT
ATOM      1  C   UNL     1     -19.847   4.612  -2.962  1.00  0.00    -0.006 A 
ATOM      2  C   UNL     1     -18.473   4.294  -3.111  1.00  0.00     0.122 A 
ATOM      3  C   UNL     1     -17.523   5.322  -3.137  1.00  0.00     0.092 A 
ATOM      4  C   UNL     1     -17.914   6.659  -3.036  1.00  0.00     0.119 A 
ATOM      5  C   UNL     1     -19.269   6.977  -2.907  1.00  0.00     0.047 A 
ATOM      6  C   UNL     1     -20.229   5.963  -2.875  1.00  0.00     0.011 A 
ENDROOT
BRANCH   1   7
ATOM      7  C   UNL     1     -20.921   3.551  -2.937  1.00  0.00     0.036 C 
ATOM      8  C   UNL     1     -22.097   3.942  -3.826  1.00  0.00     0.009 C 
ENDBRANCH   1   7
BRANCH   2   9
ATOM      9  O   UNL     1     -18.019   2.980  -3.239  1.00  0.00    -0.508 OA
ATOM     10  H   UNL     1     -17.048   2.735  -3.388  1.00  0.00     0.293 HD
ENDBRANCH   2   9
BRANCH   4  11
ATOM     11  O   UNL     1     -16.948   7.662  -3.067  1.00  0.00    -0.508 OA
ATOM     12  H   UNL     1     -15.986   7.463  -3.319  1.00  0.00     0.293 HD
ENDBRANCH   4  11
TORSDOF 3
ENDMDL
MODEL 2
REMARK VINA RESULT:    -2.884      1.588      2.202
REMARK INTER + INTRA:          -3.308
REMARK INTER:                  -3.244
REMARK INTRA:                  -0.064
REMARK UNBOUND:                -0.087
REMARK SMILES CCc1ccc(O)cc1O
REMARK SMILES IDX 3 1 9 2 8 3 6 4 5 5 4 6 2 7 1 8 10 9 7 11
REMARK H PARENT 10 10 7 12
REMARK Flexibility Score: inf
ROOT
ATOM      1  C   UNL     1     -19.788   4.390  -2.905  1.00  0.00    -0.006 A 
ATOM      2  C   UNL     1     -20.326   5.702  -2.901  1.00  0.00     0.122 A 
ATOM      3  C   UNL     1     -19.463   6.805  -2.920  1.00  0.00     0.092 A 
ATOM      4  C   UNL     1     -18.077   6.627  -2.925  1.00  0.00     0.119 A 
ATOM      5  C   UNL     1     -17.544   5.335  -2.910  1.00  0.00     0.047 A 
ATOM      6  C   UNL     1     -18.392   4.225  -2.896  1.00  0.00     0.011 A 
ENDROOT
BRANCH   1   7
ATOM      7  C   UNL     1     -20.665   3.161  -2.875  1.00  0.00     0.036 C 
ATOM      8  C   UNL     1     -21.252   2.875  -4.254  1.00  0.00     0.009 C 
ENDBRANCH   1   7
BRANCH   2   9
ATOM      9  O   UNL     1     -21.700   5.948  -2.875  1.00  0.00    -0.508 OA
ATOM     10  H   UNL     1     -22.122   6.712  -2.363  1.00  0.00     0.293 HD
ENDBRANCH   2   9
BRANCH   4  11
ATOM     11  O   UNL     1     -17.241   7.741  -2.942  1.00  0.00    -0.508 OA
ATOM     12  H   UNL     1     -17.030   8.231  -3.804  1.00  0.00     0.293 HD
ENDBRANCH   4  11
TORSDOF 3
ENDMDL
MODEL 3
REMARK VINA RESULT:    -2.585      1.684      3.705
REMARK INTER + INTRA:          -2.975
REMARK INTER:                  -2.890
REMARK INTRA:                  -0.085
REMARK UNBOUND:                -0.087
REMARK SMILES CCc1ccc(O)cc1O
REMARK SMILES IDX 3 1 9 2 8 3 6 4 5 5 4 6 2 7 1 8 10 9 7 11
REMARK H PARENT 10 10 7 12
REMARK Flexibility Score: inf
ROOT
ATOM      1  C   UNL     1     -18.558   5.243  -3.117  1.00  0.00    -0.006 A 
ATOM      2  C   UNL     1     -18.528   3.828  -3.220  1.00  0.00     0.122 A 
ATOM      3  C   UNL     1     -19.726   3.104  -3.166  1.00  0.00     0.092 A 
ATOM      4  C   UNL     1     -20.949   3.758  -2.995  1.00  0.00     0.119 A 
ATOM      5  C   UNL     1     -20.980   5.150  -2.876  1.00  0.00     0.047 A 
ATOM      6  C   UNL     1     -19.794   5.887  -2.931  1.00  0.00     0.011 A 
ENDROOT
BRANCH   1   7
ATOM      7  C   UNL     1     -17.301   6.079  -3.157  1.00  0.00     0.036 C 
ATOM      8  C   UNL     1     -17.521   7.357  -3.960  1.00  0.00     0.009 C 
ENDBRANCH   1   7
BRANCH   2   9
ATOM      9  O   UNL     1     -17.338   3.113  -3.370  1.00  0.00    -0.508 OA
ATOM     10  H   UNL     1     -16.766   3.148  -4.203  1.00  0.00     0.293 HD
ENDBRANCH   2   9
BRANCH   4  11
ATOM     11  O   UNL     1     -22.125   3.014  -2.944  1.00  0.00    -0.508 OA
ATOM     12  H   UNL     1     -22.630   2.881  -2.075  1.00  0.00     0.293 HD
ENDBRANCH   4  11
TORSDOF 3
ENDMDL
MODEL 4
REMARK VINA RESULT:    -2.080      1.824      4.277
REMARK INTER + INTRA:          -2.411
REMARK INTER:                  -2.674
REMARK INTRA:                   0.264
REMARK UNBOUND:                -0.087
REMARK SMILES CCc1ccc(O)cc1O
REMARK SMILES IDX 3 1 9 2 8 3 6 4 5 5 4 6 2 7 1 8 10 9 7 11
REMARK H PARENT 10 10 7 12
REMARK Flexibility Score: inf
ROOT
ATOM      1  C   UNL     1     -18.580   5.311  -2.903  1.00  0.00    -0.006 A 
ATOM      2  C   UNL     1     -19.866   5.907  -2.885  1.00  0.00     0.122 A 
ATOM      3  C   UNL     1     -21.007   5.094  -2.881  1.00  0.00     0.092 A 
ATOM      4  C   UNL     1     -20.892   3.702  -2.913  1.00  0.00     0.119 A 
ATOM      5  C   UNL     1     -19.625   3.112  -2.949  1.00  0.00     0.047 A 
ATOM      6  C   UNL     1     -18.478   3.909  -2.949  1.00  0.00     0.011 A 
ENDROOT
BRANCH   1   7
ATOM      7  C   UNL     1     -17.313   6.132  -2.919  1.00  0.00     0.036 C 
ATOM      8  C   UNL     1     -17.337   7.152  -4.054  1.00  0.00     0.009 C 
ENDBRANCH   1   7
BRANCH   2   9
ATOM      9  O   UNL     1     -20.050   7.291  -2.875  1.00  0.00    -0.508 OA
ATOM     10  H   UNL     1     -20.664   7.779  -3.515  1.00  0.00     0.293 HD
ENDBRANCH   2   9
BRANCH   4  11
ATOM     11  O   UNL     1     -22.042   2.917  -2.910  1.00  0.00    -0.508 OA
ATOM     12  H   UNL     1     -22.162   2.152  -3.565  1.00  0.00     0.293 HD
ENDBRANCH   4  11
TORSDOF 3
ENDMDL
