MODEL 1
REMARK VINA RESULT:    -3.952      0.000      0.000
REMARK INTER + INTRA:         -12.380
REMARK INTER:                  -9.958
REMARK INTRA:                  -2.421
REMARK UNBOUND:                -2.421
REMARK SMILES CCCCCCCCCCCCCCCCCCCCCCCCCCCC(=O)[O-]
REMARK SMILES IDX 15 1 16 2 17 3 18 4 19 5 20 6 21 7 22 8 23 9 24 10 25 11
REMARK SMILES IDX 26 12 27 13 28 14 29 15 30 16 14 17 13 18 12 19 11 20 10 21
REMARK SMILES IDX 9 22 8 23 7 24 6 25 5 26 4 27 3 28 2 29 1 30
REMARK H PARENT
REMARK Flexibility Score: inf
ROOT
ATOM      1  C   UNL     1      -9.118  -6.261   4.166  1.00  0.00     0.000 C 
ENDROOT
BRANCH   1   2
ATOM      2  C   UNL     1      -8.141  -5.582   5.144  1.00  0.00     0.000 C 
BRANCH   2   3
ATOM      3  C   UNL     1      -8.849  -4.896   6.324  1.00  0.00     0.000 C 
BRANCH   3   4
ATOM      4  C   UNL     1     -10.002  -3.988   5.869  1.00  0.00     0.000 C 
BRANCH   4   5
ATOM      5  C   UNL     1      -9.741  -2.501   6.159  1.00  0.00     0.000 C 
BRANCH   5   6
ATOM      6  C   UNL     1      -8.513  -2.279   7.061  1.00  0.00     0.000 C 
BRANCH   6   7
ATOM      7  C   UNL     1      -7.748  -0.962   6.808  1.00  0.00     0.000 C 
BRANCH   7   8
ATOM      8  C   UNL     1      -6.232  -1.119   6.599  1.00  0.00     0.000 C 
BRANCH   8   9
ATOM      9  C   UNL     1      -5.777  -2.589   6.619  1.00  0.00     0.000 C 
BRANCH   9  10
ATOM     10  C   UNL     1      -5.599  -3.168   5.201  1.00  0.00     0.000 C 
BRANCH  10  11
ATOM     11  C   UNL     1      -4.129  -3.324   4.762  1.00  0.00     0.000 C 
BRANCH  11  12
ATOM     12  C   UNL     1      -3.107  -3.059   5.885  1.00  0.00     0.006 C 
BRANCH  12  13
ATOM     13  C   UNL     1      -2.879  -4.291   6.772  1.00  0.00     0.053 C 
BRANCH  13  14
ATOM     14  C   UNL     1      -3.128  -5.553   6.005  1.00  0.00     0.041 C 
ATOM     15  O   UNL     1      -2.300  -5.944   5.140  1.00  0.00    -0.550 OA
ATOM     16  O   UNL     1      -4.281  -6.293   6.241  1.00  0.00    -0.550 OA
ENDBRANCH  13  14
ENDBRANCH  12  13
ENDBRANCH  11  12
ENDBRANCH  10  11
ENDBRANCH   9  10
ENDBRANCH   8   9
ENDBRANCH   7   8
ENDBRANCH   6   7
ENDBRANCH   5   6
ENDBRANCH   4   5
ENDBRANCH   3   4
ENDBRANCH   2   3
ENDBRANCH   1   2
BRANCH   1  17
ATOM     17  C   UNL     1     -10.101  -7.256   4.811  1.00  0.00     0.000 C 
BRANCH  17  18
ATOM     18  C   UNL     1      -9.471  -8.632   5.086  1.00  0.00     0.000 C 
BRANCH  18  19
ATOM     19  C   UNL     1      -8.763  -8.700   6.447  1.00  0.00     0.000 C 
BRANCH  19  20
ATOM     20  C   UNL     1      -7.260  -9.000   6.314  1.00  0.00     0.000 C 
BRANCH  20  21
ATOM     21  C   UNL     1      -6.477  -8.672   7.596  1.00  0.00     0.000 C 
BRANCH  21  22
ATOM     22  C   UNL     1      -5.198  -9.514   7.736  1.00  0.00    -0.000 C 
BRANCH  22  23
ATOM     23  C   UNL     1      -5.229 -10.797   6.881  1.00  0.00    -0.000 C 
BRANCH  23  24
ATOM     24  C   UNL     1      -4.118 -10.900   5.818  1.00  0.00    -0.000 C 
BRANCH  24  25
ATOM     25  C   UNL     1      -4.268  -9.948   4.616  1.00  0.00    -0.000 C 
BRANCH  25  26
ATOM     26  C   UNL     1      -2.926  -9.396   4.087  1.00  0.00    -0.000 C 
BRANCH  26  27
ATOM     27  C   UNL     1      -2.382 -10.204   2.897  1.00  0.00    -0.000 C 
BRANCH  27  28
ATOM     28  C   UNL     1      -2.187  -9.347   1.635  1.00  0.00    -0.000 C 
BRANCH  28  29
ATOM     29  C   UNL     1      -1.522 -10.110   0.470  1.00  0.00    -0.003 C 
ATOM     30  C   UNL     1      -2.547 -10.793  -0.437  1.00  0.00     0.004 C 
ENDBRANCH  28  29
ENDBRANCH  27  28
ENDBRANCH  26  27
ENDBRANCH  25  26
ENDBRANCH  24  25
ENDBRANCH  23  24
ENDBRANCH  22  23
ENDBRANCH  21  22
ENDBRANCH  20  21
ENDBRANCH  19  20
ENDBRANCH  18  19
ENDBRANCH  17  18
ENDBRANCH   1  17
TORSDOF 26
ENDMDL
MODEL 2
REMARK VINA RESULT:    -3.738      5.176      9.175
REMARK INTER + INTRA:         -11.841
REMARK INTER:                 -10.114
REMARK INTRA:                  -1.727
REMARK UNBOUND:                -2.421
REMARK SMILES CCCCCCCCCCCCCCCCCCCCCCCCCCCC(=O)[O-]
REMARK SMILES IDX 15 1 16 2 17 3 18 4 19 5 20 6 21 7 22 8 23 9 24 10 25 11
REMARK SMILES IDX 26 12 27 13 28 14 29 15 30 16 14 17 13 18 12 19 11 20 10 21
REMARK SMILES IDX 9 22 8 23 7 24 6 25 5 26 4 27 3 28 2 29 1 30
REMARK H PARENT
REMARK Flexibility Score: inf
ROOT
ATOM      1  C   UNL     1      -2.155  -9.597   3.563  1.00  0.00     0.000 C 
ENDROOT
BRANCH   1   2
ATOM      2  C   UNL     1      -2.239  -9.278   2.059  1.00  0.00     0.000 C 
BRANCH   2   3
ATOM      3  C   UNL     1      -1.387 -10.223   1.194  1.00  0.00     0.000 C 
BRANCH   3   4
ATOM      4  C   UNL     1      -1.596  -9.990  -0.311  1.00  0.00     0.000 C 
BRANCH   4   5
ATOM      5  C   UNL     1      -0.737  -8.839  -0.860  1.00  0.00     0.000 C 
BRANCH   5   6
ATOM      6  C   UNL     1      -1.279  -8.273  -2.186  1.00  0.00     0.000 C 
BRANCH   6   7
ATOM      7  C   UNL     1      -0.688  -6.909  -2.602  1.00  0.00     0.000 C 
BRANCH   7   8
ATOM      8  C   UNL     1       0.061  -6.157  -1.488  1.00  0.00     0.000 C 
BRANCH   8   9
ATOM      9  C   UNL     1       0.748  -4.876  -1.992  1.00  0.00     0.000 C 
BRANCH   9  10
ATOM     10  C   UNL     1       0.608  -3.704  -0.999  1.00  0.00     0.000 C 
BRANCH  10  11
ATOM     11  C   UNL     1       0.396  -2.332  -1.669  1.00  0.00     0.000 C 
BRANCH  11  12
ATOM     12  C   UNL     1       1.611  -1.830  -2.473  1.00  0.00     0.006 C 
BRANCH  12  13
ATOM     13  C   UNL     1       2.521  -0.909  -1.646  1.00  0.00     0.053 C 
BRANCH  13  14
ATOM     14  C   UNL     1       3.813  -0.657  -2.360  1.00  0.00     0.041 C 
ATOM     15  O   UNL     1       4.909  -0.931  -1.803  1.00  0.00    -0.550 OA
ATOM     16  O   UNL     1       3.806  -0.111  -3.638  1.00  0.00    -0.550 OA
ENDBRANCH  13  14
ENDBRANCH  12  13
ENDBRANCH  11  12
ENDBRANCH  10  11
ENDBRANCH   9  10
ENDBRANCH   8   9
ENDBRANCH   7   8
ENDBRANCH   6   7
ENDBRANCH   5   6
ENDBRANCH   4   5
ENDBRANCH   3   4
ENDBRANCH   2   3
ENDBRANCH   1   2
BRANCH   1  17
ATOM     17  C   UNL     1      -3.449 -10.154   4.186  1.00  0.00     0.000 C 
BRANCH  17  18
ATOM     18  C   UNL     1      -4.201  -9.116   5.039  1.00  0.00     0.000 C 
BRANCH  18  19
ATOM     19  C   UNL     1      -5.089  -9.760   6.114  1.00  0.00     0.000 C 
BRANCH  19  20
ATOM     20  C   UNL     1      -6.498  -9.144   6.159  1.00  0.00     0.000 C 
BRANCH  20  21
ATOM     21  C   UNL     1      -7.396  -9.643   5.015  1.00  0.00     0.000 C 
BRANCH  21  22
ATOM     22  C   UNL     1      -8.042  -8.489   4.229  1.00  0.00    -0.000 C 
BRANCH  22  23
ATOM     23  C   UNL     1      -8.702  -7.437   5.143  1.00  0.00    -0.000 C 
BRANCH  23  24
ATOM     24  C   UNL     1      -8.641  -5.988   4.622  1.00  0.00    -0.000 C 
BRANCH  24  25
ATOM     25  C   UNL     1      -8.267  -4.926   5.675  1.00  0.00    -0.000 C 
BRANCH  25  26
ATOM     26  C   UNL     1      -7.180  -5.391   6.669  1.00  0.00    -0.000 C 
BRANCH  26  27
ATOM     27  C   UNL     1      -5.765  -5.323   6.072  1.00  0.00    -0.000 C 
BRANCH  27  28
ATOM     28  C   UNL     1      -5.595  -4.164   5.076  1.00  0.00    -0.000 C 
BRANCH  28  29
ATOM     29  C   UNL     1      -4.206  -3.494   5.142  1.00  0.00    -0.003 C 
ATOM     30  C   UNL     1      -4.196  -2.268   6.057  1.00  0.00     0.004 C 
ENDBRANCH  28  29
ENDBRANCH  27  28
ENDBRANCH  26  27
ENDBRANCH  25  26
ENDBRANCH  24  25
ENDBRANCH  23  24
ENDBRANCH  22  23
ENDBRANCH  21  22
ENDBRANCH  20  21
ENDBRANCH  19  20
ENDBRANCH  18  19
ENDBRANCH  17  18
ENDBRANCH   1  17
TORSDOF 26
ENDMDL
MODEL 3
REMARK VINA RESULT:    -3.573      5.780      9.503
REMARK INTER + INTRA:         -11.424
REMARK INTER:                 -10.122
REMARK INTRA:                  -1.302
REMARK UNBOUND:                -2.421
REMARK SMILES CCCCCCCCCCCCCCCCCCCCCCCCCCCC(=O)[O-]
REMARK SMILES IDX 15 1 16 2 17 3 18 4 19 5 20 6 21 7 22 8 23 9 24 10 25 11
REMARK SMILES IDX 26 12 27 13 28 14 29 15 30 16 14 17 13 18 12 19 11 20 10 21
REMARK SMILES IDX 9 22 8 23 7 24 6 25 5 26 4 27 3 28 2 29 1 30
REMARK H PARENT
REMARK Flexibility Score: inf
ROOT
ATOM      1  C   UNL     1      -2.514 -10.561   1.890  1.00  0.00     0.000 C 
ENDROOT
BRANCH   1   2
ATOM      2  C   UNL     1      -2.417 -10.451   0.357  1.00  0.00     0.000 C 
BRANCH   2   3
ATOM      3  C   UNL     1      -1.070  -9.881  -0.122  1.00  0.00     0.000 C 
BRANCH   3   4
ATOM      4  C   UNL     1      -1.236  -8.871  -1.268  1.00  0.00     0.000 C 
BRANCH   4   5
ATOM      5  C   UNL     1      -0.040  -7.912  -1.394  1.00  0.00     0.000 C 
BRANCH   5   6
ATOM      6  C   UNL     1      -0.416  -6.579  -2.066  1.00  0.00     0.000 C 
BRANCH   6   7
ATOM      7  C   UNL     1       0.569  -5.419  -1.809  1.00  0.00     0.000 C 
BRANCH   7   8
ATOM      8  C   UNL     1      -0.036  -4.195  -1.099  1.00  0.00     0.000 C 
BRANCH   8   9
ATOM      9  C   UNL     1       0.929  -2.998  -1.048  1.00  0.00     0.000 C 
BRANCH   9  10
ATOM     10  C   UNL     1       0.836  -2.112  -2.306  1.00  0.00     0.000 C 
BRANCH  10  11
ATOM     11  C   UNL     1       2.201  -1.660  -2.863  1.00  0.00     0.000 C 
BRANCH  11  12
ATOM     12  C   UNL     1       2.964  -0.689  -1.941  1.00  0.00     0.006 C 
BRANCH  12  13
ATOM     13  C   UNL     1       4.287  -0.213  -2.560  1.00  0.00     0.053 C 
BRANCH  13  14
ATOM     14  C   UNL     1       5.431  -0.456  -1.625  1.00  0.00     0.041 C 
ATOM     15  O   UNL     1       6.477  -1.025  -2.035  1.00  0.00    -0.550 OA
ATOM     16  O   UNL     1       5.336  -0.063  -0.295  1.00  0.00    -0.550 OA
ENDBRANCH  13  14
ENDBRANCH  12  13
ENDBRANCH  11  12
ENDBRANCH  10  11
ENDBRANCH   9  10
ENDBRANCH   8   9
ENDBRANCH   7   8
ENDBRANCH   6   7
ENDBRANCH   5   6
ENDBRANCH   4   5
ENDBRANCH   3   4
ENDBRANCH   2   3
ENDBRANCH   1   2
BRANCH   1  17
ATOM     17  C   UNL     1      -2.013  -9.330   2.667  1.00  0.00     0.000 C 
BRANCH  17  18
ATOM     18  C   UNL     1      -2.630  -9.212   4.072  1.00  0.00     0.000 C 
BRANCH  18  19
ATOM     19  C   UNL     1      -3.910 -10.047   4.231  1.00  0.00     0.000 C 
BRANCH  19  20
ATOM     20  C   UNL     1      -4.471  -9.996   5.663  1.00  0.00     0.000 C 
BRANCH  20  21
ATOM     21  C   UNL     1      -5.261  -8.708   5.941  1.00  0.00     0.000 C 
BRANCH  21  22
ATOM     22  C   UNL     1      -6.660  -8.727   5.301  1.00  0.00    -0.000 C 
BRANCH  22  23
ATOM     23  C   UNL     1      -7.656  -7.789   6.012  1.00  0.00    -0.000 C 
BRANCH  23  24
ATOM     24  C   UNL     1      -8.249  -6.674   5.128  1.00  0.00    -0.000 C 
BRANCH  24  25
ATOM     25  C   UNL     1      -7.845  -5.240   5.520  1.00  0.00    -0.000 C 
BRANCH  25  26
ATOM     26  C   UNL     1      -6.318  -5.006   5.540  1.00  0.00    -0.000 C 
BRANCH  26  27
ATOM     27  C   UNL     1      -5.949  -3.513   5.536  1.00  0.00    -0.000 C 
BRANCH  27  28
ATOM     28  C   UNL     1      -5.029  -3.126   6.706  1.00  0.00    -0.000 C 
BRANCH  28  29
ATOM     29  C   UNL     1      -3.636  -2.636   6.257  1.00  0.00    -0.003 C 
ATOM     30  C   UNL     1      -2.606  -3.768   6.225  1.00  0.00     0.004 C 
ENDBRANCH  28  29
ENDBRANCH  27  28
ENDBRANCH  26  27
ENDBRANCH  25  26
ENDBRANCH  24  25
ENDBRANCH  23  24
ENDBRANCH  22  23
ENDBRANCH  21  22
ENDBRANCH  20  21
ENDBRANCH  19  20
ENDBRANCH  18  19
ENDBRANCH  17  18
ENDBRANCH   1  17
TORSDOF 26
ENDMDL
MODEL 4
REMARK VINA RESULT:    -3.397      2.210      4.365
REMARK INTER + INTRA:         -10.981
REMARK INTER:                  -7.741
REMARK INTRA:                  -3.240
REMARK UNBOUND:                -2.421
REMARK SMILES CCCCCCCCCCCCCCCCCCCCCCCCCCCC(=O)[O-]
REMARK SMILES IDX 15 1 16 2 17 3 18 4 19 5 20 6 21 7 22 8 23 9 24 10 25 11
REMARK SMILES IDX 26 12 27 13 28 14 29 15 30 16 14 17 13 18 12 19 11 20 10 21
REMARK SMILES IDX 9 22 8 23 7 24 6 25 5 26 4 27 3 28 2 29 1 30
REMARK H PARENT
REMARK Flexibility Score: inf
ROOT
ATOM      1  C   UNL     1      -3.635  -5.388   5.758  1.00  0.00     0.000 C 
ENDROOT
BRANCH   1   2
ATOM      2  C   UNL     1      -3.976  -3.922   6.082  1.00  0.00     0.000 C 
BRANCH   2   3
ATOM      3  C   UNL     1      -5.018  -3.320   5.124  1.00  0.00     0.000 C 
BRANCH   3   4
ATOM      4  C   UNL     1      -5.326  -1.848   5.441  1.00  0.00     0.000 C 
BRANCH   4   5
ATOM      5  C   UNL     1      -6.787  -1.622   5.861  1.00  0.00     0.000 C 
BRANCH   5   6
ATOM      6  C   UNL     1      -7.079  -2.120   7.288  1.00  0.00     0.000 C 
BRANCH   6   7
ATOM      7  C   UNL     1      -8.036  -3.328   7.373  1.00  0.00     0.000 C 
BRANCH   7   8
ATOM      8  C   UNL     1      -9.510  -3.015   7.064  1.00  0.00     0.000 C 
BRANCH   8   9
ATOM      9  C   UNL     1     -10.125  -3.987   6.042  1.00  0.00     0.000 C 
BRANCH   9  10
ATOM     10  C   UNL     1      -9.373  -5.332   5.985  1.00  0.00     0.000 C 
BRANCH  10  11
ATOM     11  C   UNL     1      -8.340  -5.430   4.845  1.00  0.00     0.000 C 
BRANCH  11  12
ATOM     12  C   UNL     1      -8.272  -6.816   4.175  1.00  0.00     0.006 C 
BRANCH  12  13
ATOM     13  C   UNL     1      -9.600  -7.211   3.510  1.00  0.00     0.053 C 
BRANCH  13  14
ATOM     14  C   UNL     1      -9.942  -8.637   3.810  1.00  0.00     0.041 C 
ATOM     15  O   UNL     1     -10.079  -9.021   5.002  1.00  0.00    -0.550 OA
ATOM     16  O   UNL     1     -10.102  -9.547   2.770  1.00  0.00    -0.550 OA
ENDBRANCH  13  14
ENDBRANCH  12  13
ENDBRANCH  11  12
ENDBRANCH  10  11
ENDBRANCH   9  10
ENDBRANCH   8   9
ENDBRANCH   7   8
ENDBRANCH   6   7
ENDBRANCH   5   6
ENDBRANCH   4   5
ENDBRANCH   3   4
ENDBRANCH   2   3
ENDBRANCH   1   2
BRANCH   1  17
ATOM     17  C   UNL     1      -4.795  -6.385   5.939  1.00  0.00     0.000 C 
BRANCH  17  18
ATOM     18  C   UNL     1      -5.634  -6.109   7.200  1.00  0.00     0.000 C 
BRANCH  18  19
ATOM     19  C   UNL     1      -6.040  -7.394   7.937  1.00  0.00     0.000 C 
BRANCH  19  20
ATOM     20  C   UNL     1      -7.312  -8.031   7.350  1.00  0.00     0.000 C 
BRANCH  20  21
ATOM     21  C   UNL     1      -7.426  -9.528   7.678  1.00  0.00     0.000 C 
BRANCH  21  22
ATOM     22  C   UNL     1      -6.275 -10.352   7.076  1.00  0.00    -0.000 C 
BRANCH  22  23
ATOM     23  C   UNL     1      -5.903  -9.907   5.648  1.00  0.00    -0.000 C 
BRANCH  23  24
ATOM     24  C   UNL     1      -4.614 -10.535   5.082  1.00  0.00    -0.000 C 
BRANCH  24  25
ATOM     25  C   UNL     1      -3.744  -9.592   4.229  1.00  0.00    -0.000 C 
BRANCH  25  26
ATOM     26  C   UNL     1      -2.421 -10.229   3.749  1.00  0.00    -0.000 C 
BRANCH  26  27
ATOM     27  C   UNL     1      -2.509 -10.759   2.309  1.00  0.00    -0.000 C 
BRANCH  27  28
ATOM     28  C   UNL     1      -1.251 -10.445   1.481  1.00  0.00    -0.000 C 
BRANCH  28  29
ATOM     29  C   UNL     1      -1.549 -10.160  -0.007  1.00  0.00    -0.003 C 
ATOM     30  C   UNL     1      -2.888 -10.750  -0.454  1.00  0.00     0.004 C 
ENDBRANCH  28  29
ENDBRANCH  27  28
ENDBRANCH  26  27
ENDBRANCH  25  26
ENDBRANCH  24  25
ENDBRANCH  23  24
ENDBRANCH  22  23
ENDBRANCH  21  22
ENDBRANCH  20  21
ENDBRANCH  19  20
ENDBRANCH  18  19
ENDBRANCH  17  18
ENDBRANCH   1  17
TORSDOF 26
ENDMDL
MODEL 5
REMARK VINA RESULT:    -3.206      7.841     12.155
REMARK INTER + INTRA:         -10.500
REMARK INTER:                  -9.290
REMARK INTRA:                  -1.210
REMARK UNBOUND:                -2.421
REMARK SMILES CCCCCCCCCCCCCCCCCCCCCCCCCCCC(=O)[O-]
REMARK SMILES IDX 15 1 16 2 17 3 18 4 19 5 20 6 21 7 22 8 23 9 24 10 25 11
REMARK SMILES IDX 26 12 27 13 28 14 29 15 30 16 14 17 13 18 12 19 11 20 10 21
REMARK SMILES IDX 9 22 8 23 7 24 6 25 5 26 4 27 3 28 2 29 1 30
REMARK H PARENT
REMARK Flexibility Score: inf
ROOT
ATOM      1  C   UNL     1       0.585  -6.326  -1.616  1.00  0.00     0.000 C 
ENDROOT
BRANCH   1   2
ATOM      2  C   UNL     1      -0.752  -7.001  -1.977  1.00  0.00     0.000 C 
BRANCH   2   3
ATOM      3  C   UNL     1      -0.725  -8.528  -1.789  1.00  0.00     0.000 C 
BRANCH   3   4
ATOM      4  C   UNL     1      -1.554  -8.984  -0.577  1.00  0.00     0.000 C 
BRANCH   4   5
ATOM      5  C   UNL     1      -1.086 -10.334  -0.009  1.00  0.00     0.000 C 
BRANCH   5   6
ATOM      6  C   UNL     1      -1.561 -10.567   1.437  1.00  0.00     0.000 C 
BRANCH   6   7
ATOM      7  C   UNL     1      -2.239  -9.351   2.104  1.00  0.00     0.000 C 
BRANCH   7   8
ATOM      8  C   UNL     1      -2.026  -9.240   3.624  1.00  0.00     0.000 C 
BRANCH   8   9
ATOM      9  C   UNL     1      -3.347  -9.214   4.411  1.00  0.00     0.000 C 
BRANCH   9  10
ATOM     10  C   UNL     1      -3.932 -10.624   4.626  1.00  0.00     0.000 C 
BRANCH  10  11
ATOM     11  C   UNL     1      -5.212 -10.652   5.484  1.00  0.00     0.000 C 
BRANCH  11  12
ATOM     12  C   UNL     1      -6.249  -9.577   5.103  1.00  0.00     0.006 C 
BRANCH  12  13
ATOM     13  C   UNL     1      -7.455 -10.166   4.355  1.00  0.00     0.053 C 
BRANCH  13  14
ATOM     14  C   UNL     1      -8.497  -9.117   4.117  1.00  0.00     0.041 C 
ATOM     15  O   UNL     1      -8.348  -8.271   3.196  1.00  0.00    -0.550 OA
ATOM     16  O   UNL     1      -9.630  -9.069   4.922  1.00  0.00    -0.550 OA
ENDBRANCH  13  14
ENDBRANCH  12  13
ENDBRANCH  11  12
ENDBRANCH  10  11
ENDBRANCH   9  10
ENDBRANCH   8   9
ENDBRANCH   7   8
ENDBRANCH   6   7
ENDBRANCH   5   6
ENDBRANCH   4   5
ENDBRANCH   3   4
ENDBRANCH   2   3
ENDBRANCH   1   2
BRANCH   1  17
ATOM     17  C   UNL     1       0.734  -4.872  -2.100  1.00  0.00     0.000 C 
BRANCH  17  18
ATOM     18  C   UNL     1       0.459  -3.838  -0.993  1.00  0.00     0.000 C 
BRANCH  18  19
ATOM     19  C   UNL     1       0.119  -2.447  -1.549  1.00  0.00     0.000 C 
BRANCH  19  20
ATOM     20  C   UNL     1       1.370  -1.578  -1.764  1.00  0.00     0.000 C 
BRANCH  20  21
ATOM     21  C   UNL     1       1.956  -1.727  -3.177  1.00  0.00     0.000 C 
BRANCH  21  22
ATOM     22  C   UNL     1       3.365  -1.121  -3.296  1.00  0.00    -0.000 C 
BRANCH  22  23
ATOM     23  C   UNL     1       3.901  -0.585  -1.955  1.00  0.00    -0.000 C 
BRANCH  23  24
ATOM     24  C   UNL     1       5.357  -0.975  -1.630  1.00  0.00    -0.000 C 
BRANCH  24  25
ATOM     25  C   UNL     1       6.425   0.043  -2.076  1.00  0.00    -0.000 C 
BRANCH  25  26
ATOM     26  C   UNL     1       7.850  -0.546  -2.160  1.00  0.00    -0.000 C 
BRANCH  26  27
ATOM     27  C   UNL     1       7.850  -2.075  -2.324  1.00  0.00    -0.000 C 
BRANCH  27  28
ATOM     28  C   UNL     1       9.143  -2.605  -2.964  1.00  0.00    -0.000 C 
BRANCH  28  29
ATOM     29  C   UNL     1       9.587  -3.976  -2.411  1.00  0.00    -0.003 C 
ATOM     30  C   UNL     1       9.723  -5.029  -3.512  1.00  0.00     0.004 C 
ENDBRANCH  28  29
ENDBRANCH  27  28
ENDBRANCH  26  27
ENDBRANCH  25  26
ENDBRANCH  24  25
ENDBRANCH  23  24
ENDBRANCH  22  23
ENDBRANCH  21  22
ENDBRANCH  20  21
ENDBRANCH  19  20
ENDBRANCH  18  19
ENDBRANCH  17  18
ENDBRANCH   1  17
TORSDOF 26
ENDMDL
MODEL 6
REMARK VINA RESULT:    -2.866      2.159      6.857
REMARK INTER + INTRA:          -9.643
REMARK INTER:                  -6.720
REMARK INTRA:                  -2.923
REMARK UNBOUND:                -2.421
REMARK SMILES CCCCCCCCCCCCCCCCCCCCCCCCCCCC(=O)[O-]
REMARK SMILES IDX 15 1 16 2 17 3 18 4 19 5 20 6 21 7 22 8 23 9 24 10 25 11
REMARK SMILES IDX 26 12 27 13 28 14 29 15 30 16 14 17 13 18 12 19 11 20 10 21
REMARK SMILES IDX 9 22 8 23 7 24 6 25 5 26 4 27 3 28 2 29 1 30
REMARK H PARENT
REMARK Flexibility Score: inf
ROOT
ATOM      1  C   UNL     1      -5.923  -3.769   5.496  1.00  0.00     0.000 C 
ENDROOT
BRANCH   1   2
ATOM      2  C   UNL     1      -4.716  -3.180   4.744  1.00  0.00     0.000 C 
BRANCH   2   3
ATOM      3  C   UNL     1      -3.617  -2.655   5.684  1.00  0.00     0.000 C 
BRANCH   3   4
ATOM      4  C   UNL     1      -2.455  -3.649   5.840  1.00  0.00     0.000 C 
BRANCH   4   5
ATOM      5  C   UNL     1      -2.901  -5.002   6.417  1.00  0.00     0.000 C 
BRANCH   5   6
ATOM      6  C   UNL     1      -3.328  -6.002   5.326  1.00  0.00     0.000 C 
BRANCH   6   7
ATOM      7  C   UNL     1      -3.514  -7.455   5.811  1.00  0.00     0.000 C 
BRANCH   7   8
ATOM      8  C   UNL     1      -4.923  -8.036   5.599  1.00  0.00     0.000 C 
BRANCH   8   9
ATOM      9  C   UNL     1      -5.185  -9.290   6.452  1.00  0.00     0.000 C 
BRANCH   9  10
ATOM     10  C   UNL     1      -4.860 -10.594   5.695  1.00  0.00     0.000 C 
BRANCH  10  11
ATOM     11  C   UNL     1      -4.568 -10.397   4.194  1.00  0.00     0.000 C 
BRANCH  11  12
ATOM     12  C   UNL     1      -3.107 -10.685   3.795  1.00  0.00     0.006 C 
BRANCH  12  13
ATOM     13  C   UNL     1      -2.613  -9.757   2.675  1.00  0.00     0.053 C 
BRANCH  13  14
ATOM     14  C   UNL     1      -2.082 -10.551   1.522  1.00  0.00     0.041 C 
ATOM     15  O   UNL     1      -0.879 -10.923   1.507  1.00  0.00    -0.550 OA
ATOM     16  O   UNL     1      -2.917 -10.873   0.458  1.00  0.00    -0.550 OA
ENDBRANCH  13  14
ENDBRANCH  12  13
ENDBRANCH  11  12
ENDBRANCH  10  11
ENDBRANCH   9  10
ENDBRANCH   8   9
ENDBRANCH   7   8
ENDBRANCH   6   7
ENDBRANCH   5   6
ENDBRANCH   4   5
ENDBRANCH   3   4
ENDBRANCH   2   3
ENDBRANCH   1   2
BRANCH   1  17
ATOM     17  C   UNL     1      -6.476  -2.891   6.634  1.00  0.00     0.000 C 
BRANCH  17  18
ATOM     18  C   UNL     1      -7.229  -1.650   6.124  1.00  0.00     0.000 C 
BRANCH  18  19
ATOM     19  C   UNL     1      -8.487  -1.337   6.949  1.00  0.00     0.000 C 
BRANCH  19  20
ATOM     20  C   UNL     1      -9.513  -2.483   6.913  1.00  0.00     0.000 C 
BRANCH  20  21
ATOM     21  C   UNL     1      -9.330  -3.475   8.073  1.00  0.00     0.000 C 
BRANCH  21  22
ATOM     22  C   UNL     1     -10.117  -4.779   7.861  1.00  0.00    -0.000 C 
BRANCH  22  23
ATOM     23  C   UNL     1      -9.899  -5.390   6.463  1.00  0.00    -0.000 C 
BRANCH  23  24
ATOM     24  C   UNL     1      -8.700  -6.353   6.351  1.00  0.00    -0.000 C 
BRANCH  24  25
ATOM     25  C   UNL     1      -8.082  -6.472   4.945  1.00  0.00    -0.000 C 
BRANCH  25  26
ATOM     26  C   UNL     1      -9.123  -6.468   3.803  1.00  0.00    -0.000 C 
BRANCH  26  27
ATOM     27  C   UNL     1      -9.311  -7.857   3.170  1.00  0.00    -0.000 C 
BRANCH  27  28
ATOM     28  C   UNL     1      -8.283  -8.884   3.673  1.00  0.00    -0.000 C 
BRANCH  28  29
ATOM     29  C   UNL     1      -8.904 -10.251   4.029  1.00  0.00    -0.003 C 
ATOM     30  C   UNL     1      -8.450 -10.755   5.401  1.00  0.00     0.004 C 
ENDBRANCH  28  29
ENDBRANCH  27  28
ENDBRANCH  26  27
ENDBRANCH  25  26
ENDBRANCH  24  25
ENDBRANCH  23  24
ENDBRANCH  22  23
ENDBRANCH  21  22
ENDBRANCH  20  21
ENDBRANCH  19  20
ENDBRANCH  18  19
ENDBRANCH  17  18
ENDBRANCH   1  17
TORSDOF 26
ENDMDL
MODEL 7
REMARK VINA RESULT:    -2.794      2.175      5.037
REMARK INTER + INTRA:          -9.461
REMARK INTER:                  -6.906
REMARK INTRA:                  -2.555
REMARK UNBOUND:                -2.421
REMARK SMILES CCCCCCCCCCCCCCCCCCCCCCCCCCCC(=O)[O-]
REMARK SMILES IDX 15 1 16 2 17 3 18 4 19 5 20 6 21 7 22 8 23 9 24 10 25 11
REMARK SMILES IDX 26 12 27 13 28 14 29 15 30 16 14 17 13 18 12 19 11 20 10 21
REMARK SMILES IDX 9 22 8 23 7 24 6 25 5 26 4 27 3 28 2 29 1 30
REMARK H PARENT
REMARK Flexibility Score: inf
ROOT
ATOM      1  C   UNL     1      -2.543  -4.264   6.366  1.00  0.00     0.000 C 
ENDROOT
BRANCH   1   2
ATOM      2  C   UNL     1      -3.503  -3.257   7.026  1.00  0.00     0.000 C 
BRANCH   2   3
ATOM      3  C   UNL     1      -4.362  -2.488   6.007  1.00  0.00     0.000 C 
BRANCH   3   4
ATOM      4  C   UNL     1      -5.245  -1.420   6.672  1.00  0.00     0.000 C 
BRANCH   4   5
ATOM      5  C   UNL     1      -6.526  -1.124   5.874  1.00  0.00     0.000 C 
BRANCH   5   6
ATOM      6  C   UNL     1      -7.796  -1.196   6.741  1.00  0.00     0.000 C 
BRANCH   6   7
ATOM      7  C   UNL     1      -8.164  -2.609   7.242  1.00  0.00     0.000 C 
BRANCH   7   8
ATOM      8  C   UNL     1      -8.654  -3.579   6.153  1.00  0.00     0.000 C 
BRANCH   8   9
ATOM      9  C   UNL     1      -7.657  -4.717   5.875  1.00  0.00     0.000 C 
BRANCH   9  10
ATOM     10  C   UNL     1      -8.359  -6.064   5.612  1.00  0.00     0.000 C 
BRANCH  10  11
ATOM     11  C   UNL     1      -8.710  -6.314   4.132  1.00  0.00     0.000 C 
BRANCH  11  12
ATOM     12  C   UNL     1      -8.812  -7.805   3.754  1.00  0.00     0.006 C 
BRANCH  12  13
ATOM     13  C   UNL     1      -8.438  -8.732   4.920  1.00  0.00     0.053 C 
BRANCH  13  14
ATOM     14  C   UNL     1      -7.777  -9.978   4.419  1.00  0.00     0.041 C 
ATOM     15  O   UNL     1      -6.835 -10.504   5.070  1.00  0.00    -0.550 OA
ATOM     16  O   UNL     1      -8.195 -10.554   3.224  1.00  0.00    -0.550 OA
ENDBRANCH  13  14
ENDBRANCH  12  13
ENDBRANCH  11  12
ENDBRANCH  10  11
ENDBRANCH   9  10
ENDBRANCH   8   9
ENDBRANCH   7   8
ENDBRANCH   6   7
ENDBRANCH   5   6
ENDBRANCH   4   5
ENDBRANCH   3   4
ENDBRANCH   2   3
ENDBRANCH   1   2
BRANCH   1  17
ATOM     17  C   UNL     1      -3.221  -5.488   5.721  1.00  0.00     0.000 C 
BRANCH  17  18
ATOM     18  C   UNL     1      -4.492  -5.933   6.465  1.00  0.00     0.000 C 
BRANCH  18  19
ATOM     19  C   UNL     1      -4.817  -7.419   6.250  1.00  0.00     0.000 C 
BRANCH  19  20
ATOM     20  C   UNL     1      -4.445  -7.904   4.838  1.00  0.00     0.000 C 
BRANCH  20  21
ATOM     21  C   UNL     1      -3.434  -9.061   4.860  1.00  0.00     0.000 C 
BRANCH  21  22
ATOM     22  C   UNL     1      -2.620  -9.157   3.558  1.00  0.00    -0.000 C 
BRANCH  22  23
ATOM     23  C   UNL     1      -2.637 -10.570   2.944  1.00  0.00    -0.000 C 
BRANCH  23  24
ATOM     24  C   UNL     1      -1.255 -11.125   2.543  1.00  0.00    -0.000 C 
BRANCH  24  25
ATOM     25  C   UNL     1      -0.939 -11.075   1.036  1.00  0.00    -0.000 C 
BRANCH  25  26
ATOM     26  C   UNL     1      -2.171 -10.784   0.150  1.00  0.00    -0.000 C 
BRANCH  26  27
ATOM     27  C   UNL     1      -2.164  -9.358  -0.423  1.00  0.00    -0.000 C 
BRANCH  27  28
ATOM     28  C   UNL     1      -0.772  -8.917  -0.903  1.00  0.00    -0.000 C 
BRANCH  28  29
ATOM     29  C   UNL     1      -0.814  -7.914  -2.076  1.00  0.00    -0.003 C 
ATOM     30  C   UNL     1      -0.007  -6.647  -1.786  1.00  0.00     0.004 C 
ENDBRANCH  28  29
ENDBRANCH  27  28
ENDBRANCH  26  27
ENDBRANCH  25  26
ENDBRANCH  24  25
ENDBRANCH  23  24
ENDBRANCH  22  23
ENDBRANCH  21  22
ENDBRANCH  20  21
ENDBRANCH  19  20
ENDBRANCH  18  19
ENDBRANCH  17  18
ENDBRANCH   1  17
TORSDOF 26
ENDMDL
MODEL 8
REMARK VINA RESULT:    -2.089      6.135      9.671
REMARK INTER + INTRA:          -7.686
REMARK INTER:                  -6.508
REMARK INTRA:                  -1.179
REMARK UNBOUND:                -2.421
REMARK SMILES CCCCCCCCCCCCCCCCCCCCCCCCCCCC(=O)[O-]
REMARK SMILES IDX 15 1 16 2 17 3 18 4 19 5 20 6 21 7 22 8 23 9 24 10 25 11
REMARK SMILES IDX 26 12 27 13 28 14 29 15 30 16 14 17 13 18 12 19 11 20 10 21
REMARK SMILES IDX 9 22 8 23 7 24 6 25 5 26 4 27 3 28 2 29 1 30
REMARK H PARENT
REMARK Flexibility Score: inf
ROOT
ATOM      1  C   UNL     1      -1.994 -10.234  -0.236  1.00  0.00     0.000 C 
ENDROOT
BRANCH   1   2
ATOM      2  C   UNL     1      -1.172  -9.535  -1.334  1.00  0.00     0.000 C 
BRANCH   2   3
ATOM      3  C   UNL     1      -0.551  -8.206  -0.868  1.00  0.00     0.000 C 
BRANCH   3   4
ATOM      4  C   UNL     1      -0.609  -7.120  -1.954  1.00  0.00     0.000 C 
BRANCH   4   5
ATOM      5  C   UNL     1       0.677  -6.280  -2.025  1.00  0.00     0.000 C 
BRANCH   5   6
ATOM      6  C   UNL     1       0.400  -4.766  -2.007  1.00  0.00     0.000 C 
BRANCH   6   7
ATOM      7  C   UNL     1       0.628  -4.078  -0.644  1.00  0.00     0.000 C 
BRANCH   7   8
ATOM      8  C   UNL     1       0.123  -2.627  -0.554  1.00  0.00     0.000 C 
BRANCH   8   9
ATOM      9  C   UNL     1      -0.108  -1.990  -1.935  1.00  0.00     0.000 C 
BRANCH   9  10
ATOM     10  C   UNL     1       1.092  -1.138  -2.398  1.00  0.00     0.000 C 
BRANCH  10  11
ATOM     11  C   UNL     1       2.410  -1.453  -1.664  1.00  0.00     0.000 C 
BRANCH  11  12
ATOM     12  C   UNL     1       3.433  -0.300  -1.686  1.00  0.00     0.006 C 
BRANCH  12  13
ATOM     13  C   UNL     1       4.789  -0.731  -2.264  1.00  0.00     0.053 C 
BRANCH  13  14
ATOM     14  C   UNL     1       5.916  -0.164  -1.458  1.00  0.00     0.041 C 
ATOM     15  O   UNL     1       5.712   0.254  -0.287  1.00  0.00    -0.550 OA
ATOM     16  O   UNL     1       7.192  -0.089  -2.004  1.00  0.00    -0.550 OA
ENDBRANCH  13  14
ENDBRANCH  12  13
ENDBRANCH  11  12
ENDBRANCH  10  11
ENDBRANCH   9  10
ENDBRANCH   8   9
ENDBRANCH   7   8
ENDBRANCH   6   7
ENDBRANCH   5   6
ENDBRANCH   4   5
ENDBRANCH   3   4
ENDBRANCH   2   3
ENDBRANCH   1   2
BRANCH   1  17
ATOM     17  C   UNL     1      -1.680  -9.782   1.203  1.00  0.00     0.000 C 
BRANCH  17  18
ATOM     18  C   UNL     1      -2.058 -10.835   2.260  1.00  0.00     0.000 C 
BRANCH  18  19
ATOM     19  C   UNL     1      -3.466 -10.621   2.836  1.00  0.00     0.000 C 
BRANCH  19  20
ATOM     20  C   UNL     1      -3.569 -11.050   4.310  1.00  0.00     0.000 C 
BRANCH  20  21
ATOM     21  C   UNL     1      -3.933  -9.881   5.240  1.00  0.00     0.000 C 
BRANCH  21  22
ATOM     22  C   UNL     1      -5.422  -9.880   5.627  1.00  0.00    -0.000 C 
BRANCH  22  23
ATOM     23  C   UNL     1      -5.656  -9.509   7.105  1.00  0.00    -0.000 C 
BRANCH  23  24
ATOM     24  C   UNL     1      -6.565  -8.287   7.336  1.00  0.00    -0.000 C 
BRANCH  24  25
ATOM     25  C   UNL     1      -7.211  -7.698   6.067  1.00  0.00    -0.000 C 
BRANCH  25  26
ATOM     26  C   UNL     1      -6.939  -6.191   5.870  1.00  0.00    -0.000 C 
BRANCH  26  27
ATOM     27  C   UNL     1      -5.538  -5.776   6.348  1.00  0.00    -0.000 C 
BRANCH  27  28
ATOM     28  C   UNL     1      -5.475  -4.308   6.802  1.00  0.00    -0.000 C 
BRANCH  28  29
ATOM     29  C   UNL     1      -6.160  -3.331   5.822  1.00  0.00    -0.003 C 
ATOM     30  C   UNL     1      -7.530  -2.872   6.323  1.00  0.00     0.004 C 
ENDBRANCH  28  29
ENDBRANCH  27  28
ENDBRANCH  26  27
ENDBRANCH  25  26
ENDBRANCH  24  25
ENDBRANCH  23  24
ENDBRANCH  22  23
ENDBRANCH  21  22
ENDBRANCH  20  21
ENDBRANCH  19  20
ENDBRANCH  18  19
ENDBRANCH  17  18
ENDBRANCH   1  17
TORSDOF 26
ENDMDL
