MODEL 1
REMARK VINA RESULT:    -6.951      0.000      0.000
REMARK INTER + INTRA:         -11.898
REMARK INTER:                 -10.608
REMARK INTRA:                  -1.290
REMARK UNBOUND:                -1.290
REMARK SMILES OC[C@@H]1O[C@@H](O[C@]2(CO)O[C@H](CO)[C@H](O)[C@H]2O)[C@H](O)[C@@H](O)[C@H]1O
REMARK SMILES IDX 6 1 5 2 3 3 22 4 4 5 20 6 18 7 2 8 1 9 23 11 21 13 19 15
REMARK SMILES IDX 7 17 16 18 10 19 14 20 11 21 8 22 9 23 17 25 15 27 12 29
REMARK SMILES IDX 13 30
REMARK H PARENT 1 10 23 12 21 14 19 16 9 24 17 26 15 28 13 31
REMARK Flexibility Score: inf
ROOT
ATOM      1  O   UNL     1     -14.757 -10.618  -0.849  1.00  0.00    -0.313 OA
ENDROOT
BRANCH   1   2
ATOM      2  C   UNL     1     -15.022 -11.738  -1.689  1.00  0.00     0.285 C 
ATOM      3  C   UNL     1     -16.776 -12.458  -0.294  1.00  0.00     0.178 C 
ATOM      4  C   UNL     1     -16.011 -13.718   0.183  1.00  0.00     0.177 C 
ATOM      5  O   UNL     1     -16.390 -12.111  -1.615  1.00  0.00    -0.341 OA
ATOM      6  C   UNL     1     -14.481 -13.522   0.055  1.00  0.00     0.179 C 
ATOM      7  C   UNL     1     -14.104 -12.918  -1.314  1.00  0.00     0.202 C 
BRANCH   3   8
ATOM      8  C   UNL     1     -18.296 -12.699  -0.304  1.00  0.00     0.191 C 
BRANCH   8   9
ATOM      9  O   UNL     1     -18.952 -11.853   0.602  1.00  0.00    -0.394 OA
ATOM     10  H   UNL     1     -19.390 -12.439   1.273  1.00  0.00     0.210 HD
ENDBRANCH   8   9
ENDBRANCH   3   8
BRANCH   4  11
ATOM     11  O   UNL     1     -16.349 -14.020   1.512  1.00  0.00    -0.387 OA
ATOM     12  H   UNL     1     -15.642 -14.626   1.857  1.00  0.00     0.211 HD
ENDBRANCH   4  11
BRANCH   6  13
ATOM     13  O   UNL     1     -13.940 -12.764   1.111  1.00  0.00    -0.387 OA
ATOM     14  H   UNL     1     -13.647 -13.377   1.831  1.00  0.00     0.211 HD
ENDBRANCH   6  13
BRANCH   7  15
ATOM     15  O   UNL     1     -14.212 -13.906  -2.308  1.00  0.00    -0.385 OA
ATOM     16  H   UNL     1     -13.377 -13.871  -2.843  1.00  0.00     0.211 HD
ENDBRANCH   7  15
ENDBRANCH   1   2
BRANCH   1  17
ATOM     17  C   UNL     1     -14.977  -9.345  -1.449  1.00  0.00     0.224 C 
ATOM     18  C   UNL     1     -15.302  -9.455  -2.961  1.00  0.00     0.208 C 
ATOM     19  O   UNL     1     -16.114  -8.792  -0.812  1.00  0.00    -0.337 OA
ATOM     20  C   UNL     1     -16.375  -8.419  -3.158  1.00  0.00     0.180 C 
ATOM     21  C   UNL     1     -17.040  -8.360  -1.784  1.00  0.00     0.179 C 
BRANCH  17  22
ATOM     22  C   UNL     1     -13.800  -8.385  -1.147  1.00  0.00     0.225 C 
BRANCH  22  23
ATOM     23  O   UNL     1     -12.600  -8.945  -1.607  1.00  0.00    -0.391 OA
ATOM     24  H   UNL     1     -12.338  -8.421  -2.406  1.00  0.00     0.210 HD
ENDBRANCH  22  23
ENDBRANCH  17  22
BRANCH  18  25
ATOM     25  O   UNL     1     -14.189  -9.186  -3.776  1.00  0.00    -0.385 OA
ATOM     26  H   UNL     1     -14.461  -8.464  -4.402  1.00  0.00     0.211 HD
ENDBRANCH  18  25
BRANCH  20  27
ATOM     27  O   UNL     1     -17.270  -8.784  -4.177  1.00  0.00    -0.387 OA
ATOM     28  H   UNL     1     -16.724  -9.154  -4.919  1.00  0.00     0.211 HD
ENDBRANCH  20  27
BRANCH  21  29
ATOM     29  C   UNL     1     -18.328  -9.192  -1.661  1.00  0.00     0.191 C 
BRANCH  29  30
ATOM     30  O   UNL     1     -18.852  -9.098  -0.363  1.00  0.00    -0.394 OA
ATOM     31  H   UNL     1     -19.523  -8.365  -0.392  1.00  0.00     0.210 HD
ENDBRANCH  29  30
ENDBRANCH  21  29
ENDBRANCH   1  17
TORSDOF 13
ENDMDL
MODEL 2
REMARK VINA RESULT:    -6.866      1.705      3.523
REMARK INTER + INTRA:         -11.768
REMARK INTER:                 -10.630
REMARK INTRA:                  -1.138
REMARK UNBOUND:                -1.290
REMARK SMILES OC[C@@H]1O[C@@H](O[C@]2(CO)O[C@H](CO)[C@H](O)[C@H]2O)[C@H](O)[C@@H](O)[C@H]1O
REMARK SMILES IDX 6 1 5 2 3 3 22 4 4 5 20 6 18 7 2 8 1 9 23 11 21 13 19 15
REMARK SMILES IDX 7 17 16 18 10 19 14 20 11 21 8 22 9 23 17 25 15 27 12 29
REMARK SMILES IDX 13 30
REMARK H PARENT 1 10 23 12 21 14 19 16 9 24 17 26 15 28 13 31
REMARK Flexibility Score: inf
ROOT
ATOM      1  O   UNL     1     -16.767 -10.949   0.167  1.00  0.00    -0.313 OA
ENDROOT
BRANCH   1   2
ATOM      2  C   UNL     1     -15.392 -11.312   0.086  1.00  0.00     0.285 C 
ATOM      3  C   UNL     1     -15.808 -12.756  -1.726  1.00  0.00     0.178 C 
ATOM      4  C   UNL     1     -15.511 -14.034  -0.903  1.00  0.00     0.177 C 
ATOM      5  O   UNL     1     -15.041 -11.663  -1.244  1.00  0.00    -0.341 OA
ATOM      6  C   UNL     1     -15.732 -13.788   0.609  1.00  0.00     0.179 C 
ATOM      7  C   UNL     1     -15.084 -12.463   1.063  1.00  0.00     0.202 C 
BRANCH   3   8
ATOM      8  C   UNL     1     -15.452 -12.954  -3.210  1.00  0.00     0.191 C 
BRANCH   8   9
ATOM      9  O   UNL     1     -16.448 -13.677  -3.881  1.00  0.00    -0.394 OA
ATOM     10  H   UNL     1     -15.983 -14.362  -4.428  1.00  0.00     0.210 HD
ENDBRANCH   8   9
ENDBRANCH   3   8
BRANCH   4  11
ATOM     11  O   UNL     1     -16.317 -15.096  -1.341  1.00  0.00    -0.387 OA
ATOM     12  H   UNL     1     -15.721 -15.881  -1.456  1.00  0.00     0.211 HD
ENDBRANCH   4  11
BRANCH   6  13
ATOM     13  O   UNL     1     -17.092 -13.839   0.974  1.00  0.00    -0.387 OA
ATOM     14  H   UNL     1     -17.259 -13.171   1.687  1.00  0.00     0.211 HD
ENDBRANCH   6  13
BRANCH   7  15
ATOM     15  O   UNL     1     -13.690 -12.626   1.142  1.00  0.00    -0.385 OA
ATOM     16  H   UNL     1     -13.457 -13.404   0.572  1.00  0.00     0.211 HD
ENDBRANCH   7  15
ENDBRANCH   1   2
BRANCH   1  17
ATOM     17  C   UNL     1     -17.049  -9.580  -0.110  1.00  0.00     0.224 C 
ATOM     18  C   UNL     1     -15.820  -8.666   0.124  1.00  0.00     0.208 C 
ATOM     19  O   UNL     1     -17.374  -9.508  -1.487  1.00  0.00    -0.337 OA
ATOM     20  C   UNL     1     -15.894  -7.690  -1.018  1.00  0.00     0.180 C 
ATOM     21  C   UNL     1     -16.607  -8.496  -2.102  1.00  0.00     0.179 C 
BRANCH  17  22
ATOM     22  C   UNL     1     -18.312  -9.113   0.658  1.00  0.00     0.225 C 
BRANCH  22  23
ATOM     23  O   UNL     1     -19.408  -9.072  -0.214  1.00  0.00    -0.391 OA
ATOM     24  H   UNL     1     -20.000  -9.823   0.048  1.00  0.00     0.210 HD
ENDBRANCH  22  23
ENDBRANCH  17  22
BRANCH  18  25
ATOM     25  O   UNL     1     -15.868  -7.998   1.360  1.00  0.00    -0.385 OA
ATOM     26  H   UNL     1     -16.203  -7.080   1.175  1.00  0.00     0.211 HD
ENDBRANCH  18  25
BRANCH  20  27
ATOM     27  O   UNL     1     -14.619  -7.256  -1.416  1.00  0.00    -0.387 OA
ATOM     28  H   UNL     1     -14.724  -6.843  -2.313  1.00  0.00     0.211 HD
ENDBRANCH  20  27
BRANCH  21  29
ATOM     29  C   UNL     1     -15.671  -9.135  -3.143  1.00  0.00     0.191 C 
BRANCH  29  30
ATOM     30  O   UNL     1     -15.576  -8.323  -4.283  1.00  0.00    -0.394 OA
ATOM     31  H   UNL     1     -15.766  -7.397  -3.977  1.00  0.00     0.210 HD
ENDBRANCH  29  30
ENDBRANCH  21  29
ENDBRANCH   1  17
TORSDOF 13
ENDMDL
MODEL 3
REMARK VINA RESULT:    -6.778      1.673      3.449
REMARK INTER + INTRA:         -11.634
REMARK INTER:                 -10.187
REMARK INTRA:                  -1.448
REMARK UNBOUND:                -1.290
REMARK SMILES OC[C@@H]1O[C@@H](O[C@]2(CO)O[C@H](CO)[C@H](O)[C@H]2O)[C@H](O)[C@@H](O)[C@H]1O
REMARK SMILES IDX 6 1 5 2 3 3 22 4 4 5 20 6 18 7 2 8 1 9 23 11 21 13 19 15
REMARK SMILES IDX 7 17 16 18 10 19 14 20 11 21 8 22 9 23 17 25 15 27 12 29
REMARK SMILES IDX 13 30
REMARK H PARENT 1 10 23 12 21 14 19 16 9 24 17 26 15 28 13 31
REMARK Flexibility Score: inf
ROOT
ATOM      1  O   UNL     1     -15.954 -11.276  -2.681  1.00  0.00    -0.313 OA
ENDROOT
BRANCH   1   2
ATOM      2  C   UNL     1     -16.981 -11.519  -1.725  1.00  0.00     0.285 C 
ATOM      3  C   UNL     1     -15.777 -13.310  -0.783  1.00  0.00     0.178 C 
ATOM      4  C   UNL     1     -16.780 -14.378  -1.288  1.00  0.00     0.177 C 
ATOM      5  O   UNL     1     -16.441 -12.079  -0.537  1.00  0.00    -0.341 OA
ATOM      6  C   UNL     1     -17.553 -13.873  -2.530  1.00  0.00     0.179 C 
ATOM      7  C   UNL     1     -18.067 -12.433  -2.326  1.00  0.00     0.202 C 
BRANCH   3   8
ATOM      8  C   UNL     1     -15.111 -13.748   0.533  1.00  0.00     0.191 C 
BRANCH   8   9
ATOM      9  O   UNL     1     -13.783 -13.305   0.604  1.00  0.00    -0.394 OA
ATOM     10  H   UNL     1     -13.772 -12.380   0.244  1.00  0.00     0.210 HD
ENDBRANCH   8   9
ENDBRANCH   3   8
BRANCH   4  11
ATOM     11  O   UNL     1     -16.109 -15.573  -1.590  1.00  0.00    -0.387 OA
ATOM     12  H   UNL     1     -16.624 -16.307  -1.162  1.00  0.00     0.211 HD
ENDBRANCH   4  11
BRANCH   6  13
ATOM     13  O   UNL     1     -16.803 -13.981  -3.717  1.00  0.00    -0.387 OA
ATOM     14  H   UNL     1     -15.877 -14.249  -3.489  1.00  0.00     0.211 HD
ENDBRANCH   6  13
BRANCH   7  15
ATOM     15  O   UNL     1     -19.173 -12.448  -1.458  1.00  0.00    -0.385 OA
ATOM     16  H   UNL     1     -19.764 -13.188  -1.755  1.00  0.00     0.211 HD
ENDBRANCH   7  15
ENDBRANCH   1   2
BRANCH   1  17
ATOM     17  C   UNL     1     -15.528  -9.920  -2.783  1.00  0.00     0.224 C 
ATOM     18  C   UNL     1     -16.648  -8.921  -2.393  1.00  0.00     0.208 C 
ATOM     19  O   UNL     1     -14.475  -9.759  -1.851  1.00  0.00    -0.337 OA
ATOM     20  C   UNL     1     -15.910  -7.861  -1.623  1.00  0.00     0.180 C 
ATOM     21  C   UNL     1     -14.727  -8.632  -1.040  1.00  0.00     0.179 C 
BRANCH  17  22
ATOM     22  C   UNL     1     -14.919  -9.639  -4.179  1.00  0.00     0.225 C 
BRANCH  22  23
ATOM     23  O   UNL     1     -14.532 -10.845  -4.779  1.00  0.00    -0.391 OA
ATOM     24  H   UNL     1     -14.851 -11.568  -4.181  1.00  0.00     0.210 HD
ENDBRANCH  22  23
ENDBRANCH  17  22
BRANCH  18  25
ATOM     25  O   UNL     1     -17.296  -8.370  -3.513  1.00  0.00    -0.385 OA
ATOM     26  H   UNL     1     -18.133  -7.951  -3.180  1.00  0.00     0.211 HD
ENDBRANCH  18  25
BRANCH  20  27
ATOM     27  O   UNL     1     -16.718  -7.279  -0.633  1.00  0.00    -0.387 OA
ATOM     28  H   UNL     1     -16.593  -7.818   0.191  1.00  0.00     0.211 HD
ENDBRANCH  20  27
BRANCH  21  29
ATOM     29  C   UNL     1     -14.918  -9.090   0.416  1.00  0.00     0.191 C 
BRANCH  29  30
ATOM     30  O   UNL     1     -14.397 -10.379   0.599  1.00  0.00    -0.394 OA
ATOM     31  H   UNL     1     -13.805 -10.549  -0.181  1.00  0.00     0.210 HD
ENDBRANCH  29  30
ENDBRANCH  21  29
ENDBRANCH   1  17
TORSDOF 13
ENDMDL
MODEL 4
REMARK VINA RESULT:    -6.763      1.661      5.397
REMARK INTER + INTRA:         -11.612
REMARK INTER:                 -10.202
REMARK INTRA:                  -1.410
REMARK UNBOUND:                -1.290
REMARK SMILES OC[C@@H]1O[C@@H](O[C@]2(CO)O[C@H](CO)[C@H](O)[C@H]2O)[C@H](O)[C@@H](O)[C@H]1O
REMARK SMILES IDX 6 1 5 2 3 3 22 4 4 5 20 6 18 7 2 8 1 9 23 11 21 13 19 15
REMARK SMILES IDX 7 17 16 18 10 19 14 20 11 21 8 22 9 23 17 25 15 27 12 29
REMARK SMILES IDX 13 30
REMARK H PARENT 1 10 23 12 21 14 19 16 9 24 17 26 15 28 13 31
REMARK Flexibility Score: inf
ROOT
ATOM      1  O   UNL     1     -15.725 -11.038  -0.123  1.00  0.00    -0.313 OA
ENDROOT
BRANCH   1   2
ATOM      2  C   UNL     1     -16.926 -10.535  -0.700  1.00  0.00     0.285 C 
ATOM      3  C   UNL     1     -15.730  -9.005  -2.030  1.00  0.00     0.178 C 
ATOM      4  C   UNL     1     -16.258  -7.770  -1.256  1.00  0.00     0.177 C 
ATOM      5  O   UNL     1     -16.690 -10.050  -2.013  1.00  0.00    -0.341 OA
ATOM      6  C   UNL     1     -16.679  -8.153   0.183  1.00  0.00     0.179 C 
ATOM      7  C   UNL     1     -17.533  -9.438   0.195  1.00  0.00     0.202 C 
BRANCH   3   8
ATOM      8  C   UNL     1     -15.445  -8.659  -3.502  1.00  0.00     0.191 C 
BRANCH   8   9
ATOM      9  O   UNL     1     -14.172  -9.099  -3.891  1.00  0.00    -0.394 OA
ATOM     10  H   UNL     1     -13.897  -8.533  -4.659  1.00  0.00     0.210 HD
ENDBRANCH   8   9
ENDBRANCH   3   8
BRANCH   4  11
ATOM     11  O   UNL     1     -15.281  -6.762  -1.220  1.00  0.00    -0.387 OA
ATOM     12  H   UNL     1     -14.509  -7.093  -1.750  1.00  0.00     0.211 HD
ENDBRANCH   4  11
BRANCH   6  13
ATOM     13  O   UNL     1     -15.582  -8.264   1.059  1.00  0.00    -0.387 OA
ATOM     14  H   UNL     1     -14.745  -8.261   0.529  1.00  0.00     0.211 HD
ENDBRANCH   6  13
BRANCH   7  15
ATOM     15  O   UNL     1     -18.829  -9.145  -0.266  1.00  0.00    -0.385 OA
ATOM     16  H   UNL     1     -19.010  -9.757  -1.026  1.00  0.00     0.211 HD
ENDBRANCH   7  15
ENDBRANCH   1   2
BRANCH   1  17
ATOM     17  C   UNL     1     -15.589 -12.455  -0.144  1.00  0.00     0.224 C 
ATOM     18  C   UNL     1     -16.941 -13.174  -0.384  1.00  0.00     0.208 C 
ATOM     19  O   UNL     1     -14.747 -12.762  -1.241  1.00  0.00    -0.337 OA
ATOM     20  C   UNL     1     -16.572 -14.305  -1.305  1.00  0.00     0.180 C 
ATOM     21  C   UNL     1     -15.353 -13.752  -2.042  1.00  0.00     0.179 C 
BRANCH  17  22
ATOM     22  C   UNL     1     -14.849 -12.955   1.123  1.00  0.00     0.225 C 
BRANCH  22  23
ATOM     23  O   UNL     1     -13.535 -13.315   0.794  1.00  0.00    -0.391 OA
ATOM     24  H   UNL     1     -13.336 -12.877  -0.072  1.00  0.00     0.210 HD
ENDBRANCH  22  23
ENDBRANCH  17  22
BRANCH  18  25
ATOM     25  O   UNL     1     -17.515 -13.659   0.804  1.00  0.00    -0.385 OA
ATOM     26  H   UNL     1     -17.549 -12.895   1.437  1.00  0.00     0.211 HD
ENDBRANCH  18  25
BRANCH  20  27
ATOM     27  O   UNL     1     -17.626 -14.635  -2.172  1.00  0.00    -0.387 OA
ATOM     28  H   UNL     1     -17.242 -14.675  -3.086  1.00  0.00     0.211 HD
ENDBRANCH  20  27
BRANCH  21  29
ATOM     29  C   UNL     1     -15.660 -13.162  -3.429  1.00  0.00     0.191 C 
BRANCH  29  30
ATOM     30  O   UNL     1     -14.916 -11.992  -3.641  1.00  0.00    -0.394 OA
ATOM     31  H   UNL     1     -14.886 -11.862  -4.626  1.00  0.00     0.210 HD
ENDBRANCH  29  30
ENDBRANCH  21  29
ENDBRANCH   1  17
TORSDOF 13
ENDMDL
MODEL 5
REMARK VINA RESULT:    -6.747      1.755      5.488
REMARK INTER + INTRA:         -11.587
REMARK INTER:                 -10.473
REMARK INTRA:                  -1.113
REMARK UNBOUND:                -1.290
REMARK SMILES OC[C@@H]1O[C@@H](O[C@]2(CO)O[C@H](CO)[C@H](O)[C@H]2O)[C@H](O)[C@@H](O)[C@H]1O
REMARK SMILES IDX 6 1 5 2 3 3 22 4 4 5 20 6 18 7 2 8 1 9 23 11 21 13 19 15
REMARK SMILES IDX 7 17 16 18 10 19 14 20 11 21 8 22 9 23 17 25 15 27 12 29
REMARK SMILES IDX 13 30
REMARK H PARENT 1 10 23 12 21 14 19 16 9 24 17 26 15 28 13 31
REMARK Flexibility Score: inf
ROOT
ATOM      1  O   UNL     1     -17.212 -11.255  -2.557  1.00  0.00    -0.313 OA
ENDROOT
BRANCH   1   2
ATOM      2  C   UNL     1     -15.840 -11.024  -2.860  1.00  0.00     0.285 C 
ATOM      3  C   UNL     1     -15.630  -9.500  -1.079  1.00  0.00     0.178 C 
ATOM      4  C   UNL     1     -15.454  -8.279  -2.016  1.00  0.00     0.177 C 
ATOM      5  O   UNL     1     -15.117 -10.675  -1.690  1.00  0.00    -0.341 OA
ATOM      6  C   UNL     1     -16.093  -8.543  -3.401  1.00  0.00     0.179 C 
ATOM      7  C   UNL     1     -15.706  -9.935  -3.941  1.00  0.00     0.202 C 
BRANCH   3   8
ATOM      8  C   UNL     1     -14.874  -9.299   0.247  1.00  0.00     0.191 C 
BRANCH   8   9
ATOM      9  O   UNL     1     -15.598  -8.482   1.127  1.00  0.00    -0.394 OA
ATOM     10  H   UNL     1     -16.213  -7.937   0.569  1.00  0.00     0.210 HD
ENDBRANCH   8   9
ENDBRANCH   3   8
BRANCH   4  11
ATOM     11  O   UNL     1     -16.020  -7.133  -1.434  1.00  0.00    -0.387 OA
ATOM     12  H   UNL     1     -15.314  -6.718  -0.872  1.00  0.00     0.211 HD
ENDBRANCH   4  11
BRANCH   6  13
ATOM     13  O   UNL     1     -17.490  -8.370  -3.396  1.00  0.00    -0.387 OA
ATOM     14  H   UNL     1     -17.903  -9.071  -3.961  1.00  0.00     0.211 HD
ENDBRANCH   6  13
BRANCH   7  15
ATOM     15  O   UNL     1     -14.375  -9.909  -4.394  1.00  0.00    -0.385 OA
ATOM     16  H   UNL     1     -13.904 -10.660  -3.947  1.00  0.00     0.211 HD
ENDBRANCH   7  15
ENDBRANCH   1   2
BRANCH   1  17
ATOM     17  C   UNL     1     -17.525 -12.579  -2.132  1.00  0.00     0.224 C 
ATOM     18  C   UNL     1     -16.495 -13.620  -2.642  1.00  0.00     0.208 C 
ATOM     19  O   UNL     1     -17.456 -12.574  -0.718  1.00  0.00    -0.337 OA
ATOM     20  C   UNL     1     -16.332 -14.546  -1.468  1.00  0.00     0.180 C 
ATOM     21  C   UNL     1     -16.639 -13.637  -0.279  1.00  0.00     0.179 C 
BRANCH  17  22
ATOM     22  C   UNL     1     -18.988 -12.940  -2.494  1.00  0.00     0.225 C 
BRANCH  22  23
ATOM     23  O   UNL     1     -19.701 -13.253  -1.329  1.00  0.00    -0.391 OA
ATOM     24  H   UNL     1     -20.591 -12.831  -1.426  1.00  0.00     0.210 HD
ENDBRANCH  22  23
ENDBRANCH  17  22
BRANCH  18  25
ATOM     25  O   UNL     1     -16.947 -14.319  -3.775  1.00  0.00    -0.385 OA
ATOM     26  H   UNL     1     -17.933 -14.398  -3.686  1.00  0.00     0.211 HD
ENDBRANCH  18  25
BRANCH  20  27
ATOM     27  O   UNL     1     -15.040 -15.093  -1.412  1.00  0.00    -0.387 OA
ATOM     28  H   UNL     1     -15.006 -15.816  -2.092  1.00  0.00     0.211 HD
ENDBRANCH  20  27
BRANCH  21  29
ATOM     29  C   UNL     1     -15.397 -13.063   0.423  1.00  0.00     0.191 C 
BRANCH  29  30
ATOM     30  O   UNL     1     -14.866 -13.998   1.325  1.00  0.00    -0.394 OA
ATOM     31  H   UNL     1     -14.841 -13.542   2.208  1.00  0.00     0.210 HD
ENDBRANCH  29  30
ENDBRANCH  21  29
ENDBRANCH   1  17
TORSDOF 13
ENDMDL
MODEL 6
REMARK VINA RESULT:    -6.618      1.141      4.985
REMARK INTER + INTRA:         -11.390
REMARK INTER:                 -10.180
REMARK INTRA:                  -1.209
REMARK UNBOUND:                -1.290
REMARK SMILES OC[C@@H]1O[C@@H](O[C@]2(CO)O[C@H](CO)[C@H](O)[C@H]2O)[C@H](O)[C@@H](O)[C@H]1O
REMARK SMILES IDX 6 1 5 2 3 3 22 4 4 5 20 6 18 7 2 8 1 9 23 11 21 13 19 15
REMARK SMILES IDX 7 17 16 18 10 19 14 20 11 21 8 22 9 23 17 25 15 27 12 29
REMARK SMILES IDX 13 30
REMARK H PARENT 1 10 23 12 21 14 19 16 9 24 17 26 15 28 13 31
REMARK Flexibility Score: inf
ROOT
ATOM      1  O   UNL     1     -15.100 -11.830  -2.234  1.00  0.00    -0.313 OA
ENDROOT
BRANCH   1   2
ATOM      2  C   UNL     1     -14.924 -10.726  -1.351  1.00  0.00     0.285 C 
ATOM      3  C   UNL     1     -16.832  -9.645  -2.207  1.00  0.00     0.178 C 
ATOM      4  C   UNL     1     -16.011  -8.512  -2.873  1.00  0.00     0.177 C 
ATOM      5  O   UNL     1     -16.171 -10.122  -1.044  1.00  0.00    -0.341 OA
ATOM      6  C   UNL     1     -14.564  -8.973  -3.170  1.00  0.00     0.179 C 
ATOM      7  C   UNL     1     -13.946  -9.703  -1.960  1.00  0.00     0.202 C 
BRANCH   3   8
ATOM      8  C   UNL     1     -18.224  -9.149  -1.779  1.00  0.00     0.191 C 
BRANCH   8   9
ATOM      9  O   UNL     1     -19.185 -10.163  -1.896  1.00  0.00    -0.394 OA
ATOM     10  H   UNL     1     -19.207 -10.426  -2.853  1.00  0.00     0.210 HD
ENDBRANCH   8   9
ENDBRANCH   3   8
BRANCH   4  11
ATOM     11  O   UNL     1     -16.636  -8.088  -4.056  1.00  0.00    -0.387 OA
ATOM     12  H   UNL     1     -17.123  -7.250  -3.839  1.00  0.00     0.211 HD
ENDBRANCH   4  11
BRANCH   6  13
ATOM     13  O   UNL     1     -14.473  -9.757  -4.337  1.00  0.00    -0.387 OA
ATOM     14  H   UNL     1     -13.762  -9.386  -4.919  1.00  0.00     0.211 HD
ENDBRANCH   6  13
BRANCH   7  15
ATOM     15  O   UNL     1     -13.603  -8.763  -0.971  1.00  0.00    -0.385 OA
ATOM     16  H   UNL     1     -13.379  -7.918  -1.440  1.00  0.00     0.211 HD
ENDBRANCH   7  15
ENDBRANCH   1   2
BRANCH   1  17
ATOM     17  C   UNL     1     -15.181 -13.104  -1.603  1.00  0.00     0.224 C 
ATOM     18  C   UNL     1     -14.927 -13.023  -0.076  1.00  0.00     0.208 C 
ATOM     19  O   UNL     1     -16.508 -13.560  -1.787  1.00  0.00    -0.337 OA
ATOM     20  C   UNL     1     -15.929 -13.992   0.491  1.00  0.00     0.180 C 
ATOM     21  C   UNL     1     -17.048 -13.962  -0.548  1.00  0.00     0.179 C 
BRANCH  17  22
ATOM     22  C   UNL     1     -14.266 -14.130  -2.319  1.00  0.00     0.225 C 
BRANCH  22  23
ATOM     23  O   UNL     1     -12.924 -13.763  -2.156  1.00  0.00    -0.391 OA
ATOM     24  H   UNL     1     -12.758 -13.743  -1.180  1.00  0.00     0.210 HD
ENDBRANCH  22  23
ENDBRANCH  17  22
BRANCH  18  25
ATOM     25  O   UNL     1     -13.617 -13.391   0.276  1.00  0.00    -0.385 OA
ATOM     26  H   UNL     1     -13.377 -14.170  -0.292  1.00  0.00     0.211 HD
ENDBRANCH  18  25
BRANCH  20  27
ATOM     27  O   UNL     1     -16.364 -13.602   1.768  1.00  0.00    -0.387 OA
ATOM     28  H   UNL     1     -16.121 -14.336   2.390  1.00  0.00     0.211 HD
ENDBRANCH  20  27
BRANCH  21  29
ATOM     29  C   UNL     1     -18.228 -13.044  -0.189  1.00  0.00     0.191 C 
BRANCH  29  30
ATOM     30  O   UNL     1     -17.764 -11.821   0.317  1.00  0.00    -0.394 OA
ATOM     31  H   UNL     1     -18.457 -11.147   0.085  1.00  0.00     0.210 HD
ENDBRANCH  29  30
ENDBRANCH  21  29
ENDBRANCH   1  17
TORSDOF 13
ENDMDL
MODEL 7
REMARK VINA RESULT:    -6.561      1.706      3.944
REMARK INTER + INTRA:         -11.303
REMARK INTER:                 -10.559
REMARK INTRA:                  -0.744
REMARK UNBOUND:                -1.290
REMARK SMILES OC[C@@H]1O[C@@H](O[C@]2(CO)O[C@H](CO)[C@H](O)[C@H]2O)[C@H](O)[C@@H](O)[C@H]1O
REMARK SMILES IDX 6 1 5 2 3 3 22 4 4 5 20 6 18 7 2 8 1 9 23 11 21 13 19 15
REMARK SMILES IDX 7 17 16 18 10 19 14 20 11 21 8 22 9 23 17 25 15 27 12 29
REMARK SMILES IDX 13 30
REMARK H PARENT 1 10 23 12 21 14 19 16 9 24 17 26 15 28 13 31
REMARK Flexibility Score: inf
ROOT
ATOM      1  O   UNL     1     -16.756 -11.192  -2.145  1.00  0.00    -0.313 OA
ENDROOT
BRANCH   1   2
ATOM      2  C   UNL     1     -17.226 -12.514  -1.900  1.00  0.00     0.285 C 
ATOM      3  C   UNL     1     -15.316 -13.031  -0.624  1.00  0.00     0.178 C 
ATOM      4  C   UNL     1     -14.767 -14.032  -1.672  1.00  0.00     0.177 C 
ATOM      5  O   UNL     1     -16.735 -13.001  -0.660  1.00  0.00    -0.341 OA
ATOM      6  C   UNL     1     -15.309 -13.712  -3.086  1.00  0.00     0.179 C 
ATOM      7  C   UNL     1     -16.829 -13.448  -3.059  1.00  0.00     0.202 C 
BRANCH   3   8
ATOM      8  C   UNL     1     -14.896 -13.430   0.801  1.00  0.00     0.191 C 
BRANCH   8   9
ATOM      9  O   UNL     1     -13.667 -12.853   1.151  1.00  0.00    -0.394 OA
ATOM     10  H   UNL     1     -13.014 -13.597   1.227  1.00  0.00     0.210 HD
ENDBRANCH   8   9
ENDBRANCH   3   8
BRANCH   4  11
ATOM     11  O   UNL     1     -13.364 -14.011  -1.678  1.00  0.00    -0.387 OA
ATOM     12  H   UNL     1     -13.077 -13.722  -0.772  1.00  0.00     0.211 HD
ENDBRANCH   4  11
BRANCH   6  13
ATOM     13  O   UNL     1     -14.621 -12.649  -3.704  1.00  0.00    -0.387 OA
ATOM     14  H   UNL     1     -15.274 -12.075  -4.178  1.00  0.00     0.211 HD
ENDBRANCH   6  13
BRANCH   7  15
ATOM     15  O   UNL     1     -17.514 -14.668  -2.909  1.00  0.00    -0.385 OA
ATOM     16  H   UNL     1     -18.467 -14.492  -3.124  1.00  0.00     0.211 HD
ENDBRANCH   7  15
ENDBRANCH   1   2
BRANCH   1  17
ATOM     17  C   UNL     1     -17.473 -10.159  -1.476  1.00  0.00     0.224 C 
ATOM     18  C   UNL     1     -17.034 -10.000   0.002  1.00  0.00     0.208 C 
ATOM     19  O   UNL     1     -17.157  -8.952  -2.144  1.00  0.00    -0.337 OA
ATOM     20  C   UNL     1     -17.033  -8.509   0.202  1.00  0.00     0.180 C 
ATOM     21  C   UNL     1     -16.749  -7.983  -1.204  1.00  0.00     0.179 C 
BRANCH  17  22
ATOM     22  C   UNL     1     -19.002 -10.357  -1.639  1.00  0.00     0.225 C 
BRANCH  22  23
ATOM     23  O   UNL     1     -19.687  -9.477  -0.791  1.00  0.00    -0.391 OA
ATOM     24  H   UNL     1     -20.098 -10.036  -0.084  1.00  0.00     0.210 HD
ENDBRANCH  22  23
ENDBRANCH  17  22
BRANCH  18  25
ATOM     25  O   UNL     1     -17.914 -10.627   0.901  1.00  0.00    -0.385 OA
ATOM     26  H   UNL     1     -17.770 -11.605   0.804  1.00  0.00     0.211 HD
ENDBRANCH  18  25
BRANCH  20  27
ATOM     27  O   UNL     1     -16.065  -8.109   1.137  1.00  0.00    -0.387 OA
ATOM     28  H   UNL     1     -15.186  -8.160   0.677  1.00  0.00     0.211 HD
ENDBRANCH  20  27
BRANCH  21  29
ATOM     29  C   UNL     1     -15.277  -7.616  -1.462  1.00  0.00     0.191 C 
BRANCH  29  30
ATOM     30  O   UNL     1     -14.755  -8.387  -2.511  1.00  0.00    -0.394 OA
ATOM     31  H   UNL     1     -15.336  -9.190  -2.576  1.00  0.00     0.210 HD
ENDBRANCH  29  30
ENDBRANCH  21  29
ENDBRANCH   1  17
TORSDOF 13
ENDMDL
MODEL 8
REMARK VINA RESULT:    -6.510      1.786      5.447
REMARK INTER + INTRA:         -11.224
REMARK INTER:                 -10.411
REMARK INTRA:                  -0.813
REMARK UNBOUND:                -1.290
REMARK SMILES OC[C@@H]1O[C@@H](O[C@]2(CO)O[C@H](CO)[C@H](O)[C@H]2O)[C@H](O)[C@@H](O)[C@H]1O
REMARK SMILES IDX 6 1 5 2 3 3 22 4 4 5 20 6 18 7 2 8 1 9 23 11 21 13 19 15
REMARK SMILES IDX 7 17 16 18 10 19 14 20 11 21 8 22 9 23 17 25 15 27 12 29
REMARK SMILES IDX 13 30
REMARK H PARENT 1 10 23 12 21 14 19 16 9 24 17 26 15 28 13 31
REMARK Flexibility Score: inf
ROOT
ATOM      1  O   UNL     1     -16.638 -11.168  -0.410  1.00  0.00    -0.313 OA
ENDROOT
BRANCH   1   2
ATOM      2  C   UNL     1     -17.082  -9.821  -0.546  1.00  0.00     0.285 C 
ATOM      3  C   UNL     1     -15.502  -9.397  -2.239  1.00  0.00     0.178 C 
ATOM      4  C   UNL     1     -14.670  -8.433  -1.356  1.00  0.00     0.177 C 
ATOM      5  O   UNL     1     -16.872  -9.353  -1.870  1.00  0.00    -0.341 OA
ATOM      6  C   UNL     1     -14.879  -8.734   0.148  1.00  0.00     0.179 C 
ATOM      7  C   UNL     1     -16.374  -8.917   0.481  1.00  0.00     0.202 C 
BRANCH   3   8
ATOM      8  C   UNL     1     -15.409  -9.012  -3.726  1.00  0.00     0.191 C 
BRANCH   8   9
ATOM      9  O   UNL     1     -14.273  -9.571  -4.327  1.00  0.00    -0.394 OA
ATOM     10  H   UNL     1     -14.413 -10.554  -4.342  1.00  0.00     0.210 HD
ENDBRANCH   8   9
ENDBRANCH   3   8
BRANCH   4  11
ATOM     11  O   UNL     1     -13.307  -8.528  -1.681  1.00  0.00    -0.387 OA
ATOM     12  H   UNL     1     -12.979  -9.383  -1.298  1.00  0.00     0.211 HD
ENDBRANCH   4  11
BRANCH   6  13
ATOM     13  O   UNL     1     -14.122  -9.835   0.592  1.00  0.00    -0.387 OA
ATOM     14  H   UNL     1     -13.339  -9.503   1.101  1.00  0.00     0.211 HD
ENDBRANCH   6  13
BRANCH   7  15
ATOM     15  O   UNL     1     -17.010  -7.662   0.490  1.00  0.00    -0.385 OA
ATOM     16  H   UNL     1     -17.789  -7.737   1.099  1.00  0.00     0.211 HD
ENDBRANCH   7  15
ENDBRANCH   1   2
BRANCH   1  17
ATOM     17  C   UNL     1     -17.600 -12.161  -0.750  1.00  0.00     0.224 C 
ATOM     18  C   UNL     1     -17.729 -12.356  -2.283  1.00  0.00     0.208 C 
ATOM     19  O   UNL     1     -17.129 -13.380  -0.207  1.00  0.00    -0.337 OA
ATOM     20  C   UNL     1     -17.878 -13.846  -2.429  1.00  0.00     0.180 C 
ATOM     21  C   UNL     1     -17.136 -14.378  -1.204  1.00  0.00     0.179 C 
BRANCH  17  22
ATOM     22  C   UNL     1     -18.956 -11.873  -0.056  1.00  0.00     0.225 C 
BRANCH  22  23
ATOM     23  O   UNL     1     -19.945 -12.716  -0.580  1.00  0.00    -0.391 OA
ATOM     24  H   UNL     1     -19.836 -13.589  -0.124  1.00  0.00     0.210 HD
ENDBRANCH  22  23
ENDBRANCH  17  22
BRANCH  18  25
ATOM     25  O   UNL     1     -18.839 -11.685  -2.824  1.00  0.00    -0.385 OA
ATOM     26  H   UNL     1     -19.563 -11.738  -2.145  1.00  0.00     0.211 HD
ENDBRANCH  18  25
BRANCH  20  27
ATOM     27  O   UNL     1     -17.331 -14.308  -3.637  1.00  0.00    -0.387 OA
ATOM     28  H   UNL     1     -17.146 -13.507  -4.192  1.00  0.00     0.211 HD
ENDBRANCH  20  27
BRANCH  21  29
ATOM     29  C   UNL     1     -15.691 -14.829  -1.479  1.00  0.00     0.191 C 
BRANCH  29  30
ATOM     30  O   UNL     1     -14.779 -13.881  -0.993  1.00  0.00    -0.394 OA
ATOM     31  H   UNL     1     -15.122 -12.995  -1.287  1.00  0.00     0.210 HD
ENDBRANCH  29  30
ENDBRANCH  21  29
ENDBRANCH   1  17
TORSDOF 13
ENDMDL
MODEL 9
REMARK VINA RESULT:    -6.505      1.821      3.865
REMARK INTER + INTRA:         -11.217
REMARK INTER:                  -9.760
REMARK INTRA:                  -1.457
REMARK UNBOUND:                -1.290
REMARK SMILES OC[C@@H]1O[C@@H](O[C@]2(CO)O[C@H](CO)[C@H](O)[C@H]2O)[C@H](O)[C@@H](O)[C@H]1O
REMARK SMILES IDX 6 1 5 2 3 3 22 4 4 5 20 6 18 7 2 8 1 9 23 11 21 13 19 15
REMARK SMILES IDX 7 17 16 18 10 19 14 20 11 21 8 22 9 23 17 25 15 27 12 29
REMARK SMILES IDX 13 30
REMARK H PARENT 1 10 23 12 21 14 19 16 9 24 17 26 15 28 13 31
REMARK Flexibility Score: inf
ROOT
ATOM      1  O   UNL     1     -17.359 -10.922  -1.368  1.00  0.00    -0.313 OA
ENDROOT
BRANCH   1   2
ATOM      2  C   UNL     1     -16.289 -11.789  -1.002  1.00  0.00     0.285 C 
ATOM      3  C   UNL     1     -16.442 -12.955  -3.040  1.00  0.00     0.178 C 
ATOM      4  C   UNL     1     -16.965 -14.251  -2.372  1.00  0.00     0.177 C 
ATOM      5  O   UNL     1     -15.593 -12.244  -2.152  1.00  0.00    -0.341 OA
ATOM      6  C   UNL     1     -17.659 -13.942  -1.024  1.00  0.00     0.179 C 
ATOM      7  C   UNL     1     -16.818 -12.972  -0.169  1.00  0.00     0.202 C 
BRANCH   3   8
ATOM      8  C   UNL     1     -15.627 -13.270  -4.307  1.00  0.00     0.191 C 
BRANCH   8   9
ATOM      9  O   UNL     1     -14.516 -12.424  -4.423  1.00  0.00    -0.394 OA
ATOM     10  H   UNL     1     -14.761 -11.569  -3.982  1.00  0.00     0.210 HD
ENDBRANCH   8   9
ENDBRANCH   3   8
BRANCH   4  11
ATOM     11  O   UNL     1     -17.854 -14.918  -3.230  1.00  0.00    -0.387 OA
ATOM     12  H   UNL     1     -18.062 -14.290  -3.972  1.00  0.00     0.211 HD
ENDBRANCH   4  11
BRANCH   6  13
ATOM     13  O   UNL     1     -18.975 -13.465  -1.187  1.00  0.00    -0.387 OA
ATOM     14  H   UNL     1     -19.479 -14.101  -1.756  1.00  0.00     0.211 HD
ENDBRANCH   6  13
BRANCH   7  15
ATOM     15  O   UNL     1     -15.723 -13.661   0.382  1.00  0.00    -0.385 OA
ATOM     16  H   UNL     1     -15.933 -14.629   0.326  1.00  0.00     0.211 HD
ENDBRANCH   7  15
ENDBRANCH   1   2
BRANCH   1  17
ATOM     17  C   UNL     1     -17.104  -9.533  -1.183  1.00  0.00     0.224 C 
ATOM     18  C   UNL     1     -15.660  -9.259  -0.691  1.00  0.00     0.208 C 
ATOM     19  O   UNL     1     -17.240  -8.926  -2.455  1.00  0.00    -0.337 OA
ATOM     20  C   UNL     1     -15.265  -8.025  -1.456  1.00  0.00     0.180 C 
ATOM     21  C   UNL     1     -16.105  -8.135  -2.727  1.00  0.00     0.179 C 
BRANCH  17  22
ATOM     22  C   UNL     1     -18.188  -8.892  -0.279  1.00  0.00     0.225 C 
BRANCH  22  23
ATOM     23  O   UNL     1     -18.306  -9.623   0.911  1.00  0.00    -0.391 OA
ATOM     24  H   UNL     1     -18.550  -8.970   1.615  1.00  0.00     0.210 HD
ENDBRANCH  22  23
ENDBRANCH  17  22
BRANCH  18  25
ATOM     25  O   UNL     1     -15.592  -9.034   0.695  1.00  0.00    -0.385 OA
ATOM     26  H   UNL     1     -16.481  -8.686   0.971  1.00  0.00     0.211 HD
ENDBRANCH  18  25
BRANCH  20  27
ATOM     27  O   UNL     1     -13.886  -7.995  -1.719  1.00  0.00    -0.387 OA
ATOM     28  H   UNL     1     -13.771  -8.245  -2.672  1.00  0.00     0.211 HD
ENDBRANCH  20  27
BRANCH  21  29
ATOM     29  C   UNL     1     -15.358  -8.722  -3.937  1.00  0.00     0.191 C 
BRANCH  29  30
ATOM     30  O   UNL     1     -14.614  -9.849  -3.557  1.00  0.00    -0.394 OA
ATOM     31  H   UNL     1     -13.963  -9.531  -2.876  1.00  0.00     0.210 HD
ENDBRANCH  29  30
ENDBRANCH  21  29
ENDBRANCH   1  17
TORSDOF 13
ENDMDL
