MODEL 1
REMARK VINA RESULT:    -3.739      0.000      0.000
REMARK INTER + INTRA:          -7.584
REMARK INTER:                  -6.799
REMARK INTRA:                  -0.785
REMARK UNBOUND:                -0.785
REMARK SMILES CCCCCCCCCCCCCC[C@@H](C)C(=O)[O-]
REMARK SMILES IDX 9 1 10 2 11 3 12 4 13 5 14 6 15 7 16 8 17 9 18 10 19 11 8 12
REMARK SMILES IDX 7 13 6 14 5 15 4 16 3 17 2 18 1 19
REMARK H PARENT
REMARK Flexibility Score: inf
ROOT
ATOM      1  C   UNL     1     -12.230   9.464  -0.121  1.00  0.00     0.000 C 
ENDROOT
BRANCH   1   2
ATOM      2  C   UNL     1     -11.946   8.978   1.311  1.00  0.00     0.000 C 
BRANCH   2   3
ATOM      3  C   UNL     1     -13.207   8.955   2.194  1.00  0.00     0.000 C 
BRANCH   3   4
ATOM      4  C   UNL     1     -12.944   8.885   3.712  1.00  0.00     0.000 C 
BRANCH   4   5
ATOM      5  C   UNL     1     -12.023   9.984   4.276  1.00  0.00     0.001 C 
BRANCH   5   6
ATOM      6  C   UNL     1     -12.487  10.625   5.601  1.00  0.00     0.009 C 
BRANCH   6   7
ATOM      7  C   UNL     1     -13.725   9.943   6.232  1.00  0.00     0.032 C 
ATOM      8  C   UNL     1     -13.389   9.386   7.620  1.00  0.00     0.014 C 
BRANCH   7   9
ATOM      9  C   UNL     1     -14.894  10.884   6.344  1.00  0.00     0.044 C 
ATOM     10  O   UNL     1     -15.786  10.699   7.214  1.00  0.00    -0.550 OA
ATOM     11  O   UNL     1     -15.016  11.946   5.455  1.00  0.00    -0.550 OA
ENDBRANCH   7   9
ENDBRANCH   6   7
ENDBRANCH   5   6
ENDBRANCH   4   5
ENDBRANCH   3   4
ENDBRANCH   2   3
ENDBRANCH   1   2
BRANCH   1  12
ATOM     12  C   UNL     1     -13.578   8.950  -0.651  1.00  0.00     0.000 C 
BRANCH  12  13
ATOM     13  C   UNL     1     -13.838   9.375  -2.108  1.00  0.00    -0.000 C 
BRANCH  13  14
ATOM     14  C   UNL     1     -13.205  10.743  -2.434  1.00  0.00    -0.000 C 
BRANCH  14  15
ATOM     15  C   UNL     1     -12.403  10.751  -3.747  1.00  0.00    -0.000 C 
BRANCH  15  16
ATOM     16  C   UNL     1     -13.078   9.945  -4.866  1.00  0.00    -0.000 C 
BRANCH  16  17
ATOM     17  C   UNL     1     -13.712  10.873  -5.907  1.00  0.00    -0.000 C 
BRANCH  17  18
ATOM     18  C   UNL     1     -14.388  12.073  -5.232  1.00  0.00    -0.003 C 
ATOM     19  C   UNL     1     -14.334  13.309  -6.125  1.00  0.00     0.004 C 
ENDBRANCH  17  18
ENDBRANCH  16  17
ENDBRANCH  15  16
ENDBRANCH  14  15
ENDBRANCH  13  14
ENDBRANCH  12  13
ENDBRANCH   1  12
TORSDOF 14
ENDMDL
MODEL 2
REMARK VINA RESULT:    -3.694     14.763     16.771
REMARK INTER + INTRA:          -7.502
REMARK INTER:                  -5.775
REMARK INTRA:                  -1.727
REMARK UNBOUND:                -0.785
REMARK SMILES CCCCCCCCCCCCCC[C@@H](C)C(=O)[O-]
REMARK SMILES IDX 9 1 10 2 11 3 12 4 13 5 14 6 15 7 16 8 17 9 18 10 19 11 8 12
REMARK SMILES IDX 7 13 6 14 5 15 4 16 3 17 2 18 1 19
REMARK H PARENT
REMARK Flexibility Score: inf
ROOT
ATOM      1  C   UNL     1      -1.105  12.202   9.165  1.00  0.00     0.000 C 
ENDROOT
BRANCH   1   2
ATOM      2  C   UNL     1      -0.618  11.293   8.022  1.00  0.00     0.000 C 
BRANCH   2   3
ATOM      3  C   UNL     1      -1.056   9.828   8.199  1.00  0.00     0.000 C 
BRANCH   3   4
ATOM      4  C   UNL     1      -0.178   8.991   9.152  1.00  0.00     0.000 C 
BRANCH   4   5
ATOM      5  C   UNL     1      -0.689   8.888  10.602  1.00  0.00     0.001 C 
BRANCH   5   6
ATOM      6  C   UNL     1      -2.198   9.145  10.796  1.00  0.00     0.009 C 
BRANCH   6   7
ATOM      7  C   UNL     1      -2.554   9.820  12.142  1.00  0.00     0.032 C 
ATOM      8  C   UNL     1      -1.287  10.295  12.863  1.00  0.00     0.014 C 
BRANCH   7   9
ATOM      9  C   UNL     1      -3.489  10.986  11.961  1.00  0.00     0.044 C 
ATOM     10  O   UNL     1      -4.452  10.916  11.152  1.00  0.00    -0.550 OA
ATOM     11  O   UNL     1      -3.268  12.166  12.661  1.00  0.00    -0.550 OA
ENDBRANCH   7   9
ENDBRANCH   6   7
ENDBRANCH   5   6
ENDBRANCH   4   5
ENDBRANCH   3   4
ENDBRANCH   2   3
ENDBRANCH   1   2
BRANCH   1  12
ATOM     12  C   UNL     1       0.017  12.526  10.166  1.00  0.00     0.000 C 
BRANCH  12  13
ATOM     13  C   UNL     1      -0.410  13.576  11.208  1.00  0.00    -0.000 C 
BRANCH  13  14
ATOM     14  C   UNL     1      -1.501  14.522  10.664  1.00  0.00    -0.000 C 
BRANCH  14  15
ATOM     15  C   UNL     1      -1.117  16.010  10.743  1.00  0.00    -0.000 C 
BRANCH  15  16
ATOM     16  C   UNL     1      -0.549  16.410  12.112  1.00  0.00    -0.000 C 
BRANCH  16  17
ATOM     17  C   UNL     1      -1.659  16.905  13.046  1.00  0.00    -0.000 C 
BRANCH  17  18
ATOM     18  C   UNL     1      -2.245  18.231  12.546  1.00  0.00    -0.003 C 
ATOM     19  C   UNL     1      -3.434  18.663  13.399  1.00  0.00     0.004 C 
ENDBRANCH  17  18
ENDBRANCH  16  17
ENDBRANCH  15  16
ENDBRANCH  14  15
ENDBRANCH  13  14
ENDBRANCH  12  13
ENDBRANCH   1  12
TORSDOF 14
ENDMDL
MODEL 3
REMARK VINA RESULT:    -3.669      3.572      8.737
REMARK INTER + INTRA:          -7.457
REMARK INTER:                  -5.949
REMARK INTRA:                  -1.508
REMARK UNBOUND:                -0.785
REMARK SMILES CCCCCCCCCCCCCC[C@@H](C)C(=O)[O-]
REMARK SMILES IDX 9 1 10 2 11 3 12 4 13 5 14 6 15 7 16 8 17 9 18 10 19 11 8 12
REMARK SMILES IDX 7 13 6 14 5 15 4 16 3 17 2 18 1 19
REMARK H PARENT
REMARK Flexibility Score: inf
ROOT
ATOM      1  C   UNL     1     -15.500  10.034   3.670  1.00  0.00     0.000 C 
ENDROOT
BRANCH   1   2
ATOM      2  C   UNL     1     -16.904  10.183   3.058  1.00  0.00     0.000 C 
BRANCH   2   3
ATOM      3  C   UNL     1     -17.018   9.539   1.664  1.00  0.00     0.000 C 
BRANCH   3   4
ATOM      4  C   UNL     1     -17.931  10.284   0.670  1.00  0.00     0.000 C 
BRANCH   4   5
ATOM      5  C   UNL     1     -17.327  10.534  -0.724  1.00  0.00     0.001 C 
BRANCH   5   6
ATOM      6  C   UNL     1     -15.896   9.995  -0.935  1.00  0.00     0.009 C 
BRANCH   6   7
ATOM      7  C   UNL     1     -15.218  10.498  -2.233  1.00  0.00     0.032 C 
ATOM      8  C   UNL     1     -15.417  12.010  -2.399  1.00  0.00     0.014 C 
BRANCH   7   9
ATOM      9  C   UNL     1     -13.747  10.184  -2.261  1.00  0.00     0.044 C 
ATOM     10  O   UNL     1     -13.179   9.681  -1.255  1.00  0.00    -0.550 OA
ATOM     11  O   UNL     1     -12.994  10.488  -3.390  1.00  0.00    -0.550 OA
ENDBRANCH   7   9
ENDBRANCH   6   7
ENDBRANCH   5   6
ENDBRANCH   4   5
ENDBRANCH   3   4
ENDBRANCH   2   3
ENDBRANCH   1   2
BRANCH   1  12
ATOM     12  C   UNL     1     -14.662   8.968   2.946  1.00  0.00     0.000 C 
BRANCH  12  13
ATOM     13  C   UNL     1     -13.151   9.145   3.184  1.00  0.00    -0.000 C 
BRANCH  13  14
ATOM     14  C   UNL     1     -12.840  10.413   4.005  1.00  0.00    -0.000 C 
BRANCH  14  15
ATOM     15  C   UNL     1     -11.762  10.198   5.082  1.00  0.00    -0.000 C 
BRANCH  15  16
ATOM     16  C   UNL     1     -12.238   9.302   6.235  1.00  0.00    -0.000 C 
BRANCH  16  17
ATOM     17  C   UNL     1     -13.304  10.010   7.078  1.00  0.00    -0.000 C 
BRANCH  17  18
ATOM     18  C   UNL     1     -14.603   9.196   7.116  1.00  0.00    -0.003 C 
ATOM     19  C   UNL     1     -15.813  10.101   7.328  1.00  0.00     0.004 C 
ENDBRANCH  17  18
ENDBRANCH  16  17
ENDBRANCH  15  16
ENDBRANCH  14  15
ENDBRANCH  13  14
ENDBRANCH  12  13
ENDBRANCH   1  12
TORSDOF 14
ENDMDL
MODEL 4
REMARK VINA RESULT:    -3.667     14.955     17.193
REMARK INTER + INTRA:          -7.453
REMARK INTER:                  -5.395
REMARK INTRA:                  -2.058
REMARK UNBOUND:                -0.785
REMARK SMILES CCCCCCCCCCCCCC[C@@H](C)C(=O)[O-]
REMARK SMILES IDX 9 1 10 2 11 3 12 4 13 5 14 6 15 7 16 8 17 9 18 10 19 11 8 12
REMARK SMILES IDX 7 13 6 14 5 15 4 16 3 17 2 18 1 19
REMARK H PARENT
REMARK Flexibility Score: inf
ROOT
ATOM      1  C   UNL     1      -2.620  12.893  10.888  1.00  0.00     0.000 C 
ENDROOT
BRANCH   1   2
ATOM      2  C   UNL     1      -1.483  13.765  10.326  1.00  0.00     0.000 C 
BRANCH   2   3
ATOM      3  C   UNL     1      -0.114  13.431  10.945  1.00  0.00     0.000 C 
BRANCH   3   4
ATOM      4  C   UNL     1       0.814  14.640  11.179  1.00  0.00     0.000 C 
BRANCH   4   5
ATOM      5  C   UNL     1       1.015  15.045  12.651  1.00  0.00     0.001 C 
BRANCH   5   6
ATOM      6  C   UNL     1      -0.267  15.441  13.414  1.00  0.00     0.009 C 
BRANCH   6   7
ATOM      7  C   UNL     1      -0.529  16.966  13.457  1.00  0.00     0.032 C 
ATOM      8  C   UNL     1       0.751  17.746  13.133  1.00  0.00     0.014 C 
BRANCH   7   9
ATOM      9  C   UNL     1      -1.617  17.381  12.505  1.00  0.00     0.044 C 
ATOM     10  O   UNL     1      -1.562  17.061  11.288  1.00  0.00    -0.550 OA
ATOM     11  O   UNL     1      -2.677  18.158  12.959  1.00  0.00    -0.550 OA
ENDBRANCH   7   9
ENDBRANCH   6   7
ENDBRANCH   5   6
ENDBRANCH   4   5
ENDBRANCH   3   4
ENDBRANCH   2   3
ENDBRANCH   1   2
BRANCH   1  12
ATOM     12  C   UNL     1      -2.301  12.359  12.294  1.00  0.00     0.000 C 
BRANCH  12  13
ATOM     13  C   UNL     1      -2.139  10.829  12.320  1.00  0.00    -0.000 C 
BRANCH  13  14
ATOM     14  C   UNL     1      -2.887  10.148  11.154  1.00  0.00    -0.000 C 
BRANCH  14  15
ATOM     15  C   UNL     1      -2.027   9.128  10.387  1.00  0.00    -0.000 C 
BRANCH  15  16
ATOM     16  C   UNL     1      -0.588   9.611  10.156  1.00  0.00    -0.000 C 
BRANCH  16  17
ATOM     17  C   UNL     1      -0.250   9.637   8.661  1.00  0.00    -0.000 C 
BRANCH  17  18
ATOM     18  C   UNL     1       0.185  11.040   8.222  1.00  0.00    -0.003 C 
ATOM     19  C   UNL     1      -0.935  11.753   7.469  1.00  0.00     0.004 C 
ENDBRANCH  17  18
ENDBRANCH  16  17
ENDBRANCH  15  16
ENDBRANCH  14  15
ENDBRANCH  13  14
ENDBRANCH  12  13
ENDBRANCH   1  12
TORSDOF 14
ENDMDL
MODEL 5
REMARK VINA RESULT:    -3.654      2.270      3.019
REMARK INTER + INTRA:          -7.430
REMARK INTER:                  -6.350
REMARK INTRA:                  -1.079
REMARK UNBOUND:                -0.785
REMARK SMILES CCCCCCCCCCCCCC[C@@H](C)C(=O)[O-]
REMARK SMILES IDX 9 1 10 2 11 3 12 4 13 5 14 6 15 7 16 8 17 9 18 10 19 11 8 12
REMARK SMILES IDX 7 13 6 14 5 15 4 16 3 17 2 18 1 19
REMARK H PARENT
REMARK Flexibility Score: inf
ROOT
ATOM      1  C   UNL     1     -16.166  10.067  -0.909  1.00  0.00     0.000 C 
ENDROOT
BRANCH   1   2
ATOM      2  C   UNL     1     -17.130  10.267   0.273  1.00  0.00     0.000 C 
BRANCH   2   3
ATOM      3  C   UNL     1     -16.663   9.548   1.552  1.00  0.00     0.000 C 
BRANCH   3   4
ATOM      4  C   UNL     1     -16.837  10.350   2.857  1.00  0.00     0.000 C 
BRANCH   4   5
ATOM      5  C   UNL     1     -16.020   9.842   4.060  1.00  0.00     0.001 C 
BRANCH   5   6
ATOM      6  C   UNL     1     -14.731  10.633   4.371  1.00  0.00     0.009 C 
BRANCH   6   7
ATOM      7  C   UNL     1     -13.489   9.742   4.617  1.00  0.00     0.032 C 
ATOM      8  C   UNL     1     -12.738   9.484   3.305  1.00  0.00     0.014 C 
BRANCH   7   9
ATOM      9  C   UNL     1     -12.546  10.352   5.618  1.00  0.00     0.044 C 
ATOM     10  O   UNL     1     -11.619  11.119   5.242  1.00  0.00    -0.550 OA
ATOM     11  O   UNL     1     -12.667  10.038   6.966  1.00  0.00    -0.550 OA
ENDBRANCH   7   9
ENDBRANCH   6   7
ENDBRANCH   5   6
ENDBRANCH   4   5
ENDBRANCH   3   4
ENDBRANCH   2   3
ENDBRANCH   1   2
BRANCH   1  12
ATOM     12  C   UNL     1     -15.100   8.998  -0.614  1.00  0.00     0.000 C 
BRANCH  12  13
ATOM     13  C   UNL     1     -13.780   9.261  -1.360  1.00  0.00    -0.000 C 
BRANCH  13  14
ATOM     14  C   UNL     1     -13.905  10.425  -2.366  1.00  0.00    -0.000 C 
BRANCH  14  15
ATOM     15  C   UNL     1     -12.621  10.679  -3.174  1.00  0.00    -0.000 C 
BRANCH  15  16
ATOM     16  C   UNL     1     -12.896  10.996  -4.651  1.00  0.00    -0.000 C 
BRANCH  16  17
ATOM     17  C   UNL     1     -14.402  11.087  -4.923  1.00  0.00    -0.000 C 
BRANCH  17  18
ATOM     18  C   UNL     1     -14.813  12.527  -5.255  1.00  0.00    -0.003 C 
ATOM     19  C   UNL     1     -15.950  12.996  -4.352  1.00  0.00     0.004 C 
ENDBRANCH  17  18
ENDBRANCH  16  17
ENDBRANCH  15  16
ENDBRANCH  14  15
ENDBRANCH  13  14
ENDBRANCH  12  13
ENDBRANCH   1  12
TORSDOF 14
ENDMDL
MODEL 6
REMARK VINA RESULT:    -3.620     14.041     15.932
REMARK INTER + INTRA:          -7.368
REMARK INTER:                  -5.710
REMARK INTRA:                  -1.658
REMARK UNBOUND:                -0.785
REMARK SMILES CCCCCCCCCCCCCC[C@@H](C)C(=O)[O-]
REMARK SMILES IDX 9 1 10 2 11 3 12 4 13 5 14 6 15 7 16 8 17 9 18 10 19 11 8 12
REMARK SMILES IDX 7 13 6 14 5 15 4 16 3 17 2 18 1 19
REMARK H PARENT
REMARK Flexibility Score: inf
ROOT
ATOM      1  C   UNL     1      -0.701  10.767   8.148  1.00  0.00     0.000 C 
ENDROOT
BRANCH   1   2
ATOM      2  C   UNL     1      -0.740   9.262   8.468  1.00  0.00     0.000 C 
BRANCH   2   3
ATOM      3  C   UNL     1      -1.788   8.908   9.539  1.00  0.00     0.000 C 
BRANCH   3   4
ATOM      4  C   UNL     1      -1.298   9.020  10.997  1.00  0.00     0.000 C 
BRANCH   4   5
ATOM      5  C   UNL     1      -2.135   9.939  11.907  1.00  0.00     0.001 C 
BRANCH   5   6
ATOM      6  C   UNL     1      -3.379   9.288  12.548  1.00  0.00     0.009 C 
BRANCH   6   7
ATOM      7  C   UNL     1      -4.666  10.139  12.431  1.00  0.00     0.032 C 
ATOM      8  C   UNL     1      -4.388  11.442  11.671  1.00  0.00     0.014 C 
BRANCH   7   9
ATOM      9  C   UNL     1      -5.778   9.393  11.745  1.00  0.00     0.044 C 
ATOM     10  O   UNL     1      -6.877   9.199  12.329  1.00  0.00    -0.550 OA
ATOM     11  O   UNL     1      -5.582   8.875  10.470  1.00  0.00    -0.550 OA
ENDBRANCH   7   9
ENDBRANCH   6   7
ENDBRANCH   5   6
ENDBRANCH   4   5
ENDBRANCH   3   4
ENDBRANCH   2   3
ENDBRANCH   1   2
BRANCH   1  12
ATOM     12  C   UNL     1       0.413  11.495   8.918  1.00  0.00     0.000 C 
BRANCH  12  13
ATOM     13  C   UNL     1      -0.140  12.460   9.982  1.00  0.00    -0.000 C 
BRANCH  13  14
ATOM     14  C   UNL     1      -1.602  12.862   9.695  1.00  0.00    -0.000 C 
BRANCH  14  15
ATOM     15  C   UNL     1      -2.037  14.149  10.417  1.00  0.00    -0.000 C 
BRANCH  15  16
ATOM     16  C   UNL     1      -0.858  15.070  10.761  1.00  0.00    -0.000 C 
BRANCH  16  17
ATOM     17  C   UNL     1      -0.974  15.601  12.194  1.00  0.00    -0.000 C 
BRANCH  17  18
ATOM     18  C   UNL     1      -0.911  17.133  12.219  1.00  0.00    -0.003 C 
ATOM     19  C   UNL     1      -2.180  17.727  12.824  1.00  0.00     0.004 C 
ENDBRANCH  17  18
ENDBRANCH  16  17
ENDBRANCH  15  16
ENDBRANCH  14  15
ENDBRANCH  13  14
ENDBRANCH  12  13
ENDBRANCH   1  12
TORSDOF 14
ENDMDL
MODEL 7
REMARK VINA RESULT:    -3.510      3.854      8.535
REMARK INTER + INTRA:          -7.168
REMARK INTER:                  -5.721
REMARK INTRA:                  -1.447
REMARK UNBOUND:                -0.785
REMARK SMILES CCCCCCCCCCCCCC[C@@H](C)C(=O)[O-]
REMARK SMILES IDX 9 1 10 2 11 3 12 4 13 5 14 6 15 7 16 8 17 9 18 10 19 11 8 12
REMARK SMILES IDX 7 13 6 14 5 15 4 16 3 17 2 18 1 19
REMARK H PARENT
REMARK Flexibility Score: inf
ROOT
ATOM      1  C   UNL     1     -16.057  10.703   3.925  1.00  0.00     0.000 C 
ENDROOT
BRANCH   1   2
ATOM      2  C   UNL     1     -16.370   9.656   2.841  1.00  0.00     0.000 C 
BRANCH   2   3
ATOM      3  C   UNL     1     -17.382  10.163   1.798  1.00  0.00     0.000 C 
BRANCH   3   4
ATOM      4  C   UNL     1     -17.359   9.420   0.447  1.00  0.00     0.000 C 
BRANCH   4   5
ATOM      5  C   UNL     1     -16.014   9.453  -0.304  1.00  0.00     0.001 C 
BRANCH   5   6
ATOM      6  C   UNL     1     -16.050  10.104  -1.703  1.00  0.00     0.009 C 
BRANCH   6   7
ATOM      7  C   UNL     1     -14.670  10.592  -2.206  1.00  0.00     0.032 C 
ATOM      8  C   UNL     1     -13.543   9.739  -1.613  1.00  0.00     0.014 C 
BRANCH   7   9
ATOM      9  C   UNL     1     -14.574  10.567  -3.707  1.00  0.00     0.044 C 
ATOM     10  O   UNL     1     -13.643   9.941  -4.281  1.00  0.00    -0.550 OA
ATOM     11  O   UNL     1     -15.495  11.273  -4.473  1.00  0.00    -0.550 OA
ENDBRANCH   7   9
ENDBRANCH   6   7
ENDBRANCH   5   6
ENDBRANCH   4   5
ENDBRANCH   3   4
ENDBRANCH   2   3
ENDBRANCH   1   2
BRANCH   1  12
ATOM     12  C   UNL     1     -16.336  10.174   5.341  1.00  0.00     0.000 C 
BRANCH  12  13
ATOM     13  C   UNL     1     -15.664  11.027   6.432  1.00  0.00    -0.000 C 
BRANCH  13  14
ATOM     14  C   UNL     1     -14.216  11.410   6.058  1.00  0.00    -0.000 C 
BRANCH  14  15
ATOM     15  C   UNL     1     -13.188  10.314   6.387  1.00  0.00    -0.000 C 
BRANCH  15  16
ATOM     16  C   UNL     1     -11.993  10.304   5.422  1.00  0.00    -0.000 C 
BRANCH  16  17
ATOM     17  C   UNL     1     -12.462  10.412   3.966  1.00  0.00    -0.000 C 
BRANCH  17  18
ATOM     18  C   UNL     1     -12.806   9.030   3.398  1.00  0.00    -0.003 C 
ATOM     19  C   UNL     1     -12.498   8.955   1.906  1.00  0.00     0.004 C 
ENDBRANCH  17  18
ENDBRANCH  16  17
ENDBRANCH  15  16
ENDBRANCH  14  15
ENDBRANCH  13  14
ENDBRANCH  12  13
ENDBRANCH   1  12
TORSDOF 14
ENDMDL
MODEL 8
REMARK VINA RESULT:    -3.508     15.307     17.230
REMARK INTER + INTRA:          -7.164
REMARK INTER:                  -5.223
REMARK INTRA:                  -1.941
REMARK UNBOUND:                -0.785
REMARK SMILES CCCCCCCCCCCCCC[C@@H](C)C(=O)[O-]
REMARK SMILES IDX 9 1 10 2 11 3 12 4 13 5 14 6 15 7 16 8 17 9 18 10 19 11 8 12
REMARK SMILES IDX 7 13 6 14 5 15 4 16 3 17 2 18 1 19
REMARK H PARENT
REMARK Flexibility Score: inf
ROOT
ATOM      1  C   UNL     1      -3.766  11.013  12.199  1.00  0.00     0.000 C 
ENDROOT
BRANCH   1   2
ATOM      2  C   UNL     1      -2.888   9.847  12.687  1.00  0.00     0.000 C 
BRANCH   2   3
ATOM      3  C   UNL     1      -1.571  10.321  13.328  1.00  0.00     0.000 C 
BRANCH   3   4
ATOM      4  C   UNL     1      -0.295   9.649  12.780  1.00  0.00     0.000 C 
BRANCH   4   5
ATOM      5  C   UNL     1       0.333  10.327  11.548  1.00  0.00     0.001 C 
BRANCH   5   6
ATOM      6  C   UNL     1       0.838   9.370  10.447  1.00  0.00     0.009 C 
BRANCH   6   7
ATOM      7  C   UNL     1       0.051   9.466   9.118  1.00  0.00     0.032 C 
ATOM      8  C   UNL     1      -1.434   9.156   9.343  1.00  0.00     0.014 C 
BRANCH   7   9
ATOM      9  C   UNL     1       0.183  10.822   8.479  1.00  0.00     0.044 C 
ATOM     10  O   UNL     1       1.125  11.595   8.802  1.00  0.00    -0.550 OA
ATOM     11  O   UNL     1      -0.761  11.247   7.552  1.00  0.00    -0.550 OA
ENDBRANCH   7   9
ENDBRANCH   6   7
ENDBRANCH   5   6
ENDBRANCH   4   5
ENDBRANCH   3   4
ENDBRANCH   2   3
ENDBRANCH   1   2
BRANCH   1  12
ATOM     12  C   UNL     1      -2.940  12.273  11.894  1.00  0.00     0.000 C 
BRANCH  12  13
ATOM     13  C   UNL     1      -2.623  12.422  10.395  1.00  0.00    -0.000 C 
BRANCH  13  14
ATOM     14  C   UNL     1      -1.658  13.594  10.120  1.00  0.00    -0.000 C 
BRANCH  14  15
ATOM     15  C   UNL     1      -0.670  13.858  11.270  1.00  0.00    -0.000 C 
BRANCH  15  16
ATOM     16  C   UNL     1      -0.063  15.267  11.226  1.00  0.00    -0.000 C 
BRANCH  16  17
ATOM     17  C   UNL     1      -1.158  16.337  11.155  1.00  0.00    -0.000 C 
BRANCH  17  18
ATOM     18  C   UNL     1      -1.518  16.846  12.556  1.00  0.00    -0.003 C 
ATOM     19  C   UNL     1      -1.767  18.352  12.547  1.00  0.00     0.004 C 
ENDBRANCH  17  18
ENDBRANCH  16  17
ENDBRANCH  15  16
ENDBRANCH  14  15
ENDBRANCH  13  14
ENDBRANCH  12  13
ENDBRANCH   1  12
TORSDOF 14
ENDMDL
