MODEL 1
REMARK VINA RESULT:    -3.461      0.000      0.000
REMARK INTER + INTRA:          -7.986
REMARK INTER:                  -6.091
REMARK INTRA:                  -1.895
REMARK UNBOUND:                -1.895
REMARK SMILES CCCCCCC=CCCCCCCCC(=O)[O-]
REMARK SMILES IDX 10 1 11 2 12 3 13 4 14 5 15 6 16 7 17 8 18 9 9 10 8 11 7 12
REMARK SMILES IDX 6 13 5 14 4 15 3 16 2 17 1 18
REMARK H PARENT
REMARK Flexibility Score: inf
ROOT
ATOM      1  C   UNL     1      62.075  30.231  61.842  1.00  0.00     0.004 C 
ENDROOT
BRANCH   1   2
ATOM      2  C   UNL     1      62.762  29.556  60.642  1.00  0.00     0.000 C 
BRANCH   2   3
ATOM      3  C   UNL     1      63.285  28.149  60.973  1.00  0.00     0.000 C 
BRANCH   3   4
ATOM      4  C   UNL     1      64.794  28.000  60.713  1.00  0.00     0.000 C 
BRANCH   4   5
ATOM      5  C   UNL     1      65.583  29.275  61.079  1.00  0.00     0.006 C 
BRANCH   5   6
ATOM      6  C   UNL     1      66.852  29.475  60.235  1.00  0.00     0.053 C 
BRANCH   6   7
ATOM      7  C   UNL     1      68.094  29.087  60.973  1.00  0.00     0.041 C 
ATOM      8  O   UNL     1      68.098  29.049  62.232  1.00  0.00    -0.550 OA
ATOM      9  O   UNL     1      69.243  28.744  60.269  1.00  0.00    -0.550 OA
ENDBRANCH   6   7
ENDBRANCH   5   6
ENDBRANCH   4   5
ENDBRANCH   3   4
ENDBRANCH   2   3
ENDBRANCH   1   2
BRANCH   1  10
ATOM     10  C   UNL     1      60.690  30.781  61.480  1.00  0.00     0.027 C 
BRANCH  10  11
ATOM     11  C   UNL     1      60.763  32.223  61.055  1.00  0.00    -0.031 C 
ATOM     12  C   UNL     1      60.650  32.586  59.769  1.00  0.00    -0.031 C 
BRANCH  12  13
ATOM     13  C   UNL     1      60.773  34.024  59.343  1.00  0.00     0.027 C 
BRANCH  13  14
ATOM     14  C   UNL     1      61.463  34.867  60.426  1.00  0.00     0.004 C 
BRANCH  14  15
ATOM     15  C   UNL     1      62.963  35.076  60.157  1.00  0.00     0.000 C 
BRANCH  15  16
ATOM     16  C   UNL     1      63.905  34.469  61.211  1.00  0.00    -0.000 C 
BRANCH  16  17
ATOM     17  C   UNL     1      64.247  32.999  60.933  1.00  0.00    -0.003 C 
ATOM     18  C   UNL     1      64.355  32.732  59.435  1.00  0.00     0.004 C 
ENDBRANCH  16  17
ENDBRANCH  15  16
ENDBRANCH  14  15
ENDBRANCH  13  14
ENDBRANCH  12  13
ENDBRANCH  10  11
ENDBRANCH   1  10
TORSDOF 13
ENDMDL
MODEL 2
REMARK VINA RESULT:    -3.417      3.053      6.231
REMARK INTER + INTRA:          -7.909
REMARK INTER:                  -6.558
REMARK INTRA:                  -1.351
REMARK UNBOUND:                -1.895
REMARK SMILES CCCCCCC=CCCCCCCCC(=O)[O-]
REMARK SMILES IDX 10 1 11 2 12 3 13 4 14 5 15 6 16 7 17 8 18 9 9 10 8 11 7 12
REMARK SMILES IDX 6 13 5 14 4 15 3 16 2 17 1 18
REMARK H PARENT
REMARK Flexibility Score: inf
ROOT
ATOM      1  C   UNL     1      61.675  30.146  61.594  1.00  0.00     0.004 C 
ENDROOT
BRANCH   1   2
ATOM      2  C   UNL     1      60.810  31.414  61.700  1.00  0.00     0.000 C 
BRANCH   2   3
ATOM      3  C   UNL     1      60.867  32.277  60.429  1.00  0.00     0.000 C 
BRANCH   3   4
ATOM      4  C   UNL     1      61.281  33.731  60.718  1.00  0.00     0.000 C 
BRANCH   4   5
ATOM      5  C   UNL     1      62.665  34.077  60.131  1.00  0.00     0.006 C 
BRANCH   5   6
ATOM      6  C   UNL     1      63.761  34.237  61.198  1.00  0.00     0.053 C 
BRANCH   6   7
ATOM      7  C   UNL     1      64.023  35.671  61.535  1.00  0.00     0.041 C 
ATOM      8  O   UNL     1      63.066  36.483  61.641  1.00  0.00    -0.550 OA
ATOM      9  O   UNL     1      65.324  36.107  61.757  1.00  0.00    -0.550 OA
ENDBRANCH   6   7
ENDBRANCH   5   6
ENDBRANCH   4   5
ENDBRANCH   3   4
ENDBRANCH   2   3
ENDBRANCH   1   2
BRANCH   1  10
ATOM     10  C   UNL     1      63.165  30.446  61.794  1.00  0.00     0.027 C 
BRANCH  10  11
ATOM     11  C   UNL     1      63.938  30.281  60.513  1.00  0.00    -0.031 C 
ATOM     12  C   UNL     1      65.202  30.713  60.391  1.00  0.00    -0.031 C 
BRANCH  12  13
ATOM     13  C   UNL     1      65.954  30.592  59.093  1.00  0.00     0.027 C 
BRANCH  13  14
ATOM     14  C   UNL     1      67.311  29.904  59.299  1.00  0.00     0.004 C 
BRANCH  14  15
ATOM     15  C   UNL     1      67.344  29.009  60.551  1.00  0.00     0.000 C 
BRANCH  15  16
ATOM     16  C   UNL     1      68.470  29.328  61.550  1.00  0.00    -0.000 C 
BRANCH  16  17
ATOM     17  C   UNL     1      69.862  29.327  60.904  1.00  0.00    -0.003 C 
ATOM     18  C   UNL     1      70.757  30.397  61.522  1.00  0.00     0.004 C 
ENDBRANCH  16  17
ENDBRANCH  15  16
ENDBRANCH  14  15
ENDBRANCH  13  14
ENDBRANCH  12  13
ENDBRANCH  10  11
ENDBRANCH   1  10
TORSDOF 13
ENDMDL
MODEL 3
REMARK VINA RESULT:    -3.366      2.566      4.051
REMARK INTER + INTRA:          -7.819
REMARK INTER:                  -5.683
REMARK INTRA:                  -2.136
REMARK UNBOUND:                -1.895
REMARK SMILES CCCCCCC=CCCCCCCCC(=O)[O-]
REMARK SMILES IDX 10 1 11 2 12 3 13 4 14 5 15 6 16 7 17 8 18 9 9 10 8 11 7 12
REMARK SMILES IDX 6 13 5 14 4 15 3 16 2 17 1 18
REMARK H PARENT
REMARK Flexibility Score: inf
ROOT
ATOM      1  C   UNL     1      61.001  32.654  59.676  1.00  0.00     0.004 C 
ENDROOT
BRANCH   1   2
ATOM      2  C   UNL     1      60.623  31.289  60.277  1.00  0.00     0.000 C 
BRANCH   2   3
ATOM      3  C   UNL     1      61.055  31.147  61.745  1.00  0.00     0.000 C 
BRANCH   3   4
ATOM      4  C   UNL     1      62.027  29.976  61.967  1.00  0.00     0.000 C 
BRANCH   4   5
ATOM      5  C   UNL     1      63.479  30.337  61.591  1.00  0.00     0.006 C 
BRANCH   5   6
ATOM      6  C   UNL     1      64.232  29.196  60.887  1.00  0.00     0.053 C 
BRANCH   6   7
ATOM      7  C   UNL     1      63.427  28.573  59.791  1.00  0.00     0.041 C 
ATOM      8  O   UNL     1      63.195  29.212  58.731  1.00  0.00    -0.550 OA
ATOM      9  O   UNL     1      62.951  27.274  59.930  1.00  0.00    -0.550 OA
ENDBRANCH   6   7
ENDBRANCH   5   6
ENDBRANCH   4   5
ENDBRANCH   3   4
ENDBRANCH   2   3
ENDBRANCH   1   2
BRANCH   1  10
ATOM     10  C   UNL     1      62.390  32.634  59.028  1.00  0.00     0.027 C 
BRANCH  10  11
ATOM     11  C   UNL     1      63.277  33.713  59.589  1.00  0.00    -0.031 C 
ATOM     12  C   UNL     1      63.304  33.993  60.901  1.00  0.00    -0.031 C 
BRANCH  12  13
ATOM     13  C   UNL     1      64.154  35.106  61.450  1.00  0.00     0.027 C 
BRANCH  13  14
ATOM     14  C   UNL     1      63.755  36.460  60.846  1.00  0.00     0.004 C 
BRANCH  14  15
ATOM     15  C   UNL     1      62.554  37.104  61.561  1.00  0.00     0.000 C 
BRANCH  15  16
ATOM     16  C   UNL     1      61.229  37.055  60.780  1.00  0.00    -0.000 C 
BRANCH  16  17
ATOM     17  C   UNL     1      61.431  36.930  59.264  1.00  0.00    -0.003 C 
ATOM     18  C   UNL     1      60.301  36.131  58.621  1.00  0.00     0.004 C 
ENDBRANCH  16  17
ENDBRANCH  15  16
ENDBRANCH  14  15
ENDBRANCH  13  14
ENDBRANCH  12  13
ENDBRANCH  10  11
ENDBRANCH   1  10
TORSDOF 13
ENDMDL
MODEL 4
REMARK VINA RESULT:    -3.256     11.195     12.926
REMARK INTER + INTRA:          -7.626
REMARK INTER:                  -5.264
REMARK INTRA:                  -2.362
REMARK UNBOUND:                -1.895
REMARK SMILES CCCCCCC=CCCCCCCCC(=O)[O-]
REMARK SMILES IDX 10 1 11 2 12 3 13 4 14 5 15 6 16 7 17 8 18 9 9 10 8 11 7 12
REMARK SMILES IDX 6 13 5 14 4 15 3 16 2 17 1 18
REMARK H PARENT
REMARK Flexibility Score: inf
ROOT
ATOM      1  C   UNL     1      55.740  30.239  53.698  1.00  0.00     0.004 C 
ENDROOT
BRANCH   1   2
ATOM      2  C   UNL     1      56.453  28.933  53.306  1.00  0.00     0.000 C 
BRANCH   2   3
ATOM      3  C   UNL     1      57.915  29.159  52.886  1.00  0.00     0.000 C 
BRANCH   3   4
ATOM      4  C   UNL     1      58.042  30.035  51.628  1.00  0.00     0.000 C 
BRANCH   4   5
ATOM      5  C   UNL     1      57.657  29.276  50.341  1.00  0.00     0.006 C 
BRANCH   5   6
ATOM      6  C   UNL     1      58.638  29.501  49.179  1.00  0.00     0.053 C 
BRANCH   6   7
ATOM      7  C   UNL     1      59.962  28.848  49.416  1.00  0.00     0.041 C 
ATOM      8  O   UNL     1      60.928  29.517  49.868  1.00  0.00    -0.550 OA
ATOM      9  O   UNL     1      60.124  27.491  49.160  1.00  0.00    -0.550 OA
ENDBRANCH   6   7
ENDBRANCH   5   6
ENDBRANCH   4   5
ENDBRANCH   3   4
ENDBRANCH   2   3
ENDBRANCH   1   2
BRANCH   1  10
ATOM     10  C   UNL     1      54.531  30.528  52.801  1.00  0.00     0.027 C 
BRANCH  10  11
ATOM     11  C   UNL     1      54.238  29.374  51.880  1.00  0.00    -0.031 C 
ATOM     12  C   UNL     1      53.878  29.565  50.602  1.00  0.00    -0.031 C 
BRANCH  12  13
ATOM     13  C   UNL     1      53.538  28.410  49.699  1.00  0.00     0.027 C 
BRANCH  13  14
ATOM     14  C   UNL     1      53.855  27.067  50.373  1.00  0.00     0.004 C 
BRANCH  14  15
ATOM     15  C   UNL     1      55.218  26.491  49.947  1.00  0.00     0.000 C 
BRANCH  15  16
ATOM     16  C   UNL     1      56.124  26.039  51.105  1.00  0.00    -0.000 C 
BRANCH  16  17
ATOM     17  C   UNL     1      57.555  25.713  50.655  1.00  0.00    -0.003 C 
ATOM     18  C   UNL     1      58.531  25.786  51.825  1.00  0.00     0.004 C 
ENDBRANCH  16  17
ENDBRANCH  15  16
ENDBRANCH  14  15
ENDBRANCH  13  14
ENDBRANCH  12  13
ENDBRANCH  10  11
ENDBRANCH   1  10
TORSDOF 13
ENDMDL
MODEL 5
REMARK VINA RESULT:    -3.254      3.157      4.249
REMARK INTER + INTRA:          -7.622
REMARK INTER:                  -5.661
REMARK INTRA:                  -1.960
REMARK UNBOUND:                -1.895
REMARK SMILES CCCCCCC=CCCCCCCCC(=O)[O-]
REMARK SMILES IDX 10 1 11 2 12 3 13 4 14 5 15 6 16 7 17 8 18 9 9 10 8 11 7 12
REMARK SMILES IDX 6 13 5 14 4 15 3 16 2 17 1 18
REMARK H PARENT
REMARK Flexibility Score: inf
ROOT
ATOM      1  C   UNL     1      63.250  28.916  60.614  1.00  0.00     0.004 C 
ENDROOT
BRANCH   1   2
ATOM      2  C   UNL     1      64.692  29.106  61.116  1.00  0.00     0.000 C 
BRANCH   2   3
ATOM      3  C   UNL     1      65.511  30.052  60.223  1.00  0.00     0.000 C 
BRANCH   3   4
ATOM      4  C   UNL     1      64.892  31.457  60.123  1.00  0.00     0.000 C 
BRANCH   4   5
ATOM      5  C   UNL     1      64.468  31.813  58.683  1.00  0.00     0.006 C 
BRANCH   5   6
ATOM      6  C   UNL     1      64.814  33.255  58.279  1.00  0.00     0.053 C 
BRANCH   6   7
ATOM      7  C   UNL     1      63.688  33.933  57.566  1.00  0.00     0.041 C 
ATOM      8  O   UNL     1      63.647  35.190  57.495  1.00  0.00    -0.550 OA
ATOM      9  O   UNL     1      62.693  33.176  56.958  1.00  0.00    -0.550 OA
ENDBRANCH   6   7
ENDBRANCH   5   6
ENDBRANCH   4   5
ENDBRANCH   3   4
ENDBRANCH   2   3
ENDBRANCH   1   2
BRANCH   1  10
ATOM     10  C   UNL     1      62.220  29.108  61.733  1.00  0.00     0.027 C 
BRANCH  10  11
ATOM     11  C   UNL     1      61.698  30.520  61.767  1.00  0.00    -0.031 C 
ATOM     12  C   UNL     1      61.207  31.118  60.672  1.00  0.00    -0.031 C 
BRANCH  12  13
ATOM     13  C   UNL     1      60.734  32.546  60.699  1.00  0.00     0.027 C 
BRANCH  13  14
ATOM     14  C   UNL     1      61.919  33.523  60.712  1.00  0.00     0.004 C 
BRANCH  14  15
ATOM     15  C   UNL     1      61.478  34.998  60.697  1.00  0.00     0.000 C 
BRANCH  15  16
ATOM     16  C   UNL     1      62.616  36.019  60.868  1.00  0.00    -0.000 C 
BRANCH  16  17
ATOM     17  C   UNL     1      63.964  35.364  61.202  1.00  0.00    -0.003 C 
ATOM     18  C   UNL     1      64.804  36.262  62.105  1.00  0.00     0.004 C 
ENDBRANCH  16  17
ENDBRANCH  15  16
ENDBRANCH  14  15
ENDBRANCH  13  14
ENDBRANCH  12  13
ENDBRANCH  10  11
ENDBRANCH   1  10
TORSDOF 13
ENDMDL
MODEL 6
REMARK VINA RESULT:    -3.234     11.825     13.655
REMARK INTER + INTRA:          -7.586
REMARK INTER:                  -5.054
REMARK INTRA:                  -2.532
REMARK UNBOUND:                -1.895
REMARK SMILES CCCCCCC=CCCCCCCCC(=O)[O-]
REMARK SMILES IDX 10 1 11 2 12 3 13 4 14 5 15 6 16 7 17 8 18 9 9 10 8 11 7 12
REMARK SMILES IDX 6 13 5 14 4 15 3 16 2 17 1 18
REMARK H PARENT
REMARK Flexibility Score: inf
ROOT
ATOM      1  C   UNL     1      57.025  28.287  53.787  1.00  0.00     0.004 C 
ENDROOT
BRANCH   1   2
ATOM      2  C   UNL     1      55.674  28.130  53.067  1.00  0.00     0.000 C 
BRANCH   2   3
ATOM      3  C   UNL     1      54.985  29.478  52.802  1.00  0.00     0.000 C 
BRANCH   3   4
ATOM      4  C   UNL     1      54.733  29.732  51.306  1.00  0.00     0.000 C 
BRANCH   4   5
ATOM      5  C   UNL     1      55.112  28.519  50.431  1.00  0.00     0.006 C 
BRANCH   5   6
ATOM      6  C   UNL     1      53.911  27.876  49.719  1.00  0.00     0.053 C 
BRANCH   6   7
ATOM      7  C   UNL     1      53.982  26.382  49.718  1.00  0.00     0.041 C 
ATOM      8  O   UNL     1      54.549  25.773  50.663  1.00  0.00    -0.550 OA
ATOM      9  O   UNL     1      53.398  25.658  48.684  1.00  0.00    -0.550 OA
ENDBRANCH   6   7
ENDBRANCH   5   6
ENDBRANCH   4   5
ENDBRANCH   3   4
ENDBRANCH   2   3
ENDBRANCH   1   2
BRANCH   1  10
ATOM     10  C   UNL     1      57.677  29.645  53.501  1.00  0.00     0.027 C 
BRANCH  10  11
ATOM     11  C   UNL     1      58.767  29.527  52.469  1.00  0.00    -0.031 C 
ATOM     12  C   UNL     1      58.515  29.659  51.159  1.00  0.00    -0.031 C 
BRANCH  12  13
ATOM     13  C   UNL     1      59.598  29.490  50.128  1.00  0.00     0.027 C 
BRANCH  13  14
ATOM     14  C   UNL     1      59.174  28.499  49.034  1.00  0.00     0.004 C 
BRANCH  14  15
ATOM     15  C   UNL     1      59.356  27.030  49.454  1.00  0.00     0.000 C 
BRANCH  15  16
ATOM     16  C   UNL     1      58.057  26.291  49.817  1.00  0.00    -0.000 C 
BRANCH  16  17
ATOM     17  C   UNL     1      58.020  25.825  51.279  1.00  0.00    -0.003 C 
ATOM     18  C   UNL     1      59.389  25.969  51.937  1.00  0.00     0.004 C 
ENDBRANCH  16  17
ENDBRANCH  15  16
ENDBRANCH  14  15
ENDBRANCH  13  14
ENDBRANCH  12  13
ENDBRANCH  10  11
ENDBRANCH   1  10
TORSDOF 13
ENDMDL
MODEL 7
REMARK VINA RESULT:    -3.227      3.626      5.354
REMARK INTER + INTRA:          -7.574
REMARK INTER:                  -5.458
REMARK INTRA:                  -2.116
REMARK UNBOUND:                -1.895
REMARK SMILES CCCCCCC=CCCCCCCCC(=O)[O-]
REMARK SMILES IDX 10 1 11 2 12 3 13 4 14 5 15 6 16 7 17 8 18 9 9 10 8 11 7 12
REMARK SMILES IDX 6 13 5 14 4 15 3 16 2 17 1 18
REMARK H PARENT
REMARK Flexibility Score: inf
ROOT
ATOM      1  C   UNL     1      63.975  33.599  60.012  1.00  0.00     0.004 C 
ENDROOT
BRANCH   1   2
ATOM      2  C   UNL     1      64.458  32.142  60.106  1.00  0.00     0.000 C 
BRANCH   2   3
ATOM      3  C   UNL     1      63.890  31.407  61.331  1.00  0.00     0.000 C 
BRANCH   3   4
ATOM      4  C   UNL     1      62.647  30.566  60.995  1.00  0.00     0.000 C 
BRANCH   4   5
ATOM      5  C   UNL     1      61.370  31.105  61.673  1.00  0.00     0.006 C 
BRANCH   5   6
ATOM      6  C   UNL     1      60.700  32.251  60.898  1.00  0.00     0.053 C 
BRANCH   6   7
ATOM      7  C   UNL     1      60.404  31.882  59.479  1.00  0.00     0.041 C 
ATOM      8  O   UNL     1      59.585  30.961  59.221  1.00  0.00    -0.550 OA
ATOM      9  O   UNL     1      61.013  32.574  58.438  1.00  0.00    -0.550 OA
ENDBRANCH   6   7
ENDBRANCH   5   6
ENDBRANCH   4   5
ENDBRANCH   3   4
ENDBRANCH   2   3
ENDBRANCH   1   2
BRANCH   1  10
ATOM     10  C   UNL     1      64.170  34.357  61.331  1.00  0.00     0.027 C 
BRANCH  10  11
ATOM     11  C   UNL     1      63.340  35.613  61.374  1.00  0.00    -0.031 C 
ATOM     12  C   UNL     1      62.113  35.667  60.835  1.00  0.00    -0.031 C 
BRANCH  12  13
ATOM     13  C   UNL     1      61.308  36.938  60.835  1.00  0.00     0.027 C 
BRANCH  13  14
ATOM     14  C   UNL     1      59.954  36.738  60.137  1.00  0.00     0.004 C 
BRANCH  14  15
ATOM     15  C   UNL     1      60.068  35.931  58.831  1.00  0.00     0.000 C 
BRANCH  15  16
ATOM     16  C   UNL     1      60.774  36.660  57.675  1.00  0.00    -0.000 C 
BRANCH  16  17
ATOM     17  C   UNL     1      61.918  35.842  57.060  1.00  0.00    -0.003 C 
ATOM     18  C   UNL     1      63.277  36.411  57.456  1.00  0.00     0.004 C 
ENDBRANCH  16  17
ENDBRANCH  15  16
ENDBRANCH  14  15
ENDBRANCH  13  14
ENDBRANCH  12  13
ENDBRANCH  10  11
ENDBRANCH   1  10
TORSDOF 13
ENDMDL
MODEL 8
REMARK VINA RESULT:    -3.218      2.121      3.830
REMARK INTER + INTRA:          -7.558
REMARK INTER:                  -5.497
REMARK INTRA:                  -2.061
REMARK UNBOUND:                -1.895
REMARK SMILES CCCCCCC=CCCCCCCCC(=O)[O-]
REMARK SMILES IDX 10 1 11 2 12 3 13 4 14 5 15 6 16 7 17 8 18 9 9 10 8 11 7 12
REMARK SMILES IDX 6 13 5 14 4 15 3 16 2 17 1 18
REMARK H PARENT
REMARK Flexibility Score: inf
ROOT
ATOM      1  C   UNL     1      59.706  31.972  58.709  1.00  0.00     0.004 C 
ENDROOT
BRANCH   1   2
ATOM      2  C   UNL     1      60.302  30.572  58.937  1.00  0.00     0.000 C 
BRANCH   2   3
ATOM      3  C   UNL     1      60.158  30.096  60.391  1.00  0.00     0.000 C 
BRANCH   3   4
ATOM      4  C   UNL     1      60.928  30.983  61.385  1.00  0.00     0.000 C 
BRANCH   4   5
ATOM      5  C   UNL     1      62.095  30.233  62.061  1.00  0.00     0.006 C 
BRANCH   5   6
ATOM      6  C   UNL     1      63.405  30.282  61.256  1.00  0.00     0.053 C 
BRANCH   6   7
ATOM      7  C   UNL     1      63.881  28.920  60.860  1.00  0.00     0.041 C 
ATOM      8  O   UNL     1      64.934  28.789  60.182  1.00  0.00    -0.550 OA
ATOM      9  O   UNL     1      63.176  27.792  61.262  1.00  0.00    -0.550 OA
ENDBRANCH   6   7
ENDBRANCH   5   6
ENDBRANCH   4   5
ENDBRANCH   3   4
ENDBRANCH   2   3
ENDBRANCH   1   2
BRANCH   1  10
ATOM     10  C   UNL     1      60.673  32.895  57.957  1.00  0.00     0.027 C 
BRANCH  10  11
ATOM     11  C   UNL     1      61.747  33.429  58.867  1.00  0.00    -0.031 C 
ATOM     12  C   UNL     1      63.040  33.118  58.690  1.00  0.00    -0.031 C 
BRANCH  12  13
ATOM     13  C   UNL     1      64.104  33.613  59.632  1.00  0.00     0.027 C 
BRANCH  13  14
ATOM     14  C   UNL     1      63.507  33.987  60.997  1.00  0.00     0.004 C 
BRANCH  14  15
ATOM     15  C   UNL     1      64.190  35.211  61.633  1.00  0.00     0.000 C 
BRANCH  15  16
ATOM     16  C   UNL     1      63.472  36.551  61.401  1.00  0.00    -0.000 C 
BRANCH  16  17
ATOM     17  C   UNL     1      61.981  36.383  61.075  1.00  0.00    -0.003 C 
ATOM     18  C   UNL     1      61.626  37.058  59.753  1.00  0.00     0.004 C 
ENDBRANCH  16  17
ENDBRANCH  15  16
ENDBRANCH  14  15
ENDBRANCH  13  14
ENDBRANCH  12  13
ENDBRANCH  10  11
ENDBRANCH   1  10
TORSDOF 13
ENDMDL
MODEL 9
REMARK VINA RESULT:    -3.163      1.918      3.039
REMARK INTER + INTRA:          -7.462
REMARK INTER:                  -5.511
REMARK INTRA:                  -1.951
REMARK UNBOUND:                -1.895
REMARK SMILES CCCCCCC=CCCCCCCCC(=O)[O-]
REMARK SMILES IDX 10 1 11 2 12 3 13 4 14 5 15 6 16 7 17 8 18 9 9 10 8 11 7 12
REMARK SMILES IDX 6 13 5 14 4 15 3 16 2 17 1 18
REMARK H PARENT
REMARK Flexibility Score: inf
ROOT
ATOM      1  C   UNL     1      60.871  32.362  59.326  1.00  0.00     0.004 C 
ENDROOT
BRANCH   1   2
ATOM      2  C   UNL     1      60.941  32.350  60.863  1.00  0.00     0.000 C 
BRANCH   2   3
ATOM      3  C   UNL     1      61.426  31.003  61.423  1.00  0.00     0.000 C 
BRANCH   3   4
ATOM      4  C   UNL     1      62.957  30.860  61.383  1.00  0.00     0.000 C 
BRANCH   4   5
ATOM      5  C   UNL     1      63.409  29.386  61.327  1.00  0.00     0.006 C 
BRANCH   5   6
ATOM      6  C   UNL     1      64.904  29.214  61.011  1.00  0.00     0.053 C 
BRANCH   6   7
ATOM      7  C   UNL     1      65.250  29.669  59.629  1.00  0.00     0.041 C 
ATOM      8  O   UNL     1      65.829  30.774  59.451  1.00  0.00    -0.550 OA
ATOM      9  O   UNL     1      64.956  28.862  58.536  1.00  0.00    -0.550 OA
ENDBRANCH   6   7
ENDBRANCH   5   6
ENDBRANCH   4   5
ENDBRANCH   3   4
ENDBRANCH   2   3
ENDBRANCH   1   2
BRANCH   1  10
ATOM     10  C   UNL     1      60.364  33.703  58.783  1.00  0.00     0.027 C 
BRANCH  10  11
ATOM     11  C   UNL     1      60.755  34.847  59.680  1.00  0.00    -0.031 C 
ATOM     12  C   UNL     1      61.221  36.004  59.187  1.00  0.00    -0.031 C 
BRANCH  12  13
ATOM     13  C   UNL     1      61.658  37.125  60.090  1.00  0.00     0.027 C 
BRANCH  13  14
ATOM     14  C   UNL     1      62.326  36.584  61.363  1.00  0.00     0.004 C 
BRANCH  14  15
ATOM     15  C   UNL     1      63.795  36.178  61.142  1.00  0.00     0.000 C 
BRANCH  15  16
ATOM     16  C   UNL     1      64.092  34.681  61.335  1.00  0.00    -0.000 C 
BRANCH  16  17
ATOM     17  C   UNL     1      64.255  33.926  60.009  1.00  0.00    -0.003 C 
ATOM     18  C   UNL     1      64.640  34.876  58.878  1.00  0.00     0.004 C 
ENDBRANCH  16  17
ENDBRANCH  15  16
ENDBRANCH  14  15
ENDBRANCH  13  14
ENDBRANCH  12  13
ENDBRANCH  10  11
ENDBRANCH   1  10
TORSDOF 13
ENDMDL
