MODEL 1
REMARK VINA RESULT:    -5.638      0.000      0.000
REMARK INTER + INTRA:          -6.825
REMARK INTER:                  -6.791
REMARK INTRA:                  -0.034
REMARK UNBOUND:                -0.034
REMARK SMILES O=c1c(O)c(-c2ccc(O)c(O)c2)oc2cc(O)cc(O)c12
REMARK SMILES IDX 5 1 3 2 2 3 1 4 22 5 20 6 19 7 17 8 16 9 15 10 14 11 6 12
REMARK SMILES IDX 7 13 8 14 9 15 13 16 11 17 10 18 12 20 4 22 21 24 18 26
REMARK H PARENT 10 19 12 21 4 23 21 25 18 27
REMARK Flexibility Score: inf
ROOT
ATOM      1  C   UNL     1      14.077 -17.159  20.088  1.00  0.00     0.180 A 
ATOM      2  C   UNL     1      14.923 -17.873  20.958  1.00  0.00     0.208 A 
ATOM      3  C   UNL     1      16.176 -17.329  21.284  1.00  0.00     0.238 A 
ATOM      4  O   UNL     1      16.946 -17.965  22.053  1.00  0.00    -0.285 OA
ATOM      5  C   UNL     1      16.553 -16.079  20.751  1.00  0.00     0.111 A 
ATOM      6  C   UNL     1      17.796 -15.462  21.032  1.00  0.00     0.134 A 
ATOM      7  C   UNL     1      18.094 -14.211  20.470  1.00  0.00     0.093 A 
ATOM      8  C   UNL     1      17.173 -13.567  19.636  1.00  0.00     0.123 A 
ATOM      9  C   UNL     1      15.947 -14.173  19.356  1.00  0.00     0.094 A 
ATOM     10  C   UNL     1      15.632 -15.419  19.904  1.00  0.00     0.146 A 
ATOM     11  O   UNL     1      14.460 -15.975  19.616  1.00  0.00    -0.452 OA
ENDROOT
BRANCH   1  12
ATOM     12  C   UNL     1      12.749 -17.673  19.683  1.00  0.00     0.025 A 
ATOM     13  C   UNL     1      11.795 -18.064  20.637  1.00  0.00     0.016 A 
ATOM     14  C   UNL     1      10.558 -18.569  20.231  1.00  0.00     0.051 A 
ATOM     15  C   UNL     1      10.253 -18.705  18.873  1.00  0.00     0.157 A 
ATOM     16  C   UNL     1      12.454 -17.830  18.321  1.00  0.00     0.062 A 
ATOM     17  C   UNL     1      11.216 -18.335  17.904  1.00  0.00     0.158 A 
BRANCH  15  18
ATOM     18  O   UNL     1       8.996 -19.212  18.534  1.00  0.00    -0.504 OA
ATOM     19  H   UNL     1       8.458 -18.900  17.739  1.00  0.00     0.293 HD
ENDBRANCH  15  18
BRANCH  17  20
ATOM     20  O   UNL     1      10.986 -18.452  16.532  1.00  0.00    -0.504 OA
ATOM     21  H   UNL     1      11.142 -19.297  16.003  1.00  0.00     0.293 HD
ENDBRANCH  17  20
ENDBRANCH   1  12
BRANCH   2  22
ATOM     22  O   UNL     1      14.505 -19.086  21.511  1.00  0.00    -0.502 OA
ATOM     23  H   UNL     1      14.214 -19.871  20.940  1.00  0.00     0.293 HD
ENDBRANCH   2  22
BRANCH   6  24
ATOM     24  O   UNL     1      18.733 -16.079  21.861  1.00  0.00    -0.507 OA
ATOM     25  H   UNL     1      19.523 -15.571  22.242  1.00  0.00     0.293 HD
ENDBRANCH   6  24
BRANCH   8  26
ATOM     26  O   UNL     1      17.468 -12.325  19.078  1.00  0.00    -0.508 OA
ATOM     27  H   UNL     1      17.637 -11.512  19.657  1.00  0.00     0.293 HD
ENDBRANCH   8  26
TORSDOF 6
ENDMDL
MODEL 2
REMARK VINA RESULT:    -5.414     12.888     16.053
REMARK INTER + INTRA:          -6.555
REMARK INTER:                  -6.447
REMARK INTRA:                  -0.108
REMARK UNBOUND:                -0.034
REMARK SMILES O=c1c(O)c(-c2ccc(O)c(O)c2)oc2cc(O)cc(O)c12
REMARK SMILES IDX 5 1 3 2 2 3 1 4 22 5 20 6 19 7 17 8 16 9 15 10 14 11 6 12
REMARK SMILES IDX 7 13 8 14 9 15 13 16 11 17 10 18 12 20 4 22 21 24 18 26
REMARK H PARENT 10 19 12 21 4 23 21 25 18 27
REMARK Flexibility Score: inf
ROOT
ATOM      1  C   UNL     1      15.829  -7.065   8.179  1.00  0.00     0.180 A 
ATOM      2  C   UNL     1      15.012  -8.069   7.624  1.00  0.00     0.208 A 
ATOM      3  C   UNL     1      14.447  -9.032   8.475  1.00  0.00     0.238 A 
ATOM      4  O   UNL     1      13.723  -9.942   7.987  1.00  0.00    -0.285 OA
ATOM      5  C   UNL     1      14.691  -8.965   9.862  1.00  0.00     0.111 A 
ATOM      6  C   UNL     1      14.157  -9.894  10.787  1.00  0.00     0.134 A 
ATOM      7  C   UNL     1      14.438  -9.753  12.155  1.00  0.00     0.093 A 
ATOM      8  C   UNL     1      15.241  -8.702  12.613  1.00  0.00     0.123 A 
ATOM      9  C   UNL     1      15.771  -7.785  11.704  1.00  0.00     0.094 A 
ATOM     10  C   UNL     1      15.503  -7.909  10.338  1.00  0.00     0.146 A 
ATOM     11  O   UNL     1      16.024  -7.024   9.494  1.00  0.00    -0.452 OA
ENDROOT
BRANCH   1  12
ATOM     12  C   UNL     1      16.475  -6.025   7.346  1.00  0.00     0.025 A 
ATOM     13  C   UNL     1      15.717  -5.152   6.549  1.00  0.00     0.016 A 
ATOM     14  C   UNL     1      16.349  -4.196   5.753  1.00  0.00     0.051 A 
ATOM     15  C   UNL     1      17.744  -4.098   5.725  1.00  0.00     0.157 A 
ATOM     16  C   UNL     1      17.875  -5.945   7.302  1.00  0.00     0.062 A 
ATOM     17  C   UNL     1      18.519  -4.989   6.507  1.00  0.00     0.158 A 
BRANCH  15  18
ATOM     18  O   UNL     1      18.314  -3.116   4.912  1.00  0.00    -0.504 OA
ATOM     19  H   UNL     1      17.977  -2.883   3.989  1.00  0.00     0.293 HD
ENDBRANCH  15  18
BRANCH  17  20
ATOM     20  O   UNL     1      19.914  -4.959   6.523  1.00  0.00    -0.504 OA
ATOM     21  H   UNL     1      20.463  -4.122   6.391  1.00  0.00     0.293 HD
ENDBRANCH  17  20
ENDBRANCH   1  12
BRANCH   2  22
ATOM     22  O   UNL     1      14.746  -8.084   6.252  1.00  0.00    -0.502 OA
ATOM     23  H   UNL     1      14.188  -7.370   5.799  1.00  0.00     0.293 HD
ENDBRANCH   2  22
BRANCH   6  24
ATOM     24  O   UNL     1      13.351 -10.950  10.361  1.00  0.00    -0.507 OA
ATOM     25  H   UNL     1      13.709 -11.895  10.283  1.00  0.00     0.293 HD
ENDBRANCH   6  24
BRANCH   8  26
ATOM     26  O   UNL     1      15.520  -8.562  13.971  1.00  0.00    -0.508 OA
ATOM     27  H   UNL     1      16.201  -7.891  14.305  1.00  0.00     0.293 HD
ENDBRANCH   8  26
TORSDOF 6
ENDMDL
MODEL 3
REMARK VINA RESULT:    -5.398     12.971     15.844
REMARK INTER + INTRA:          -6.536
REMARK INTER:                  -6.203
REMARK INTRA:                  -0.333
REMARK UNBOUND:                -0.034
REMARK SMILES O=c1c(O)c(-c2ccc(O)c(O)c2)oc2cc(O)cc(O)c12
REMARK SMILES IDX 5 1 3 2 2 3 1 4 22 5 20 6 19 7 17 8 16 9 15 10 14 11 6 12
REMARK SMILES IDX 7 13 8 14 9 15 13 16 11 17 10 18 12 20 4 22 21 24 18 26
REMARK H PARENT 10 19 12 21 4 23 21 25 18 27
REMARK Flexibility Score: inf
ROOT
ATOM      1  C   UNL     1      15.170  -6.643   9.400  1.00  0.00     0.180 A 
ATOM      2  C   UNL     1      13.999  -6.744   8.625  1.00  0.00     0.208 A 
ATOM      3  C   UNL     1      14.090  -6.578   7.234  1.00  0.00     0.238 A 
ATOM      4  O   UNL     1      13.046  -6.654   6.531  1.00  0.00    -0.285 OA
ATOM      5  C   UNL     1      15.347  -6.335   6.641  1.00  0.00     0.111 A 
ATOM      6  C   UNL     1      15.525  -6.160   5.248  1.00  0.00     0.134 A 
ATOM      7  C   UNL     1      16.810  -5.931   4.734  1.00  0.00     0.093 A 
ATOM      8  C   UNL     1      17.919  -5.876   5.587  1.00  0.00     0.123 A 
ATOM      9  C   UNL     1      17.747  -6.047   6.961  1.00  0.00     0.094 A 
ATOM     10  C   UNL     1      16.475  -6.274   7.493  1.00  0.00     0.146 A 
ATOM     11  O   UNL     1      16.341  -6.428   8.806  1.00  0.00    -0.452 OA
ENDROOT
BRANCH   1  12
ATOM     12  C   UNL     1      15.154  -6.788  10.874  1.00  0.00     0.025 A 
ATOM     13  C   UNL     1      14.893  -5.693  11.713  1.00  0.00     0.016 A 
ATOM     14  C   UNL     1      14.907  -5.848  13.100  1.00  0.00     0.051 A 
ATOM     15  C   UNL     1      15.191  -7.090  13.677  1.00  0.00     0.157 A 
ATOM     16  C   UNL     1      15.462  -8.029  11.450  1.00  0.00     0.062 A 
ATOM     17  C   UNL     1      15.478  -8.196  12.841  1.00  0.00     0.158 A 
BRANCH  15  18
ATOM     18  O   UNL     1      15.184  -7.179  15.071  1.00  0.00    -0.504 OA
ATOM     19  H   UNL     1      15.750  -7.829  15.598  1.00  0.00     0.293 HD
ENDBRANCH  15  18
BRANCH  17  20
ATOM     20  O   UNL     1      15.780  -9.462  13.344  1.00  0.00    -0.504 OA
ATOM     21  H   UNL     1      15.259  -9.917  14.079  1.00  0.00     0.293 HD
ENDBRANCH  17  20
ENDBRANCH   1  12
BRANCH   2  22
ATOM     22  O   UNL     1      12.774  -7.034   9.231  1.00  0.00    -0.502 OA
ATOM     23  H   UNL     1      12.204  -7.823   8.952  1.00  0.00     0.293 HD
ENDBRANCH   2  22
BRANCH   6  24
ATOM     24  O   UNL     1      14.439  -6.212   4.373  1.00  0.00    -0.507 OA
ATOM     25  H   UNL     1      14.559  -6.406   3.386  1.00  0.00     0.293 HD
ENDBRANCH   6  24
BRANCH   8  26
ATOM     26  O   UNL     1      19.195  -5.649   5.077  1.00  0.00    -0.508 OA
ATOM     27  H   UNL     1      19.338  -5.134   4.217  1.00  0.00     0.293 HD
ENDBRANCH   8  26
TORSDOF 6
ENDMDL
MODEL 4
REMARK VINA RESULT:    -5.387      9.069     11.177
REMARK INTER + INTRA:          -6.523
REMARK INTER:                  -6.195
REMARK INTRA:                  -0.328
REMARK UNBOUND:                -0.034
REMARK SMILES O=c1c(O)c(-c2ccc(O)c(O)c2)oc2cc(O)cc(O)c12
REMARK SMILES IDX 5 1 3 2 2 3 1 4 22 5 20 6 19 7 17 8 16 9 15 10 14 11 6 12
REMARK SMILES IDX 7 13 8 14 9 15 13 16 11 17 10 18 12 20 4 22 21 24 18 26
REMARK H PARENT 10 19 12 21 4 23 21 25 18 27
REMARK Flexibility Score: inf
ROOT
ATOM      1  C   UNL     1      14.346 -10.926  11.324  1.00  0.00     0.180 A 
ATOM      2  C   UNL     1      14.444 -10.396  10.023  1.00  0.00     0.208 A 
ATOM      3  C   UNL     1      14.748  -9.035   9.866  1.00  0.00     0.238 A 
ATOM      4  O   UNL     1      14.827  -8.547   8.706  1.00  0.00    -0.285 OA
ATOM      5  C   UNL     1      14.966  -8.233  11.005  1.00  0.00     0.111 A 
ATOM      6  C   UNL     1      15.280  -6.854  10.933  1.00  0.00     0.134 A 
ATOM      7  C   UNL     1      15.492  -6.127  12.114  1.00  0.00     0.093 A 
ATOM      8  C   UNL     1      15.398  -6.752  13.363  1.00  0.00     0.123 A 
ATOM      9  C   UNL     1      15.088  -8.111  13.438  1.00  0.00     0.094 A 
ATOM     10  C   UNL     1      14.871  -8.853  12.274  1.00  0.00     0.146 A 
ATOM     11  O   UNL     1      14.573 -10.143  12.376  1.00  0.00    -0.452 OA
ENDROOT
BRANCH   1  12
ATOM     12  C   UNL     1      14.012 -12.347  11.572  1.00  0.00     0.025 A 
ATOM     13  C   UNL     1      12.680 -12.791  11.599  1.00  0.00     0.016 A 
ATOM     14  C   UNL     1      12.389 -14.131  11.859  1.00  0.00     0.051 A 
ATOM     15  C   UNL     1      13.413 -15.049  12.109  1.00  0.00     0.157 A 
ATOM     16  C   UNL     1      15.040 -13.261  11.846  1.00  0.00     0.062 A 
ATOM     17  C   UNL     1      14.758 -14.608  12.107  1.00  0.00     0.158 A 
BRANCH  15  18
ATOM     18  O   UNL     1      13.054 -16.376  12.357  1.00  0.00    -0.504 OA
ATOM     19  H   UNL     1      12.116 -16.736  12.255  1.00  0.00     0.293 HD
ENDBRANCH  15  18
BRANCH  17  20
ATOM     20  O   UNL     1      15.832 -15.464  12.357  1.00  0.00    -0.504 OA
ATOM     21  H   UNL     1      16.467 -15.361  13.135  1.00  0.00     0.293 HD
ENDBRANCH  17  20
ENDBRANCH   1  12
BRANCH   2  22
ATOM     22  O   UNL     1      14.272 -11.223   8.909  1.00  0.00    -0.502 OA
ATOM     23  H   UNL     1      13.365 -11.378   8.484  1.00  0.00     0.293 HD
ENDBRANCH   2  22
BRANCH   6  24
ATOM     24  O   UNL     1      15.382  -6.204   9.703  1.00  0.00    -0.507 OA
ATOM     25  H   UNL     1      16.077  -6.471   9.016  1.00  0.00     0.293 HD
ENDBRANCH   6  24
BRANCH   8  26
ATOM     26  O   UNL     1      15.610  -6.030  14.536  1.00  0.00    -0.508 OA
ATOM     27  H   UNL     1      16.499  -6.056  15.020  1.00  0.00     0.293 HD
ENDBRANCH   8  26
TORSDOF 6
ENDMDL
MODEL 5
REMARK VINA RESULT:    -5.090      9.413     12.463
REMARK INTER + INTRA:          -6.165
REMARK INTER:                  -5.878
REMARK INTRA:                  -0.287
REMARK UNBOUND:                -0.034
REMARK SMILES O=c1c(O)c(-c2ccc(O)c(O)c2)oc2cc(O)cc(O)c12
REMARK SMILES IDX 5 1 3 2 2 3 1 4 22 5 20 6 19 7 17 8 16 9 15 10 14 11 6 12
REMARK SMILES IDX 7 13 8 14 9 15 13 16 11 17 10 18 12 20 4 22 21 24 18 26
REMARK H PARENT 10 19 12 21 4 23 21 25 18 27
REMARK Flexibility Score: inf
ROOT
ATOM      1  C   UNL     1      25.255 -12.965  17.882  1.00  0.00     0.180 A 
ATOM      2  C   UNL     1      25.873 -12.172  18.868  1.00  0.00     0.208 A 
ATOM      3  C   UNL     1      26.395 -10.921  18.503  1.00  0.00     0.238 A 
ATOM      4  O   UNL     1      26.961 -10.207  19.375  1.00  0.00    -0.285 OA
ATOM      5  C   UNL     1      26.275 -10.477  17.170  1.00  0.00     0.111 A 
ATOM      6  C   UNL     1      26.771  -9.229  16.722  1.00  0.00     0.134 A 
ATOM      7  C   UNL     1      26.604  -8.856  15.380  1.00  0.00     0.093 A 
ATOM      8  C   UNL     1      25.949  -9.704  14.480  1.00  0.00     0.123 A 
ATOM      9  C   UNL     1      25.459 -10.936  14.917  1.00  0.00     0.094 A 
ATOM     10  C   UNL     1      25.618 -11.327  16.250  1.00  0.00     0.146 A 
ATOM     11  O   UNL     1      25.146 -12.507  16.637  1.00  0.00    -0.452 OA
ENDROOT
BRANCH   1  12
ATOM     12  C   UNL     1      24.695 -14.302  18.184  1.00  0.00     0.025 A 
ATOM     13  C   UNL     1      23.450 -14.448  18.817  1.00  0.00     0.016 A 
ATOM     14  C   UNL     1      22.955 -15.719  19.113  1.00  0.00     0.051 A 
ATOM     15  C   UNL     1      23.692 -16.865  18.798  1.00  0.00     0.157 A 
ATOM     16  C   UNL     1      25.448 -15.449  17.888  1.00  0.00     0.062 A 
ATOM     17  C   UNL     1      24.959 -16.728  18.181  1.00  0.00     0.158 A 
BRANCH  15  18
ATOM     18  O   UNL     1      23.137 -18.106  19.117  1.00  0.00    -0.504 OA
ATOM     19  H   UNL     1      22.196 -18.232  19.460  1.00  0.00     0.293 HD
ENDBRANCH  15  18
BRANCH  17  20
ATOM     20  O   UNL     1      25.756 -17.825  17.846  1.00  0.00    -0.504 OA
ATOM     21  H   UNL     1      25.481 -18.786  17.983  1.00  0.00     0.293 HD
ENDBRANCH  17  20
ENDBRANCH   1  12
BRANCH   2  22
ATOM     22  O   UNL     1      25.935 -12.614  20.192  1.00  0.00    -0.502 OA
ATOM     23  H   UNL     1      25.517 -12.097  20.957  1.00  0.00     0.293 HD
ENDBRANCH   2  22
BRANCH   6  24
ATOM     24  O   UNL     1      27.426  -8.361  17.595  1.00  0.00    -0.507 OA
ATOM     25  H   UNL     1      26.964  -7.976  18.410  1.00  0.00     0.293 HD
ENDBRANCH   6  24
BRANCH   8  26
ATOM     26  O   UNL     1      25.782  -9.333  13.148  1.00  0.00    -0.508 OA
ATOM     27  H   UNL     1      26.575  -9.175  12.538  1.00  0.00     0.293 HD
ENDBRANCH   8  26
TORSDOF 6
ENDMDL
MODEL 6
REMARK VINA RESULT:    -5.030      2.005      6.981
REMARK INTER + INTRA:          -6.094
REMARK INTER:                  -5.823
REMARK INTRA:                  -0.271
REMARK UNBOUND:                -0.034
REMARK SMILES O=c1c(O)c(-c2ccc(O)c(O)c2)oc2cc(O)cc(O)c12
REMARK SMILES IDX 5 1 3 2 2 3 1 4 22 5 20 6 19 7 17 8 16 9 15 10 14 11 6 12
REMARK SMILES IDX 7 13 8 14 9 15 13 16 11 17 10 18 12 20 4 22 21 24 18 26
REMARK H PARENT 10 19 12 21 4 23 21 25 18 27
REMARK Flexibility Score: inf
ROOT
ATOM      1  C   UNL     1      15.852 -14.200  19.905  1.00  0.00     0.180 A 
ATOM      2  C   UNL     1      15.825 -14.621  21.249  1.00  0.00     0.208 A 
ATOM      3  C   UNL     1      15.014 -15.710  21.602  1.00  0.00     0.238 A 
ATOM      4  O   UNL     1      14.973 -16.088  22.805  1.00  0.00    -0.285 OA
ATOM      5  C   UNL     1      14.260 -16.370  20.609  1.00  0.00     0.111 A 
ATOM      6  C   UNL     1      13.421 -17.476  20.882  1.00  0.00     0.134 A 
ATOM      7  C   UNL     1      12.710 -18.085  19.837  1.00  0.00     0.093 A 
ATOM      8  C   UNL     1      12.825 -17.609  18.526  1.00  0.00     0.123 A 
ATOM      9  C   UNL     1      13.651 -16.517  18.252  1.00  0.00     0.094 A 
ATOM     10  C   UNL     1      14.365 -15.896  19.280  1.00  0.00     0.146 A 
ATOM     11  O   UNL     1      15.140 -14.856  18.992  1.00  0.00    -0.452 OA
ENDROOT
BRANCH   1  12
ATOM     12  C   UNL     1      16.669 -13.049  19.456  1.00  0.00     0.025 A 
ATOM     13  C   UNL     1      18.061 -13.156  19.303  1.00  0.00     0.016 A 
ATOM     14  C   UNL     1      18.813 -12.051  18.902  1.00  0.00     0.051 A 
ATOM     15  C   UNL     1      18.197 -10.818  18.659  1.00  0.00     0.157 A 
ATOM     16  C   UNL     1      16.052 -11.808  19.236  1.00  0.00     0.062 A 
ATOM     17  C   UNL     1      16.798 -10.693  18.834  1.00  0.00     0.158 A 
BRANCH  15  18
ATOM     18  O   UNL     1      19.007  -9.753  18.256  1.00  0.00    -0.504 OA
ATOM     19  H   UNL     1      18.738  -9.073  17.560  1.00  0.00     0.293 HD
ENDBRANCH  15  18
BRANCH  17  20
ATOM     20  O   UNL     1      16.117  -9.494  18.620  1.00  0.00    -0.504 OA
ATOM     21  H   UNL     1      16.172  -8.695  19.234  1.00  0.00     0.293 HD
ENDBRANCH  17  20
ENDBRANCH   1  12
BRANCH   2  22
ATOM     22  O   UNL     1      16.619 -13.980  22.205  1.00  0.00    -0.502 OA
ATOM     23  H   UNL     1      16.654 -12.972  22.293  1.00  0.00     0.293 HD
ENDBRANCH   2  22
BRANCH   6  24
ATOM     24  O   UNL     1      13.288 -17.974  22.179  1.00  0.00    -0.507 OA
ATOM     25  H   UNL     1      13.742 -18.832  22.469  1.00  0.00     0.293 HD
ENDBRANCH   6  24
BRANCH   8  26
ATOM     26  O   UNL     1      12.120 -18.213  17.487  1.00  0.00    -0.508 OA
ATOM     27  H   UNL     1      11.276 -17.800  17.109  1.00  0.00     0.293 HD
ENDBRANCH   8  26
TORSDOF 6
ENDMDL
MODEL 7
REMARK VINA RESULT:    -4.989      3.059      5.604
REMARK INTER + INTRA:          -6.044
REMARK INTER:                  -5.794
REMARK INTRA:                  -0.250
REMARK UNBOUND:                -0.034
REMARK SMILES O=c1c(O)c(-c2ccc(O)c(O)c2)oc2cc(O)cc(O)c12
REMARK SMILES IDX 5 1 3 2 2 3 1 4 22 5 20 6 19 7 17 8 16 9 15 10 14 11 6 12
REMARK SMILES IDX 7 13 8 14 9 15 13 16 11 17 10 18 12 20 4 22 21 24 18 26
REMARK H PARENT 10 19 12 21 4 23 21 25 18 27
REMARK Flexibility Score: inf
ROOT
ATOM      1  C   UNL     1      17.440 -13.836  19.730  1.00  0.00     0.180 A 
ATOM      2  C   UNL     1      18.789 -13.640  20.081  1.00  0.00     0.208 A 
ATOM      3  C   UNL     1      19.374 -12.384  19.851  1.00  0.00     0.238 A 
ATOM      4  O   UNL     1      20.585 -12.201  20.151  1.00  0.00    -0.285 OA
ATOM      5  C   UNL     1      18.600 -11.345  19.295  1.00  0.00     0.111 A 
ATOM      6  C   UNL     1      19.112 -10.052  19.036  1.00  0.00     0.134 A 
ATOM      7  C   UNL     1      18.274  -9.068  18.489  1.00  0.00     0.093 A 
ATOM      8  C   UNL     1      16.935  -9.354  18.200  1.00  0.00     0.123 A 
ATOM      9  C   UNL     1      16.426 -10.628  18.453  1.00  0.00     0.094 A 
ATOM     10  C   UNL     1      17.245 -11.622  18.996  1.00  0.00     0.146 A 
ATOM     11  O   UNL     1      16.735 -12.828  19.222  1.00  0.00    -0.452 OA
ENDROOT
BRANCH   1  12
ATOM     12  C   UNL     1      16.757 -15.135  19.925  1.00  0.00     0.025 A 
ATOM     13  C   UNL     1      16.428 -15.959  18.836  1.00  0.00     0.016 A 
ATOM     14  C   UNL     1      15.763 -17.168  19.042  1.00  0.00     0.051 A 
ATOM     15  C   UNL     1      15.401 -17.574  20.330  1.00  0.00     0.157 A 
ATOM     16  C   UNL     1      16.374 -15.529  21.216  1.00  0.00     0.062 A 
ATOM     17  C   UNL     1      15.706 -16.741  21.433  1.00  0.00     0.158 A 
BRANCH  15  18
ATOM     18  O   UNL     1      14.741 -18.798  20.468  1.00  0.00    -0.504 OA
ATOM     19  H   UNL     1      13.763 -18.888  20.702  1.00  0.00     0.293 HD
ENDBRANCH  15  18
BRANCH  17  20
ATOM     20  O   UNL     1      15.369 -17.074  22.746  1.00  0.00    -0.504 OA
ATOM     21  H   UNL     1      15.888 -17.727  23.314  1.00  0.00     0.293 HD
ENDBRANCH  17  20
ENDBRANCH   1  12
BRANCH   2  22
ATOM     22  O   UNL     1      19.521 -14.671  20.675  1.00  0.00    -0.502 OA
ATOM     23  H   UNL     1      20.059 -15.337  20.134  1.00  0.00     0.293 HD
ENDBRANCH   2  22
BRANCH   6  24
ATOM     24  O   UNL     1      20.442  -9.736  19.316  1.00  0.00    -0.507 OA
ATOM     25  H   UNL     1      21.199 -10.031  18.710  1.00  0.00     0.293 HD
ENDBRANCH   6  24
BRANCH   8  26
ATOM     26  O   UNL     1      16.102  -8.377  17.658  1.00  0.00    -0.508 OA
ATOM     27  H   UNL     1      15.233  -8.115  18.106  1.00  0.00     0.293 HD
ENDBRANCH   8  26
TORSDOF 6
ENDMDL
MODEL 8
REMARK VINA RESULT:    -4.979      1.600      2.916
REMARK INTER + INTRA:          -6.032
REMARK INTER:                  -5.725
REMARK INTRA:                  -0.307
REMARK UNBOUND:                -0.034
REMARK SMILES O=c1c(O)c(-c2ccc(O)c(O)c2)oc2cc(O)cc(O)c12
REMARK SMILES IDX 5 1 3 2 2 3 1 4 22 5 20 6 19 7 17 8 16 9 15 10 14 11 6 12
REMARK SMILES IDX 7 13 8 14 9 15 13 16 11 17 10 18 12 20 4 22 21 24 18 26
REMARK H PARENT 10 19 12 21 4 23 21 25 18 27
REMARK Flexibility Score: inf
ROOT
ATOM      1  C   UNL     1      13.526 -16.887  20.414  1.00  0.00     0.180 A 
ATOM      2  C   UNL     1      13.607 -15.488  20.552  1.00  0.00     0.208 A 
ATOM      3  C   UNL     1      14.771 -14.927  21.101  1.00  0.00     0.238 A 
ATOM      4  O   UNL     1      14.850 -13.676  21.239  1.00  0.00    -0.285 OA
ATOM      5  C   UNL     1      15.837 -15.767  21.483  1.00  0.00     0.111 A 
ATOM      6  C   UNL     1      17.044 -15.281  22.040  1.00  0.00     0.134 A 
ATOM      7  C   UNL     1      18.062 -16.182  22.386  1.00  0.00     0.093 A 
ATOM      8  C   UNL     1      17.897 -17.557  22.184  1.00  0.00     0.123 A 
ATOM      9  C   UNL     1      16.707 -18.040  21.637  1.00  0.00     0.094 A 
ATOM     10  C   UNL     1      15.680 -17.160  21.287  1.00  0.00     0.146 A 
ATOM     11  O   UNL     1      14.557 -17.648  20.772  1.00  0.00    -0.452 OA
ENDROOT
BRANCH   1  12
ATOM     12  C   UNL     1      12.326 -17.555  19.862  1.00  0.00     0.025 A 
ATOM     13  C   UNL     1      11.361 -18.136  20.701  1.00  0.00     0.016 A 
ATOM     14  C   UNL     1      10.249 -18.782  20.156  1.00  0.00     0.051 A 
ATOM     15  C   UNL     1      10.084 -18.873  18.770  1.00  0.00     0.157 A 
ATOM     16  C   UNL     1      12.174 -17.666  18.471  1.00  0.00     0.062 A 
ATOM     17  C   UNL     1      11.063 -18.312  17.915  1.00  0.00     0.158 A 
BRANCH  15  18
ATOM     18  O   UNL     1       8.948 -19.528  18.290  1.00  0.00    -0.504 OA
ATOM     19  H   UNL     1       8.009 -19.168  18.380  1.00  0.00     0.293 HD
ENDBRANCH  15  18
BRANCH  17  20
ATOM     20  O   UNL     1      10.971 -18.372  16.523  1.00  0.00    -0.504 OA
ATOM     21  H   UNL     1      10.181 -18.033  15.994  1.00  0.00     0.293 HD
ENDBRANCH  17  20
ENDBRANCH   1  12
BRANCH   2  22
ATOM     22  O   UNL     1      12.556 -14.674  20.120  1.00  0.00    -0.502 OA
ATOM     23  H   UNL     1      12.664 -14.002  19.370  1.00  0.00     0.293 HD
ENDBRANCH   2  22
BRANCH   6  24
ATOM     24  O   UNL     1      17.240 -13.916  22.251  1.00  0.00    -0.507 OA
ATOM     25  H   UNL     1      18.106 -13.554  22.630  1.00  0.00     0.293 HD
ENDBRANCH   6  24
BRANCH   8  26
ATOM     26  O   UNL     1      18.908 -18.452  22.527  1.00  0.00    -0.508 OA
ATOM     27  H   UNL     1      19.598 -18.755  21.851  1.00  0.00     0.293 HD
ENDBRANCH   8  26
TORSDOF 6
ENDMDL
MODEL 9
REMARK VINA RESULT:    -4.973     11.547     14.313
REMARK INTER + INTRA:          -6.025
REMARK INTER:                  -5.732
REMARK INTRA:                  -0.292
REMARK UNBOUND:                -0.034
REMARK SMILES O=c1c(O)c(-c2ccc(O)c(O)c2)oc2cc(O)cc(O)c12
REMARK SMILES IDX 5 1 3 2 2 3 1 4 22 5 20 6 19 7 17 8 16 9 15 10 14 11 6 12
REMARK SMILES IDX 7 13 8 14 9 15 13 16 11 17 10 18 12 20 4 22 21 24 18 26
REMARK H PARENT 10 19 12 21 4 23 21 25 18 27
REMARK Flexibility Score: inf
ROOT
ATOM      1  C   UNL     1      15.153  -6.212  12.589  1.00  0.00     0.180 A 
ATOM      2  C   UNL     1      15.098  -7.544  13.043  1.00  0.00     0.208 A 
ATOM      3  C   UNL     1      14.910  -8.572  12.106  1.00  0.00     0.238 A 
ATOM      4  O   UNL     1      14.848  -9.768  12.502  1.00  0.00    -0.285 OA
ATOM      5  C   UNL     1      14.800  -8.256  10.736  1.00  0.00     0.111 A 
ATOM      6  C   UNL     1      14.613  -9.233   9.729  1.00  0.00     0.134 A 
ATOM      7  C   UNL     1      14.522  -8.839   8.386  1.00  0.00     0.093 A 
ATOM      8  C   UNL     1      14.616  -7.488   8.032  1.00  0.00     0.123 A 
ATOM      9  C   UNL     1      14.799  -6.521   9.022  1.00  0.00     0.094 A 
ATOM     10  C   UNL     1      14.891  -6.894  10.366  1.00  0.00     0.146 A 
ATOM     11  O   UNL     1      15.060  -5.952  11.287  1.00  0.00    -0.452 OA
ENDROOT
BRANCH   1  12
ATOM     12  C   UNL     1      15.331  -5.071  13.516  1.00  0.00     0.025 A 
ATOM     13  C   UNL     1      16.590  -4.483  13.719  1.00  0.00     0.016 A 
ATOM     14  C   UNL     1      16.737  -3.424  14.616  1.00  0.00     0.051 A 
ATOM     15  C   UNL     1      15.640  -2.940  15.336  1.00  0.00     0.157 A 
ATOM     16  C   UNL     1      14.233  -4.603  14.255  1.00  0.00     0.062 A 
ATOM     17  C   UNL     1      14.371  -3.541  15.157  1.00  0.00     0.158 A 
BRANCH  15  18
ATOM     18  O   UNL     1      15.854  -1.875  16.215  1.00  0.00    -0.504 OA
ATOM     19  H   UNL     1      16.267  -0.994  15.943  1.00  0.00     0.293 HD
ENDBRANCH  15  18
BRANCH  17  20
ATOM     20  O   UNL     1      13.233  -3.119  15.847  1.00  0.00    -0.504 OA
ATOM     21  H   UNL     1      12.651  -2.347  15.557  1.00  0.00     0.293 HD
ENDBRANCH  17  20
ENDBRANCH   1  12
BRANCH   2  22
ATOM     22  O   UNL     1      15.259  -7.834  14.400  1.00  0.00    -0.502 OA
ATOM     23  H   UNL     1      15.933  -8.513  14.733  1.00  0.00     0.293 HD
ENDBRANCH   2  22
BRANCH   6  24
ATOM     24  O   UNL     1      14.517 -10.587  10.051  1.00  0.00    -0.507 OA
ATOM     25  H   UNL     1      13.667 -11.114   9.891  1.00  0.00     0.293 HD
ENDBRANCH   6  24
BRANCH   8  26
ATOM     26  O   UNL     1      14.526  -7.096   6.698  1.00  0.00    -0.508 OA
ATOM     27  H   UNL     1      13.633  -6.911   6.259  1.00  0.00     0.293 HD
ENDBRANCH   8  26
TORSDOF 6
ENDMDL
