MODEL 1
REMARK VINA RESULT:    -4.759      0.000      0.000
REMARK INTER + INTRA:          -7.971
REMARK INTER:                  -7.262
REMARK INTRA:                  -0.709
REMARK UNBOUND:                -0.709
REMARK SMILES O=C([O-])CCCCCCCCC(=O)[O-]
REMARK SMILES IDX 7 1 6 2 5 3 4 4 2 5 1 6 3 7 8 8 9 9 10 10 11 11 12 12 13 13
REMARK SMILES IDX 14 14
REMARK H PARENT
REMARK Flexibility Score: inf
ROOT
ATOM      1  C   UNL     1      18.946  19.866  34.175  1.00  0.00     0.000 C 
ENDROOT
BRANCH   1   2
ATOM      2  C   UNL     1      20.250  19.146  34.549  1.00  0.00     0.000 C 
BRANCH   2   3
ATOM      3  C   UNL     1      20.992  19.896  35.662  1.00  0.00     0.006 C 
BRANCH   3   4
ATOM      4  C   UNL     1      20.807  19.199  37.013  1.00  0.00     0.053 C 
BRANCH   4   5
ATOM      5  C   UNL     1      20.240  20.149  38.020  1.00  0.00     0.041 C 
ATOM      6  O   UNL     1      21.003  20.901  38.681  1.00  0.00    -0.550 OA
ATOM      7  O   UNL     1      18.864  20.239  38.193  1.00  0.00    -0.550 OA
ENDBRANCH   4   5
ENDBRANCH   3   4
ENDBRANCH   2   3
ENDBRANCH   1   2
BRANCH   1   8
ATOM      8  C   UNL     1      17.706  19.210  34.803  1.00  0.00     0.000 C 
BRANCH   8   9
ATOM      9  C   UNL     1      17.855  17.689  34.958  1.00  0.00     0.000 C 
BRANCH   9  10
ATOM     10  C   UNL     1      17.376  17.230  36.343  1.00  0.00     0.006 C 
BRANCH  10  11
ATOM     11  C   UNL     1      16.238  16.204  36.255  1.00  0.00     0.053 C 
BRANCH  11  12
ATOM     12  C   UNL     1      15.457  16.131  37.531  1.00  0.00     0.041 C 
ATOM     13  O   UNL     1      15.112  17.187  38.123  1.00  0.00    -0.550 OA
ATOM     14  O   UNL     1      15.138  14.897  38.082  1.00  0.00    -0.550 OA
ENDBRANCH  11  12
ENDBRANCH  10  11
ENDBRANCH   9  10
ENDBRANCH   8   9
ENDBRANCH   1   8
TORSDOF 9
ENDMDL
MODEL 2
REMARK VINA RESULT:    -4.649      0.774      5.321
REMARK INTER + INTRA:          -7.803
REMARK INTER:                  -7.160
REMARK INTRA:                  -0.644
REMARK UNBOUND:                -0.709
REMARK SMILES O=C([O-])CCCCCCCCC(=O)[O-]
REMARK SMILES IDX 7 1 6 2 5 3 4 4 2 5 1 6 3 7 8 8 9 9 10 10 11 11 12 12 13 13
REMARK SMILES IDX 14 14
REMARK H PARENT
REMARK Flexibility Score: inf
ROOT
ATOM      1  C   UNL     1      18.884  17.042  34.416  1.00  0.00     0.000 C 
ENDROOT
BRANCH   1   2
ATOM      2  C   UNL     1      17.549  17.603  34.932  1.00  0.00     0.000 C 
BRANCH   2   3
ATOM      3  C   UNL     1      17.378  17.322  36.429  1.00  0.00     0.006 C 
BRANCH   3   4
ATOM      4  C   UNL     1      16.907  15.885  36.669  1.00  0.00     0.053 C 
BRANCH   4   5
ATOM      5  C   UNL     1      15.544  15.876  37.285  1.00  0.00     0.041 C 
ATOM      6  O   UNL     1      15.285  16.630  38.260  1.00  0.00    -0.550 OA
ATOM      7  O   UNL     1      14.545  15.069  36.753  1.00  0.00    -0.550 OA
ENDBRANCH   4   5
ENDBRANCH   3   4
ENDBRANCH   2   3
ENDBRANCH   1   2
BRANCH   1   8
ATOM      8  C   UNL     1      19.828  18.141  33.901  1.00  0.00     0.000 C 
BRANCH   8   9
ATOM      9  C   UNL     1      19.401  19.547  34.349  1.00  0.00     0.000 C 
BRANCH   9  10
ATOM     10  C   UNL     1      20.413  20.136  35.343  1.00  0.00     0.006 C 
BRANCH  10  11
ATOM     11  C   UNL     1      20.422  19.383  36.680  1.00  0.00     0.053 C 
BRANCH  11  12
ATOM     12  C   UNL     1      20.007  20.266  37.817  1.00  0.00     0.041 C 
ATOM     13  O   UNL     1      18.813  20.266  38.216  1.00  0.00    -0.550 OA
ATOM     14  O   UNL     1      20.932  21.113  38.413  1.00  0.00    -0.550 OA
ENDBRANCH  11  12
ENDBRANCH  10  11
ENDBRANCH   9  10
ENDBRANCH   8   9
ENDBRANCH   1   8
TORSDOF 9
ENDMDL
MODEL 3
REMARK VINA RESULT:    -4.566      2.134      5.424
REMARK INTER + INTRA:          -7.677
REMARK INTER:                  -6.717
REMARK INTRA:                  -0.960
REMARK UNBOUND:                -0.709
REMARK SMILES O=C([O-])CCCCCCCCC(=O)[O-]
REMARK SMILES IDX 7 1 6 2 5 3 4 4 2 5 1 6 3 7 8 8 9 9 10 10 11 11 12 12 13 13
REMARK SMILES IDX 14 14
REMARK H PARENT
REMARK Flexibility Score: inf
ROOT
ATOM      1  C   UNL     1      19.110  16.464  33.958  1.00  0.00     0.000 C 
ENDROOT
BRANCH   1   2
ATOM      2  C   UNL     1      17.642  16.356  34.399  1.00  0.00     0.000 C 
BRANCH   2   3
ATOM      3  C   UNL     1      17.540  16.061  35.900  1.00  0.00     0.006 C 
BRANCH   3   4
ATOM      4  C   UNL     1      16.490  16.956  36.566  1.00  0.00     0.053 C 
BRANCH   4   5
ATOM      5  C   UNL     1      15.489  16.127  37.307  1.00  0.00     0.041 C 
ATOM      6  O   UNL     1      15.697  14.900  37.493  1.00  0.00    -0.550 OA
ATOM      7  O   UNL     1      14.348  16.721  37.833  1.00  0.00    -0.550 OA
ENDBRANCH   4   5
ENDBRANCH   3   4
ENDBRANCH   2   3
ENDBRANCH   1   2
BRANCH   1   8
ATOM      8  C   UNL     1      20.079  16.562  35.148  1.00  0.00     0.000 C 
BRANCH   8   9
ATOM      9  C   UNL     1      20.803  17.916  35.213  1.00  0.00     0.000 C 
BRANCH   9  10
ATOM     10  C   UNL     1      20.054  18.894  36.130  1.00  0.00     0.006 C 
BRANCH  10  11
ATOM     11  C   UNL     1      19.812  20.252  35.457  1.00  0.00     0.053 C 
BRANCH  11  12
ATOM     12  C   UNL     1      18.844  20.142  34.320  1.00  0.00     0.041 C 
ATOM     13  O   UNL     1      17.622  19.937  34.545  1.00  0.00    -0.550 OA
ATOM     14  O   UNL     1      19.296  20.235  33.010  1.00  0.00    -0.550 OA
ENDBRANCH  11  12
ENDBRANCH  10  11
ENDBRANCH   9  10
ENDBRANCH   8   9
ENDBRANCH   1   8
TORSDOF 9
ENDMDL
MODEL 4
REMARK VINA RESULT:    -4.528     15.762     16.978
REMARK INTER + INTRA:          -7.619
REMARK INTER:                  -6.819
REMARK INTRA:                  -0.800
REMARK UNBOUND:                -0.709
REMARK SMILES O=C([O-])CCCCCCCCC(=O)[O-]
REMARK SMILES IDX 7 1 6 2 5 3 4 4 2 5 1 6 3 7 8 8 9 9 10 10 11 11 12 12 13 13
REMARK SMILES IDX 14 14
REMARK H PARENT
REMARK Flexibility Score: inf
ROOT
ATOM      1  C   UNL     1      10.537  30.664  27.675  1.00  0.00     0.000 C 
ENDROOT
BRANCH   1   2
ATOM      2  C   UNL     1      10.911  31.603  28.833  1.00  0.00     0.000 C 
BRANCH   2   3
ATOM      3  C   UNL     1       9.689  31.913  29.705  1.00  0.00     0.006 C 
BRANCH   3   4
ATOM      4  C   UNL     1       9.226  30.668  30.466  1.00  0.00     0.053 C 
BRANCH   4   5
ATOM      5  C   UNL     1       9.685  30.722  31.888  1.00  0.00     0.041 C 
ATOM      6  O   UNL     1      10.569  29.924  32.299  1.00  0.00    -0.550 OA
ATOM      7  O   UNL     1       9.173  31.685  32.749  1.00  0.00    -0.550 OA
ENDBRANCH   4   5
ENDBRANCH   3   4
ENDBRANCH   2   3
ENDBRANCH   1   2
BRANCH   1   8
ATOM      8  C   UNL     1       9.429  31.241  26.780  1.00  0.00     0.000 C 
BRANCH   8   9
ATOM      9  C   UNL     1       8.319  30.223  26.479  1.00  0.00     0.000 C 
BRANCH   9  10
ATOM     10  C   UNL     1       8.572  28.902  27.221  1.00  0.00     0.006 C 
BRANCH  10  11
ATOM     11  C   UNL     1       7.298  28.349  27.875  1.00  0.00     0.053 C 
BRANCH  11  12
ATOM     12  C   UNL     1       6.640  27.312  27.017  1.00  0.00     0.041 C 
ATOM     13  O   UNL     1       7.246  26.246  26.734  1.00  0.00    -0.550 OA
ATOM     14  O   UNL     1       5.369  27.538  26.504  1.00  0.00    -0.550 OA
ENDBRANCH  11  12
ENDBRANCH  10  11
ENDBRANCH   9  10
ENDBRANCH   8   9
ENDBRANCH   1   8
TORSDOF 9
ENDMDL
MODEL 5
REMARK VINA RESULT:    -4.494      2.405      3.230
REMARK INTER + INTRA:          -7.566
REMARK INTER:                  -6.683
REMARK INTRA:                  -0.883
REMARK UNBOUND:                -0.709
REMARK SMILES O=C([O-])CCCCCCCCC(=O)[O-]
REMARK SMILES IDX 7 1 6 2 5 3 4 4 2 5 1 6 3 7 8 8 9 9 10 10 11 11 12 12 13 13
REMARK SMILES IDX 14 14
REMARK H PARENT
REMARK Flexibility Score: inf
ROOT
ATOM      1  C   UNL     1      20.998  17.882  35.627  1.00  0.00     0.000 C 
ENDROOT
BRANCH   1   2
ATOM      2  C   UNL     1      20.452  19.015  36.510  1.00  0.00     0.000 C 
BRANCH   2   3
ATOM      3  C   UNL     1      19.967  20.192  35.655  1.00  0.00     0.006 C 
BRANCH   3   4
ATOM      4  C   UNL     1      18.498  20.017  35.259  1.00  0.00     0.053 C 
BRANCH   4   5
ATOM      5  C   UNL     1      18.382  19.702  33.802  1.00  0.00     0.041 C 
ATOM      6  O   UNL     1      17.379  19.076  33.367  1.00  0.00    -0.550 OA
ATOM      7  O   UNL     1      19.357  20.142  32.915  1.00  0.00    -0.550 OA
ENDBRANCH   4   5
ENDBRANCH   3   4
ENDBRANCH   2   3
ENDBRANCH   1   2
BRANCH   1   8
ATOM      8  C   UNL     1      20.320  16.532  35.910  1.00  0.00     0.000 C 
BRANCH   8   9
ATOM      9  C   UNL     1      19.139  16.253  34.968  1.00  0.00     0.000 C 
BRANCH   9  10
ATOM     10  C   UNL     1      17.914  15.764  35.755  1.00  0.00     0.006 C 
BRANCH  10  11
ATOM     11  C   UNL     1      17.177  16.913  36.457  1.00  0.00     0.053 C 
BRANCH  11  12
ATOM     12  C   UNL     1      15.853  16.472  37.001  1.00  0.00     0.041 C 
ATOM     13  O   UNL     1      15.438  16.922  38.101  1.00  0.00    -0.550 OA
ATOM     14  O   UNL     1      15.092  15.541  36.307  1.00  0.00    -0.550 OA
ENDBRANCH  11  12
ENDBRANCH  10  11
ENDBRANCH   9  10
ENDBRANCH   8   9
ENDBRANCH   1   8
TORSDOF 9
ENDMDL
MODEL 6
REMARK VINA RESULT:    -4.492      1.546      5.101
REMARK INTER + INTRA:          -7.563
REMARK INTER:                  -6.694
REMARK INTRA:                  -0.870
REMARK UNBOUND:                -0.709
REMARK SMILES O=C([O-])CCCCCCCCC(=O)[O-]
REMARK SMILES IDX 7 1 6 2 5 3 4 4 2 5 1 6 3 7 8 8 9 9 10 10 11 11 12 12 13 13
REMARK SMILES IDX 14 14
REMARK H PARENT
REMARK Flexibility Score: inf
ROOT
ATOM      1  C   UNL     1      18.139  16.792  33.307  1.00  0.00     0.000 C 
ENDROOT
BRANCH   1   2
ATOM      2  C   UNL     1      18.024  16.187  34.715  1.00  0.00     0.000 C 
BRANCH   2   3
ATOM      3  C   UNL     1      16.582  16.267  35.230  1.00  0.00     0.006 C 
BRANCH   3   4
ATOM      4  C   UNL     1      16.550  16.543  36.736  1.00  0.00     0.053 C 
BRANCH   4   5
ATOM      5  C   UNL     1      15.353  15.900  37.361  1.00  0.00     0.041 C 
ATOM      6  O   UNL     1      14.378  16.603  37.734  1.00  0.00    -0.550 OA
ATOM      7  O   UNL     1      15.295  14.517  37.489  1.00  0.00    -0.550 OA
ENDBRANCH   4   5
ENDBRANCH   3   4
ENDBRANCH   2   3
ENDBRANCH   1   2
BRANCH   1   8
ATOM      8  C   UNL     1      19.291  17.802  33.190  1.00  0.00     0.000 C 
BRANCH   8   9
ATOM      9  C   UNL     1      18.798  19.247  33.022  1.00  0.00     0.000 C 
BRANCH   9  10
ATOM     10  C   UNL     1      19.096  20.078  34.279  1.00  0.00     0.006 C 
BRANCH  10  11
ATOM     11  C   UNL     1      18.051  19.857  35.382  1.00  0.00     0.053 C 
BRANCH  11  12
ATOM     12  C   UNL     1      18.692  19.492  36.686  1.00  0.00     0.041 C 
ATOM     13  O   UNL     1      19.637  18.661  36.717  1.00  0.00    -0.550 OA
ATOM     14  O   UNL     1      18.223  20.045  37.870  1.00  0.00    -0.550 OA
ENDBRANCH  11  12
ENDBRANCH  10  11
ENDBRANCH   9  10
ENDBRANCH   8   9
ENDBRANCH   1   8
TORSDOF 9
ENDMDL
MODEL 7
REMARK VINA RESULT:    -4.395     15.944     17.707
REMARK INTER + INTRA:          -7.416
REMARK INTER:                  -6.658
REMARK INTRA:                  -0.758
REMARK UNBOUND:                -0.709
REMARK SMILES O=C([O-])CCCCCCCCC(=O)[O-]
REMARK SMILES IDX 7 1 6 2 5 3 4 4 2 5 1 6 3 7 8 8 9 9 10 10 11 11 12 12 13 13
REMARK SMILES IDX 14 14
REMARK H PARENT
REMARK Flexibility Score: inf
ROOT
ATOM      1  C   UNL     1       9.360  31.289  26.983  1.00  0.00     0.000 C 
ENDROOT
BRANCH   1   2
ATOM      2  C   UNL     1       8.285  30.375  26.376  1.00  0.00     0.000 C 
BRANCH   2   3
ATOM      3  C   UNL     1       8.435  28.937  26.884  1.00  0.00     0.006 C 
BRANCH   3   4
ATOM      4  C   UNL     1       7.200  28.501  27.678  1.00  0.00     0.053 C 
BRANCH   4   5
ATOM      5  C   UNL     1       6.477  27.405  26.962  1.00  0.00     0.041 C 
ATOM      6  O   UNL     1       5.287  27.572  26.585  1.00  0.00    -0.550 OA
ATOM      7  O   UNL     1       7.132  26.216  26.668  1.00  0.00    -0.550 OA
ENDBRANCH   4   5
ENDBRANCH   3   4
ENDBRANCH   2   3
ENDBRANCH   1   2
BRANCH   1   8
ATOM      8  C   UNL     1       8.762  32.495  27.726  1.00  0.00     0.000 C 
BRANCH   8   9
ATOM      9  C   UNL     1       8.965  32.416  29.246  1.00  0.00     0.000 C 
BRANCH   9  10
ATOM     10  C   UNL     1      10.019  31.357  29.604  1.00  0.00     0.006 C 
BRANCH  10  11
ATOM     11  C   UNL     1       9.448  30.248  30.498  1.00  0.00     0.053 C 
BRANCH  11  12
ATOM     12  C   UNL     1       9.960  30.350  31.902  1.00  0.00     0.041 C 
ATOM     13  O   UNL     1       9.646  31.335  32.621  1.00  0.00    -0.550 OA
ATOM     14  O   UNL     1      10.809  29.374  32.406  1.00  0.00    -0.550 OA
ENDBRANCH  11  12
ENDBRANCH  10  11
ENDBRANCH   9  10
ENDBRANCH   8   9
ENDBRANCH   1   8
TORSDOF 9
ENDMDL
MODEL 8
REMARK VINA RESULT:    -4.361      1.779      2.349
REMARK INTER + INTRA:          -7.364
REMARK INTER:                  -6.419
REMARK INTRA:                  -0.946
REMARK UNBOUND:                -0.709
REMARK SMILES O=C([O-])CCCCCCCCC(=O)[O-]
REMARK SMILES IDX 7 1 6 2 5 3 4 4 2 5 1 6 3 7 8 8 9 9 10 10 11 11 12 12 13 13
REMARK SMILES IDX 14 14
REMARK H PARENT
REMARK Flexibility Score: inf
ROOT
ATOM      1  C   UNL     1      19.649  17.188  33.649  1.00  0.00     0.000 C 
ENDROOT
BRANCH   1   2
ATOM      2  C   UNL     1      18.881  18.327  32.960  1.00  0.00     0.000 C 
BRANCH   2   3
ATOM      3  C   UNL     1      19.043  19.642  33.731  1.00  0.00     0.006 C 
BRANCH   3   4
ATOM      4  C   UNL     1      17.875  19.861  34.698  1.00  0.00     0.053 C 
BRANCH   4   5
ATOM      5  C   UNL     1      18.335  19.722  36.115  1.00  0.00     0.041 C 
ATOM      6  O   UNL     1      19.564  19.677  36.380  1.00  0.00    -0.550 OA
ATOM      7  O   UNL     1      17.405  19.691  37.147  1.00  0.00    -0.550 OA
ENDBRANCH   4   5
ENDBRANCH   3   4
ENDBRANCH   2   3
ENDBRANCH   1   2
BRANCH   1   8
ATOM      8  C   UNL     1      18.739  16.297  34.509  1.00  0.00     0.000 C 
BRANCH   8   9
ATOM      9  C   UNL     1      17.424  15.935  33.803  1.00  0.00     0.000 C 
BRANCH   9  10
ATOM     10  C   UNL     1      16.272  15.824  34.813  1.00  0.00     0.006 C 
BRANCH  10  11
ATOM     11  C   UNL     1      16.669  16.332  36.206  1.00  0.00     0.053 C 
BRANCH  11  12
ATOM     12  C   UNL     1      15.514  16.295  37.159  1.00  0.00     0.041 C 
ATOM     13  O   UNL     1      15.514  17.027  38.183  1.00  0.00    -0.550 OA
ATOM     14  O   UNL     1      14.452  15.429  36.932  1.00  0.00    -0.550 OA
ENDBRANCH  11  12
ENDBRANCH  10  11
ENDBRANCH   9  10
ENDBRANCH   8   9
ENDBRANCH   1   8
TORSDOF 9
ENDMDL
MODEL 9
REMARK VINA RESULT:    -4.332     16.221     17.395
REMARK INTER + INTRA:          -7.319
REMARK INTER:                  -6.751
REMARK INTRA:                  -0.568
REMARK UNBOUND:                -0.709
REMARK SMILES O=C([O-])CCCCCCCCC(=O)[O-]
REMARK SMILES IDX 7 1 6 2 5 3 4 4 2 5 1 6 3 7 8 8 9 9 10 10 11 11 12 12 13 13
REMARK SMILES IDX 14 14
REMARK H PARENT
REMARK Flexibility Score: inf
ROOT
ATOM      1  C   UNL     1       8.351  31.040  27.610  1.00  0.00     0.000 C 
ENDROOT
BRANCH   1   2
ATOM      2  C   UNL     1       8.009  31.181  29.101  1.00  0.00     0.000 C 
BRANCH   2   3
ATOM      3  C   UNL     1       9.061  32.026  29.828  1.00  0.00     0.006 C 
BRANCH   3   4
ATOM      4  C   UNL     1      10.188  31.148  30.380  1.00  0.00     0.053 C 
BRANCH   4   5
ATOM      5  C   UNL     1       9.934  30.809  31.814  1.00  0.00     0.041 C 
ATOM      6  O   UNL     1       9.372  31.643  32.572  1.00  0.00    -0.550 OA
ATOM      7  O   UNL     1      10.275  29.554  32.304  1.00  0.00    -0.550 OA
ENDBRANCH   4   5
ENDBRANCH   3   4
ENDBRANCH   2   3
ENDBRANCH   1   2
BRANCH   1   8
ATOM      8  C   UNL     1       8.536  29.575  27.181  1.00  0.00     0.000 C 
BRANCH   8   9
ATOM      9  C   UNL     1       8.050  28.580  28.246  1.00  0.00     0.000 C 
BRANCH   9  10
ATOM     10  C   UNL     1       6.710  27.950  27.837  1.00  0.00     0.006 C 
BRANCH  10  11
ATOM     11  C   UNL     1       6.857  26.998  26.642  1.00  0.00     0.053 C 
BRANCH  11  12
ATOM     12  C   UNL     1       6.015  27.433  25.481  1.00  0.00     0.041 C 
ATOM     13  O   UNL     1       6.557  27.883  24.438  1.00  0.00    -0.550 OA
ATOM     14  O   UNL     1       4.630  27.369  25.565  1.00  0.00    -0.550 OA
ENDBRANCH  11  12
ENDBRANCH  10  11
ENDBRANCH   9  10
ENDBRANCH   8   9
ENDBRANCH   1   8
TORSDOF 9
ENDMDL
