MODEL 1
REMARK VINA RESULT:    -3.983      0.000      0.000
REMARK INTER + INTRA:          -6.373
REMARK INTER:                  -5.613
REMARK INTRA:                  -0.760
REMARK UNBOUND:                -0.760
REMARK SMILES CCCCCCCCC(=O)[O-]
REMARK SMILES IDX 6 1 7 2 8 3 9 4 10 5 11 6 5 7 4 8 3 9 2 10 1 11
REMARK H PARENT
REMARK Flexibility Score: inf
ROOT
ATOM      1  C   UNL     1     -38.080  19.581 -31.320  1.00  0.00     0.000 C 
ENDROOT
BRANCH   1   2
ATOM      2  C   UNL     1     -38.442  20.962 -30.764  1.00  0.00     0.006 C 
BRANCH   2   3
ATOM      3  C   UNL     1     -37.189  21.716 -30.305  1.00  0.00     0.053 C 
BRANCH   3   4
ATOM      4  C   UNL     1     -37.465  22.474 -29.046  1.00  0.00     0.041 C 
ATOM      5  O   UNL     1     -36.513  22.912 -28.348  1.00  0.00    -0.550 OA
ATOM      6  O   UNL     1     -38.773  22.654 -28.615  1.00  0.00    -0.550 OA
ENDBRANCH   3   4
ENDBRANCH   2   3
ENDBRANCH   1   2
BRANCH   1   7
ATOM      7  C   UNL     1     -38.719  18.464 -30.480  1.00  0.00     0.000 C 
BRANCH   7   8
ATOM      8  C   UNL     1     -39.269  18.968 -29.134  1.00  0.00    -0.000 C 
BRANCH   8   9
ATOM      9  C   UNL     1     -38.406  18.620 -27.903  1.00  0.00    -0.000 C 
BRANCH   9  10
ATOM     10  C   UNL     1     -36.975  18.155 -28.223  1.00  0.00    -0.003 C 
ATOM     11  C   UNL     1     -35.906  19.119 -27.708  1.00  0.00     0.004 C 
ENDBRANCH   9  10
ENDBRANCH   8   9
ENDBRANCH   7   8
ENDBRANCH   1   7
TORSDOF 7
ENDMDL
MODEL 2
REMARK VINA RESULT:    -3.940      1.358      2.204
REMARK INTER + INTRA:          -6.312
REMARK INTER:                  -5.592
REMARK INTRA:                  -0.721
REMARK UNBOUND:                -0.760
REMARK SMILES CCCCCCCCC(=O)[O-]
REMARK SMILES IDX 6 1 7 2 8 3 9 4 10 5 11 6 5 7 4 8 3 9 2 10 1 11
REMARK H PARENT
REMARK Flexibility Score: inf
ROOT
ATOM      1  C   UNL     1     -39.060  18.851 -29.554  1.00  0.00     0.000 C 
ENDROOT
BRANCH   1   2
ATOM      2  C   UNL     1     -38.599  20.142 -30.238  1.00  0.00     0.006 C 
BRANCH   2   3
ATOM      3  C   UNL     1     -38.286  21.230 -29.207  1.00  0.00     0.053 C 
BRANCH   3   4
ATOM      4  C   UNL     1     -39.417  22.205 -29.114  1.00  0.00     0.041 C 
ATOM      5  O   UNL     1     -39.375  23.146 -28.278  1.00  0.00    -0.550 OA
ATOM      6  O   UNL     1     -40.540  22.046 -29.914  1.00  0.00    -0.550 OA
ENDBRANCH   3   4
ENDBRANCH   2   3
ENDBRANCH   1   2
BRANCH   1   7
ATOM      7  C   UNL     1     -38.583  18.801 -28.094  1.00  0.00     0.000 C 
BRANCH   7   8
ATOM      8  C   UNL     1     -37.284  17.996 -27.915  1.00  0.00    -0.000 C 
BRANCH   8   9
ATOM      9  C   UNL     1     -36.084  18.803 -27.377  1.00  0.00    -0.000 C 
BRANCH   9  10
ATOM     10  C   UNL     1     -34.958  19.050 -28.394  1.00  0.00    -0.003 C 
ATOM     11  C   UNL     1     -35.260  18.460 -29.772  1.00  0.00     0.004 C 
ENDBRANCH   9  10
ENDBRANCH   8   9
ENDBRANCH   7   8
ENDBRANCH   1   7
TORSDOF 7
ENDMDL
MODEL 3
REMARK VINA RESULT:    -3.906      2.930      4.383
REMARK INTER + INTRA:          -6.264
REMARK INTER:                  -5.694
REMARK INTRA:                  -0.570
REMARK UNBOUND:                -0.760
REMARK SMILES CCCCCCCCC(=O)[O-]
REMARK SMILES IDX 6 1 7 2 8 3 9 4 10 5 11 6 5 7 4 8 3 9 2 10 1 11
REMARK H PARENT
REMARK Flexibility Score: inf
ROOT
ATOM      1  C   UNL     1     -39.107  19.004 -28.404  1.00  0.00     0.000 C 
ENDROOT
BRANCH   1   2
ATOM      2  C   UNL     1     -37.798  18.281 -28.069  1.00  0.00     0.006 C 
BRANCH   2   3
ATOM      3  C   UNL     1     -36.685  18.679 -29.042  1.00  0.00     0.053 C 
BRANCH   3   4
ATOM      4  C   UNL     1     -36.316  17.524 -29.918  1.00  0.00     0.041 C 
ATOM      5  O   UNL     1     -37.149  16.608 -30.142  1.00  0.00    -0.550 OA
ATOM      6  O   UNL     1     -35.035  17.433 -30.446  1.00  0.00    -0.550 OA
ENDBRANCH   3   4
ENDBRANCH   2   3
ENDBRANCH   1   2
BRANCH   1   7
ATOM      7  C   UNL     1     -38.902  20.014 -29.544  1.00  0.00     0.000 C 
BRANCH   7   8
ATOM      8  C   UNL     1     -39.665  21.332 -29.321  1.00  0.00    -0.000 C 
BRANCH   8   9
ATOM      9  C   UNL     1     -38.794  22.526 -28.879  1.00  0.00    -0.000 C 
BRANCH   9  10
ATOM     10  C   UNL     1     -37.292  22.221 -28.749  1.00  0.00    -0.003 C 
ATOM     11  C   UNL     1     -36.466  22.796 -29.899  1.00  0.00     0.004 C 
ENDBRANCH   9  10
ENDBRANCH   8   9
ENDBRANCH   7   8
ENDBRANCH   1   7
TORSDOF 7
ENDMDL
MODEL 4
REMARK VINA RESULT:    -3.874      1.125      2.884
REMARK INTER + INTRA:          -6.219
REMARK INTER:                  -5.351
REMARK INTRA:                  -0.868
REMARK UNBOUND:                -0.760
REMARK SMILES CCCCCCCCC(=O)[O-]
REMARK SMILES IDX 6 1 7 2 8 3 9 4 10 5 11 6 5 7 4 8 3 9 2 10 1 11
REMARK H PARENT
REMARK Flexibility Score: inf
ROOT
ATOM      1  C   UNL     1     -35.844  19.067 -27.772  1.00  0.00     0.000 C 
ENDROOT
BRANCH   1   2
ATOM      2  C   UNL     1     -35.429  20.054 -28.869  1.00  0.00     0.006 C 
BRANCH   2   3
ATOM      3  C   UNL     1     -35.549  21.501 -28.381  1.00  0.00     0.053 C 
BRANCH   3   4
ATOM      4  C   UNL     1     -36.609  22.227 -29.147  1.00  0.00     0.041 C 
ATOM      5  O   UNL     1     -37.796  22.239 -28.728  1.00  0.00    -0.550 OA
ATOM      6  O   UNL     1     -36.297  22.846 -30.350  1.00  0.00    -0.550 OA
ENDBRANCH   3   4
ENDBRANCH   2   3
ENDBRANCH   1   2
BRANCH   1   7
ATOM      7  C   UNL     1     -36.995  18.167 -28.248  1.00  0.00     0.000 C 
BRANCH   7   8
ATOM      8  C   UNL     1     -38.381  18.795 -28.017  1.00  0.00    -0.000 C 
BRANCH   8   9
ATOM      9  C   UNL     1     -39.222  19.009 -29.293  1.00  0.00    -0.000 C 
BRANCH   9  10
ATOM     10  C   UNL     1     -38.492  18.705 -30.612  1.00  0.00    -0.003 C 
ATOM     11  C   UNL     1     -38.258  19.952 -31.464  1.00  0.00     0.004 C 
ENDBRANCH   9  10
ENDBRANCH   8   9
ENDBRANCH   7   8
ENDBRANCH   1   7
TORSDOF 7
ENDMDL
MODEL 5
REMARK VINA RESULT:    -3.873      2.235      3.446
REMARK INTER + INTRA:          -6.217
REMARK INTER:                  -5.309
REMARK INTRA:                  -0.908
REMARK UNBOUND:                -0.760
REMARK SMILES CCCCCCCCC(=O)[O-]
REMARK SMILES IDX 6 1 7 2 8 3 9 4 10 5 11 6 5 7 4 8 3 9 2 10 1 11
REMARK H PARENT
REMARK Flexibility Score: inf
ROOT
ATOM      1  C   UNL     1     -38.202  20.233 -31.173  1.00  0.00     0.000 C 
ENDROOT
BRANCH   1   2
ATOM      2  C   UNL     1     -38.501  18.801 -30.716  1.00  0.00     0.006 C 
BRANCH   2   3
ATOM      3  C   UNL     1     -37.382  18.265 -29.817  1.00  0.00     0.053 C 
BRANCH   3   4
ATOM      4  C   UNL     1     -37.751  18.416 -28.375  1.00  0.00     0.041 C 
ATOM      5  O   UNL     1     -36.879  18.263 -27.480  1.00  0.00    -0.550 OA
ATOM      6  O   UNL     1     -39.067  18.676 -28.018  1.00  0.00    -0.550 OA
ENDBRANCH   3   4
ENDBRANCH   2   3
ENDBRANCH   1   2
BRANCH   1   7
ATOM      7  C   UNL     1     -39.103  21.242 -30.444  1.00  0.00     0.000 C 
BRANCH   7   8
ATOM      8  C   UNL     1     -38.399  21.926 -29.258  1.00  0.00    -0.000 C 
BRANCH   8   9
ATOM      9  C   UNL     1     -36.946  22.370 -29.527  1.00  0.00    -0.000 C 
BRANCH   9  10
ATOM     10  C   UNL     1     -35.890  21.728 -28.613  1.00  0.00    -0.003 C 
ATOM     11  C   UNL     1     -34.842  20.926 -29.385  1.00  0.00     0.004 C 
ENDBRANCH   9  10
ENDBRANCH   8   9
ENDBRANCH   7   8
ENDBRANCH   1   7
TORSDOF 7
ENDMDL
MODEL 6
REMARK VINA RESULT:    -3.862      2.009      2.582
REMARK INTER + INTRA:          -6.202
REMARK INTER:                  -5.478
REMARK INTRA:                  -0.724
REMARK UNBOUND:                -0.760
REMARK SMILES CCCCCCCCC(=O)[O-]
REMARK SMILES IDX 6 1 7 2 8 3 9 4 10 5 11 6 5 7 4 8 3 9 2 10 1 11
REMARK H PARENT
REMARK Flexibility Score: inf
ROOT
ATOM      1  C   UNL     1     -39.250  19.030 -28.986  1.00  0.00     0.000 C 
ENDROOT
BRANCH   1   2
ATOM      2  C   UNL     1     -39.283  20.532 -29.287  1.00  0.00     0.006 C 
BRANCH   2   3
ATOM      3  C   UNL     1     -37.866  21.101 -29.405  1.00  0.00     0.053 C 
BRANCH   3   4
ATOM      4  C   UNL     1     -37.491  21.283 -30.841  1.00  0.00     0.041 C 
ATOM      5  O   UNL     1     -36.481  21.969 -31.151  1.00  0.00    -0.550 OA
ATOM      6  O   UNL     1     -38.286  20.739 -31.841  1.00  0.00    -0.550 OA
ENDBRANCH   3   4
ENDBRANCH   2   3
ENDBRANCH   1   2
BRANCH   1   7
ATOM      7  C   UNL     1     -38.165  18.700 -27.949  1.00  0.00     0.000 C 
BRANCH   7   8
ATOM      8  C   UNL     1     -37.212  17.584 -28.413  1.00  0.00    -0.000 C 
BRANCH   8   9
ATOM      9  C   UNL     1     -36.899  17.579 -29.924  1.00  0.00    -0.000 C 
BRANCH   9  10
ATOM     10  C   UNL     1     -35.404  17.654 -30.278  1.00  0.00    -0.003 C 
ATOM     11  C   UNL     1     -34.759  18.976 -29.863  1.00  0.00     0.004 C 
ENDBRANCH   9  10
ENDBRANCH   8   9
ENDBRANCH   7   8
ENDBRANCH   1   7
TORSDOF 7
ENDMDL
MODEL 7
REMARK VINA RESULT:    -3.856      2.106      3.858
REMARK INTER + INTRA:          -6.193
REMARK INTER:                  -5.415
REMARK INTRA:                  -0.779
REMARK UNBOUND:                -0.760
REMARK SMILES CCCCCCCCC(=O)[O-]
REMARK SMILES IDX 6 1 7 2 8 3 9 4 10 5 11 6 5 7 4 8 3 9 2 10 1 11
REMARK H PARENT
REMARK Flexibility Score: inf
ROOT
ATOM      1  C   UNL     1     -38.775  18.679 -29.733  1.00  0.00     0.000 C 
ENDROOT
BRANCH   1   2
ATOM      2  C   UNL     1     -37.643  17.918 -29.035  1.00  0.00     0.006 C 
BRANCH   2   3
ATOM      3  C   UNL     1     -37.327  18.533 -27.668  1.00  0.00     0.053 C 
BRANCH   3   4
ATOM      4  C   UNL     1     -35.868  18.845 -27.558  1.00  0.00     0.041 C 
ATOM      5  O   UNL     1     -35.349  19.053 -26.430  1.00  0.00    -0.550 OA
ATOM      6  O   UNL     1     -35.093  18.955 -28.704  1.00  0.00    -0.550 OA
ENDBRANCH   3   4
ENDBRANCH   2   3
ENDBRANCH   1   2
BRANCH   1   7
ATOM      7  C   UNL     1     -38.301  19.261 -31.074  1.00  0.00     0.000 C 
BRANCH   7   8
ATOM      8  C   UNL     1     -38.345  20.799 -31.109  1.00  0.00    -0.000 C 
BRANCH   8   9
ATOM      9  C   UNL     1     -37.233  21.503 -30.304  1.00  0.00    -0.000 C 
BRANCH   9  10
ATOM     10  C   UNL     1     -37.704  22.206 -29.020  1.00  0.00    -0.003 C 
ATOM     11  C   UNL     1     -39.227  22.287 -28.911  1.00  0.00     0.004 C 
ENDBRANCH   9  10
ENDBRANCH   8   9
ENDBRANCH   7   8
ENDBRANCH   1   7
TORSDOF 7
ENDMDL
MODEL 8
REMARK VINA RESULT:    -3.810      2.221      3.553
REMARK INTER + INTRA:          -6.129
REMARK INTER:                  -5.302
REMARK INTRA:                  -0.827
REMARK UNBOUND:                -0.760
REMARK SMILES CCCCCCCCC(=O)[O-]
REMARK SMILES IDX 6 1 7 2 8 3 9 4 10 5 11 6 5 7 4 8 3 9 2 10 1 11
REMARK H PARENT
REMARK Flexibility Score: inf
ROOT
ATOM      1  C   UNL     1     -38.235  21.919 -28.969  1.00  0.00     0.000 C 
ENDROOT
BRANCH   1   2
ATOM      2  C   UNL     1     -39.063  21.135 -29.994  1.00  0.00     0.006 C 
BRANCH   2   3
ATOM      3  C   UNL     1     -38.821  19.629 -29.860  1.00  0.00     0.053 C 
BRANCH   3   4
ATOM      4  C   UNL     1     -39.148  19.166 -28.475  1.00  0.00     0.041 C 
ATOM      5  O   UNL     1     -38.281  18.565 -27.788  1.00  0.00    -0.550 OA
ATOM      6  O   UNL     1     -40.425  19.353 -27.963  1.00  0.00    -0.550 OA
ENDBRANCH   3   4
ENDBRANCH   2   3
ENDBRANCH   1   2
BRANCH   1   7
ATOM      7  C   UNL     1     -36.834  22.230 -29.515  1.00  0.00     0.000 C 
BRANCH   7   8
ATOM      8  C   UNL     1     -35.712  21.882 -28.521  1.00  0.00    -0.000 C 
BRANCH   8   9
ATOM      9  C   UNL     1     -35.232  20.417 -28.564  1.00  0.00    -0.000 C 
BRANCH   9  10
ATOM     10  C   UNL     1     -35.149  19.801 -29.971  1.00  0.00    -0.003 C 
ATOM     11  C   UNL     1     -35.391  18.291 -29.975  1.00  0.00     0.004 C 
ENDBRANCH   9  10
ENDBRANCH   8   9
ENDBRANCH   7   8
ENDBRANCH   1   7
TORSDOF 7
ENDMDL
MODEL 9
REMARK VINA RESULT:    -3.756      1.569      2.033
REMARK INTER + INTRA:          -6.053
REMARK INTER:                  -5.232
REMARK INTRA:                  -0.821
REMARK UNBOUND:                -0.760
REMARK SMILES CCCCCCCCC(=O)[O-]
REMARK SMILES IDX 6 1 7 2 8 3 9 4 10 5 11 6 5 7 4 8 3 9 2 10 1 11
REMARK H PARENT
REMARK Flexibility Score: inf
ROOT
ATOM      1  C   UNL     1     -39.525  20.592 -28.866  1.00  0.00     0.000 C 
ENDROOT
BRANCH   1   2
ATOM      2  C   UNL     1     -38.671  21.186 -29.991  1.00  0.00     0.006 C 
BRANCH   2   3
ATOM      3  C   UNL     1     -37.531  22.039 -29.426  1.00  0.00     0.053 C 
BRANCH   3   4
ATOM      4  C   UNL     1     -36.363  22.037 -30.360  1.00  0.00     0.041 C 
ATOM      5  O   UNL     1     -35.732  23.103 -30.587  1.00  0.00    -0.550 OA
ATOM      6  O   UNL     1     -36.000  20.870 -31.019  1.00  0.00    -0.550 OA
ENDBRANCH   3   4
ENDBRANCH   2   3
ENDBRANCH   1   2
BRANCH   1   7
ATOM      7  C   UNL     1     -39.446  19.058 -28.865  1.00  0.00     0.000 C 
BRANCH   7   8
ATOM      8  C   UNL     1     -38.440  18.510 -29.894  1.00  0.00    -0.000 C 
BRANCH   8   9
ATOM      9  C   UNL     1     -37.182  17.852 -29.290  1.00  0.00    -0.000 C 
BRANCH   9  10
ATOM     10  C   UNL     1     -36.906  18.203 -27.819  1.00  0.00    -0.003 C 
ATOM     11  C   UNL     1     -35.746  19.184 -27.648  1.00  0.00     0.004 C 
ENDBRANCH   9  10
ENDBRANCH   8   9
ENDBRANCH   7   8
ENDBRANCH   1   7
TORSDOF 7
ENDMDL
