MODEL 1
REMARK VINA RESULT:    -3.593      0.000      0.000
REMARK INTER + INTRA:          -5.260
REMARK INTER:                  -4.853
REMARK INTRA:                  -0.407
REMARK UNBOUND:                -0.407
REMARK SMILES CCCCCCC=CC(=O)[O-]
REMARK SMILES IDX 5 1 6 2 7 3 8 4 9 5 10 6 11 7 4 8 3 9 2 10 1 11
REMARK H PARENT
REMARK Flexibility Score: inf
ROOT
ATOM      1  C   UNL     1      56.938  28.110  50.691  1.00  0.00     0.004 C 
ENDROOT
BRANCH   1   2
ATOM      2  C   UNL     1      57.974  28.944  49.929  1.00  0.00     0.027 C 
BRANCH   2   3
ATOM      3  C   UNL     1      59.227  28.157  49.674  1.00  0.00    -0.025 C 
ATOM      4  C   UNL     1      59.343  26.883  50.065  1.00  0.00     0.020 C 
BRANCH   4   5
ATOM      5  C   UNL     1      60.558  26.097  49.810  1.00  0.00     0.064 C 
ATOM      6  O   UNL     1      61.648  26.689  49.593  1.00  0.00    -0.545 OA
ATOM      7  O   UNL     1      60.525  24.707  49.801  1.00  0.00    -0.545 OA
ENDBRANCH   4   5
ENDBRANCH   2   3
ENDBRANCH   1   2
BRANCH   1   8
ATOM      8  C   UNL     1      55.552  28.762  50.629  1.00  0.00     0.000 C 
BRANCH   8   9
ATOM      9  C   UNL     1      54.519  27.806  50.022  1.00  0.00    -0.000 C 
BRANCH   9  10
ATOM     10  C   UNL     1      55.137  26.429  49.751  1.00  0.00    -0.003 C 
ATOM     11  C   UNL     1      54.100  25.460  49.191  1.00  0.00     0.004 C 
ENDBRANCH   9  10
ENDBRANCH   8   9
ENDBRANCH   1   8
TORSDOF 6
ENDMDL
MODEL 2
REMARK VINA RESULT:    -3.552     12.840     13.973
REMARK INTER + INTRA:          -5.205
REMARK INTER:                  -4.870
REMARK INTRA:                  -0.335
REMARK UNBOUND:                -0.407
REMARK SMILES CCCCCCC=CC(=O)[O-]
REMARK SMILES IDX 5 1 6 2 7 3 8 4 9 5 10 6 11 7 4 8 3 9 2 10 1 11
REMARK H PARENT
REMARK Flexibility Score: inf
ROOT
ATOM      1  C   UNL     1      62.251  33.263  60.601  1.00  0.00     0.004 C 
ENDROOT
BRANCH   1   2
ATOM      2  C   UNL     1      61.116  32.287  60.930  1.00  0.00     0.027 C 
BRANCH   2   3
ATOM      3  C   UNL     1      61.650  30.926  61.273  1.00  0.00    -0.025 C 
ATOM      4  C   UNL     1      62.858  30.526  60.864  1.00  0.00     0.020 C 
BRANCH   4   5
ATOM      5  C   UNL     1      63.399  29.202  61.206  1.00  0.00     0.064 C 
ATOM      6  O   UNL     1      62.626  28.308  61.640  1.00  0.00    -0.545 OA
ATOM      7  O   UNL     1      64.753  28.921  61.060  1.00  0.00    -0.545 OA
ENDBRANCH   4   5
ENDBRANCH   2   3
ENDBRANCH   1   2
BRANCH   1   8
ATOM      8  C   UNL     1      61.739  34.707  60.557  1.00  0.00     0.000 C 
BRANCH   8   9
ATOM      9  C   UNL     1      62.823  35.691  61.015  1.00  0.00    -0.000 C 
BRANCH   9  10
ATOM     10  C   UNL     1      64.138  34.961  61.311  1.00  0.00    -0.003 C 
ATOM     11  C   UNL     1      65.214  35.934  61.786  1.00  0.00     0.004 C 
ENDBRANCH   9  10
ENDBRANCH   8   9
ENDBRANCH   1   8
TORSDOF 6
ENDMDL
MODEL 3
REMARK VINA RESULT:    -3.540      1.310      2.010
REMARK INTER + INTRA:          -5.189
REMARK INTER:                  -4.708
REMARK INTRA:                  -0.481
REMARK UNBOUND:                -0.407
REMARK SMILES CCCCCCC=CC(=O)[O-]
REMARK SMILES IDX 5 1 6 2 7 3 8 4 9 5 10 6 11 7 4 8 3 9 2 10 1 11
REMARK H PARENT
REMARK Flexibility Score: inf
ROOT
ATOM      1  C   UNL     1      58.440  28.952  49.694  1.00  0.00     0.004 C 
ENDROOT
BRANCH   1   2
ATOM      2  C   UNL     1      59.646  28.133  49.220  1.00  0.00     0.027 C 
BRANCH   2   3
ATOM      3  C   UNL     1      59.477  26.677  49.546  1.00  0.00    -0.025 C 
ATOM      4  C   UNL     1      60.521  25.910  49.877  1.00  0.00     0.020 C 
BRANCH   4   5
ATOM      5  C   UNL     1      60.368  24.487  50.213  1.00  0.00     0.064 C 
ATOM      6  O   UNL     1      59.378  24.112  50.893  1.00  0.00    -0.545 OA
ATOM      7  O   UNL     1      61.301  23.546  49.792  1.00  0.00    -0.545 OA
ENDBRANCH   4   5
ENDBRANCH   2   3
ENDBRANCH   1   2
BRANCH   1   8
ATOM      8  C   UNL     1      57.547  28.126  50.628  1.00  0.00     0.000 C 
BRANCH   8   9
ATOM      9  C   UNL     1      56.108  28.654  50.624  1.00  0.00    -0.000 C 
BRANCH   9  10
ATOM     10  C   UNL     1      55.132  27.588  50.114  1.00  0.00    -0.003 C 
ATOM     11  C   UNL     1      55.811  26.227  50.000  1.00  0.00     0.004 C 
ENDBRANCH   9  10
ENDBRANCH   8   9
ENDBRANCH   1   8
TORSDOF 6
ENDMDL
MODEL 4
REMARK VINA RESULT:    -3.453     12.517     13.567
REMARK INTER + INTRA:          -5.072
REMARK INTER:                  -4.711
REMARK INTRA:                  -0.361
REMARK UNBOUND:                -0.407
REMARK SMILES CCCCCCC=CC(=O)[O-]
REMARK SMILES IDX 5 1 6 2 7 3 8 4 9 5 10 6 11 7 4 8 3 9 2 10 1 11
REMARK H PARENT
REMARK Flexibility Score: inf
ROOT
ATOM      1  C   UNL     1      61.148  32.005  60.791  1.00  0.00     0.004 C 
ENDROOT
BRANCH   1   2
ATOM      2  C   UNL     1      61.489  30.835  61.721  1.00  0.00     0.027 C 
BRANCH   2   3
ATOM      3  C   UNL     1      62.933  30.441  61.593  1.00  0.00    -0.025 C 
ATOM      4  C   UNL     1      63.298  29.319  60.965  1.00  0.00     0.020 C 
BRANCH   4   5
ATOM      5  C   UNL     1      64.708  28.930  60.820  1.00  0.00     0.064 C 
ATOM      6  O   UNL     1      65.016  27.710  60.787  1.00  0.00    -0.545 OA
ATOM      7  O   UNL     1      65.711  29.889  60.720  1.00  0.00    -0.545 OA
ENDBRANCH   4   5
ENDBRANCH   2   3
ENDBRANCH   1   2
BRANCH   1   8
ATOM      8  C   UNL     1      62.352  32.938  60.616  1.00  0.00     0.000 C 
BRANCH   8   9
ATOM      9  C   UNL     1      61.917  34.408  60.629  1.00  0.00    -0.000 C 
BRANCH   9  10
ATOM     10  C   UNL     1      63.118  35.335  60.844  1.00  0.00    -0.003 C 
ATOM     11  C   UNL     1      64.323  34.564  61.374  1.00  0.00     0.004 C 
ENDBRANCH   9  10
ENDBRANCH   8   9
ENDBRANCH   1   8
TORSDOF 6
ENDMDL
MODEL 5
REMARK VINA RESULT:    -3.449     12.524     13.591
REMARK INTER + INTRA:          -5.065
REMARK INTER:                  -4.729
REMARK INTRA:                  -0.336
REMARK UNBOUND:                -0.407
REMARK SMILES CCCCCCC=CC(=O)[O-]
REMARK SMILES IDX 5 1 6 2 7 3 8 4 9 5 10 6 11 7 4 8 3 9 2 10 1 11
REMARK H PARENT
REMARK Flexibility Score: inf
ROOT
ATOM      1  C   UNL     1      61.183  31.925  60.351  1.00  0.00     0.004 C 
ENDROOT
BRANCH   1   2
ATOM      2  C   UNL     1      61.115  31.207  61.703  1.00  0.00     0.027 C 
BRANCH   2   3
ATOM      3  C   UNL     1      62.119  30.092  61.779  1.00  0.00    -0.025 C 
ATOM      4  C   UNL     1      63.164  30.036  60.947  1.00  0.00     0.020 C 
BRANCH   4   5
ATOM      5  C   UNL     1      64.162  28.959  61.019  1.00  0.00     0.064 C 
ATOM      6  O   UNL     1      65.386  29.247  61.072  1.00  0.00    -0.545 OA
ATOM      7  O   UNL     1      63.776  27.623  61.029  1.00  0.00    -0.545 OA
ENDBRANCH   4   5
ENDBRANCH   2   3
ENDBRANCH   1   2
BRANCH   1   8
ATOM      8  C   UNL     1      61.494  33.416  60.534  1.00  0.00     0.000 C 
BRANCH   8   9
ATOM      9  C   UNL     1      63.004  33.654  60.648  1.00  0.00    -0.000 C 
BRANCH   9  10
ATOM     10  C   UNL     1      63.304  35.107  61.033  1.00  0.00    -0.003 C 
ATOM     11  C   UNL     1      64.691  35.238  61.656  1.00  0.00     0.004 C 
ENDBRANCH   9  10
ENDBRANCH   8   9
ENDBRANCH   1   8
TORSDOF 6
ENDMDL
MODEL 6
REMARK VINA RESULT:    -3.354      3.109      5.014
REMARK INTER + INTRA:          -4.937
REMARK INTER:                  -4.290
REMARK INTRA:                  -0.647
REMARK UNBOUND:                -0.407
REMARK SMILES CCCCCCC=CC(=O)[O-]
REMARK SMILES IDX 5 1 6 2 7 3 8 4 9 5 10 6 11 7 4 8 3 9 2 10 1 11
REMARK H PARENT
REMARK Flexibility Score: inf
ROOT
ATOM      1  C   UNL     1      58.190  29.004  49.911  1.00  0.00     0.004 C 
ENDROOT
BRANCH   1   2
ATOM      2  C   UNL     1      57.137  28.901  51.021  1.00  0.00     0.027 C 
BRANCH   2   3
ATOM      3  C   UNL     1      55.834  28.378  50.488  1.00  0.00    -0.025 C 
ATOM      4  C   UNL     1      55.693  27.102  50.117  1.00  0.00     0.020 C 
BRANCH   4   5
ATOM      5  C   UNL     1      54.418  26.574  49.608  1.00  0.00     0.064 C 
ATOM      6  O   UNL     1      54.351  25.378  49.220  1.00  0.00    -0.545 OA
ATOM      7  O   UNL     1      53.284  27.375  49.545  1.00  0.00    -0.545 OA
ENDBRANCH   4   5
ENDBRANCH   2   3
ENDBRANCH   1   2
BRANCH   1   8
ATOM      8  C   UNL     1      59.535  28.433  50.374  1.00  0.00     0.000 C 
BRANCH   8   9
ATOM      9  C   UNL     1      60.004  27.305  49.447  1.00  0.00    -0.000 C 
BRANCH   9  10
ATOM     10  C   UNL     1      59.218  26.016  49.709  1.00  0.00    -0.003 C 
ATOM     11  C   UNL     1      59.176  25.688  51.199  1.00  0.00     0.004 C 
ENDBRANCH   9  10
ENDBRANCH   8   9
ENDBRANCH   1   8
TORSDOF 6
ENDMDL
MODEL 7
REMARK VINA RESULT:    -3.344     12.975     14.033
REMARK INTER + INTRA:          -4.924
REMARK INTER:                  -4.517
REMARK INTRA:                  -0.407
REMARK UNBOUND:                -0.407
REMARK SMILES CCCCCCC=CC(=O)[O-]
REMARK SMILES IDX 5 1 6 2 7 3 8 4 9 5 10 6 11 7 4 8 3 9 2 10 1 11
REMARK H PARENT
REMARK Flexibility Score: inf
ROOT
ATOM      1  C   UNL     1      61.163  31.549  60.390  1.00  0.00     0.004 C 
ENDROOT
BRANCH   1   2
ATOM      2  C   UNL     1      61.250  33.079  60.434  1.00  0.00     0.027 C 
BRANCH   2   3
ATOM      3  C   UNL     1      62.672  33.539  60.576  1.00  0.00    -0.025 C 
ATOM      4  C   UNL     1      62.975  34.831  60.747  1.00  0.00     0.020 C 
BRANCH   4   5
ATOM      5  C   UNL     1      64.362  35.293  60.902  1.00  0.00     0.064 C 
ATOM      6  O   UNL     1      65.049  35.552  59.880  1.00  0.00    -0.545 OA
ATOM      7  O   UNL     1      64.930  35.447  62.162  1.00  0.00    -0.545 OA
ENDBRANCH   4   5
ENDBRANCH   2   3
ENDBRANCH   1   2
BRANCH   1   8
ATOM      8  C   UNL     1      61.266  30.952  61.798  1.00  0.00     0.000 C 
BRANCH   8   9
ATOM      9  C   UNL     1      62.214  29.746  61.817  1.00  0.00    -0.000 C 
BRANCH   9  10
ATOM     10  C   UNL     1      63.663  30.181  61.575  1.00  0.00    -0.003 C 
ATOM     11  C   UNL     1      64.467  29.073  60.902  1.00  0.00     0.004 C 
ENDBRANCH   9  10
ENDBRANCH   8   9
ENDBRANCH   1   8
TORSDOF 6
ENDMDL
MODEL 8
REMARK VINA RESULT:    -3.304      3.161      5.165
REMARK INTER + INTRA:          -4.870
REMARK INTER:                  -4.200
REMARK INTRA:                  -0.670
REMARK UNBOUND:                -0.407
REMARK SMILES CCCCCCC=CC(=O)[O-]
REMARK SMILES IDX 5 1 6 2 7 3 8 4 9 5 10 6 11 7 4 8 3 9 2 10 1 11
REMARK H PARENT
REMARK Flexibility Score: inf
ROOT
ATOM      1  C   UNL     1      59.369  25.524  50.686  1.00  0.00     0.004 C 
ENDROOT
BRANCH   1   2
ATOM      2  C   UNL     1      58.044  25.733  51.428  1.00  0.00     0.027 C 
BRANCH   2   3
ATOM      3  C   UNL     1      56.888  25.794  50.471  1.00  0.00    -0.025 C 
ATOM      4  C   UNL     1      55.842  26.597  50.690  1.00  0.00     0.020 C 
BRANCH   4   5
ATOM      5  C   UNL     1      54.711  26.678  49.754  1.00  0.00     0.064 C 
ATOM      6  O   UNL     1      54.050  27.746  49.669  1.00  0.00    -0.545 OA
ATOM      7  O   UNL     1      54.358  25.592  48.961  1.00  0.00    -0.545 OA
ENDBRANCH   4   5
ENDBRANCH   2   3
ENDBRANCH   1   2
BRANCH   1   8
ATOM      8  C   UNL     1      59.398  26.321  49.377  1.00  0.00     0.000 C 
BRANCH   8   9
ATOM      9  C   UNL     1      60.126  27.658  49.561  1.00  0.00    -0.000 C 
BRANCH   9  10
ATOM     10  C   UNL     1      59.201  28.837  49.242  1.00  0.00    -0.003 C 
ATOM     11  C   UNL     1      58.392  29.252  50.467  1.00  0.00     0.004 C 
ENDBRANCH   9  10
ENDBRANCH   8   9
ENDBRANCH   1   8
TORSDOF 6
ENDMDL
MODEL 9
REMARK VINA RESULT:    -3.245     13.241     14.402
REMARK INTER + INTRA:          -4.790
REMARK INTER:                  -4.303
REMARK INTRA:                  -0.487
REMARK UNBOUND:                -0.407
REMARK SMILES CCCCCCC=CC(=O)[O-]
REMARK SMILES IDX 5 1 6 2 7 3 8 4 9 5 10 6 11 7 4 8 3 9 2 10 1 11
REMARK H PARENT
REMARK Flexibility Score: inf
ROOT
ATOM      1  C   UNL     1      61.601  35.536  59.711  1.00  0.00     0.004 C 
ENDROOT
BRANCH   1   2
ATOM      2  C   UNL     1      61.324  34.038  59.534  1.00  0.00     0.027 C 
BRANCH   2   3
ATOM      3  C   UNL     1      62.435  33.208  60.111  1.00  0.00    -0.025 C 
ATOM      4  C   UNL     1      62.209  31.988  60.609  1.00  0.00     0.020 C 
BRANCH   4   5
ATOM      5  C   UNL     1      63.290  31.159  61.163  1.00  0.00     0.064 C 
ATOM      6  O   UNL     1      64.482  31.553  61.076  1.00  0.00    -0.545 OA
ATOM      7  O   UNL     1      63.017  29.944  61.781  1.00  0.00    -0.545 OA
ENDBRANCH   4   5
ENDBRANCH   2   3
ENDBRANCH   1   2
BRANCH   1   8
ATOM      8  C   UNL     1      62.250  35.818  61.071  1.00  0.00     0.000 C 
BRANCH   8   9
ATOM      9  C   UNL     1      63.115  37.083  61.017  1.00  0.00    -0.000 C 
BRANCH   9  10
ATOM     10  C   UNL     1      64.401  36.905  61.832  1.00  0.00    -0.003 C 
ATOM     11  C   UNL     1      64.913  35.470  61.750  1.00  0.00     0.004 C 
ENDBRANCH   9  10
ENDBRANCH   8   9
ENDBRANCH   1   8
TORSDOF 6
ENDMDL
