MODEL 1
REMARK VINA RESULT:    -2.676      0.000      0.000
REMARK INTER + INTRA:          -3.027
REMARK INTER:                  -2.989
REMARK INTRA:                  -0.038
REMARK UNBOUND:                -0.038
REMARK SMILES CCCC(=O)[O-]
REMARK SMILES IDX 3 1 4 2 5 3 6 4 2 5 1 6
REMARK H PARENT
REMARK Flexibility Score: inf
ROOT
ATOM      1  C   UNL     1       2.297 -11.662 -42.472  1.00  0.00     0.052 C 
ENDROOT
BRANCH   1   2
ATOM      2  C   UNL     1       2.273 -11.659 -43.971  1.00  0.00     0.041 C 
ATOM      3  O   UNL     1       2.289 -10.569 -44.602  1.00  0.00    -0.550 OA
ATOM      4  O   UNL     1       2.268 -12.859 -44.669  1.00  0.00    -0.550 OA
ENDBRANCH   1   2
BRANCH   1   5
ATOM      5  C   UNL     1       2.223 -10.242 -41.898  1.00  0.00     0.003 C 
ATOM      6  C   UNL     1       0.818  -9.882 -41.416  1.00  0.00     0.004 C 
ENDBRANCH   1   5
TORSDOF 2
ENDMDL
MODEL 2
REMARK VINA RESULT:    -2.630      0.843      1.396
REMARK INTER + INTRA:          -2.975
REMARK INTER:                  -2.923
REMARK INTRA:                  -0.052
REMARK UNBOUND:                -0.038
REMARK SMILES CCCC(=O)[O-]
REMARK SMILES IDX 3 1 4 2 5 3 6 4 2 5 1 6
REMARK H PARENT
REMARK Flexibility Score: inf
ROOT
ATOM      1  C   UNL     1       1.665 -11.527 -42.543  1.00  0.00     0.052 C 
ENDROOT
BRANCH   1   2
ATOM      2  C   UNL     1       2.082 -11.585 -43.981  1.00  0.00     0.041 C 
ATOM      3  O   UNL     1       2.270 -10.522 -44.629  1.00  0.00    -0.550 OA
ATOM      4  O   UNL     1       2.298 -12.812 -44.594  1.00  0.00    -0.550 OA
ENDBRANCH   1   2
BRANCH   1   5
ATOM      5  C   UNL     1       2.501 -10.517 -41.748  1.00  0.00     0.003 C 
ATOM      6  C   UNL     1       3.956 -10.961 -41.594  1.00  0.00     0.004 C 
ENDBRANCH   1   5
TORSDOF 2
ENDMDL
MODEL 3
REMARK VINA RESULT:    -2.617      2.085      3.171
REMARK INTER + INTRA:          -2.961
REMARK INTER:                  -2.919
REMARK INTRA:                  -0.042
REMARK UNBOUND:                -0.038
REMARK SMILES CCCC(=O)[O-]
REMARK SMILES IDX 3 1 4 2 5 3 6 4 2 5 1 6
REMARK H PARENT
REMARK Flexibility Score: inf
ROOT
ATOM      1  C   UNL     1       2.575 -10.595 -42.034  1.00  0.00     0.052 C 
ENDROOT
BRANCH   1   2
ATOM      2  C   UNL     1       1.434  -9.638 -42.198  1.00  0.00     0.041 C 
ATOM      3  O   UNL     1       0.558  -9.539 -41.299  1.00  0.00    -0.550 OA
ATOM      4  O   UNL     1       1.358  -8.832 -43.326  1.00  0.00    -0.550 OA
ENDBRANCH   1   2
BRANCH   1   5
ATOM      5  C   UNL     1       2.192 -12.018 -42.461  1.00  0.00     0.003 C 
ATOM      6  C   UNL     1       2.168 -12.181 -43.981  1.00  0.00     0.004 C 
ENDBRANCH   1   5
TORSDOF 2
ENDMDL
MODEL 4
REMARK VINA RESULT:    -2.592      1.614      2.026
REMARK INTER + INTRA:          -2.934
REMARK INTER:                  -2.877
REMARK INTRA:                  -0.057
REMARK UNBOUND:                -0.038
REMARK SMILES CCCC(=O)[O-]
REMARK SMILES IDX 3 1 4 2 5 3 6 4 2 5 1 6
REMARK H PARENT
REMARK Flexibility Score: inf
ROOT
ATOM      1  C   UNL     1       2.384 -10.380 -41.867  1.00  0.00     0.052 C 
ENDROOT
BRANCH   1   2
ATOM      2  C   UNL     1       2.248 -11.816 -42.274  1.00  0.00     0.041 C 
ATOM      3  O   UNL     1       2.295 -12.727 -41.406  1.00  0.00    -0.550 OA
ATOM      4  O   UNL     1       2.033 -12.144 -43.606  1.00  0.00    -0.550 OA
ENDBRANCH   1   2
BRANCH   1   5
ATOM      5  C   UNL     1       1.428  -9.472 -42.652  1.00  0.00     0.003 C 
ATOM      6  C   UNL     1      -0.018  -9.599 -42.173  1.00  0.00     0.004 C 
ENDBRANCH   1   5
TORSDOF 2
ENDMDL
MODEL 5
REMARK VINA RESULT:    -2.475      2.602      3.202
REMARK INTER + INTRA:          -2.802
REMARK INTER:                  -2.736
REMARK INTRA:                  -0.067
REMARK UNBOUND:                -0.038
REMARK SMILES CCCC(=O)[O-]
REMARK SMILES IDX 3 1 4 2 5 3 6 4 2 5 1 6
REMARK H PARENT
REMARK Flexibility Score: inf
ROOT
ATOM      1  C   UNL     1       0.701  -9.989 -41.237  1.00  0.00     0.052 C 
ENDROOT
BRANCH   1   2
ATOM      2  C   UNL     1      -0.063 -11.254 -41.485  1.00  0.00     0.041 C 
ATOM      3  O   UNL     1      -0.678 -11.420 -42.572  1.00  0.00    -0.550 OA
ATOM      4  O   UNL     1      -0.065 -12.264 -40.532  1.00  0.00    -0.550 OA
ENDBRANCH   1   2
BRANCH   1   5
ATOM      5  C   UNL     1       1.898  -9.851 -42.186  1.00  0.00     0.003 C 
ATOM      6  C   UNL     1       3.012 -10.847 -41.863  1.00  0.00     0.004 C 
ENDBRANCH   1   5
TORSDOF 2
ENDMDL
MODEL 6
REMARK VINA RESULT:    -2.470      2.266      2.922
REMARK INTER + INTRA:          -2.797
REMARK INTER:                  -2.783
REMARK INTRA:                  -0.013
REMARK UNBOUND:                -0.038
REMARK SMILES CCCC(=O)[O-]
REMARK SMILES IDX 3 1 4 2 5 3 6 4 2 5 1 6
REMARK H PARENT
REMARK Flexibility Score: inf
ROOT
ATOM      1  C   UNL     1       1.921 -10.122 -41.606  1.00  0.00     0.052 C 
ENDROOT
BRANCH   1   2
ATOM      2  C   UNL     1       0.965  -9.553 -42.610  1.00  0.00     0.041 C 
ATOM      3  O   UNL     1       1.375  -8.754 -43.493  1.00  0.00    -0.550 OA
ATOM      4  O   UNL     1      -0.371  -9.932 -42.592  1.00  0.00    -0.550 OA
ENDBRANCH   1   2
BRANCH   1   5
ATOM      5  C   UNL     1       3.007 -10.975 -42.274  1.00  0.00     0.003 C 
ATOM      6  C   UNL     1       4.333 -10.926 -41.514  1.00  0.00     0.004 C 
ENDBRANCH   1   5
TORSDOF 2
ENDMDL
MODEL 7
REMARK VINA RESULT:    -2.433      2.382      3.202
REMARK INTER + INTRA:          -2.755
REMARK INTER:                  -2.699
REMARK INTRA:                  -0.057
REMARK UNBOUND:                -0.038
REMARK SMILES CCCC(=O)[O-]
REMARK SMILES IDX 3 1 4 2 5 3 6 4 2 5 1 6
REMARK H PARENT
REMARK Flexibility Score: inf
ROOT
ATOM      1  C   UNL     1       0.296  -9.793 -41.123  1.00  0.00     0.052 C 
ENDROOT
BRANCH   1   2
ATOM      2  C   UNL     1       1.471  -9.713 -42.049  1.00  0.00     0.041 C 
ATOM      3  O   UNL     1       2.534 -10.332 -41.777  1.00  0.00    -0.550 OA
ATOM      4  O   UNL     1       1.380  -8.986 -43.229  1.00  0.00    -0.550 OA
ENDBRANCH   1   2
BRANCH   1   5
ATOM      5  C   UNL     1      -1.026  -9.921 -41.891  1.00  0.00     0.003 C 
ATOM      6  C   UNL     1      -1.267 -11.342 -42.400  1.00  0.00     0.004 C 
ENDBRANCH   1   5
TORSDOF 2
ENDMDL
MODEL 8
REMARK VINA RESULT:    -2.414      2.520      3.213
REMARK INTER + INTRA:          -2.734
REMARK INTER:                  -2.696
REMARK INTRA:                  -0.038
REMARK UNBOUND:                -0.038
REMARK SMILES CCCC(=O)[O-]
REMARK SMILES IDX 3 1 4 2 5 3 6 4 2 5 1 6
REMARK H PARENT
REMARK Flexibility Score: inf
ROOT
ATOM      1  C   UNL     1      -0.155 -10.285 -42.354  1.00  0.00     0.052 C 
ENDROOT
BRANCH   1   2
ATOM      2  C   UNL     1       1.201  -9.663 -42.499  1.00  0.00     0.041 C 
ATOM      3  O   UNL     1       1.396  -8.763 -43.358  1.00  0.00    -0.550 OA
ATOM      4  O   UNL     1       2.238 -10.053 -41.663  1.00  0.00    -0.550 OA
ENDBRANCH   1   2
BRANCH   1   5
ATOM      5  C   UNL     1      -1.158  -9.321 -41.709  1.00  0.00     0.003 C 
ATOM      6  C   UNL     1      -2.203  -8.816 -42.705  1.00  0.00     0.004 C 
ENDBRANCH   1   5
TORSDOF 2
ENDMDL
MODEL 9
REMARK VINA RESULT:    -2.372     14.447     15.242
REMARK INTER + INTRA:          -2.687
REMARK INTER:                  -2.650
REMARK INTRA:                  -0.038
REMARK UNBOUND:                -0.038
REMARK SMILES CCCC(=O)[O-]
REMARK SMILES IDX 3 1 4 2 5 3 6 4 2 5 1 6
REMARK H PARENT
REMARK Flexibility Score: inf
ROOT
ATOM      1  C   UNL     1      -0.089 -25.263 -46.109  1.00  0.00     0.052 C 
ENDROOT
BRANCH   1   2
ATOM      2  C   UNL     1       1.284 -25.588 -46.615  1.00  0.00     0.041 C 
ATOM      3  O   UNL     1       1.499 -26.682 -47.201  1.00  0.00    -0.550 OA
ATOM      4  O   UNL     1       2.314 -24.670 -46.469  1.00  0.00    -0.550 OA
ENDBRANCH   1   2
BRANCH   1   5
ATOM      5  C   UNL     1      -1.114 -25.192 -47.249  1.00  0.00     0.003 C 
ATOM      6  C   UNL     1      -2.062 -26.391 -47.254  1.00  0.00     0.004 C 
ENDBRANCH   1   5
TORSDOF 2
ENDMDL
