MODEL 1
REMARK VINA RESULT:     5.352      0.000      0.000
REMARK INTER + INTRA:          13.020
REMARK INTER:                  14.112
REMARK INTRA:                  -1.092
REMARK UNBOUND:                -1.092
REMARK SMILES CCCCCCCCCCCCCCCCCCCCCCCCCCCCCC(=O)[O-]
REMARK SMILES IDX 16 1 17 2 18 3 19 4 20 5 21 6 22 7 23 8 24 9 25 10 26 11
REMARK SMILES IDX 27 12 28 13 29 14 30 15 31 16 32 17 15 18 14 19 13 20 12 21
REMARK SMILES IDX 11 22 10 23 9 24 8 25 7 26 6 27 5 28 4 29 3 30 2 31 1 32
REMARK H PARENT
REMARK Flexibility Score: inf
ROOT
ATOM      1  C   UNL     1      -4.238  50.785   0.238  1.00  0.00     0.000 C 
ENDROOT
BRANCH   1   2
ATOM      2  C   UNL     1      -2.707  50.902   0.325  1.00  0.00     0.000 C 
BRANCH   2   3
ATOM      3  C   UNL     1      -2.149  51.989  -0.607  1.00  0.00     0.000 C 
BRANCH   3   4
ATOM      4  C   UNL     1      -1.075  51.459  -1.572  1.00  0.00     0.000 C 
BRANCH   4   5
ATOM      5  C   UNL     1      -1.110  52.120  -2.967  1.00  0.00     0.000 C 
BRANCH   5   6
ATOM      6  C   UNL     1      -0.600  51.182  -4.075  1.00  0.00     0.000 C 
BRANCH   6   7
ATOM      7  C   UNL     1      -0.572  51.861  -5.454  1.00  0.00     0.000 C 
BRANCH   7   8
ATOM      8  C   UNL     1      -1.932  51.784  -6.171  1.00  0.00     0.000 C 
BRANCH   8   9
ATOM      9  C   UNL     1      -1.831  51.163  -7.573  1.00  0.00     0.000 C 
BRANCH   9  10
ATOM     10  C   UNL     1      -2.302  52.116  -8.682  1.00  0.00     0.000 C 
BRANCH  10  11
ATOM     11  C   UNL     1      -3.357  51.439  -9.570  1.00  0.00     0.000 C 
BRANCH  11  12
ATOM     12  C   UNL     1      -4.214  50.413  -8.812  1.00  0.00     0.000 C 
BRANCH  12  13
ATOM     13  C   UNL     1      -5.280  51.015  -7.874  1.00  0.00     0.006 C 
BRANCH  13  14
ATOM     14  C   UNL     1      -6.187  52.062  -8.549  1.00  0.00     0.053 C 
BRANCH  14  15
ATOM     15  C   UNL     1      -7.462  51.462  -9.062  1.00  0.00     0.041 C 
ATOM     16  O   UNL     1      -8.114  52.036  -9.974  1.00  0.00    -0.550 OA
ATOM     17  O   UNL     1      -7.950  50.284  -8.508  1.00  0.00    -0.550 OA
ENDBRANCH  14  15
ENDBRANCH  13  14
ENDBRANCH  12  13
ENDBRANCH  11  12
ENDBRANCH  10  11
ENDBRANCH   9  10
ENDBRANCH   8   9
ENDBRANCH   7   8
ENDBRANCH   6   7
ENDBRANCH   5   6
ENDBRANCH   4   5
ENDBRANCH   3   4
ENDBRANCH   2   3
ENDBRANCH   1   2
BRANCH   1  18
ATOM     18  C   UNL     1      -4.947  52.111   0.558  1.00  0.00     0.000 C 
BRANCH  18  19
ATOM     19  C   UNL     1      -6.467  51.942   0.739  1.00  0.00     0.000 C 
BRANCH  19  20
ATOM     20  C   UNL     1      -7.111  50.844  -0.134  1.00  0.00     0.000 C 
BRANCH  20  21
ATOM     21  C   UNL     1      -8.194  51.332  -1.115  1.00  0.00     0.000 C 
BRANCH  21  22
ATOM     22  C   UNL     1      -9.075  50.190  -1.649  1.00  0.00     0.000 C 
BRANCH  22  23
ATOM     23  C   UNL     1      -8.301  49.206  -2.542  1.00  0.00     0.000 C 
BRANCH  23  24
ATOM     24  C   UNL     1      -7.303  48.341  -1.755  1.00  0.00    -0.000 C 
BRANCH  24  25
ATOM     25  C   UNL     1      -7.805  46.901  -1.538  1.00  0.00    -0.000 C 
BRANCH  25  26
ATOM     26  C   UNL     1      -6.706  45.863  -1.230  1.00  0.00    -0.000 C 
BRANCH  26  27
ATOM     27  C   UNL     1      -6.943  44.466  -1.829  1.00  0.00    -0.000 C 
BRANCH  27  28
ATOM     28  C   UNL     1      -5.810  44.020  -2.771  1.00  0.00    -0.000 C 
BRANCH  28  29
ATOM     29  C   UNL     1      -4.708  43.234  -2.031  1.00  0.00    -0.000 C 
BRANCH  29  30
ATOM     30  C   UNL     1      -5.227  42.364  -0.870  1.00  0.00    -0.000 C 
BRANCH  30  31
ATOM     31  C   UNL     1      -4.166  42.036   0.197  1.00  0.00    -0.003 C 
ATOM     32  C   UNL     1      -2.815  41.656  -0.412  1.00  0.00     0.004 C 
ENDBRANCH  30  31
ENDBRANCH  29  30
ENDBRANCH  28  29
ENDBRANCH  27  28
ENDBRANCH  26  27
ENDBRANCH  25  26
ENDBRANCH  24  25
ENDBRANCH  23  24
ENDBRANCH  22  23
ENDBRANCH  21  22
ENDBRANCH  20  21
ENDBRANCH  19  20
ENDBRANCH  18  19
ENDBRANCH   1  18
TORSDOF 28
ENDMDL
MODEL 2
REMARK VINA RESULT:     6.429      3.188      9.447
REMARK INTER + INTRA:          15.861
REMARK INTER:                  16.996
REMARK INTRA:                  -1.135
REMARK UNBOUND:                -1.092
REMARK SMILES CCCCCCCCCCCCCCCCCCCCCCCCCCCCCC(=O)[O-]
REMARK SMILES IDX 16 1 17 2 18 3 19 4 20 5 21 6 22 7 23 8 24 9 25 10 26 11
REMARK SMILES IDX 27 12 28 13 29 14 30 15 31 16 32 17 15 18 14 19 13 20 12 21
REMARK SMILES IDX 11 22 10 23 9 24 8 25 7 26 6 27 5 28 4 29 3 30 2 31 1 32
REMARK H PARENT
REMARK Flexibility Score: inf
ROOT
ATOM      1  C   UNL     1      -3.583  51.126  -0.587  1.00  0.00     0.000 C 
ENDROOT
BRANCH   1   2
ATOM      2  C   UNL     1      -4.264  52.010   0.469  1.00  0.00     0.000 C 
BRANCH   2   3
ATOM      3  C   UNL     1      -5.407  51.282   1.193  1.00  0.00     0.000 C 
BRANCH   3   4
ATOM      4  C   UNL     1      -6.690  52.125   1.291  1.00  0.00     0.000 C 
BRANCH   4   5
ATOM      5  C   UNL     1      -7.607  52.008   0.054  1.00  0.00     0.000 C 
BRANCH   5   6
ATOM      6  C   UNL     1      -7.431  50.669  -0.683  1.00  0.00     0.000 C 
BRANCH   6   7
ATOM      7  C   UNL     1      -7.752  50.775  -2.183  1.00  0.00     0.000 C 
BRANCH   7   8
ATOM      8  C   UNL     1      -8.616  49.603  -2.681  1.00  0.00     0.000 C 
BRANCH   8   9
ATOM      9  C   UNL     1      -8.677  48.441  -1.677  1.00  0.00     0.000 C 
BRANCH   9  10
ATOM     10  C   UNL     1      -7.332  47.716  -1.522  1.00  0.00     0.000 C 
BRANCH  10  11
ATOM     11  C   UNL     1      -7.528  46.193  -1.540  1.00  0.00     0.000 C 
BRANCH  11  12
ATOM     12  C   UNL     1      -6.208  45.418  -1.693  1.00  0.00     0.000 C 
BRANCH  12  13
ATOM     13  C   UNL     1      -6.344  43.882  -1.659  1.00  0.00     0.006 C 
BRANCH  13  14
ATOM     14  C   UNL     1      -5.122  43.134  -2.224  1.00  0.00     0.053 C 
BRANCH  14  15
ATOM     15  C   UNL     1      -4.036  42.966  -1.205  1.00  0.00     0.041 C 
ATOM     16  O   UNL     1      -2.892  43.455  -1.406  1.00  0.00    -0.550 OA
ATOM     17  O   UNL     1      -4.276  42.240  -0.044  1.00  0.00    -0.550 OA
ENDBRANCH  14  15
ENDBRANCH  13  14
ENDBRANCH  12  13
ENDBRANCH  11  12
ENDBRANCH  10  11
ENDBRANCH   9  10
ENDBRANCH   8   9
ENDBRANCH   7   8
ENDBRANCH   6   7
ENDBRANCH   5   6
ENDBRANCH   4   5
ENDBRANCH   3   4
ENDBRANCH   2   3
ENDBRANCH   1   2
BRANCH   1  18
ATOM     18  C   UNL     1      -2.064  51.017  -0.372  1.00  0.00     0.000 C 
BRANCH  18  19
ATOM     19  C   UNL     1      -1.279  52.103  -1.131  1.00  0.00     0.000 C 
BRANCH  19  20
ATOM     20  C   UNL     1      -1.242  51.933  -2.665  1.00  0.00     0.000 C 
BRANCH  20  21
ATOM     21  C   UNL     1       0.064  51.345  -3.230  1.00  0.00     0.000 C 
BRANCH  21  22
ATOM     22  C   UNL     1      -0.071  50.888  -4.693  1.00  0.00     0.000 C 
BRANCH  22  23
ATOM     23  C   UNL     1      -0.845  51.892  -5.563  1.00  0.00     0.000 C 
BRANCH  23  24
ATOM     24  C   UNL     1      -1.381  51.269  -6.863  1.00  0.00    -0.000 C 
BRANCH  24  25
ATOM     25  C   UNL     1      -1.054  52.114  -8.108  1.00  0.00    -0.000 C 
BRANCH  25  26
ATOM     26  C   UNL     1      -2.110  52.063  -9.231  1.00  0.00    -0.000 C 
BRANCH  26  27
ATOM     27  C   UNL     1      -3.379  51.258  -8.898  1.00  0.00    -0.000 C 
BRANCH  27  28
ATOM     28  C   UNL     1      -4.671  51.982  -9.316  1.00  0.00    -0.000 C 
BRANCH  28  29
ATOM     29  C   UNL     1      -5.871  51.601  -8.424  1.00  0.00    -0.000 C 
BRANCH  29  30
ATOM     30  C   UNL     1      -6.805  50.543  -9.043  1.00  0.00    -0.000 C 
BRANCH  30  31
ATOM     31  C   UNL     1      -7.998  51.130  -9.821  1.00  0.00    -0.003 C 
ATOM     32  C   UNL     1      -8.932  51.953  -8.934  1.00  0.00     0.004 C 
ENDBRANCH  30  31
ENDBRANCH  29  30
ENDBRANCH  28  29
ENDBRANCH  27  28
ENDBRANCH  26  27
ENDBRANCH  25  26
ENDBRANCH  24  25
ENDBRANCH  23  24
ENDBRANCH  22  23
ENDBRANCH  21  22
ENDBRANCH  20  21
ENDBRANCH  19  20
ENDBRANCH  18  19
ENDBRANCH   1  18
TORSDOF 28
ENDMDL
MODEL 3
REMARK VINA RESULT:     6.439      2.786      8.796
REMARK INTER + INTRA:          15.887
REMARK INTER:                  17.086
REMARK INTRA:                  -1.200
REMARK UNBOUND:                -1.092
REMARK SMILES CCCCCCCCCCCCCCCCCCCCCCCCCCCCCC(=O)[O-]
REMARK SMILES IDX 16 1 17 2 18 3 19 4 20 5 21 6 22 7 23 8 24 9 25 10 26 11
REMARK SMILES IDX 27 12 28 13 29 14 30 15 31 16 32 17 15 18 14 19 13 20 12 21
REMARK SMILES IDX 11 22 10 23 9 24 8 25 7 26 6 27 5 28 4 29 3 30 2 31 1 32
REMARK H PARENT
REMARK Flexibility Score: inf
ROOT
ATOM      1  C   UNL     1      -3.521  51.084  -0.246  1.00  0.00     0.000 C 
ENDROOT
BRANCH   1   2
ATOM      2  C   UNL     1      -4.628  51.722   0.608  1.00  0.00     0.000 C 
BRANCH   2   3
ATOM      3  C   UNL     1      -5.989  51.034   0.410  1.00  0.00     0.000 C 
BRANCH   3   4
ATOM      4  C   UNL     1      -7.173  51.907   0.859  1.00  0.00     0.000 C 
BRANCH   4   5
ATOM      5  C   UNL     1      -8.238  52.124  -0.238  1.00  0.00     0.000 C 
BRANCH   5   6
ATOM      6  C   UNL     1      -8.083  51.137  -1.409  1.00  0.00     0.000 C 
BRANCH   6   7
ATOM      7  C   UNL     1      -8.229  51.822  -2.778  1.00  0.00     0.000 C 
BRANCH   7   8
ATOM      8  C   UNL     1      -8.572  50.823  -3.898  1.00  0.00     0.000 C 
BRANCH   8   9
ATOM      9  C   UNL     1      -8.991  49.446  -3.358  1.00  0.00     0.000 C 
BRANCH   9  10
ATOM     10  C   UNL     1      -7.803  48.489  -3.180  1.00  0.00     0.000 C 
BRANCH  10  11
ATOM     11  C   UNL     1      -7.414  48.372  -1.699  1.00  0.00     0.000 C 
BRANCH  11  12
ATOM     12  C   UNL     1      -6.735  47.035  -1.358  1.00  0.00     0.000 C 
BRANCH  12  13
ATOM     13  C   UNL     1      -7.240  45.821  -2.165  1.00  0.00     0.006 C 
BRANCH  13  14
ATOM     14  C   UNL     1      -6.968  44.464  -1.488  1.00  0.00     0.053 C 
BRANCH  14  15
ATOM     15  C   UNL     1      -5.745  43.791  -2.035  1.00  0.00     0.041 C 
ATOM     16  O   UNL     1      -4.921  43.239  -1.258  1.00  0.00    -0.550 OA
ATOM     17  O   UNL     1      -5.496  43.803  -3.402  1.00  0.00    -0.550 OA
ENDBRANCH  14  15
ENDBRANCH  13  14
ENDBRANCH  12  13
ENDBRANCH  11  12
ENDBRANCH  10  11
ENDBRANCH   9  10
ENDBRANCH   8   9
ENDBRANCH   7   8
ENDBRANCH   6   7
ENDBRANCH   5   6
ENDBRANCH   4   5
ENDBRANCH   3   4
ENDBRANCH   2   3
ENDBRANCH   1   2
BRANCH   1  18
ATOM     18  C   UNL     1      -2.146  51.135   0.442  1.00  0.00     0.000 C 
BRANCH  18  19
ATOM     19  C   UNL     1      -1.161  52.079  -0.271  1.00  0.00     0.000 C 
BRANCH  19  20
ATOM     20  C   UNL     1      -1.051  51.879  -1.797  1.00  0.00     0.000 C 
BRANCH  20  21
ATOM     21  C   UNL     1       0.328  51.413  -2.302  1.00  0.00     0.000 C 
BRANCH  21  22
ATOM     22  C   UNL     1       0.260  50.735  -3.682  1.00  0.00     0.000 C 
BRANCH  22  23
ATOM     23  C   UNL     1      -0.950  51.191  -4.514  1.00  0.00     0.000 C 
BRANCH  23  24
ATOM     24  C   UNL     1      -0.782  50.911  -6.016  1.00  0.00    -0.000 C 
BRANCH  24  25
ATOM     25  C   UNL     1      -1.150  52.123  -6.892  1.00  0.00    -0.000 C 
BRANCH  25  26
ATOM     26  C   UNL     1      -2.592  52.125  -7.439  1.00  0.00    -0.000 C 
BRANCH  26  27
ATOM     27  C   UNL     1      -3.378  50.822  -7.211  1.00  0.00    -0.000 C 
BRANCH  27  28
ATOM     28  C   UNL     1      -4.253  50.434  -8.416  1.00  0.00    -0.000 C 
BRANCH  28  29
ATOM     29  C   UNL     1      -5.186  51.580  -8.857  1.00  0.00    -0.000 C 
BRANCH  29  30
ATOM     30  C   UNL     1      -6.296  51.148  -9.834  1.00  0.00    -0.000 C 
BRANCH  30  31
ATOM     31  C   UNL     1      -7.623  50.762  -9.153  1.00  0.00    -0.003 C 
ATOM     32  C   UNL     1      -7.715  51.268  -7.713  1.00  0.00     0.004 C 
ENDBRANCH  30  31
ENDBRANCH  29  30
ENDBRANCH  28  29
ENDBRANCH  27  28
ENDBRANCH  26  27
ENDBRANCH  25  26
ENDBRANCH  24  25
ENDBRANCH  23  24
ENDBRANCH  22  23
ENDBRANCH  21  22
ENDBRANCH  20  21
ENDBRANCH  19  20
ENDBRANCH  18  19
ENDBRANCH   1  18
TORSDOF 28
ENDMDL
MODEL 4
REMARK VINA RESULT:     7.333      3.441      9.211
REMARK INTER + INTRA:          18.243
REMARK INTER:                  19.982
REMARK INTRA:                  -1.738
REMARK UNBOUND:                -1.092
REMARK SMILES CCCCCCCCCCCCCCCCCCCCCCCCCCCCCC(=O)[O-]
REMARK SMILES IDX 16 1 17 2 18 3 19 4 20 5 21 6 22 7 23 8 24 9 25 10 26 11
REMARK SMILES IDX 27 12 28 13 29 14 30 15 31 16 32 17 15 18 14 19 13 20 12 21
REMARK SMILES IDX 11 22 10 23 9 24 8 25 7 26 6 27 5 28 4 29 3 30 2 31 1 32
REMARK H PARENT
REMARK Flexibility Score: inf
ROOT
ATOM      1  C   UNL     1      -5.565  50.333  -0.025  1.00  0.00     0.000 C 
ENDROOT
BRANCH   1   2
ATOM      2  C   UNL     1      -7.095  50.477  -0.022  1.00  0.00     0.000 C 
BRANCH   2   3
ATOM      3  C   UNL     1      -7.556  51.849  -0.539  1.00  0.00     0.000 C 
BRANCH   3   4
ATOM      4  C   UNL     1      -7.407  51.996  -2.063  1.00  0.00     0.000 C 
BRANCH   4   5
ATOM      5  C   UNL     1      -8.740  51.874  -2.833  1.00  0.00     0.000 C 
BRANCH   5   6
ATOM      6  C   UNL     1      -8.688  50.793  -3.928  1.00  0.00     0.000 C 
BRANCH   6   7
ATOM      7  C   UNL     1      -8.972  49.385  -3.379  1.00  0.00     0.000 C 
BRANCH   7   8
ATOM      8  C   UNL     1      -7.702  48.699  -2.844  1.00  0.00     0.000 C 
BRANCH   8   9
ATOM      9  C   UNL     1      -7.962  47.881  -1.568  1.00  0.00     0.000 C 
BRANCH   9  10
ATOM     10  C   UNL     1      -6.871  46.833  -1.300  1.00  0.00     0.000 C 
BRANCH  10  11
ATOM     11  C   UNL     1      -7.318  45.446  -1.785  1.00  0.00     0.000 C 
BRANCH  11  12
ATOM     12  C   UNL     1      -6.311  44.335  -1.442  1.00  0.00     0.000 C 
BRANCH  12  13
ATOM     13  C   UNL     1      -4.877  44.568  -1.959  1.00  0.00     0.006 C 
BRANCH  13  14
ATOM     14  C   UNL     1      -3.814  43.688  -1.275  1.00  0.00     0.053 C 
BRANCH  14  15
ATOM     15  C   UNL     1      -4.415  42.485  -0.611  1.00  0.00     0.041 C 
ATOM     16  O   UNL     1      -4.550  42.450   0.641  1.00  0.00    -0.550 OA
ATOM     17  O   UNL     1      -4.794  41.386  -1.373  1.00  0.00    -0.550 OA
ENDBRANCH  14  15
ENDBRANCH  13  14
ENDBRANCH  12  13
ENDBRANCH  11  12
ENDBRANCH  10  11
ENDBRANCH   9  10
ENDBRANCH   8   9
ENDBRANCH   7   8
ENDBRANCH   6   7
ENDBRANCH   5   6
ENDBRANCH   4   5
ENDBRANCH   3   4
ENDBRANCH   2   3
ENDBRANCH   1   2
BRANCH   1  18
ATOM     18  C   UNL     1      -4.859  51.556   0.584  1.00  0.00     0.000 C 
BRANCH  18  19
ATOM     19  C   UNL     1      -3.753  52.118  -0.329  1.00  0.00     0.000 C 
BRANCH  19  20
ATOM     20  C   UNL     1      -2.326  52.050   0.254  1.00  0.00     0.000 C 
BRANCH  20  21
ATOM     21  C   UNL     1      -1.438  50.923  -0.306  1.00  0.00     0.000 C 
BRANCH  21  22
ATOM     22  C   UNL     1      -1.381  50.917  -1.844  1.00  0.00     0.000 C 
BRANCH  22  23
ATOM     23  C   UNL     1       0.057  50.933  -2.388  1.00  0.00     0.000 C 
BRANCH  23  24
ATOM     24  C   UNL     1       0.115  50.954  -3.925  1.00  0.00    -0.000 C 
BRANCH  24  25
ATOM     25  C   UNL     1      -1.027  51.774  -4.552  1.00  0.00    -0.000 C 
BRANCH  25  26
ATOM     26  C   UNL     1      -0.841  52.123  -6.044  1.00  0.00    -0.000 C 
BRANCH  26  27
ATOM     27  C   UNL     1      -1.733  51.330  -7.015  1.00  0.00    -0.000 C 
BRANCH  27  28
ATOM     28  C   UNL     1      -3.189  51.832  -7.033  1.00  0.00    -0.000 C 
BRANCH  28  29
ATOM     29  C   UNL     1      -4.104  50.943  -7.899  1.00  0.00    -0.000 C 
BRANCH  29  30
ATOM     30  C   UNL     1      -5.038  51.729  -8.840  1.00  0.00    -0.000 C 
BRANCH  30  31
ATOM     31  C   UNL     1      -6.470  51.168  -8.923  1.00  0.00    -0.003 C 
ATOM     32  C   UNL     1      -7.460  51.950  -8.058  1.00  0.00     0.004 C 
ENDBRANCH  30  31
ENDBRANCH  29  30
ENDBRANCH  28  29
ENDBRANCH  27  28
ENDBRANCH  26  27
ENDBRANCH  25  26
ENDBRANCH  24  25
ENDBRANCH  23  24
ENDBRANCH  22  23
ENDBRANCH  21  22
ENDBRANCH  20  21
ENDBRANCH  19  20
ENDBRANCH  18  19
ENDBRANCH   1  18
TORSDOF 28
ENDMDL
