MODEL 1
REMARK VINA RESULT:    -4.251      0.000      0.000
REMARK INTER + INTRA:          -5.569
REMARK INTER:                  -5.245
REMARK INTRA:                  -0.324
REMARK UNBOUND:                -0.324
REMARK SMILES O=c1c(O)c(-c2cc(O)c(O)c(O)c2)oc2cc(O)cc(O)c12
REMARK SMILES IDX 5 1 3 2 2 3 1 4 23 5 21 6 20 7 18 8 17 9 16 10 15 11 6 12
REMARK SMILES IDX 7 13 8 14 14 15 10 16 12 17 9 18 11 20 13 22 4 24 22 26
REMARK SMILES IDX 19 28
REMARK H PARENT 9 19 11 21 13 23 4 25 22 27 19 29
REMARK Flexibility Score: inf
ROOT
ATOM      1  C   UNL     1      19.106  34.785  44.536  1.00  0.00     0.180 A 
ATOM      2  C   UNL     1      18.989  34.731  43.136  1.00  0.00     0.208 A 
ATOM      3  C   UNL     1      17.709  34.703  42.560  1.00  0.00     0.238 A 
ATOM      4  O   UNL     1      17.612  34.600  41.310  1.00  0.00    -0.285 OA
ATOM      5  C   UNL     1      16.563  34.745  43.388  1.00  0.00     0.111 A 
ATOM      6  C   UNL     1      15.217  34.762  42.911  1.00  0.00     0.134 A 
ATOM      7  C   UNL     1      14.159  34.673  43.823  1.00  0.00     0.093 A 
ATOM      8  C   UNL     1      14.396  34.633  45.199  1.00  0.00     0.123 A 
ATOM      9  C   UNL     1      15.703  34.676  45.678  1.00  0.00     0.094 A 
ATOM     10  C   UNL     1      16.781  34.729  44.790  1.00  0.00     0.146 A 
ATOM     11  O   UNL     1      18.011  34.757  45.288  1.00  0.00    -0.452 OA
ENDROOT
BRANCH   1  12
ATOM     12  C   UNL     1      20.420  34.843  45.216  1.00  0.00     0.029 A 
ATOM     13  C   UNL     1      20.922  36.081  45.645  1.00  0.00     0.062 A 
ATOM     14  C   UNL     1      22.169  36.168  46.271  1.00  0.00     0.162 A 
ATOM     15  C   UNL     1      21.204  33.690  45.390  1.00  0.00     0.062 A 
ATOM     16  C   UNL     1      22.941  35.008  46.462  1.00  0.00     0.200 A 
ATOM     17  C   UNL     1      22.457  33.768  46.015  1.00  0.00     0.162 A 
BRANCH  14  18
ATOM     18  O   UNL     1      22.625  37.414  46.697  1.00  0.00    -0.504 OA
ATOM     19  H   UNL     1      22.559  37.712  47.663  1.00  0.00     0.293 HD
ENDBRANCH  14  18
BRANCH  16  20
ATOM     20  O   UNL     1      24.183  35.103  47.091  1.00  0.00    -0.502 OA
ATOM     21  H   UNL     1      24.273  35.247  48.090  1.00  0.00     0.293 HD
ENDBRANCH  16  20
BRANCH  17  22
ATOM     22  O   UNL     1      23.223  32.616  46.188  1.00  0.00    -0.504 OA
ATOM     23  H   UNL     1      24.204  32.588  45.936  1.00  0.00     0.293 HD
ENDBRANCH  17  22
ENDBRANCH   1  12
BRANCH   2  24
ATOM     24  O   UNL     1      20.135  34.667  42.338  1.00  0.00    -0.502 OA
ATOM     25  H   UNL     1      20.426  35.433  41.742  1.00  0.00     0.293 HD
ENDBRANCH   2  24
BRANCH   6  26
ATOM     26  O   UNL     1      14.870  34.892  41.563  1.00  0.00    -0.507 OA
ATOM     27  H   UNL     1      15.356  35.475  40.897  1.00  0.00     0.293 HD
ENDBRANCH   6  26
BRANCH   8  28
ATOM     28  O   UNL     1      13.336  34.560  46.101  1.00  0.00    -0.508 OA
ATOM     29  H   UNL     1      13.324  35.114  46.950  1.00  0.00     0.293 HD
ENDBRANCH   8  28
TORSDOF 7
ENDMDL
MODEL 2
REMARK VINA RESULT:    -4.245      1.209      2.811
REMARK INTER + INTRA:          -5.562
REMARK INTER:                  -5.218
REMARK INTRA:                  -0.344
REMARK UNBOUND:                -0.324
REMARK SMILES O=c1c(O)c(-c2cc(O)c(O)c(O)c2)oc2cc(O)cc(O)c12
REMARK SMILES IDX 5 1 3 2 2 3 1 4 23 5 21 6 20 7 18 8 17 9 16 10 15 11 6 12
REMARK SMILES IDX 7 13 8 14 14 15 10 16 12 17 9 18 11 20 13 22 4 24 22 26
REMARK SMILES IDX 19 28
REMARK H PARENT 9 19 11 21 13 23 4 25 22 27 19 29
REMARK Flexibility Score: inf
ROOT
ATOM      1  C   UNL     1      18.837  34.905  44.888  1.00  0.00     0.180 A 
ATOM      2  C   UNL     1      17.723  34.784  45.738  1.00  0.00     0.208 A 
ATOM      3  C   UNL     1      16.439  34.725  45.173  1.00  0.00     0.238 A 
ATOM      4  O   UNL     1      15.444  34.672  45.941  1.00  0.00    -0.285 OA
ATOM      5  C   UNL     1      16.285  34.772  43.767  1.00  0.00     0.111 A 
ATOM      6  C   UNL     1      15.035  34.679  43.085  1.00  0.00     0.134 A 
ATOM      7  C   UNL     1      14.988  34.867  41.698  1.00  0.00     0.093 A 
ATOM      8  C   UNL     1      16.155  35.080  40.961  1.00  0.00     0.123 A 
ATOM      9  C   UNL     1      17.387  35.112  41.610  1.00  0.00     0.094 A 
ATOM     10  C   UNL     1      17.461  34.964  42.997  1.00  0.00     0.146 A 
ATOM     11  O   UNL     1      18.655  35.012  43.577  1.00  0.00    -0.452 OA
ENDROOT
BRANCH   1  12
ATOM     12  C   UNL     1      20.223  34.948  45.407  1.00  0.00     0.029 A 
ATOM     13  C   UNL     1      20.765  36.172  45.828  1.00  0.00     0.062 A 
ATOM     14  C   UNL     1      22.078  36.246  46.304  1.00  0.00     0.162 A 
ATOM     15  C   UNL     1      21.030  33.798  45.434  1.00  0.00     0.062 A 
ATOM     16  C   UNL     1      22.874  35.088  46.348  1.00  0.00     0.200 A 
ATOM     17  C   UNL     1      22.348  33.863  45.906  1.00  0.00     0.162 A 
BRANCH  14  18
ATOM     18  O   UNL     1      22.575  37.477  46.727  1.00  0.00    -0.504 OA
ATOM     19  H   UNL     1      22.063  38.076  47.364  1.00  0.00     0.293 HD
ENDBRANCH  14  18
BRANCH  16  20
ATOM     20  O   UNL     1      24.183  35.169  46.827  1.00  0.00    -0.502 OA
ATOM     21  H   UNL     1      24.880  34.464  46.617  1.00  0.00     0.293 HD
ENDBRANCH  16  20
BRANCH  17  22
ATOM     22  O   UNL     1      23.137  32.714  45.935  1.00  0.00    -0.504 OA
ATOM     23  H   UNL     1      22.829  31.869  46.402  1.00  0.00     0.293 HD
ENDBRANCH  17  22
ENDBRANCH   1  12
BRANCH   2  24
ATOM     24  O   UNL     1      17.897  34.763  47.125  1.00  0.00    -0.502 OA
ATOM     25  H   UNL     1      18.458  34.060  47.592  1.00  0.00     0.293 HD
ENDBRANCH   2  24
BRANCH   6  26
ATOM     26  O   UNL     1      13.823  34.380  43.715  1.00  0.00    -0.507 OA
ATOM     27  H   UNL     1      13.481  33.446  43.890  1.00  0.00     0.293 HD
ENDBRANCH   6  26
BRANCH   8  28
ATOM     28  O   UNL     1      16.102  35.250  39.579  1.00  0.00    -0.508 OA
ATOM     29  H   UNL     1      15.395  35.831  39.144  1.00  0.00     0.293 HD
ENDBRANCH   8  28
TORSDOF 7
ENDMDL
MODEL 3
REMARK VINA RESULT:    -4.177      3.917      6.956
REMARK INTER + INTRA:          -5.478
REMARK INTER:                  -5.115
REMARK INTRA:                  -0.363
REMARK UNBOUND:                -0.324
REMARK SMILES O=c1c(O)c(-c2cc(O)c(O)c(O)c2)oc2cc(O)cc(O)c12
REMARK SMILES IDX 5 1 3 2 2 3 1 4 23 5 21 6 20 7 18 8 17 9 16 10 15 11 6 12
REMARK SMILES IDX 7 13 8 14 14 15 10 16 12 17 9 18 11 20 13 22 4 24 22 26
REMARK SMILES IDX 19 28
REMARK H PARENT 9 19 11 21 13 23 4 25 22 27 19 29
REMARK Flexibility Score: inf
ROOT
ATOM      1  C   UNL     1      21.628  34.040  42.665  1.00  0.00     0.180 A 
ATOM      2  C   UNL     1      22.907  33.651  43.100  1.00  0.00     0.208 A 
ATOM      3  C   UNL     1      23.378  34.122  44.336  1.00  0.00     0.238 A 
ATOM      4  O   UNL     1      24.545  33.814  44.694  1.00  0.00    -0.285 OA
ATOM      5  C   UNL     1      22.560  34.962  45.128  1.00  0.00     0.111 A 
ATOM      6  C   UNL     1      22.919  35.465  46.415  1.00  0.00     0.134 A 
ATOM      7  C   UNL     1      22.086  36.393  47.052  1.00  0.00     0.093 A 
ATOM      8  C   UNL     1      20.875  36.786  46.478  1.00  0.00     0.123 A 
ATOM      9  C   UNL     1      20.487  36.255  45.250  1.00  0.00     0.094 A 
ATOM     10  C   UNL     1      21.314  35.355  44.574  1.00  0.00     0.146 A 
ATOM     11  O   UNL     1      20.911  34.881  43.401  1.00  0.00    -0.452 OA
ENDROOT
BRANCH   1  12
ATOM     12  C   UNL     1      21.052  33.564  41.386  1.00  0.00     0.029 A 
ATOM     13  C   UNL     1      21.123  34.383  40.250  1.00  0.00     0.062 A 
ATOM     14  C   UNL     1      20.570  33.969  39.034  1.00  0.00     0.162 A 
ATOM     15  C   UNL     1      20.383  32.332  41.299  1.00  0.00     0.062 A 
ATOM     16  C   UNL     1      19.921  32.725  38.947  1.00  0.00     0.200 A 
ATOM     17  C   UNL     1      19.823  31.909  40.086  1.00  0.00     0.162 A 
BRANCH  14  18
ATOM     18  O   UNL     1      20.676  34.805  37.924  1.00  0.00    -0.504 OA
ATOM     19  H   UNL     1      20.181  34.620  37.060  1.00  0.00     0.293 HD
ENDBRANCH  14  18
BRANCH  16  20
ATOM     20  O   UNL     1      19.373  32.317  37.729  1.00  0.00    -0.502 OA
ATOM     21  H   UNL     1      19.949  32.111  36.921  1.00  0.00     0.293 HD
ENDBRANCH  16  20
BRANCH  17  22
ATOM     22  O   UNL     1      19.168  30.680  40.009  1.00  0.00    -0.504 OA
ATOM     23  H   UNL     1      18.370  30.466  40.596  1.00  0.00     0.293 HD
ENDBRANCH  17  22
ENDBRANCH   1  12
BRANCH   2  24
ATOM     24  O   UNL     1      23.707  32.839  42.292  1.00  0.00    -0.502 OA
ATOM     25  H   UNL     1      24.581  32.441  42.616  1.00  0.00     0.293 HD
ENDBRANCH   2  24
BRANCH   6  26
ATOM     26  O   UNL     1      24.062  35.068  47.117  1.00  0.00    -0.507 OA
ATOM     27  H   UNL     1      24.387  34.116  47.192  1.00  0.00     0.293 HD
ENDBRANCH   6  26
BRANCH   8  28
ATOM     28  O   UNL     1      20.044  37.698  47.125  1.00  0.00    -0.508 OA
ATOM     29  H   UNL     1      19.913  38.639  46.772  1.00  0.00     0.293 HD
ENDBRANCH   8  28
TORSDOF 7
ENDMDL
MODEL 4
REMARK VINA RESULT:    -4.042      3.804      7.891
REMARK INTER + INTRA:          -5.311
REMARK INTER:                  -4.988
REMARK INTRA:                  -0.324
REMARK UNBOUND:                -0.324
REMARK SMILES O=c1c(O)c(-c2cc(O)c(O)c(O)c2)oc2cc(O)cc(O)c12
REMARK SMILES IDX 5 1 3 2 2 3 1 4 23 5 21 6 20 7 18 8 17 9 16 10 15 11 6 12
REMARK SMILES IDX 7 13 8 14 14 15 10 16 12 17 9 18 11 20 13 22 4 24 22 26
REMARK SMILES IDX 19 28
REMARK H PARENT 9 19 11 21 13 23 4 25 22 27 19 29
REMARK Flexibility Score: inf
ROOT
ATOM      1  C   UNL     1      21.620  33.966  42.605  1.00  0.00     0.180 A 
ATOM      2  C   UNL     1      21.009  34.731  43.614  1.00  0.00     0.208 A 
ATOM      3  C   UNL     1      21.720  34.993  44.796  1.00  0.00     0.238 A 
ATOM      4  O   UNL     1      21.146  35.631  45.716  1.00  0.00    -0.285 OA
ATOM      5  C   UNL     1      23.038  34.501  44.948  1.00  0.00     0.111 A 
ATOM      6  C   UNL     1      23.866  34.740  46.086  1.00  0.00     0.134 A 
ATOM      7  C   UNL     1      25.106  34.097  46.187  1.00  0.00     0.093 A 
ATOM      8  C   UNL     1      25.575  33.274  45.160  1.00  0.00     0.123 A 
ATOM      9  C   UNL     1      24.800  33.083  44.018  1.00  0.00     0.094 A 
ATOM     10  C   UNL     1      23.544  33.683  43.905  1.00  0.00     0.146 A 
ATOM     11  O   UNL     1      22.834  33.465  42.805  1.00  0.00    -0.452 OA
ENDROOT
BRANCH   1  12
ATOM     12  C   UNL     1      20.944  33.670  41.321  1.00  0.00     0.029 A 
ATOM     13  C   UNL     1      21.235  34.449  40.191  1.00  0.00     0.062 A 
ATOM     14  C   UNL     1      20.597  34.205  38.972  1.00  0.00     0.162 A 
ATOM     15  C   UNL     1      19.972  32.660  41.223  1.00  0.00     0.062 A 
ATOM     16  C   UNL     1      19.640  33.179  38.873  1.00  0.00     0.200 A 
ATOM     17  C   UNL     1      19.325  32.410  40.005  1.00  0.00     0.162 A 
BRANCH  14  18
ATOM     18  O   UNL     1      20.925  34.991  37.868  1.00  0.00    -0.504 OA
ATOM     19  H   UNL     1      21.147  34.588  36.965  1.00  0.00     0.293 HD
ENDBRANCH  14  18
BRANCH  16  20
ATOM     20  O   UNL     1      19.009  32.940  37.651  1.00  0.00    -0.502 OA
ATOM     21  H   UNL     1      18.031  32.684  37.590  1.00  0.00     0.293 HD
ENDBRANCH  16  20
BRANCH  17  22
ATOM     22  O   UNL     1      18.367  31.400  39.918  1.00  0.00    -0.504 OA
ATOM     23  H   UNL     1      17.581  31.467  39.281  1.00  0.00     0.293 HD
ENDBRANCH  17  22
ENDBRANCH   1  12
BRANCH   2  24
ATOM     24  O   UNL     1      19.697  35.187  43.451  1.00  0.00    -0.502 OA
ATOM     25  H   UNL     1      18.959  34.965  44.110  1.00  0.00     0.293 HD
ENDBRANCH   2  24
BRANCH   6  26
ATOM     26  O   UNL     1      23.531  35.614  47.125  1.00  0.00    -0.507 OA
ATOM     27  H   UNL     1      23.324  36.595  47.006  1.00  0.00     0.293 HD
ENDBRANCH   6  26
BRANCH   8  28
ATOM     28  O   UNL     1      26.817  32.651  45.260  1.00  0.00    -0.508 OA
ATOM     29  H   UNL     1      27.482  32.906  45.981  1.00  0.00     0.293 HD
ENDBRANCH   8  28
TORSDOF 7
ENDMDL
MODEL 5
REMARK VINA RESULT:    -3.937      2.761      5.514
REMARK INTER + INTRA:          -5.181
REMARK INTER:                  -4.879
REMARK INTRA:                  -0.302
REMARK UNBOUND:                -0.324
REMARK SMILES O=c1c(O)c(-c2cc(O)c(O)c(O)c2)oc2cc(O)cc(O)c12
REMARK SMILES IDX 5 1 3 2 2 3 1 4 23 5 21 6 20 7 18 8 17 9 16 10 15 11 6 12
REMARK SMILES IDX 7 13 8 14 14 15 10 16 12 17 9 18 11 20 13 22 4 24 22 26
REMARK SMILES IDX 19 28
REMARK H PARENT 9 19 11 21 13 23 4 25 22 27 19 29
REMARK Flexibility Score: inf
ROOT
ATOM      1  C   UNL     1      23.090  33.946  45.218  1.00  0.00     0.180 A 
ATOM      2  C   UNL     1      23.273  34.985  46.148  1.00  0.00     0.208 A 
ATOM      3  C   UNL     1      22.245  35.924  46.330  1.00  0.00     0.238 A 
ATOM      4  O   UNL     1      22.436  36.882  47.124  1.00  0.00    -0.285 OA
ATOM      5  C   UNL     1      21.043  35.804  45.593  1.00  0.00     0.111 A 
ATOM      6  C   UNL     1      19.920  36.675  45.727  1.00  0.00     0.134 A 
ATOM      7  C   UNL     1      18.833  36.541  44.854  1.00  0.00     0.093 A 
ATOM      8  C   UNL     1      18.801  35.526  43.895  1.00  0.00     0.123 A 
ATOM      9  C   UNL     1      19.866  34.633  43.797  1.00  0.00     0.094 A 
ATOM     10  C   UNL     1      20.980  34.764  44.630  1.00  0.00     0.146 A 
ATOM     11  O   UNL     1      21.977  33.899  44.495  1.00  0.00    -0.452 OA
ENDROOT
BRANCH   1  12
ATOM     12  C   UNL     1      24.118  32.904  44.989  1.00  0.00     0.029 A 
ATOM     13  C   UNL     1      24.834  32.895  43.783  1.00  0.00     0.062 A 
ATOM     14  C   UNL     1      25.796  31.911  43.531  1.00  0.00     0.162 A 
ATOM     15  C   UNL     1      24.351  31.888  45.930  1.00  0.00     0.062 A 
ATOM     16  C   UNL     1      26.040  30.908  44.485  1.00  0.00     0.200 A 
ATOM     17  C   UNL     1      25.310  30.896  45.686  1.00  0.00     0.162 A 
BRANCH  14  18
ATOM     18  O   UNL     1      26.498  31.945  42.327  1.00  0.00    -0.504 OA
ATOM     19  H   UNL     1      27.500  31.804  42.282  1.00  0.00     0.293 HD
ENDBRANCH  14  18
BRANCH  16  20
ATOM     20  O   UNL     1      27.003  29.931  44.228  1.00  0.00    -0.502 OA
ATOM     21  H   UNL     1      27.920  29.950  44.658  1.00  0.00     0.293 HD
ENDBRANCH  16  20
BRANCH  17  22
ATOM     22  O   UNL     1      25.538  29.896  46.630  1.00  0.00    -0.504 OA
ATOM     23  H   UNL     1      26.475  29.657  46.935  1.00  0.00     0.293 HD
ENDBRANCH  17  22
ENDBRANCH   1  12
BRANCH   2  24
ATOM     24  O   UNL     1      24.477  35.097  46.848  1.00  0.00    -0.502 OA
ATOM     25  H   UNL     1      25.058  35.926  46.802  1.00  0.00     0.293 HD
ENDBRANCH   2  24
BRANCH   6  26
ATOM     26  O   UNL     1      19.811  37.663  46.710  1.00  0.00    -0.507 OA
ATOM     27  H   UNL     1      18.985  37.834  47.265  1.00  0.00     0.293 HD
ENDBRANCH   6  26
BRANCH   8  28
ATOM     28  O   UNL     1      17.709  35.389  43.041  1.00  0.00    -0.508 OA
ATOM     29  H   UNL     1      17.310  34.481  42.832  1.00  0.00     0.293 HD
ENDBRANCH   8  28
TORSDOF 7
ENDMDL
MODEL 6
REMARK VINA RESULT:    -3.934      3.612      4.355
REMARK INTER + INTRA:          -5.177
REMARK INTER:                  -4.835
REMARK INTRA:                  -0.343
REMARK UNBOUND:                -0.324
REMARK SMILES O=c1c(O)c(-c2cc(O)c(O)c(O)c2)oc2cc(O)cc(O)c12
REMARK SMILES IDX 5 1 3 2 2 3 1 4 23 5 21 6 20 7 18 8 17 9 16 10 15 11 6 12
REMARK SMILES IDX 7 13 8 14 14 15 10 16 12 17 9 18 11 20 13 22 4 24 22 26
REMARK SMILES IDX 19 28
REMARK H PARENT 9 19 11 21 13 23 4 25 22 27 19 29
REMARK Flexibility Score: inf
ROOT
ATOM      1  C   UNL     1      20.536  33.829  43.240  1.00  0.00     0.180 A 
ATOM      2  C   UNL     1      20.672  34.032  41.855  1.00  0.00     0.208 A 
ATOM      3  C   UNL     1      20.166  33.064  40.972  1.00  0.00     0.238 A 
ATOM      4  O   UNL     1      20.339  33.225  39.736  1.00  0.00    -0.285 OA
ATOM      5  C   UNL     1      19.517  31.915  41.484  1.00  0.00     0.111 A 
ATOM      6  C   UNL     1      18.931  30.890  40.681  1.00  0.00     0.134 A 
ATOM      7  C   UNL     1      18.430  29.734  41.293  1.00  0.00     0.093 A 
ATOM      8  C   UNL     1      18.435  29.596  42.683  1.00  0.00     0.123 A 
ATOM      9  C   UNL     1      18.950  30.617  43.478  1.00  0.00     0.094 A 
ATOM     10  C   UNL     1      19.490  31.766  42.895  1.00  0.00     0.146 A 
ATOM     11  O   UNL     1      19.980  32.710  43.689  1.00  0.00    -0.452 OA
ENDROOT
BRANCH   1  12
ATOM     12  C   UNL     1      21.021  34.816  44.232  1.00  0.00     0.029 A 
ATOM     13  C   UNL     1      22.213  34.566  44.928  1.00  0.00     0.062 A 
ATOM     14  C   UNL     1      22.685  35.470  45.884  1.00  0.00     0.162 A 
ATOM     15  C   UNL     1      20.282  35.972  44.534  1.00  0.00     0.062 A 
ATOM     16  C   UNL     1      21.953  36.636  46.169  1.00  0.00     0.200 A 
ATOM     17  C   UNL     1      20.745  36.883  45.494  1.00  0.00     0.162 A 
BRANCH  14  18
ATOM     18  O   UNL     1      23.882  35.194  46.543  1.00  0.00    -0.504 OA
ATOM     19  H   UNL     1      24.486  34.429  46.266  1.00  0.00     0.293 HD
ENDBRANCH  14  18
BRANCH  16  20
ATOM     20  O   UNL     1      22.431  37.536  47.123  1.00  0.00    -0.502 OA
ATOM     21  H   UNL     1      22.999  37.238  47.908  1.00  0.00     0.293 HD
ENDBRANCH  16  20
BRANCH  17  22
ATOM     22  O   UNL     1      20.008  38.031  45.781  1.00  0.00    -0.504 OA
ATOM     23  H   UNL     1      19.078  38.173  45.403  1.00  0.00     0.293 HD
ENDBRANCH  17  22
ENDBRANCH   1  12
BRANCH   2  24
ATOM     24  O   UNL     1      21.336  35.163  41.373  1.00  0.00    -0.502 OA
ATOM     25  H   UNL     1      21.947  35.724  41.955  1.00  0.00     0.293 HD
ENDBRANCH   2  24
BRANCH   6  26
ATOM     26  O   UNL     1      18.794  30.969  39.292  1.00  0.00    -0.507 OA
ATOM     27  H   UNL     1      17.961  31.282  38.814  1.00  0.00     0.293 HD
ENDBRANCH   6  26
BRANCH   8  28
ATOM     28  O   UNL     1      17.920  28.450  43.285  1.00  0.00    -0.508 OA
ATOM     29  H   UNL     1      18.476  27.609  43.387  1.00  0.00     0.293 HD
ENDBRANCH   8  28
TORSDOF 7
ENDMDL
MODEL 7
REMARK VINA RESULT:    -3.921      1.559      7.088
REMARK INTER + INTRA:          -5.162
REMARK INTER:                  -4.822
REMARK INTRA:                  -0.340
REMARK UNBOUND:                -0.324
REMARK SMILES O=c1c(O)c(-c2cc(O)c(O)c(O)c2)oc2cc(O)cc(O)c12
REMARK SMILES IDX 5 1 3 2 2 3 1 4 23 5 21 6 20 7 18 8 17 9 16 10 15 11 6 12
REMARK SMILES IDX 7 13 8 14 14 15 10 16 12 17 9 18 11 20 13 22 4 24 22 26
REMARK SMILES IDX 19 28
REMARK H PARENT 9 19 11 21 13 23 4 25 22 27 19 29
REMARK Flexibility Score: inf
ROOT
ATOM      1  C   UNL     1      18.588  34.461  43.431  1.00  0.00     0.180 A 
ATOM      2  C   UNL     1      19.184  33.189  43.396  1.00  0.00     0.208 A 
ATOM      3  C   UNL     1      20.375  32.974  44.109  1.00  0.00     0.238 A 
ATOM      4  O   UNL     1      20.932  31.849  44.029  1.00  0.00    -0.285 OA
ATOM      5  C   UNL     1      20.945  34.029  44.860  1.00  0.00     0.111 A 
ATOM      6  C   UNL     1      22.127  33.913  45.653  1.00  0.00     0.134 A 
ATOM      7  C   UNL     1      22.673  35.055  46.250  1.00  0.00     0.093 A 
ATOM      8  C   UNL     1      22.045  36.298  46.137  1.00  0.00     0.123 A 
ATOM      9  C   UNL     1      20.859  36.410  45.415  1.00  0.00     0.094 A 
ATOM     10  C   UNL     1      20.309  35.294  44.779  1.00  0.00     0.146 A 
ATOM     11  O   UNL     1      19.183  35.448  44.092  1.00  0.00    -0.452 OA
ENDROOT
BRANCH   1  12
ATOM     12  C   UNL     1      17.320  34.757  42.725  1.00  0.00     0.029 A 
ATOM     13  C   UNL     1      17.351  35.101  41.365  1.00  0.00     0.062 A 
ATOM     14  C   UNL     1      16.171  35.406  40.679  1.00  0.00     0.162 A 
ATOM     15  C   UNL     1      16.090  34.758  43.403  1.00  0.00     0.062 A 
ATOM     16  C   UNL     1      14.940  35.384  41.356  1.00  0.00     0.200 A 
ATOM     17  C   UNL     1      14.902  35.064  42.724  1.00  0.00     0.162 A 
BRANCH  14  18
ATOM     18  O   UNL     1      16.242  35.727  39.324  1.00  0.00    -0.504 OA
ATOM     19  H   UNL     1      15.526  35.446  38.665  1.00  0.00     0.293 HD
ENDBRANCH  14  18
BRANCH  16  20
ATOM     20  O   UNL     1      13.766  35.687  40.664  1.00  0.00    -0.502 OA
ATOM     21  H   UNL     1      13.776  36.058  39.721  1.00  0.00     0.293 HD
ENDBRANCH  16  20
BRANCH  17  22
ATOM     22  O   UNL     1      13.686  35.055  43.405  1.00  0.00    -0.504 OA
ATOM     23  H   UNL     1      12.850  35.466  43.006  1.00  0.00     0.293 HD
ENDBRANCH  17  22
ENDBRANCH   1  12
BRANCH   2  24
ATOM     24  O   UNL     1      18.616  32.168  42.628  1.00  0.00    -0.502 OA
ATOM     25  H   UNL     1      19.066  31.795  41.800  1.00  0.00     0.293 HD
ENDBRANCH   2  24
BRANCH   6  26
ATOM     26  O   UNL     1      22.782  32.703  45.905  1.00  0.00    -0.507 OA
ATOM     27  H   UNL     1      23.299  32.495  46.746  1.00  0.00     0.293 HD
ENDBRANCH   6  26
BRANCH   8  28
ATOM     28  O   UNL     1      22.586  37.427  46.748  1.00  0.00    -0.508 OA
ATOM     29  H   UNL     1      22.002  38.199  47.047  1.00  0.00     0.293 HD
ENDBRANCH   8  28
TORSDOF 7
ENDMDL
MODEL 8
REMARK VINA RESULT:    -3.898      2.924      3.266
REMARK INTER + INTRA:          -5.133
REMARK INTER:                  -4.786
REMARK INTRA:                  -0.347
REMARK UNBOUND:                -0.324
REMARK SMILES O=c1c(O)c(-c2cc(O)c(O)c(O)c2)oc2cc(O)cc(O)c12
REMARK SMILES IDX 5 1 3 2 2 3 1 4 23 5 21 6 20 7 18 8 17 9 16 10 15 11 6 12
REMARK SMILES IDX 7 13 8 14 14 15 10 16 12 17 9 18 11 20 13 22 4 24 22 26
REMARK SMILES IDX 19 28
REMARK H PARENT 9 19 11 21 13 23 4 25 22 27 19 29
REMARK Flexibility Score: inf
ROOT
ATOM      1  C   UNL     1      19.855  33.964  43.424  1.00  0.00     0.180 A 
ATOM      2  C   UNL     1      20.133  34.016  42.047  1.00  0.00     0.208 A 
ATOM      3  C   UNL     1      19.428  33.169  41.176  1.00  0.00     0.238 A 
ATOM      4  O   UNL     1      19.721  33.183  39.953  1.00  0.00    -0.285 OA
ATOM      5  C   UNL     1      18.443  32.293  41.691  1.00  0.00     0.111 A 
ATOM      6  C   UNL     1      17.640  31.420  40.897  1.00  0.00     0.134 A 
ATOM      7  C   UNL     1      16.788  30.503  41.525  1.00  0.00     0.093 A 
ATOM      8  C   UNL     1      16.662  30.472  42.915  1.00  0.00     0.123 A 
ATOM      9  C   UNL     1      17.397  31.361  43.696  1.00  0.00     0.094 A 
ATOM     10  C   UNL     1      18.282  32.263  43.100  1.00  0.00     0.146 A 
ATOM     11  O   UNL     1      18.972  33.085  43.883  1.00  0.00    -0.452 OA
ENDROOT
BRANCH   1  12
ATOM     12  C   UNL     1      20.539  34.843  44.400  1.00  0.00     0.029 A 
ATOM     13  C   UNL     1      19.951  36.066  44.758  1.00  0.00     0.062 A 
ATOM     14  C   UNL     1      20.584  36.925  45.661  1.00  0.00     0.162 A 
ATOM     15  C   UNL     1      21.794  34.506  44.933  1.00  0.00     0.062 A 
ATOM     16  C   UNL     1      21.830  36.573  46.209  1.00  0.00     0.200 A 
ATOM     17  C   UNL     1      22.437  35.362  45.838  1.00  0.00     0.162 A 
BRANCH  14  18
ATOM     18  O   UNL     1      19.960  38.124  46.004  1.00  0.00    -0.504 OA
ATOM     19  H   UNL     1      19.585  38.755  45.306  1.00  0.00     0.293 HD
ENDBRANCH  14  18
BRANCH  16  20
ATOM     20  O   UNL     1      22.454  37.435  47.112  1.00  0.00    -0.502 OA
ATOM     21  H   UNL     1      21.930  38.065  47.708  1.00  0.00     0.293 HD
ENDBRANCH  16  20
BRANCH  17  22
ATOM     22  O   UNL     1      23.680  35.014  46.366  1.00  0.00    -0.504 OA
ATOM     23  H   UNL     1      24.095  34.106  46.193  1.00  0.00     0.293 HD
ENDBRANCH  17  22
ENDBRANCH   1  12
BRANCH   2  24
ATOM     24  O   UNL     1      21.126  34.873  41.563  1.00  0.00    -0.502 OA
ATOM     25  H   UNL     1      21.577  35.568  42.147  1.00  0.00     0.293 HD
ENDBRANCH   2  24
BRANCH   6  26
ATOM     26  O   UNL     1      17.622  31.433  39.499  1.00  0.00    -0.507 OA
ATOM     27  H   UNL     1      17.012  32.008  38.937  1.00  0.00     0.293 HD
ENDBRANCH   6  26
BRANCH   8  28
ATOM     28  O   UNL     1      15.800  29.568  43.531  1.00  0.00    -0.508 OA
ATOM     29  H   UNL     1      15.033  29.138  43.026  1.00  0.00     0.293 HD
ENDBRANCH   8  28
TORSDOF 7
ENDMDL
MODEL 9
REMARK VINA RESULT:    -3.856      2.160      3.418
REMARK INTER + INTRA:          -5.081
REMARK INTER:                  -4.717
REMARK INTRA:                  -0.364
REMARK UNBOUND:                -0.324
REMARK SMILES O=c1c(O)c(-c2cc(O)c(O)c(O)c2)oc2cc(O)cc(O)c12
REMARK SMILES IDX 5 1 3 2 2 3 1 4 23 5 21 6 20 7 18 8 17 9 16 10 15 11 6 12
REMARK SMILES IDX 7 13 8 14 14 15 10 16 12 17 9 18 11 20 13 22 4 24 22 26
REMARK SMILES IDX 19 28
REMARK H PARENT 9 19 11 21 13 23 4 25 22 27 19 29
REMARK Flexibility Score: inf
ROOT
ATOM      1  C   UNL     1      17.872  34.660  43.697  1.00  0.00     0.180 A 
ATOM      2  C   UNL     1      17.260  33.493  44.188  1.00  0.00     0.208 A 
ATOM      3  C   UNL     1      16.212  32.914  43.455  1.00  0.00     0.238 A 
ATOM      4  O   UNL     1      15.633  31.902  43.927  1.00  0.00    -0.285 OA
ATOM      5  C   UNL     1      15.800  33.499  42.234  1.00  0.00     0.111 A 
ATOM      6  C   UNL     1      14.775  32.975  41.389  1.00  0.00     0.134 A 
ATOM      7  C   UNL     1      14.360  33.707  40.270  1.00  0.00     0.093 A 
ATOM      8  C   UNL     1      14.978  34.912  39.929  1.00  0.00     0.123 A 
ATOM      9  C   UNL     1      16.019  35.403  40.714  1.00  0.00     0.094 A 
ATOM     10  C   UNL     1      16.430  34.713  41.857  1.00  0.00     0.146 A 
ATOM     11  O   UNL     1      17.419  35.221  42.582  1.00  0.00    -0.452 OA
ENDROOT
BRANCH   1  12
ATOM     12  C   UNL     1      19.000  35.314  44.401  1.00  0.00     0.029 A 
ATOM     13  C   UNL     1      18.747  36.405  45.246  1.00  0.00     0.062 A 
ATOM     14  C   UNL     1      19.794  37.055  45.907  1.00  0.00     0.162 A 
ATOM     15  C   UNL     1      20.327  34.902  44.195  1.00  0.00     0.062 A 
ATOM     16  C   UNL     1      21.119  36.625  45.714  1.00  0.00     0.200 A 
ATOM     17  C   UNL     1      21.384  35.549  44.851  1.00  0.00     0.162 A 
BRANCH  14  18
ATOM     18  O   UNL     1      19.500  38.125  46.750  1.00  0.00    -0.504 OA
ATOM     19  H   UNL     1      18.563  38.499  46.840  1.00  0.00     0.293 HD
ENDBRANCH  14  18
BRANCH  16  20
ATOM     20  O   UNL     1      22.158  37.277  46.379  1.00  0.00    -0.502 OA
ATOM     21  H   UNL     1      22.402  37.064  47.339  1.00  0.00     0.293 HD
ENDBRANCH  16  20
BRANCH  17  22
ATOM     22  O   UNL     1      22.697  35.127  44.645  1.00  0.00    -0.504 OA
ATOM     23  H   UNL     1      22.921  34.390  43.987  1.00  0.00     0.293 HD
ENDBRANCH  17  22
ENDBRANCH   1  12
BRANCH   2  24
ATOM     24  O   UNL     1      17.669  32.946  45.407  1.00  0.00    -0.502 OA
ATOM     25  H   UNL     1      17.467  33.388  46.297  1.00  0.00     0.293 HD
ENDBRANCH   2  24
BRANCH   6  26
ATOM     26  O   UNL     1      14.157  31.736  41.589  1.00  0.00    -0.507 OA
ATOM     27  H   UNL     1      13.295  31.447  41.151  1.00  0.00     0.293 HD
ENDBRANCH   6  26
BRANCH   8  28
ATOM     28  O   UNL     1      14.570  35.627  38.804  1.00  0.00    -0.508 OA
ATOM     29  H   UNL     1      13.966  35.212  38.103  1.00  0.00     0.293 HD
ENDBRANCH   8  28
TORSDOF 7
ENDMDL
