MODEL 1
REMARK VINA RESULT:    -3.350      0.000      0.000
REMARK INTER + INTRA:          -5.721
REMARK INTER:                  -4.818
REMARK INTRA:                  -0.903
REMARK UNBOUND:                -0.903
REMARK SMILES O=C(CO)[C@H](O)[C@H](O)[C@H](O)CO
REMARK SMILES IDX 7 1 9 2 11 3 12 4 10 6 5 8 2 9 1 10 3 11 4 12 6 14 8 16
REMARK H PARENT 12 5 10 7 4 13 6 15 8 17
REMARK Flexibility Score: inf
ROOT
ATOM      1  C   UNL     1      -2.937  67.723  -5.767  1.00  0.00     0.181 C 
ENDROOT
BRANCH   1   2
ATOM      2  C   UNL     1      -1.889  68.820  -6.104  1.00  0.00     0.171 C 
BRANCH   2   3
ATOM      3  C   UNL     1      -0.621  68.717  -5.243  1.00  0.00     0.190 C 
BRANCH   3   4
ATOM      4  O   UNL     1      -0.908  69.115  -3.932  1.00  0.00    -0.394 OA
ATOM      5  H   UNL     1      -0.814  68.303  -3.369  1.00  0.00     0.210 HD
ENDBRANCH   3   4
ENDBRANCH   2   3
BRANCH   2   6
ATOM      6  O   UNL     1      -1.526  68.722  -7.458  1.00  0.00    -0.388 OA
ATOM      7  H   UNL     1      -1.052  69.562  -7.691  1.00  0.00     0.211 HD
ENDBRANCH   2   6
ENDBRANCH   1   2
BRANCH   1   8
ATOM      8  C   UNL     1      -4.044  67.581  -6.846  1.00  0.00     0.214 C 
BRANCH   8   9
ATOM      9  C   UNL     1      -5.395  67.302  -6.210  1.00  0.00     0.189 C 
ATOM     10  O   UNL     1      -5.580  66.225  -5.661  1.00  0.00    -0.294 OA
BRANCH   9  11
ATOM     11  C   UNL     1      -6.503  68.323  -6.194  1.00  0.00     0.234 C 
BRANCH  11  12
ATOM     12  O   UNL     1      -6.614  68.902  -4.923  1.00  0.00    -0.388 OA
ATOM     13  H   UNL     1      -7.240  68.332  -4.405  1.00  0.00     0.211 HD
ENDBRANCH  11  12
ENDBRANCH   9  11
ENDBRANCH   8   9
BRANCH   8  14
ATOM     14  O   UNL     1      -3.715  66.596  -7.796  1.00  0.00    -0.382 OA
ATOM     15  H   UNL     1      -4.539  66.377  -8.305  1.00  0.00     0.211 HD
ENDBRANCH   8  14
ENDBRANCH   1   8
BRANCH   1  16
ATOM     16  O   UNL     1      -3.532  67.994  -4.520  1.00  0.00    -0.387 OA
ATOM     17  H   UNL     1      -2.915  68.598  -4.030  1.00  0.00     0.211 HD
ENDBRANCH   1  16
TORSDOF 10
ENDMDL
MODEL 2
REMARK VINA RESULT:    -3.344     21.263     22.412
REMARK INTER + INTRA:          -5.713
REMARK INTER:                  -4.894
REMARK INTRA:                  -0.819
REMARK UNBOUND:                -0.903
REMARK SMILES O=C(CO)[C@H](O)[C@H](O)[C@H](O)CO
REMARK SMILES IDX 7 1 9 2 11 3 12 4 10 6 5 8 2 9 1 10 3 11 4 12 6 14 8 16
REMARK H PARENT 12 5 10 7 4 13 6 15 8 17
REMARK Flexibility Score: inf
ROOT
ATOM      1  C   UNL     1      -8.130  52.938   9.018  1.00  0.00     0.181 C 
ENDROOT
BRANCH   1   2
ATOM      2  C   UNL     1      -7.386  53.736  10.125  1.00  0.00     0.171 C 
BRANCH   2   3
ATOM      3  C   UNL     1      -5.868  53.494  10.116  1.00  0.00     0.190 C 
BRANCH   3   4
ATOM      4  O   UNL     1      -5.235  54.503   9.379  1.00  0.00    -0.394 OA
ATOM      5  H   UNL     1      -5.327  54.247   8.425  1.00  0.00     0.210 HD
ENDBRANCH   3   4
ENDBRANCH   2   3
BRANCH   2   6
ATOM      6  O   UNL     1      -7.624  55.110   9.954  1.00  0.00    -0.388 OA
ATOM      7  H   UNL     1      -8.309  55.369  10.624  1.00  0.00     0.211 HD
ENDBRANCH   2   6
ENDBRANCH   1   2
BRANCH   1   8
ATOM      8  C   UNL     1      -8.706  51.586   9.519  1.00  0.00     0.214 C 
BRANCH   8   9
ATOM      9  C   UNL     1      -7.974  50.412   8.892  1.00  0.00     0.189 C 
ATOM     10  O   UNL     1      -8.376  49.965   7.827  1.00  0.00    -0.294 OA
BRANCH   9  11
ATOM     11  C   UNL     1      -6.743  49.807   9.513  1.00  0.00     0.234 C 
BRANCH  11  12
ATOM     12  O   UNL     1      -5.597  50.199   8.808  1.00  0.00    -0.388 OA
ATOM     13  H   UNL     1      -5.576  49.657   7.977  1.00  0.00     0.211 HD
ENDBRANCH  11  12
ENDBRANCH   9  11
ENDBRANCH   8   9
BRANCH   8  14
ATOM     14  O   UNL     1     -10.093  51.501   9.294  1.00  0.00    -0.382 OA
ATOM     15  H   UNL     1     -10.389  52.360   8.890  1.00  0.00     0.211 HD
ENDBRANCH   8  14
ENDBRANCH   1   8
BRANCH   1  16
ATOM     16  O   UNL     1      -7.265  52.703   7.932  1.00  0.00    -0.387 OA
ATOM     17  H   UNL     1      -6.341  52.861   8.258  1.00  0.00     0.211 HD
ENDBRANCH   1  16
TORSDOF 10
ENDMDL
MODEL 3
REMARK VINA RESULT:    -3.273      1.249      2.420
REMARK INTER + INTRA:          -5.611
REMARK INTER:                  -4.658
REMARK INTRA:                  -0.953
REMARK UNBOUND:                -0.903
REMARK SMILES O=C(CO)[C@H](O)[C@H](O)[C@H](O)CO
REMARK SMILES IDX 7 1 9 2 11 3 12 4 10 6 5 8 2 9 1 10 3 11 4 12 6 14 8 16
REMARK H PARENT 12 5 10 7 4 13 6 15 8 17
REMARK Flexibility Score: inf
ROOT
ATOM      1  C   UNL     1      -2.877  67.723  -6.684  1.00  0.00     0.181 C 
ENDROOT
BRANCH   1   2
ATOM      2  C   UNL     1      -1.353  67.531  -6.451  1.00  0.00     0.171 C 
BRANCH   2   3
ATOM      3  C   UNL     1      -0.512  67.881  -7.689  1.00  0.00     0.190 C 
BRANCH   3   4
ATOM      4  O   UNL     1      -0.506  66.796  -8.575  1.00  0.00    -0.394 OA
ATOM      5  H   UNL     1      -1.457  66.584  -8.760  1.00  0.00     0.210 HD
ENDBRANCH   3   4
ENDBRANCH   2   3
BRANCH   2   6
ATOM      6  O   UNL     1      -0.937  68.340  -5.380  1.00  0.00    -0.388 OA
ATOM      7  H   UNL     1       0.023  68.546  -5.530  1.00  0.00     0.211 HD
ENDBRANCH   2   6
ENDBRANCH   1   2
BRANCH   1   8
ATOM      8  C   UNL     1      -3.727  67.489  -5.407  1.00  0.00     0.214 C 
BRANCH   8   9
ATOM      9  C   UNL     1      -5.179  67.213  -5.757  1.00  0.00     0.189 C 
ATOM     10  O   UNL     1      -5.583  66.059  -5.738  1.00  0.00    -0.294 OA
BRANCH   9  11
ATOM     11  C   UNL     1      -6.151  68.316  -6.085  1.00  0.00     0.234 C 
BRANCH  11  12
ATOM     12  O   UNL     1      -6.667  68.877  -4.909  1.00  0.00    -0.388 OA
ATOM     13  H   UNL     1      -6.007  68.689  -4.192  1.00  0.00     0.211 HD
ENDBRANCH  11  12
ENDBRANCH   9  11
ENDBRANCH   8   9
BRANCH   8  14
ATOM     14  O   UNL     1      -3.616  68.568  -4.508  1.00  0.00    -0.382 OA
ATOM     15  H   UNL     1      -3.151  69.309  -4.979  1.00  0.00     0.211 HD
ENDBRANCH   8  14
ENDBRANCH   1   8
BRANCH   1  16
ATOM     16  O   UNL     1      -3.319  66.859  -7.704  1.00  0.00    -0.387 OA
ATOM     17  H   UNL     1      -3.605  67.430  -8.464  1.00  0.00     0.211 HD
ENDBRANCH   1  16
TORSDOF 10
ENDMDL
MODEL 4
REMARK VINA RESULT:    -3.236     21.695     23.148
REMARK INTER + INTRA:          -5.558
REMARK INTER:                  -4.823
REMARK INTRA:                  -0.735
REMARK UNBOUND:                -0.903
REMARK SMILES O=C(CO)[C@H](O)[C@H](O)[C@H](O)CO
REMARK SMILES IDX 7 1 9 2 11 3 12 4 10 6 5 8 2 9 1 10 3 11 4 12 6 14 8 16
REMARK H PARENT 12 5 10 7 4 13 6 15 8 17
REMARK Flexibility Score: inf
ROOT
ATOM      1  C   UNL     1      -9.211  50.978   8.711  1.00  0.00     0.181 C 
ENDROOT
BRANCH   1   2
ATOM      2  C   UNL     1      -9.331  49.448   8.462  1.00  0.00     0.171 C 
BRANCH   2   3
ATOM      3  C   UNL     1     -10.681  48.875   8.921  1.00  0.00     0.190 C 
BRANCH   3   4
ATOM      4  O   UNL     1     -11.723  49.544   8.266  1.00  0.00    -0.394 OA
ATOM      5  H   UNL     1     -12.544  49.360   8.793  1.00  0.00     0.210 HD
ENDBRANCH   3   4
ENDBRANCH   2   3
BRANCH   2   6
ATOM      6  O   UNL     1      -9.170  49.181   7.092  1.00  0.00    -0.388 OA
ATOM      7  H   UNL     1     -10.054  48.889   6.750  1.00  0.00     0.211 HD
ENDBRANCH   2   6
ENDBRANCH   1   2
BRANCH   1   8
ATOM      8  C   UNL     1      -7.745  51.455   8.895  1.00  0.00     0.214 C 
BRANCH   8   9
ATOM      9  C   UNL     1      -7.692  52.917   9.303  1.00  0.00     0.189 C 
ATOM     10  O   UNL     1      -8.673  53.621   9.110  1.00  0.00    -0.294 OA
BRANCH   9  11
ATOM     11  C   UNL     1      -6.489  53.521   9.978  1.00  0.00     0.234 C 
BRANCH  11  12
ATOM     12  O   UNL     1      -5.894  54.481   9.149  1.00  0.00    -0.388 OA
ATOM     13  H   UNL     1      -6.585  55.172   8.974  1.00  0.00     0.211 HD
ENDBRANCH  11  12
ENDBRANCH   9  11
ENDBRANCH   8   9
BRANCH   8  14
ATOM     14  O   UNL     1      -6.977  51.220   7.739  1.00  0.00    -0.382 OA
ATOM     15  H   UNL     1      -7.187  50.305   7.414  1.00  0.00     0.211 HD
ENDBRANCH   8  14
ENDBRANCH   1   8
BRANCH   1  16
ATOM     16  O   UNL     1      -9.966  51.341   9.842  1.00  0.00    -0.387 OA
ATOM     17  H   UNL     1     -10.168  50.505  10.337  1.00  0.00     0.211 HD
ENDBRANCH   1  16
TORSDOF 10
ENDMDL
MODEL 5
REMARK VINA RESULT:    -3.222      1.238      2.159
REMARK INTER + INTRA:          -5.537
REMARK INTER:                  -4.684
REMARK INTRA:                  -0.853
REMARK UNBOUND:                -0.903
REMARK SMILES O=C(CO)[C@H](O)[C@H](O)[C@H](O)CO
REMARK SMILES IDX 7 1 9 2 11 3 12 4 10 6 5 8 2 9 1 10 3 11 4 12 6 14 8 16
REMARK H PARENT 12 5 10 7 4 13 6 15 8 17
REMARK Flexibility Score: inf
ROOT
ATOM      1  C   UNL     1      -3.772  67.933  -5.390  1.00  0.00     0.181 C 
ENDROOT
BRANCH   1   2
ATOM      2  C   UNL     1      -2.587  68.279  -6.333  1.00  0.00     0.171 C 
BRANCH   2   3
ATOM      3  C   UNL     1      -1.264  68.482  -5.578  1.00  0.00     0.190 C 
BRANCH   3   4
ATOM      4  O   UNL     1      -1.513  69.125  -4.359  1.00  0.00    -0.394 OA
ATOM      5  H   UNL     1      -2.470  69.386  -4.374  1.00  0.00     0.210 HD
ENDBRANCH   3   4
ENDBRANCH   2   3
BRANCH   2   6
ATOM      6  O   UNL     1      -2.417  67.247  -7.271  1.00  0.00    -0.388 OA
ATOM      7  H   UNL     1      -1.452  67.014  -7.272  1.00  0.00     0.211 HD
ENDBRANCH   2   6
ENDBRANCH   1   2
BRANCH   1   8
ATOM      8  C   UNL     1      -4.971  67.280  -6.127  1.00  0.00     0.214 C 
BRANCH   8   9
ATOM      9  C   UNL     1      -5.824  68.327  -6.821  1.00  0.00     0.189 C 
ATOM     10  O   UNL     1      -6.496  69.089  -6.141  1.00  0.00    -0.294 OA
BRANCH   9  11
ATOM     11  C   UNL     1      -5.837  68.490  -8.319  1.00  0.00     0.234 C 
BRANCH  11  12
ATOM     12  O   UNL     1      -4.885  67.648  -8.909  1.00  0.00    -0.388 OA
ATOM     13  H   UNL     1      -5.080  67.638  -9.882  1.00  0.00     0.211 HD
ENDBRANCH  11  12
ENDBRANCH   9  11
ENDBRANCH   8   9
BRANCH   8  14
ATOM     14  O   UNL     1      -5.745  66.490  -5.254  1.00  0.00    -0.382 OA
ATOM     15  H   UNL     1      -5.152  65.790  -4.871  1.00  0.00     0.211 HD
ENDBRANCH   8  14
ENDBRANCH   1   8
BRANCH   1  16
ATOM     16  O   UNL     1      -4.209  69.093  -4.723  1.00  0.00    -0.387 OA
ATOM     17  H   UNL     1      -4.160  69.839  -5.376  1.00  0.00     0.211 HD
ENDBRANCH   1  16
TORSDOF 10
ENDMDL
MODEL 6
REMARK VINA RESULT:    -3.151      1.855      4.523
REMARK INTER + INTRA:          -5.435
REMARK INTER:                  -4.368
REMARK INTRA:                  -1.067
REMARK UNBOUND:                -0.903
REMARK SMILES O=C(CO)[C@H](O)[C@H](O)[C@H](O)CO
REMARK SMILES IDX 7 1 9 2 11 3 12 4 10 6 5 8 2 9 1 10 3 11 4 12 6 14 8 16
REMARK H PARENT 12 5 10 7 4 13 6 15 8 17
REMARK Flexibility Score: inf
ROOT
ATOM      1  C   UNL     1      -5.324  68.316  -6.790  1.00  0.00     0.181 C 
ENDROOT
BRANCH   1   2
ATOM      2  C   UNL     1      -5.643  67.928  -8.261  1.00  0.00     0.171 C 
BRANCH   2   3
ATOM      3  C   UNL     1      -6.538  68.957  -8.967  1.00  0.00     0.190 C 
BRANCH   3   4
ATOM      4  O   UNL     1      -7.883  68.684  -8.684  1.00  0.00    -0.394 OA
ATOM      5  H   UNL     1      -7.895  68.257  -7.789  1.00  0.00     0.210 HD
ENDBRANCH   3   4
ENDBRANCH   2   3
BRANCH   2   6
ATOM      6  O   UNL     1      -4.444  67.801  -8.983  1.00  0.00    -0.388 OA
ATOM      7  H   UNL     1      -4.201  66.839  -8.971  1.00  0.00     0.211 HD
ENDBRANCH   2   6
ENDBRANCH   1   2
BRANCH   1   8
ATOM      8  C   UNL     1      -4.452  67.263  -6.054  1.00  0.00     0.214 C 
BRANCH   8   9
ATOM      9  C   UNL     1      -3.131  67.864  -5.606  1.00  0.00     0.189 C 
ATOM     10  O   UNL     1      -3.129  68.672  -4.689  1.00  0.00    -0.294 OA
BRANCH   9  11
ATOM     11  C   UNL     1      -1.816  67.464  -6.222  1.00  0.00     0.234 C 
BRANCH  11  12
ATOM     12  O   UNL     1      -1.930  67.402  -7.617  1.00  0.00    -0.388 OA
ATOM     13  H   UNL     1      -1.059  67.069  -7.958  1.00  0.00     0.211 HD
ENDBRANCH  11  12
ENDBRANCH   9  11
ENDBRANCH   8   9
BRANCH   8  14
ATOM     14  O   UNL     1      -4.248  66.117  -6.845  1.00  0.00    -0.382 OA
ATOM     15  H   UNL     1      -3.325  66.159  -7.210  1.00  0.00     0.211 HD
ENDBRANCH   8  14
ENDBRANCH   1   8
BRANCH   1  16
ATOM     16  O   UNL     1      -6.520  68.513  -6.076  1.00  0.00    -0.387 OA
ATOM     17  H   UNL     1      -6.702  67.675  -5.576  1.00  0.00     0.211 HD
ENDBRANCH   1  16
TORSDOF 10
ENDMDL
MODEL 7
REMARK VINA RESULT:    -3.079      1.533      4.406
REMARK INTER + INTRA:          -5.331
REMARK INTER:                  -4.288
REMARK INTRA:                  -1.043
REMARK UNBOUND:                -0.903
REMARK SMILES O=C(CO)[C@H](O)[C@H](O)[C@H](O)CO
REMARK SMILES IDX 7 1 9 2 11 3 12 4 10 6 5 8 2 9 1 10 3 11 4 12 6 14 8 16
REMARK H PARENT 12 5 10 7 4 13 6 15 8 17
REMARK Flexibility Score: inf
ROOT
ATOM      1  C   UNL     1      -4.326  67.313  -5.638  1.00  0.00     0.181 C 
ENDROOT
BRANCH   1   2
ATOM      2  C   UNL     1      -5.773  67.758  -5.989  1.00  0.00     0.171 C 
BRANCH   2   3
ATOM      3  C   UNL     1      -6.137  69.125  -5.390  1.00  0.00     0.190 C 
BRANCH   3   4
ATOM      4  O   UNL     1      -7.204  68.977  -4.494  1.00  0.00    -0.394 OA
ATOM      5  H   UNL     1      -7.898  68.457  -4.975  1.00  0.00     0.210 HD
ENDBRANCH   3   4
ENDBRANCH   2   3
BRANCH   2   6
ATOM      6  O   UNL     1      -5.918  67.824  -7.385  1.00  0.00    -0.388 OA
ATOM      7  H   UNL     1      -5.314  68.545  -7.704  1.00  0.00     0.211 HD
ENDBRANCH   2   6
ENDBRANCH   1   2
BRANCH   1   8
ATOM      8  C   UNL     1      -3.266  68.418  -5.891  1.00  0.00     0.214 C 
BRANCH   8   9
ATOM      9  C   UNL     1      -2.449  68.120  -7.136  1.00  0.00     0.189 C 
ATOM     10  O   UNL     1      -2.976  68.239  -8.232  1.00  0.00    -0.294 OA
BRANCH   9  11
ATOM     11  C   UNL     1      -0.997  67.724  -7.070  1.00  0.00     0.234 C 
BRANCH  11  12
ATOM     12  O   UNL     1      -0.847  66.539  -6.339  1.00  0.00    -0.388 OA
ATOM     13  H   UNL     1      -0.108  66.694  -5.694  1.00  0.00     0.211 HD
ENDBRANCH  11  12
ENDBRANCH   9  11
ENDBRANCH   8   9
BRANCH   8  14
ATOM     14  O   UNL     1      -2.436  68.604  -4.769  1.00  0.00    -0.382 OA
ATOM     15  H   UNL     1      -2.699  69.456  -4.332  1.00  0.00     0.211 HD
ENDBRANCH   8  14
ENDBRANCH   1   8
BRANCH   1  16
ATOM     16  O   UNL     1      -3.986  66.162  -6.374  1.00  0.00    -0.387 OA
ATOM     17  H   UNL     1      -3.037  65.955  -6.167  1.00  0.00     0.211 HD
ENDBRANCH   1  16
TORSDOF 10
ENDMDL
