MODEL 1
REMARK VINA RESULT:    -4.884      0.000      0.000
REMARK INTER + INTRA:          -5.794
REMARK INTER:                  -5.598
REMARK INTRA:                  -0.196
REMARK UNBOUND:                -0.196
REMARK SMILES O=C([O-])C=Cc1ccc(O)cc1
REMARK SMILES IDX 6 1 7 2 12 3 8 4 11 5 9 6 5 7 4 8 2 9 1 10 3 11 10 12
REMARK H PARENT 10 13
REMARK Flexibility Score: inf
ROOT
ATOM      1  C   UNL     1      18.546  -7.774  19.280  1.00  0.00    -0.025 A 
ATOM      2  C   UNL     1      18.985  -8.942  19.923  1.00  0.00     0.012 A 
ATOM      3  C   UNL     1      18.455  -7.755  17.878  1.00  0.00     0.012 A 
ATOM      4  C   UNL     1      19.375 -10.056  19.174  1.00  0.00     0.047 A 
ATOM      5  C   UNL     1      18.846  -8.870  17.130  1.00  0.00     0.047 A 
ATOM      6  C   UNL     1      19.310 -10.021  17.774  1.00  0.00     0.115 A 
ENDROOT
BRANCH   1   7
ATOM      7  C   UNL     1      18.089  -6.629  20.094  1.00  0.00     0.010 C 
ATOM      8  C   UNL     1      18.664  -5.417  20.123  1.00  0.00     0.025 C 
BRANCH   8   9
ATOM      9  C   UNL     1      19.951  -5.058  19.498  1.00  0.00     0.064 C 
ATOM     10  O   UNL     1      21.041  -5.173  20.119  1.00  0.00    -0.545 OA
ATOM     11  O   UNL     1      19.954  -4.517  18.218  1.00  0.00    -0.545 OA
ENDBRANCH   8   9
ENDBRANCH   1   7
BRANCH   6  12
ATOM     12  O   UNL     1      19.699 -11.125  17.017  1.00  0.00    -0.508 OA
ATOM     13  H   UNL     1      20.077 -11.019  16.083  1.00  0.00     0.293 HD
ENDBRANCH   6  12
TORSDOF 3
ENDMDL
MODEL 2
REMARK VINA RESULT:    -4.757      1.488      4.661
REMARK INTER + INTRA:          -5.648
REMARK INTER:                  -5.375
REMARK INTRA:                  -0.273
REMARK UNBOUND:                -0.196
REMARK SMILES O=C([O-])C=Cc1ccc(O)cc1
REMARK SMILES IDX 6 1 7 2 12 3 8 4 11 5 9 6 5 7 4 8 2 9 1 10 3 11 10 12
REMARK H PARENT 10 13
REMARK Flexibility Score: inf
ROOT
ATOM      1  C   UNL     1      19.210  -8.878  18.902  1.00  0.00    -0.025 A 
ATOM      2  C   UNL     1      19.946  -8.250  19.918  1.00  0.00     0.012 A 
ATOM      3  C   UNL     1      18.604  -8.091  17.906  1.00  0.00     0.012 A 
ATOM      4  C   UNL     1      20.035  -6.855  19.967  1.00  0.00     0.047 A 
ATOM      5  C   UNL     1      18.693  -6.697  17.957  1.00  0.00     0.047 A 
ATOM      6  C   UNL     1      19.405  -6.075  18.988  1.00  0.00     0.115 A 
ENDROOT
BRANCH   1   7
ATOM      7  C   UNL     1      19.174 -10.353  18.839  1.00  0.00     0.010 C 
ATOM      8  C   UNL     1      20.044 -11.125  18.168  1.00  0.00     0.025 C 
BRANCH   8   9
ATOM      9  C   UNL     1      21.078 -10.644  17.232  1.00  0.00     0.064 C 
ATOM     10  O   UNL     1      20.913 -10.696  15.985  1.00  0.00    -0.545 OA
ATOM     11  O   UNL     1      22.288 -10.186  17.738  1.00  0.00    -0.545 OA
ENDBRANCH   8   9
ENDBRANCH   1   7
BRANCH   6  12
ATOM     12  O   UNL     1      19.484  -4.684  19.029  1.00  0.00    -0.508 OA
ATOM     13  H   UNL     1      20.316  -4.211  19.360  1.00  0.00     0.293 HD
ENDBRANCH   6  12
TORSDOF 3
ENDMDL
MODEL 3
REMARK VINA RESULT:    -4.549      1.755      5.055
REMARK INTER + INTRA:          -5.410
REMARK INTER:                  -5.205
REMARK INTRA:                  -0.204
REMARK UNBOUND:                -0.196
REMARK SMILES O=C([O-])C=Cc1ccc(O)cc1
REMARK SMILES IDX 6 1 7 2 12 3 8 4 11 5 9 6 5 7 4 8 2 9 1 10 3 11 10 12
REMARK H PARENT 10 13
REMARK Flexibility Score: inf
ROOT
ATOM      1  C   UNL     1      19.338  -6.371  18.348  1.00  0.00    -0.025 A 
ATOM      2  C   UNL     1      19.443  -5.301  17.446  1.00  0.00     0.012 A 
ATOM      3  C   UNL     1      19.952  -6.270  19.608  1.00  0.00     0.012 A 
ATOM      4  C   UNL     1      20.193  -4.169  17.779  1.00  0.00     0.047 A 
ATOM      5  C   UNL     1      20.702  -5.138  19.939  1.00  0.00     0.047 A 
ATOM      6  C   UNL     1      20.828  -4.086  19.025  1.00  0.00     0.115 A 
ENDROOT
BRANCH   1   7
ATOM      7  C   UNL     1      18.496  -7.533  17.996  1.00  0.00     0.010 C 
ATOM      8  C   UNL     1      18.940  -8.786  17.805  1.00  0.00     0.025 C 
BRANCH   8   9
ATOM      9  C   UNL     1      20.355  -9.197  17.732  1.00  0.00     0.064 C 
ATOM     10  O   UNL     1      20.985  -9.199  16.642  1.00  0.00    -0.545 OA
ATOM     11  O   UNL     1      20.985  -9.658  18.881  1.00  0.00    -0.545 OA
ENDBRANCH   8   9
ENDBRANCH   1   7
BRANCH   6  12
ATOM     12  O   UNL     1      21.580  -2.964  19.366  1.00  0.00    -0.508 OA
ATOM     13  H   UNL     1      22.514  -2.822  19.001  1.00  0.00     0.293 HD
ENDBRANCH   6  12
TORSDOF 3
ENDMDL
MODEL 4
REMARK VINA RESULT:    -4.492     10.175     11.895
REMARK INTER + INTRA:          -5.344
REMARK INTER:                  -5.224
REMARK INTRA:                  -0.120
REMARK UNBOUND:                -0.196
REMARK SMILES O=C([O-])C=Cc1ccc(O)cc1
REMARK SMILES IDX 6 1 7 2 12 3 8 4 11 5 9 6 5 7 4 8 2 9 1 10 3 11 10 12
REMARK H PARENT 10 13
REMARK Flexibility Score: inf
ROOT
ATOM      1  C   UNL     1       9.674  -1.938  17.059  1.00  0.00    -0.025 A 
ATOM      2  C   UNL     1       9.405  -0.600  17.385  1.00  0.00     0.012 A 
ATOM      3  C   UNL     1      10.935  -2.479  17.363  1.00  0.00     0.012 A 
ATOM      4  C   UNL     1      10.397   0.200  17.960  1.00  0.00     0.047 A 
ATOM      5  C   UNL     1      11.927  -1.679  17.938  1.00  0.00     0.047 A 
ATOM      6  C   UNL     1      11.663  -0.337  18.235  1.00  0.00     0.115 A 
ENDROOT
BRANCH   1   7
ATOM      7  C   UNL     1       8.594  -2.778  16.501  1.00  0.00     0.010 C 
ATOM      8  C   UNL     1       8.526  -3.220  15.236  1.00  0.00     0.025 C 
BRANCH   8   9
ATOM      9  C   UNL     1       9.410  -2.806  14.129  1.00  0.00     0.064 C 
ATOM     10  O   UNL     1       9.586  -1.592  13.845  1.00  0.00    -0.545 OA
ATOM     11  O   UNL     1      10.009  -3.780  13.341  1.00  0.00    -0.545 OA
ENDBRANCH   8   9
ENDBRANCH   1   7
BRANCH   6  12
ATOM     12  O   UNL     1      12.660   0.451  18.805  1.00  0.00    -0.508 OA
ATOM     13  H   UNL     1      12.758   1.431  18.571  1.00  0.00     0.293 HD
ENDBRANCH   6  12
TORSDOF 3
ENDMDL
MODEL 5
REMARK VINA RESULT:    -4.386     11.487     12.677
REMARK INTER + INTRA:          -5.223
REMARK INTER:                  -4.964
REMARK INTRA:                  -0.259
REMARK UNBOUND:                -0.196
REMARK SMILES O=C([O-])C=Cc1ccc(O)cc1
REMARK SMILES IDX 6 1 7 2 12 3 8 4 11 5 9 6 5 7 4 8 2 9 1 10 3 11 10 12
REMARK H PARENT 10 13
REMARK Flexibility Score: inf
ROOT
ATOM      1  C   UNL     1       8.775  -2.875  17.525  1.00  0.00    -0.025 A 
ATOM      2  C   UNL     1       8.223  -3.246  16.290  1.00  0.00     0.012 A 
ATOM      3  C   UNL     1       9.844  -1.964  17.554  1.00  0.00     0.012 A 
ATOM      4  C   UNL     1       8.764  -2.753  15.098  1.00  0.00     0.047 A 
ATOM      5  C   UNL     1      10.385  -1.471  16.362  1.00  0.00     0.047 A 
ATOM      6  C   UNL     1       9.849  -1.867  15.132  1.00  0.00     0.115 A 
ENDROOT
BRANCH   1   7
ATOM      7  C   UNL     1       8.153  -3.366  18.772  1.00  0.00     0.010 C 
ATOM      8  C   UNL     1       7.185  -2.739  19.459  1.00  0.00     0.025 C 
BRANCH   8   9
ATOM      9  C   UNL     1       6.693  -1.372  19.201  1.00  0.00     0.064 C 
ATOM     10  O   UNL     1       5.875  -1.130  18.275  1.00  0.00    -0.545 OA
ATOM     11  O   UNL     1       7.195  -0.320  19.956  1.00  0.00    -0.545 OA
ENDBRANCH   8   9
ENDBRANCH   1   7
BRANCH   6  12
ATOM     12  O   UNL     1      10.398  -1.371  13.951  1.00  0.00    -0.508 OA
ATOM     13  H   UNL     1      10.542  -0.379  13.810  1.00  0.00     0.293 HD
ENDBRANCH   6  12
TORSDOF 3
ENDMDL
MODEL 6
REMARK VINA RESULT:    -4.326      9.804     10.919
REMARK INTER + INTRA:          -5.153
REMARK INTER:                  -4.884
REMARK INTRA:                  -0.270
REMARK UNBOUND:                -0.196
REMARK SMILES O=C([O-])C=Cc1ccc(O)cc1
REMARK SMILES IDX 6 1 7 2 12 3 8 4 11 5 9 6 5 7 4 8 2 9 1 10 3 11 10 12
REMARK H PARENT 10 13
REMARK Flexibility Score: inf
ROOT
ATOM      1  C   UNL     1      11.153  -2.125  17.650  1.00  0.00    -0.025 A 
ATOM      2  C   UNL     1      10.309  -2.670  18.628  1.00  0.00     0.012 A 
ATOM      3  C   UNL     1      10.610  -1.732  16.414  1.00  0.00     0.012 A 
ATOM      4  C   UNL     1       8.951  -2.868  18.358  1.00  0.00     0.047 A 
ATOM      5  C   UNL     1       9.252  -1.931  16.145  1.00  0.00     0.047 A 
ATOM      6  C   UNL     1       8.420  -2.502  17.114  1.00  0.00     0.115 A 
ENDROOT
BRANCH   1   7
ATOM      7  C   UNL     1      12.573  -1.876  17.976  1.00  0.00     0.010 C 
ATOM      8  C   UNL     1      13.039  -0.826  18.670  1.00  0.00     0.025 C 
BRANCH   8   9
ATOM      9  C   UNL     1      12.255   0.356  19.076  1.00  0.00     0.064 C 
ATOM     10  O   UNL     1      11.556   0.356  20.123  1.00  0.00    -0.545 OA
ATOM     11  O   UNL     1      12.236   1.472  18.248  1.00  0.00    -0.545 OA
ENDBRANCH   8   9
ENDBRANCH   1   7
BRANCH   6  12
ATOM     12  O   UNL     1       7.069  -2.697  16.833  1.00  0.00    -0.508 OA
ATOM     13  H   UNL     1       6.457  -3.176  17.482  1.00  0.00     0.293 HD
ENDBRANCH   6  12
TORSDOF 3
ENDMDL
MODEL 7
REMARK VINA RESULT:    -4.295      9.442     10.914
REMARK INTER + INTRA:          -5.118
REMARK INTER:                  -4.887
REMARK INTRA:                  -0.231
REMARK UNBOUND:                -0.196
REMARK SMILES O=C([O-])C=Cc1ccc(O)cc1
REMARK SMILES IDX 6 1 7 2 12 3 8 4 11 5 9 6 5 7 4 8 2 9 1 10 3 11 10 12
REMARK H PARENT 10 13
REMARK Flexibility Score: inf
ROOT
ATOM      1  C   UNL     1      12.127   0.018  18.520  1.00  0.00    -0.025 A 
ATOM      2  C   UNL     1      12.813  -0.318  19.697  1.00  0.00     0.012 A 
ATOM      3  C   UNL     1      11.714  -1.005  17.649  1.00  0.00     0.012 A 
ATOM      4  C   UNL     1      13.128  -1.652  19.974  1.00  0.00     0.047 A 
ATOM      5  C   UNL     1      12.029  -2.339  17.928  1.00  0.00     0.047 A 
ATOM      6  C   UNL     1      12.739  -2.666  19.088  1.00  0.00     0.115 A 
ENDROOT
BRANCH   1   7
ATOM      7  C   UNL     1      11.759   1.428  18.274  1.00  0.00     0.010 C 
ATOM      8  C   UNL     1      10.558   1.973  18.522  1.00  0.00     0.025 C 
BRANCH   8   9
ATOM      9  C   UNL     1       9.340   1.237  18.912  1.00  0.00     0.064 C 
ATOM     10  O   UNL     1       9.058   1.023  20.120  1.00  0.00    -0.545 OA
ATOM     11  O   UNL     1       8.523   0.710  17.921  1.00  0.00    -0.545 OA
ENDBRANCH   8   9
ENDBRANCH   1   7
BRANCH   6  12
ATOM     12  O   UNL     1      13.049  -3.998  19.353  1.00  0.00    -0.508 OA
ATOM     13  H   UNL     1      12.409  -4.747  19.120  1.00  0.00     0.293 HD
ENDBRANCH   6  12
TORSDOF 3
ENDMDL
MODEL 8
REMARK VINA RESULT:    -4.215      9.980     11.083
REMARK INTER + INTRA:          -5.026
REMARK INTER:                  -4.740
REMARK INTRA:                  -0.287
REMARK UNBOUND:                -0.196
REMARK SMILES O=C([O-])C=Cc1ccc(O)cc1
REMARK SMILES IDX 6 1 7 2 12 3 8 4 11 5 9 6 5 7 4 8 2 9 1 10 3 11 10 12
REMARK H PARENT 10 13
REMARK Flexibility Score: inf
ROOT
ATOM      1  C   UNL     1      11.090  -1.979  17.719  1.00  0.00    -0.025 A 
ATOM      2  C   UNL     1      10.676  -1.720  16.404  1.00  0.00     0.012 A 
ATOM      3  C   UNL     1      10.188  -2.573  18.619  1.00  0.00     0.012 A 
ATOM      4  C   UNL     1       9.366  -2.002  16.007  1.00  0.00     0.047 A 
ATOM      5  C   UNL     1       8.877  -2.855  18.221  1.00  0.00     0.047 A 
ATOM      6  C   UNL     1       8.461  -2.567  16.917  1.00  0.00     0.115 A 
ENDROOT
BRANCH   1   7
ATOM      7  C   UNL     1      12.494  -1.722  18.101  1.00  0.00     0.010 C 
ATOM      8  C   UNL     1      12.940  -0.627  18.735  1.00  0.00     0.025 C 
BRANCH   8   9
ATOM      9  C   UNL     1      12.155   0.592  19.007  1.00  0.00     0.064 C 
ATOM     10  O   UNL     1      12.259   1.618  18.285  1.00  0.00    -0.545 OA
ATOM     11  O   UNL     1      11.331   0.630  20.125  1.00  0.00    -0.545 OA
ENDBRANCH   8   9
ENDBRANCH   1   7
BRANCH   6  12
ATOM     12  O   UNL     1       7.152  -2.850  16.533  1.00  0.00    -0.508 OA
ATOM     13  H   UNL     1       6.642  -2.243  15.903  1.00  0.00     0.293 HD
ENDBRANCH   6  12
TORSDOF 3
ENDMDL
MODEL 9
REMARK VINA RESULT:    -4.205     10.511     11.258
REMARK INTER + INTRA:          -5.015
REMARK INTER:                  -4.814
REMARK INTRA:                  -0.201
REMARK UNBOUND:                -0.196
REMARK SMILES O=C([O-])C=Cc1ccc(O)cc1
REMARK SMILES IDX 6 1 7 2 12 3 8 4 11 5 9 6 5 7 4 8 2 9 1 10 3 11 10 12
REMARK H PARENT 10 13
REMARK Flexibility Score: inf
ROOT
ATOM      1  C   UNL     1      10.699  -1.921  18.270  1.00  0.00    -0.025 A 
ATOM      2  C   UNL     1       9.492  -2.560  18.592  1.00  0.00     0.012 A 
ATOM      3  C   UNL     1      10.964  -1.589  16.930  1.00  0.00     0.012 A 
ATOM      4  C   UNL     1       8.586  -2.906  17.586  1.00  0.00     0.047 A 
ATOM      5  C   UNL     1      10.057  -1.936  15.924  1.00  0.00     0.047 A 
ATOM      6  C   UNL     1       8.868  -2.599  16.248  1.00  0.00     0.115 A 
ENDROOT
BRANCH   1   7
ATOM      7  C   UNL     1      11.617  -1.517  19.355  1.00  0.00     0.010 C 
ATOM      8  C   UNL     1      11.746  -0.273  19.842  1.00  0.00     0.025 C 
BRANCH   8   9
ATOM      9  C   UNL     1      11.136   0.944  19.272  1.00  0.00     0.064 C 
ATOM     10  O   UNL     1       9.993   1.336  19.624  1.00  0.00    -0.545 OA
ATOM     11  O   UNL     1      11.812   1.634  18.274  1.00  0.00    -0.545 OA
ENDBRANCH   8   9
ENDBRANCH   1   7
BRANCH   6  12
ATOM     12  O   UNL     1       7.973  -2.942  15.236  1.00  0.00    -0.508 OA
ATOM     13  H   UNL     1       8.217  -2.843  14.258  1.00  0.00     0.293 HD
ENDBRANCH   6  12
TORSDOF 3
ENDMDL
