MODEL 1
REMARK VINA RESULT:     1.904      0.000      0.000
REMARK INTER + INTRA:           3.945
REMARK INTER:                   3.240
REMARK INTRA:                   0.705
REMARK UNBOUND:                 0.705
REMARK SMILES CCCCCCCCCCCCCC(=O)[O-]
REMARK SMILES IDX 8 1 9 2 10 3 11 4 12 5 13 6 14 7 15 8 16 9 7 10 6 11 5 12
REMARK SMILES IDX 4 13 3 14 2 15 1 16
REMARK H PARENT
REMARK Flexibility Score: inf
ROOT
ATOM      1  C   UNL     1     -15.469   7.111 -18.970  1.00  0.00     0.000 C 
ENDROOT
BRANCH   1   2
ATOM      2  C   UNL     1     -14.038   7.036 -18.411  1.00  0.00     0.000 C 
BRANCH   2   3
ATOM      3  C   UNL     1     -13.993   7.124 -16.877  1.00  0.00     0.000 C 
BRANCH   3   4
ATOM      4  C   UNL     1     -12.559   7.118 -16.316  1.00  0.00     0.000 C 
BRANCH   4   5
ATOM      5  C   UNL     1     -12.452   6.939 -14.789  1.00  0.00     0.006 C 
BRANCH   5   6
ATOM      6  C   UNL     1     -11.081   6.411 -14.343  1.00  0.00     0.053 C 
BRANCH   6   7
ATOM      7  C   UNL     1     -10.093   6.514 -15.460  1.00  0.00     0.041 C 
ATOM      8  O   UNL     1     -10.366   6.037 -16.594  1.00  0.00    -0.550 OA
ATOM      9  O   UNL     1      -8.849   7.091 -15.237  1.00  0.00    -0.550 OA
ENDBRANCH   6   7
ENDBRANCH   5   6
ENDBRANCH   4   5
ENDBRANCH   3   4
ENDBRANCH   2   3
ENDBRANCH   1   2
BRANCH   1  10
ATOM     10  C   UNL     1     -16.562   7.090 -17.879  1.00  0.00     0.000 C 
BRANCH  10  11
ATOM     11  C   UNL     1     -17.759   6.210 -18.278  1.00  0.00    -0.000 C 
BRANCH  11  12
ATOM     12  C   UNL     1     -19.094   6.972 -18.248  1.00  0.00    -0.000 C 
BRANCH  12  13
ATOM     13  C   UNL     1     -19.959   6.604 -17.034  1.00  0.00    -0.000 C 
BRANCH  13  14
ATOM     14  C   UNL     1     -19.082   6.203 -15.838  1.00  0.00    -0.000 C 
BRANCH  14  15
ATOM     15  C   UNL     1     -19.239   4.722 -15.460  1.00  0.00    -0.003 C 
ATOM     16  C   UNL     1     -19.246   4.494 -13.949  1.00  0.00     0.004 C 
ENDBRANCH  14  15
ENDBRANCH  13  14
ENDBRANCH  12  13
ENDBRANCH  11  12
ENDBRANCH  10  11
ENDBRANCH   1  10
TORSDOF 12
ENDMDL
MODEL 2
REMARK VINA RESULT:     3.570      3.363      7.255
REMARK INTER + INTRA:           6.780
REMARK INTER:                   7.266
REMARK INTRA:                  -0.486
REMARK UNBOUND:                 0.705
REMARK SMILES CCCCCCCCCCCCCC(=O)[O-]
REMARK SMILES IDX 8 1 9 2 10 3 11 4 12 5 13 6 14 7 15 8 16 9 7 10 6 11 5 12
REMARK SMILES IDX 4 13 3 14 2 15 1 16
REMARK H PARENT
REMARK Flexibility Score: inf
ROOT
ATOM      1  C   UNL     1     -15.472   6.163 -19.100  1.00  0.00     0.000 C 
ENDROOT
BRANCH   1   2
ATOM      2  C   UNL     1     -16.865   6.701 -18.731  1.00  0.00     0.000 C 
BRANCH   2   3
ATOM      3  C   UNL     1     -17.867   5.584 -18.400  1.00  0.00     0.000 C 
BRANCH   3   4
ATOM      4  C   UNL     1     -19.024   6.060 -17.503  1.00  0.00     0.000 C 
BRANCH   4   5
ATOM      5  C   UNL     1     -19.622   4.984 -16.576  1.00  0.00     0.006 C 
BRANCH   5   6
ATOM      6  C   UNL     1     -20.076   5.545 -15.222  1.00  0.00     0.053 C 
BRANCH   6   7
ATOM      7  C   UNL     1     -18.896   5.802 -14.341  1.00  0.00     0.041 C 
ATOM      8  O   UNL     1     -18.227   4.839 -13.880  1.00  0.00    -0.550 OA
ATOM      9  O   UNL     1     -18.563   7.104 -13.987  1.00  0.00    -0.550 OA
ENDBRANCH   6   7
ENDBRANCH   5   6
ENDBRANCH   4   5
ENDBRANCH   3   4
ENDBRANCH   2   3
ENDBRANCH   1   2
BRANCH   1  10
ATOM     10  C   UNL     1     -14.320   7.125 -18.735  1.00  0.00     0.000 C 
BRANCH  10  11
ATOM     11  C   UNL     1     -13.519   6.632 -17.517  1.00  0.00    -0.000 C 
BRANCH  11  12
ATOM     12  C   UNL     1     -12.062   7.123 -17.525  1.00  0.00    -0.000 C 
BRANCH  12  13
ATOM     13  C   UNL     1     -11.095   6.116 -16.885  1.00  0.00    -0.000 C 
BRANCH  13  14
ATOM     14  C   UNL     1     -10.000   6.840 -16.086  1.00  0.00    -0.000 C 
BRANCH  14  15
ATOM     15  C   UNL     1     -10.418   7.124 -14.635  1.00  0.00    -0.003 C 
ATOM     16  C   UNL     1     -11.578   6.243 -14.171  1.00  0.00     0.004 C 
ENDBRANCH  14  15
ENDBRANCH  13  14
ENDBRANCH  12  13
ENDBRANCH  11  12
ENDBRANCH  10  11
ENDBRANCH   1  10
TORSDOF 12
ENDMDL
