MODEL 1
REMARK VINA RESULT:    -2.544      0.000      0.000
REMARK INTER + INTRA:          -2.870
REMARK INTER:                  -2.842
REMARK INTRA:                  -0.028
REMARK UNBOUND:                -0.028
REMARK SMILES CCCC(=O)[O-]
REMARK SMILES IDX 3 1 4 2 5 3 6 4 2 5 1 6
REMARK H PARENT
REMARK Flexibility Score: inf
ROOT
ATOM      1  C   UNL     1     -99.333  69.128  26.329  1.00  0.00     0.052 C 
ENDROOT
BRANCH   1   2
ATOM      2  C   UNL     1    -100.590  68.878  27.101  1.00  0.00     0.041 C 
ATOM      3  O   UNL     1    -100.548  68.260  28.197  1.00  0.00    -0.550 OA
ATOM      4  O   UNL     1    -101.801  69.373  26.635  1.00  0.00    -0.550 OA
ENDBRANCH   1   2
BRANCH   1   5
ATOM      5  C   UNL     1     -99.646  69.331  24.845  1.00  0.00     0.003 C 
ATOM      6  C   UNL     1     -99.145  68.158  24.009  1.00  0.00     0.004 C 
ENDBRANCH   1   5
TORSDOF 2
ENDMDL
MODEL 2
REMARK VINA RESULT:    -2.542      0.125      1.327
REMARK INTER + INTRA:          -2.867
REMARK INTER:                  -2.836
REMARK INTRA:                  -0.031
REMARK UNBOUND:                -0.028
REMARK SMILES CCCC(=O)[O-]
REMARK SMILES IDX 3 1 4 2 5 3 6 4 2 5 1 6
REMARK H PARENT
REMARK Flexibility Score: inf
ROOT
ATOM      1  C   UNL     1     -99.307  69.130  26.327  1.00  0.00     0.052 C 
ENDROOT
BRANCH   1   2
ATOM      2  C   UNL     1    -100.536  68.877  27.141  1.00  0.00     0.041 C 
ATOM      3  O   UNL     1    -101.667  69.216  26.703  1.00  0.00    -0.550 OA
ATOM      4  O   UNL     1    -100.439  68.221  28.362  1.00  0.00    -0.550 OA
ENDBRANCH   1   2
BRANCH   1   5
ATOM      5  C   UNL     1     -99.669  69.309  24.851  1.00  0.00     0.003 C 
ATOM      6  C   UNL     1     -99.135  68.155  24.008  1.00  0.00     0.004 C 
ENDBRANCH   1   5
TORSDOF 2
ENDMDL
MODEL 3
REMARK VINA RESULT:    -2.472      2.783      3.170
REMARK INTER + INTRA:          -2.789
REMARK INTER:                  -2.763
REMARK INTRA:                  -0.027
REMARK UNBOUND:                -0.028
REMARK SMILES CCCC(=O)[O-]
REMARK SMILES IDX 3 1 4 2 5 3 6 4 2 5 1 6
REMARK H PARENT
REMARK Flexibility Score: inf
ROOT
ATOM      1  C   UNL     1     -99.017  70.219  24.047  1.00  0.00     0.052 C 
ENDROOT
BRANCH   1   2
ATOM      2  C   UNL     1     -99.257  68.850  24.601  1.00  0.00     0.041 C 
ATOM      3  O   UNL     1     -99.747  68.710  25.753  1.00  0.00    -0.550 OA
ATOM      4  O   UNL     1     -98.987  67.730  23.826  1.00  0.00    -0.550 OA
ENDBRANCH   1   2
BRANCH   1   5
ATOM      5  C   UNL     1     -99.038  70.189  22.517  1.00  0.00     0.003 C 
ATOM      6  C   UNL     1     -97.872  70.981  21.933  1.00  0.00     0.004 C 
ENDBRANCH   1   5
TORSDOF 2
ENDMDL
MODEL 4
REMARK VINA RESULT:    -2.416      1.901      2.175
REMARK INTER + INTRA:          -2.727
REMARK INTER:                  -2.688
REMARK INTRA:                  -0.039
REMARK UNBOUND:                -0.028
REMARK SMILES CCCC(=O)[O-]
REMARK SMILES IDX 3 1 4 2 5 3 6 4 2 5 1 6
REMARK H PARENT
REMARK Flexibility Score: inf
ROOT
ATOM      1  C   UNL     1     -99.171  68.513  24.403  1.00  0.00     0.052 C 
ENDROOT
BRANCH   1   2
ATOM      2  C   UNL     1     -99.424  69.094  25.758  1.00  0.00     0.041 C 
ATOM      3  O   UNL     1     -98.627  69.940  26.243  1.00  0.00    -0.550 OA
ATOM      4  O   UNL     1    -100.566  68.739  26.464  1.00  0.00    -0.550 OA
ENDBRANCH   1   2
BRANCH   1   5
ATOM      5  C   UNL     1     -99.773  69.406  23.315  1.00  0.00     0.003 C 
ATOM      6  C   UNL     1     -98.693  70.218  22.608  1.00  0.00     0.004 C 
ENDBRANCH   1   5
TORSDOF 2
ENDMDL
MODEL 5
REMARK VINA RESULT:    -2.364      8.454      9.351
REMARK INTER + INTRA:          -2.669
REMARK INTER:                  -2.646
REMARK INTRA:                  -0.023
REMARK UNBOUND:                -0.028
REMARK SMILES CCCC(=O)[O-]
REMARK SMILES IDX 3 1 4 2 5 3 6 4 2 5 1 6
REMARK H PARENT
REMARK Flexibility Score: inf
ROOT
ATOM      1  C   UNL     1     -99.711  64.378  34.562  1.00  0.00     0.052 C 
ENDROOT
BRANCH   1   2
ATOM      2  C   UNL     1     -98.713  64.886  33.571  1.00  0.00     0.041 C 
ATOM      3  O   UNL     1     -97.764  65.623  33.949  1.00  0.00    -0.550 OA
ATOM      4  O   UNL     1     -98.800  64.505  32.238  1.00  0.00    -0.550 OA
ENDBRANCH   1   2
BRANCH   1   5
ATOM      5  C   UNL     1    -100.462  63.170  33.995  1.00  0.00     0.003 C 
ATOM      6  C   UNL     1    -101.949  63.238  34.331  1.00  0.00     0.004 C 
ENDBRANCH   1   5
TORSDOF 2
ENDMDL
MODEL 6
REMARK VINA RESULT:    -2.357      8.933      9.356
REMARK INTER + INTRA:          -2.661
REMARK INTER:                  -2.652
REMARK INTRA:                  -0.009
REMARK UNBOUND:                -0.028
REMARK SMILES CCCC(=O)[O-]
REMARK SMILES IDX 3 1 4 2 5 3 6 4 2 5 1 6
REMARK H PARENT
REMARK Flexibility Score: inf
ROOT
ATOM      1  C   UNL     1     -99.665  64.449  34.608  1.00  0.00     0.052 C 
ENDROOT
BRANCH   1   2
ATOM      2  C   UNL     1    -100.586  63.454  33.977  1.00  0.00     0.041 C 
ATOM      3  O   UNL     1    -100.129  62.562  33.214  1.00  0.00    -0.550 OA
ATOM      4  O   UNL     1    -101.944  63.479  34.271  1.00  0.00    -0.550 OA
ENDBRANCH   1   2
BRANCH   1   5
ATOM      5  C   UNL     1     -98.673  64.991  33.576  1.00  0.00     0.003 C 
ATOM      6  C   UNL     1     -97.691  65.969  34.215  1.00  0.00     0.004 C 
ENDBRANCH   1   5
TORSDOF 2
ENDMDL
MODEL 7
REMARK VINA RESULT:    -2.307      2.777      3.573
REMARK INTER + INTRA:          -2.604
REMARK INTER:                  -2.565
REMARK INTRA:                  -0.039
REMARK UNBOUND:                -0.028
REMARK SMILES CCCC(=O)[O-]
REMARK SMILES IDX 3 1 4 2 5 3 6 4 2 5 1 6
REMARK H PARENT
REMARK Flexibility Score: inf
ROOT
ATOM      1  C   UNL     1     -99.748  69.872  24.862  1.00  0.00     0.052 C 
ENDROOT
BRANCH   1   2
ATOM      2  C   UNL     1     -99.160  69.088  23.732  1.00  0.00     0.041 C 
ATOM      3  O   UNL     1     -99.039  67.838  23.824  1.00  0.00    -0.550 OA
ATOM      4  O   UNL     1     -98.793  69.731  22.557  1.00  0.00    -0.550 OA
ENDBRANCH   1   2
BRANCH   1   5
ATOM      5  C   UNL     1     -99.812  69.019  26.131  1.00  0.00     0.003 C 
ATOM      6  C   UNL     1     -98.667  69.356  27.082  1.00  0.00     0.004 C 
ENDBRANCH   1   5
TORSDOF 2
ENDMDL
MODEL 8
REMARK VINA RESULT:    -2.270      9.459     10.122
REMARK INTER + INTRA:          -2.563
REMARK INTER:                  -2.553
REMARK INTRA:                  -0.010
REMARK UNBOUND:                -0.028
REMARK SMILES CCCC(=O)[O-]
REMARK SMILES IDX 3 1 4 2 5 3 6 4 2 5 1 6
REMARK H PARENT
REMARK Flexibility Score: inf
ROOT
ATOM      1  C   UNL     1    -100.130  63.504  33.651  1.00  0.00     0.052 C 
ENDROOT
BRANCH   1   2
ATOM      2  C   UNL     1    -100.479  62.351  34.538  1.00  0.00     0.041 C 
ATOM      3  O   UNL     1    -100.855  62.555  35.723  1.00  0.00    -0.550 OA
ATOM      4  O   UNL     1    -100.439  61.055  34.041  1.00  0.00    -0.550 OA
ENDBRANCH   1   2
BRANCH   1   5
ATOM      5  C   UNL     1     -99.425  64.602  34.451  1.00  0.00     0.003 C 
ATOM      6  C   UNL     1     -98.354  65.293  33.613  1.00  0.00     0.004 C 
ENDBRANCH   1   5
TORSDOF 2
ENDMDL
MODEL 9
REMARK VINA RESULT:    -2.228      9.761     10.505
REMARK INTER + INTRA:          -2.517
REMARK INTER:                  -2.506
REMARK INTRA:                  -0.012
REMARK UNBOUND:                -0.028
REMARK SMILES CCCC(=O)[O-]
REMARK SMILES IDX 3 1 4 2 5 3 6 4 2 5 1 6
REMARK H PARENT
REMARK Flexibility Score: inf
ROOT
ATOM      1  C   UNL     1    -100.475  61.168  33.030  1.00  0.00     0.052 C 
ENDROOT
BRANCH   1   2
ATOM      2  C   UNL     1    -101.699  60.530  32.454  1.00  0.00     0.041 C 
ATOM      3  O   UNL     1    -101.673  60.042  31.294  1.00  0.00    -0.550 OA
ATOM      4  O   UNL     1    -102.855  60.430  33.218  1.00  0.00    -0.550 OA
ENDBRANCH   1   2
BRANCH   1   5
ATOM      5  C   UNL     1    -100.858  62.298  33.989  1.00  0.00     0.003 C 
ATOM      6  C   UNL     1    -100.071  63.570  33.686  1.00  0.00     0.004 C 
ENDBRANCH   1   5
TORSDOF 2
ENDMDL
