MODEL 1
REMARK VINA RESULT:    -7.651      0.000      0.000
REMARK INTER + INTRA:          -9.096
REMARK INTER:                  -9.217
REMARK INTRA:                   0.121
REMARK UNBOUND:                 0.121
REMARK SMILES O=c1c(O)c(-c2ccc(O)c(O)c2)oc2cc(O)cc(O)c12
REMARK SMILES IDX 5 1 3 2 2 3 1 4 22 5 20 6 19 7 17 8 16 9 15 10 14 11 6 12
REMARK SMILES IDX 7 13 8 14 9 15 13 16 11 17 10 18 12 20 4 22 21 24 18 26
REMARK H PARENT 10 19 12 21 4 23 21 25 18 27
REMARK Flexibility Score: inf
ROOT
ATOM      1  C   UNL     1      15.348  28.553  -6.621  1.00  0.00     0.180 A 
ATOM      2  C   UNL     1      16.396  27.703  -6.227  1.00  0.00     0.208 A 
ATOM      3  C   UNL     1      16.621  27.487  -4.859  1.00  0.00     0.238 A 
ATOM      4  O   UNL     1      17.526  26.684  -4.513  1.00  0.00    -0.285 OA
ATOM      5  C   UNL     1      15.803  28.135  -3.900  1.00  0.00     0.111 A 
ATOM      6  C   UNL     1      15.966  28.019  -2.487  1.00  0.00     0.134 A 
ATOM      7  C   UNL     1      15.018  28.599  -1.634  1.00  0.00     0.093 A 
ATOM      8  C   UNL     1      13.952  29.346  -2.141  1.00  0.00     0.123 A 
ATOM      9  C   UNL     1      13.820  29.513  -3.518  1.00  0.00     0.094 A 
ATOM     10  C   UNL     1      14.728  28.916  -4.396  1.00  0.00     0.146 A 
ATOM     11  O   UNL     1      14.558  29.093  -5.701  1.00  0.00    -0.452 OA
ENDROOT
BRANCH   1  12
ATOM     12  C   UNL     1      15.066  28.849  -8.045  1.00  0.00     0.025 A 
ATOM     13  C   UNL     1      13.757  28.813  -8.554  1.00  0.00     0.016 A 
ATOM     14  C   UNL     1      13.518  29.073  -9.907  1.00  0.00     0.051 A 
ATOM     15  C   UNL     1      14.582  29.356 -10.771  1.00  0.00     0.157 A 
ATOM     16  C   UNL     1      16.133  29.113  -8.920  1.00  0.00     0.062 A 
ATOM     17  C   UNL     1      15.897  29.374 -10.275  1.00  0.00     0.158 A 
BRANCH  15  18
ATOM     18  O   UNL     1      14.341  29.616 -12.119  1.00  0.00    -0.504 OA
ATOM     19  H   UNL     1      15.093  29.844 -12.758  1.00  0.00     0.293 HD
ENDBRANCH  15  18
BRANCH  17  20
ATOM     20  O   UNL     1      16.980  29.646 -11.110  1.00  0.00    -0.504 OA
ATOM     21  H   UNL     1      17.723  28.975 -11.264  1.00  0.00     0.293 HD
ENDBRANCH  17  20
ENDBRANCH   1  12
BRANCH   2  22
ATOM     22  O   UNL     1      17.177  27.057  -7.190  1.00  0.00    -0.502 OA
ATOM     23  H   UNL     1      17.996  26.514  -6.950  1.00  0.00     0.293 HD
ENDBRANCH   2  22
BRANCH   6  24
ATOM     24  O   UNL     1      17.044  27.375  -1.875  1.00  0.00    -0.507 OA
ATOM     25  H   UNL     1      17.533  26.581  -2.260  1.00  0.00     0.293 HD
ENDBRANCH   6  24
BRANCH   8  26
ATOM     26  O   UNL     1      13.024  29.934  -1.285  1.00  0.00    -0.508 OA
ATOM     27  H   UNL     1      13.188  30.842  -0.868  1.00  0.00     0.293 HD
ENDBRANCH   8  26
TORSDOF 6
ENDMDL
MODEL 2
REMARK VINA RESULT:    -7.110      1.748      2.070
REMARK INTER + INTRA:          -8.444
REMARK INTER:                  -8.403
REMARK INTRA:                  -0.042
REMARK UNBOUND:                 0.121
REMARK SMILES O=c1c(O)c(-c2ccc(O)c(O)c2)oc2cc(O)cc(O)c12
REMARK SMILES IDX 5 1 3 2 2 3 1 4 22 5 20 6 19 7 17 8 16 9 15 10 14 11 6 12
REMARK SMILES IDX 7 13 8 14 9 15 13 16 11 17 10 18 12 20 4 22 21 24 18 26
REMARK H PARENT 10 19 12 21 4 23 21 25 18 27
REMARK Flexibility Score: inf
ROOT
ATOM      1  C   UNL     1      14.673  28.669  -5.494  1.00  0.00     0.180 A 
ATOM      2  C   UNL     1      15.958  28.106  -5.401  1.00  0.00     0.208 A 
ATOM      3  C   UNL     1      16.345  27.485  -4.203  1.00  0.00     0.238 A 
ATOM      4  O   UNL     1      17.475  26.936  -4.143  1.00  0.00    -0.285 OA
ATOM      5  C   UNL     1      15.448  27.448  -3.107  1.00  0.00     0.111 A 
ATOM      6  C   UNL     1      15.749  26.880  -1.833  1.00  0.00     0.134 A 
ATOM      7  C   UNL     1      14.741  26.781  -0.866  1.00  0.00     0.093 A 
ATOM      8  C   UNL     1      13.462  27.291  -1.103  1.00  0.00     0.123 A 
ATOM      9  C   UNL     1      13.176  27.900  -2.323  1.00  0.00     0.094 A 
ATOM     10  C   UNL     1      14.150  27.980  -3.321  1.00  0.00     0.146 A 
ATOM     11  O   UNL     1      13.832  28.560  -4.472  1.00  0.00    -0.452 OA
ENDROOT
BRANCH   1  12
ATOM     12  C   UNL     1      14.203  29.362  -6.715  1.00  0.00     0.025 A 
ATOM     13  C   UNL     1      13.706  30.676  -6.665  1.00  0.00     0.016 A 
ATOM     14  C   UNL     1      13.246  31.302  -7.827  1.00  0.00     0.051 A 
ATOM     15  C   UNL     1      13.261  30.621  -9.050  1.00  0.00     0.157 A 
ATOM     16  C   UNL     1      14.197  28.676  -7.941  1.00  0.00     0.062 A 
ATOM     17  C   UNL     1      13.737  29.299  -9.106  1.00  0.00     0.158 A 
BRANCH  15  18
ATOM     18  O   UNL     1      12.802  31.248 -10.208  1.00  0.00    -0.504 OA
ATOM     19  H   UNL     1      13.198  31.039 -11.117  1.00  0.00     0.293 HD
ENDBRANCH  15  18
BRANCH  17  20
ATOM     20  O   UNL     1      13.758  28.591 -10.307  1.00  0.00    -0.504 OA
ATOM     21  H   UNL     1      13.799  29.056 -11.206  1.00  0.00     0.293 HD
ENDBRANCH  17  20
ENDBRANCH   1  12
BRANCH   2  22
ATOM     22  O   UNL     1      16.819  28.135  -6.501  1.00  0.00    -0.502 OA
ATOM     23  H   UNL     1      17.018  27.313  -7.058  1.00  0.00     0.293 HD
ENDBRANCH   2  22
BRANCH   6  24
ATOM     24  O   UNL     1      17.017  26.426  -1.461  1.00  0.00    -0.507 OA
ATOM     25  H   UNL     1      17.707  26.981  -0.976  1.00  0.00     0.293 HD
ENDBRANCH   6  24
BRANCH   8  26
ATOM     26  O   UNL     1      12.469  27.203  -0.129  1.00  0.00    -0.508 OA
ATOM     27  H   UNL     1      11.527  26.910  -0.358  1.00  0.00     0.293 HD
ENDBRANCH   8  26
TORSDOF 6
ENDMDL
MODEL 3
REMARK VINA RESULT:    -6.982      3.752      5.324
REMARK INTER + INTRA:          -8.290
REMARK INTER:                  -8.013
REMARK INTRA:                  -0.277
REMARK UNBOUND:                 0.121
REMARK SMILES O=c1c(O)c(-c2ccc(O)c(O)c2)oc2cc(O)cc(O)c12
REMARK SMILES IDX 5 1 3 2 2 3 1 4 22 5 20 6 19 7 17 8 16 9 15 10 14 11 6 12
REMARK SMILES IDX 7 13 8 14 9 15 13 16 11 17 10 18 12 20 4 22 21 24 18 26
REMARK H PARENT 10 19 12 21 4 23 21 25 18 27
REMARK Flexibility Score: inf
ROOT
ATOM      1  C   UNL     1      13.619  30.413  -3.848  1.00  0.00     0.180 A 
ATOM      2  C   UNL     1      13.136  30.123  -2.560  1.00  0.00     0.208 A 
ATOM      3  C   UNL     1      13.686  29.041  -1.854  1.00  0.00     0.238 A 
ATOM      4  O   UNL     1      13.288  28.819  -0.681  1.00  0.00    -0.285 OA
ATOM      5  C   UNL     1      14.702  28.255  -2.450  1.00  0.00     0.111 A 
ATOM      6  C   UNL     1      15.304  27.112  -1.842  1.00  0.00     0.134 A 
ATOM      7  C   UNL     1      16.390  26.489  -2.468  1.00  0.00     0.093 A 
ATOM      8  C   UNL     1      16.854  26.925  -3.711  1.00  0.00     0.123 A 
ATOM      9  C   UNL     1      16.235  28.004  -4.339  1.00  0.00     0.094 A 
ATOM     10  C   UNL     1      15.172  28.669  -3.723  1.00  0.00     0.146 A 
ATOM     11  O   UNL     1      14.618  29.698  -4.353  1.00  0.00    -0.452 OA
ENDROOT
BRANCH   1  12
ATOM     12  C   UNL     1      13.071  31.521  -4.664  1.00  0.00     0.025 A 
ATOM     13  C   UNL     1      13.747  32.748  -4.780  1.00  0.00     0.016 A 
ATOM     14  C   UNL     1      13.199  33.788  -5.537  1.00  0.00     0.051 A 
ATOM     15  C   UNL     1      11.963  33.622  -6.174  1.00  0.00     0.157 A 
ATOM     16  C   UNL     1      11.822  31.367  -5.288  1.00  0.00     0.062 A 
ATOM     17  C   UNL     1      11.270  32.407  -6.046  1.00  0.00     0.158 A 
BRANCH  15  18
ATOM     18  O   UNL     1      11.419  34.661  -6.928  1.00  0.00    -0.504 OA
ATOM     19  H   UNL     1      11.898  35.036  -7.738  1.00  0.00     0.293 HD
ENDBRANCH  15  18
BRANCH  17  20
ATOM     20  O   UNL     1      10.034  32.213  -6.662  1.00  0.00    -0.504 OA
ATOM     21  H   UNL     1       9.392  32.978  -6.833  1.00  0.00     0.293 HD
ENDBRANCH  17  20
ENDBRANCH   1  12
BRANCH   2  22
ATOM     22  O   UNL     1      12.148  30.925  -1.983  1.00  0.00    -0.502 OA
ATOM     23  H   UNL     1      11.741  31.717  -2.464  1.00  0.00     0.293 HD
ENDBRANCH   2  22
BRANCH   6  24
ATOM     24  O   UNL     1      14.858  26.538  -0.647  1.00  0.00    -0.507 OA
ATOM     25  H   UNL     1      14.101  25.876  -0.575  1.00  0.00     0.293 HD
ENDBRANCH   6  24
BRANCH   8  26
ATOM     26  O   UNL     1      17.925  26.289  -4.334  1.00  0.00    -0.508 OA
ATOM     27  H   UNL     1      17.993  25.279  -4.369  1.00  0.00     0.293 HD
ENDBRANCH   8  26
TORSDOF 6
ENDMDL
MODEL 4
REMARK VINA RESULT:    -6.928      1.760      7.065
REMARK INTER + INTRA:          -8.224
REMARK INTER:                  -8.542
REMARK INTRA:                   0.318
REMARK UNBOUND:                 0.121
REMARK SMILES O=c1c(O)c(-c2ccc(O)c(O)c2)oc2cc(O)cc(O)c12
REMARK SMILES IDX 5 1 3 2 2 3 1 4 22 5 20 6 19 7 17 8 16 9 15 10 14 11 6 12
REMARK SMILES IDX 7 13 8 14 9 15 13 16 11 17 10 18 12 20 4 22 21 24 18 26
REMARK H PARENT 10 19 12 21 4 23 21 25 18 27
REMARK Flexibility Score: inf
ROOT
ATOM      1  C   UNL     1      14.554  29.072  -6.162  1.00  0.00     0.180 A 
ATOM      2  C   UNL     1      13.698  30.177  -6.015  1.00  0.00     0.208 A 
ATOM      3  C   UNL     1      13.223  30.828  -7.165  1.00  0.00     0.238 A 
ATOM      4  O   UNL     1      12.414  31.782  -7.030  1.00  0.00    -0.285 OA
ATOM      5  C   UNL     1      13.623  30.376  -8.446  1.00  0.00     0.111 A 
ATOM      6  C   UNL     1      13.235  30.985  -9.677  1.00  0.00     0.134 A 
ATOM      7  C   UNL     1      13.584  30.375 -10.889  1.00  0.00     0.093 A 
ATOM      8  C   UNL     1      14.363  29.215 -10.914  1.00  0.00     0.123 A 
ATOM      9  C   UNL     1      14.795  28.647  -9.718  1.00  0.00     0.094 A 
ATOM     10  C   UNL     1      14.433  29.212  -8.493  1.00  0.00     0.146 A 
ATOM     11  O   UNL     1      14.858  28.632  -7.377  1.00  0.00    -0.452 OA
ENDROOT
BRANCH   1  12
ATOM     12  C   UNL     1      15.115  28.350  -4.996  1.00  0.00     0.025 A 
ATOM     13  C   UNL     1      14.448  28.328  -3.760  1.00  0.00     0.016 A 
ATOM     14  C   UNL     1      15.008  27.660  -2.667  1.00  0.00     0.051 A 
ATOM     15  C   UNL     1      16.247  27.019  -2.790  1.00  0.00     0.157 A 
ATOM     16  C   UNL     1      16.368  27.724  -5.109  1.00  0.00     0.062 A 
ATOM     17  C   UNL     1      16.932  27.054  -4.017  1.00  0.00     0.158 A 
BRANCH  15  18
ATOM     18  O   UNL     1      16.803  26.353  -1.698  1.00  0.00    -0.504 OA
ATOM     19  H   UNL     1      17.803  26.215  -1.615  1.00  0.00     0.293 HD
ENDBRANCH  15  18
BRANCH  17  20
ATOM     20  O   UNL     1      18.170  26.433  -4.169  1.00  0.00    -0.504 OA
ATOM     21  H   UNL     1      18.663  26.016  -3.389  1.00  0.00     0.293 HD
ENDBRANCH  17  20
ENDBRANCH   1  12
BRANCH   2  22
ATOM     22  O   UNL     1      13.298  30.593  -4.743  1.00  0.00    -0.502 OA
ATOM     23  H   UNL     1      12.594  30.102  -4.206  1.00  0.00     0.293 HD
ENDBRANCH   2  22
BRANCH   6  24
ATOM     24  O   UNL     1      12.537  32.192  -9.765  1.00  0.00    -0.507 OA
ATOM     25  H   UNL     1      11.611  32.294 -10.155  1.00  0.00     0.293 HD
ENDBRANCH   6  24
BRANCH   8  26
ATOM     26  O   UNL     1      14.719  28.624 -12.125  1.00  0.00    -0.508 OA
ATOM     27  H   UNL     1      14.133  28.707 -12.947  1.00  0.00     0.293 HD
ENDBRANCH   8  26
TORSDOF 6
ENDMDL
MODEL 5
REMARK VINA RESULT:    -6.871      3.573      5.489
REMARK INTER + INTRA:          -8.157
REMARK INTER:                  -7.854
REMARK INTRA:                  -0.302
REMARK UNBOUND:                 0.121
REMARK SMILES O=c1c(O)c(-c2ccc(O)c(O)c2)oc2cc(O)cc(O)c12
REMARK SMILES IDX 5 1 3 2 2 3 1 4 22 5 20 6 19 7 17 8 16 9 15 10 14 11 6 12
REMARK SMILES IDX 7 13 8 14 9 15 13 16 11 17 10 18 12 20 4 22 21 24 18 26
REMARK H PARENT 10 19 12 21 4 23 21 25 18 27
REMARK Flexibility Score: inf
ROOT
ATOM      1  C   UNL     1      13.385  31.187  -4.691  1.00  0.00     0.180 A 
ATOM      2  C   UNL     1      13.451  30.875  -3.322  1.00  0.00     0.208 A 
ATOM      3  C   UNL     1      14.285  29.826  -2.902  1.00  0.00     0.238 A 
ATOM      4  O   UNL     1      14.382  29.586  -1.671  1.00  0.00    -0.285 OA
ATOM      5  C   UNL     1      15.029  29.092  -3.858  1.00  0.00     0.111 A 
ATOM      6  C   UNL     1      15.875  27.985  -3.550  1.00  0.00     0.134 A 
ATOM      7  C   UNL     1      16.665  27.418  -4.557  1.00  0.00     0.093 A 
ATOM      8  C   UNL     1      16.590  27.875  -5.875  1.00  0.00     0.123 A 
ATOM      9  C   UNL     1      15.724  28.917  -6.196  1.00  0.00     0.094 A 
ATOM     10  C   UNL     1      14.950  29.527  -5.206  1.00  0.00     0.146 A 
ATOM     11  O   UNL     1      14.145  30.524  -5.555  1.00  0.00    -0.452 OA
ENDROOT
BRANCH   1  12
ATOM     12  C   UNL     1      12.510  32.262  -5.212  1.00  0.00     0.025 A 
ATOM     13  C   UNL     1      11.128  32.066  -5.375  1.00  0.00     0.016 A 
ATOM     14  C   UNL     1      10.325  33.088  -5.891  1.00  0.00     0.051 A 
ATOM     15  C   UNL     1      10.893  34.312  -6.265  1.00  0.00     0.157 A 
ATOM     16  C   UNL     1      13.078  33.484  -5.608  1.00  0.00     0.062 A 
ATOM     17  C   UNL     1      12.278  34.510  -6.125  1.00  0.00     0.158 A 
BRANCH  15  18
ATOM     18  O   UNL     1      10.091  35.329  -6.779  1.00  0.00    -0.504 OA
ATOM     19  H   UNL     1      10.433  35.970  -7.485  1.00  0.00     0.293 HD
ENDBRANCH  15  18
BRANCH  17  20
ATOM     20  O   UNL     1      12.875  35.714  -6.495  1.00  0.00    -0.504 OA
ATOM     21  H   UNL     1      12.452  36.611  -6.289  1.00  0.00     0.293 HD
ENDBRANCH  17  20
ENDBRANCH   1  12
BRANCH   2  22
ATOM     22  O   UNL     1      12.725  31.625  -2.394  1.00  0.00    -0.502 OA
ATOM     23  H   UNL     1      12.857  31.530  -1.395  1.00  0.00     0.293 HD
ENDBRANCH   2  22
BRANCH   6  24
ATOM     24  O   UNL     1      15.955  27.391  -2.286  1.00  0.00    -0.507 OA
ATOM     25  H   UNL     1      16.511  27.741  -1.521  1.00  0.00     0.293 HD
ENDBRANCH   6  24
BRANCH   8  26
ATOM     26  O   UNL     1      17.368  27.294  -6.875  1.00  0.00    -0.508 OA
ATOM     27  H   UNL     1      17.898  26.447  -6.709  1.00  0.00     0.293 HD
ENDBRANCH   8  26
TORSDOF 6
ENDMDL
MODEL 6
REMARK VINA RESULT:    -6.789      1.990      2.458
REMARK INTER + INTRA:          -8.057
REMARK INTER:                  -8.076
REMARK INTRA:                   0.019
REMARK UNBOUND:                 0.121
REMARK SMILES O=c1c(O)c(-c2ccc(O)c(O)c2)oc2cc(O)cc(O)c12
REMARK SMILES IDX 5 1 3 2 2 3 1 4 22 5 20 6 19 7 17 8 16 9 15 10 14 11 6 12
REMARK SMILES IDX 7 13 8 14 9 15 13 16 11 17 10 18 12 20 4 22 21 24 18 26
REMARK H PARENT 10 19 12 21 4 23 21 25 18 27
REMARK Flexibility Score: inf
ROOT
ATOM      1  C   UNL     1      14.612  28.716  -5.492  1.00  0.00     0.180 A 
ATOM      2  C   UNL     1      15.893  28.138  -5.432  1.00  0.00     0.208 A 
ATOM      3  C   UNL     1      16.296  27.499  -4.249  1.00  0.00     0.238 A 
ATOM      4  O   UNL     1      17.422  26.936  -4.219  1.00  0.00    -0.285 OA
ATOM      5  C   UNL     1      15.422  27.460  -3.136  1.00  0.00     0.111 A 
ATOM      6  C   UNL     1      15.742  26.873  -1.875  1.00  0.00     0.134 A 
ATOM      7  C   UNL     1      14.753  26.775  -0.888  1.00  0.00     0.093 A 
ATOM      8  C   UNL     1      13.475  27.302  -1.093  1.00  0.00     0.123 A 
ATOM      9  C   UNL     1      13.172  27.928  -2.300  1.00  0.00     0.094 A 
ATOM     10  C   UNL     1      14.126  28.009  -3.317  1.00  0.00     0.146 A 
ATOM     11  O   UNL     1      13.791  28.605  -4.455  1.00  0.00    -0.452 OA
ENDROOT
BRANCH   1  12
ATOM     12  C   UNL     1      14.126  29.429  -6.696  1.00  0.00     0.025 A 
ATOM     13  C   UNL     1      14.218  28.852  -7.974  1.00  0.00     0.016 A 
ATOM     14  C   UNL     1      13.773  29.554  -9.099  1.00  0.00     0.051 A 
ATOM     15  C   UNL     1      13.246  30.844  -8.965  1.00  0.00     0.157 A 
ATOM     16  C   UNL     1      13.615  30.732  -6.569  1.00  0.00     0.062 A 
ATOM     17  C   UNL     1      13.170  31.437  -7.693  1.00  0.00     0.158 A 
BRANCH  15  18
ATOM     18  O   UNL     1      12.803  31.540 -10.088  1.00  0.00    -0.504 OA
ATOM     19  H   UNL     1      11.881  31.386 -10.479  1.00  0.00     0.293 HD
ENDBRANCH  15  18
BRANCH  17  20
ATOM     20  O   UNL     1      12.656  32.722  -7.526  1.00  0.00    -0.504 OA
ATOM     21  H   UNL     1      11.955  32.936  -6.828  1.00  0.00     0.293 HD
ENDBRANCH  17  20
ENDBRANCH   1  12
BRANCH   2  22
ATOM     22  O   UNL     1      16.731  28.170  -6.549  1.00  0.00    -0.502 OA
ATOM     23  H   UNL     1      17.425  27.455  -6.729  1.00  0.00     0.293 HD
ENDBRANCH   2  22
BRANCH   6  24
ATOM     24  O   UNL     1      17.013  26.401  -1.533  1.00  0.00    -0.507 OA
ATOM     25  H   UNL     1      17.206  25.776  -0.765  1.00  0.00     0.293 HD
ENDBRANCH   6  24
BRANCH   8  26
ATOM     26  O   UNL     1      12.502  27.214  -0.100  1.00  0.00    -0.508 OA
ATOM     27  H   UNL     1      11.578  26.846  -0.295  1.00  0.00     0.293 HD
ENDBRANCH   8  26
TORSDOF 6
ENDMDL
MODEL 7
REMARK VINA RESULT:    -6.686      1.756      6.570
REMARK INTER + INTRA:          -7.933
REMARK INTER:                  -8.047
REMARK INTRA:                   0.115
REMARK UNBOUND:                 0.121
REMARK SMILES O=c1c(O)c(-c2ccc(O)c(O)c2)oc2cc(O)cc(O)c12
REMARK SMILES IDX 5 1 3 2 2 3 1 4 22 5 20 6 19 7 17 8 16 9 15 10 14 11 6 12
REMARK SMILES IDX 7 13 8 14 9 15 13 16 11 17 10 18 12 20 4 22 21 24 18 26
REMARK H PARENT 10 19 12 21 4 23 21 25 18 27
REMARK Flexibility Score: inf
ROOT
ATOM      1  C   UNL     1      15.420  28.748  -5.976  1.00  0.00     0.180 A 
ATOM      2  C   UNL     1      16.155  28.283  -7.081  1.00  0.00     0.208 A 
ATOM      3  C   UNL     1      15.711  28.596  -8.375  1.00  0.00     0.238 A 
ATOM      4  O   UNL     1      16.402  28.223  -9.359  1.00  0.00    -0.285 OA
ATOM      5  C   UNL     1      14.530  29.358  -8.550  1.00  0.00     0.111 A 
ATOM      6  C   UNL     1      13.967  29.701  -9.816  1.00  0.00     0.134 A 
ATOM      7  C   UNL     1      12.870  30.569  -9.871  1.00  0.00     0.093 A 
ATOM      8  C   UNL     1      12.274  31.053  -8.704  1.00  0.00     0.123 A 
ATOM      9  C   UNL     1      12.781  30.676  -7.462  1.00  0.00     0.094 A 
ATOM     10  C   UNL     1      13.897  29.841  -7.376  1.00  0.00     0.146 A 
ATOM     11  O   UNL     1      14.354  29.516  -6.172  1.00  0.00    -0.452 OA
ENDROOT
BRANCH   1  12
ATOM     12  C   UNL     1      15.811  28.437  -4.582  1.00  0.00     0.025 A 
ATOM     13  C   UNL     1      15.836  29.432  -3.590  1.00  0.00     0.016 A 
ATOM     14  C   UNL     1      16.231  29.120  -2.286  1.00  0.00     0.051 A 
ATOM     15  C   UNL     1      16.621  27.815  -1.959  1.00  0.00     0.157 A 
ATOM     16  C   UNL     1      16.222  27.134  -4.254  1.00  0.00     0.062 A 
ATOM     17  C   UNL     1      16.619  26.818  -2.950  1.00  0.00     0.158 A 
BRANCH  15  18
ATOM     18  O   UNL     1      17.014  27.507  -0.658  1.00  0.00    -0.504 OA
ATOM     19  H   UNL     1      17.824  26.928  -0.472  1.00  0.00     0.293 HD
ENDBRANCH  15  18
BRANCH  17  20
ATOM     20  O   UNL     1      17.008  25.511  -2.658  1.00  0.00    -0.504 OA
ATOM     21  H   UNL     1      17.980  25.251  -2.547  1.00  0.00     0.293 HD
ENDBRANCH  17  20
ENDBRANCH   1  12
BRANCH   2  22
ATOM     22  O   UNL     1      17.329  27.551  -6.885  1.00  0.00    -0.502 OA
ATOM     23  H   UNL     1      17.557  27.114  -6.001  1.00  0.00     0.293 HD
ENDBRANCH   2  22
BRANCH   6  24
ATOM     24  O   UNL     1      14.427  29.199 -11.037  1.00  0.00    -0.507 OA
ATOM     25  H   UNL     1      14.007  28.429 -11.537  1.00  0.00     0.293 HD
ENDBRANCH   6  24
BRANCH   8  26
ATOM     26  O   UNL     1      11.172  31.903  -8.767  1.00  0.00    -0.508 OA
ATOM     27  H   UNL     1      10.931  32.516  -7.998  1.00  0.00     0.293 HD
ENDBRANCH   8  26
TORSDOF 6
ENDMDL
MODEL 8
REMARK VINA RESULT:    -6.612      2.052      3.061
REMARK INTER + INTRA:          -7.844
REMARK INTER:                  -7.560
REMARK INTRA:                  -0.284
REMARK UNBOUND:                 0.121
REMARK SMILES O=c1c(O)c(-c2ccc(O)c(O)c2)oc2cc(O)cc(O)c12
REMARK SMILES IDX 5 1 3 2 2 3 1 4 22 5 20 6 19 7 17 8 16 9 15 10 14 11 6 12
REMARK SMILES IDX 7 13 8 14 9 15 13 16 11 17 10 18 12 20 4 22 21 24 18 26
REMARK H PARENT 10 19 12 21 4 23 21 25 18 27
REMARK Flexibility Score: inf
ROOT
ATOM      1  C   UNL     1      13.571  29.460  -6.500  1.00  0.00     0.180 A 
ATOM      2  C   UNL     1      12.380  29.000  -5.911  1.00  0.00     0.208 A 
ATOM      3  C   UNL     1      12.342  28.794  -4.523  1.00  0.00     0.238 A 
ATOM      4  O   UNL     1      11.258  28.435  -3.995  1.00  0.00    -0.285 OA
ATOM      5  C   UNL     1      13.499  29.035  -3.743  1.00  0.00     0.111 A 
ATOM      6  C   UNL     1      13.585  28.822  -2.334  1.00  0.00     0.134 A 
ATOM      7  C   UNL     1      14.738  29.218  -1.646  1.00  0.00     0.093 A 
ATOM      8  C   UNL     1      15.833  29.758  -2.324  1.00  0.00     0.123 A 
ATOM      9  C   UNL     1      15.780  29.915  -3.707  1.00  0.00     0.094 A 
ATOM     10  C   UNL     1      14.630  29.563  -4.417  1.00  0.00     0.146 A 
ATOM     11  O   UNL     1      14.619  29.740  -5.733  1.00  0.00    -0.452 OA
ENDROOT
BRANCH   1  12
ATOM     12  C   UNL     1      13.696  29.677  -7.960  1.00  0.00     0.025 A 
ATOM     13  C   UNL     1      13.159  30.819  -8.578  1.00  0.00     0.016 A 
ATOM     14  C   UNL     1      13.269  30.991  -9.961  1.00  0.00     0.051 A 
ATOM     15  C   UNL     1      13.900  30.019 -10.746  1.00  0.00     0.157 A 
ATOM     16  C   UNL     1      14.310  28.694  -8.754  1.00  0.00     0.062 A 
ATOM     17  C   UNL     1      14.421  28.863 -10.139  1.00  0.00     0.158 A 
BRANCH  15  18
ATOM     18  O   UNL     1      14.008  30.193 -12.125  1.00  0.00    -0.504 OA
ATOM     19  H   UNL     1      13.453  30.883 -12.617  1.00  0.00     0.293 HD
ENDBRANCH  15  18
BRANCH  17  20
ATOM     20  O   UNL     1      15.049  27.873 -10.894  1.00  0.00    -0.504 OA
ATOM     21  H   UNL     1      15.425  28.056 -11.817  1.00  0.00     0.293 HD
ENDBRANCH  17  20
ENDBRANCH   1  12
BRANCH   2  22
ATOM     22  O   UNL     1      11.244  28.790  -6.697  1.00  0.00    -0.502 OA
ATOM     23  H   UNL     1      11.279  28.313  -7.589  1.00  0.00     0.293 HD
ENDBRANCH   2  22
BRANCH   6  24
ATOM     24  O   UNL     1      12.586  28.205  -1.576  1.00  0.00    -0.507 OA
ATOM     25  H   UNL     1      12.715  27.370  -1.024  1.00  0.00     0.293 HD
ENDBRANCH   6  24
BRANCH   8  26
ATOM     26  O   UNL     1      16.983  30.134  -1.633  1.00  0.00    -0.508 OA
ATOM     27  H   UNL     1      17.840  30.370  -2.119  1.00  0.00     0.293 HD
ENDBRANCH   8  26
TORSDOF 6
ENDMDL
MODEL 9
REMARK VINA RESULT:    -6.551      2.140      7.400
REMARK INTER + INTRA:          -7.771
REMARK INTER:                  -7.466
REMARK INTRA:                  -0.305
REMARK UNBOUND:                 0.121
REMARK SMILES O=c1c(O)c(-c2ccc(O)c(O)c2)oc2cc(O)cc(O)c12
REMARK SMILES IDX 5 1 3 2 2 3 1 4 22 5 20 6 19 7 17 8 16 9 15 10 14 11 6 12
REMARK SMILES IDX 7 13 8 14 9 15 13 16 11 17 10 18 12 20 4 22 21 24 18 26
REMARK H PARENT 10 19 12 21 4 23 21 25 18 27
REMARK Flexibility Score: inf
ROOT
ATOM      1  C   UNL     1      14.161  29.766  -6.951  1.00  0.00     0.180 A 
ATOM      2  C   UNL     1      13.328  30.735  -7.536  1.00  0.00     0.208 A 
ATOM      3  C   UNL     1      13.269  30.828  -8.936  1.00  0.00     0.238 A 
ATOM      4  O   UNL     1      12.481  31.661  -9.454  1.00  0.00    -0.285 OA
ATOM      5  C   UNL     1      14.054  29.961  -9.733  1.00  0.00     0.111 A 
ATOM      6  C   UNL     1      14.102  29.992 -11.159  1.00  0.00     0.134 A 
ATOM      7  C   UNL     1      14.813  29.002 -11.848  1.00  0.00     0.093 A 
ATOM      8  C   UNL     1      15.531  28.020 -11.161  1.00  0.00     0.123 A 
ATOM      9  C   UNL     1      15.538  28.017  -9.768  1.00  0.00     0.094 A 
ATOM     10  C   UNL     1      14.809  28.970  -9.053  1.00  0.00     0.146 A 
ATOM     11  O   UNL     1      14.835  28.923  -7.727  1.00  0.00    -0.452 OA
ENDROOT
BRANCH   1  12
ATOM     12  C   UNL     1      14.296  29.624  -5.483  1.00  0.00     0.025 A 
ATOM     13  C   UNL     1      13.354  28.904  -4.729  1.00  0.00     0.016 A 
ATOM     14  C   UNL     1      13.489  28.804  -3.341  1.00  0.00     0.051 A 
ATOM     15  C   UNL     1      14.555  29.433  -2.687  1.00  0.00     0.157 A 
ATOM     16  C   UNL     1      15.352  30.272  -4.821  1.00  0.00     0.062 A 
ATOM     17  C   UNL     1      15.490  30.174  -3.431  1.00  0.00     0.158 A 
BRANCH  15  18
ATOM     18  O   UNL     1      14.687  29.331  -1.303  1.00  0.00    -0.504 OA
ATOM     19  H   UNL     1      14.344  30.055  -0.683  1.00  0.00     0.293 HD
ENDBRANCH  15  18
BRANCH  17  20
ATOM     20  O   UNL     1      16.558  30.818  -2.809  1.00  0.00    -0.504 OA
ATOM     21  H   UNL     1      17.520  30.646  -3.075  1.00  0.00     0.293 HD
ENDBRANCH  17  20
ENDBRANCH   1  12
BRANCH   2  22
ATOM     22  O   UNL     1      12.545  31.567  -6.731  1.00  0.00    -0.502 OA
ATOM     23  H   UNL     1      11.542  31.646  -6.844  1.00  0.00     0.293 HD
ENDBRANCH   2  22
BRANCH   6  24
ATOM     24  O   UNL     1      13.497  30.982 -11.939  1.00  0.00    -0.507 OA
ATOM     25  H   UNL     1      13.317  30.904 -12.929  1.00  0.00     0.293 HD
ENDBRANCH   6  24
BRANCH   8  26
ATOM     26  O   UNL     1      16.249  27.048 -11.855  1.00  0.00    -0.508 OA
ATOM     27  H   UNL     1      17.043  26.578 -11.437  1.00  0.00     0.293 HD
ENDBRANCH   8  26
TORSDOF 6
ENDMDL
