MODEL 1
REMARK VINA RESULT:    -3.134      0.000      0.000
REMARK INTER + INTRA:          -3.328
REMARK INTER:                  -3.317
REMARK INTRA:                  -0.010
REMARK UNBOUND:                -0.010
REMARK SMILES O=Cc1ccco1
REMARK SMILES IDX 5 1 6 2 7 3 3 4 4 5 2 6 1 7
REMARK H PARENT
REMARK Flexibility Score: inf
ROOT
ATOM      1  C   UNL     1     164.653 178.749 168.807  1.00  0.00     0.043 A 
ATOM      2  C   UNL     1     164.211 178.441 167.536  1.00  0.00     0.196 A 
ATOM      3  O   UNL     1     162.903 178.327 167.536  1.00  0.00    -0.462 OA
ATOM      4  C   UNL     1     162.466 178.547 168.754  1.00  0.00     0.166 A 
ATOM      5  C   UNL     1     163.525 178.819 169.596  1.00  0.00     0.054 A 
ENDROOT
BRANCH   4   6
ATOM      6  C   UNL     1     161.050 178.504 169.130  1.00  0.00     0.298 C 
ATOM      7  O   UNL     1     160.677 177.880 170.158  1.00  0.00    -0.294 OA
ENDBRANCH   4   6
TORSDOF 1
ENDMDL
MODEL 2
REMARK VINA RESULT:    -2.970     16.653     16.962
REMARK INTER + INTRA:          -3.154
REMARK INTER:                  -3.140
REMARK INTRA:                  -0.014
REMARK UNBOUND:                -0.010
REMARK SMILES O=Cc1ccco1
REMARK SMILES IDX 5 1 6 2 7 3 3 4 4 5 2 6 1 7
REMARK H PARENT
REMARK Flexibility Score: inf
ROOT
ATOM      1  C   UNL     1     161.153 162.250 168.999  1.00  0.00     0.043 A 
ATOM      2  C   UNL     1     159.951 162.688 168.479  1.00  0.00     0.196 A 
ATOM      3  O   UNL     1     159.860 162.337 167.217  1.00  0.00    -0.462 OA
ATOM      4  C   UNL     1     160.950 161.686 166.885  1.00  0.00     0.166 A 
ATOM      5  C   UNL     1     161.800 161.600 167.970  1.00  0.00     0.054 A 
ENDROOT
BRANCH   4   6
ATOM      6  C   UNL     1     161.196 161.141 165.548  1.00  0.00     0.298 C 
ATOM      7  O   UNL     1     160.881 161.795 164.519  1.00  0.00    -0.294 OA
ENDBRANCH   4   6
TORSDOF 1
ENDMDL
MODEL 3
REMARK VINA RESULT:    -2.933     21.979     22.698
REMARK INTER + INTRA:          -3.115
REMARK INTER:                  -3.105
REMARK INTRA:                  -0.010
REMARK UNBOUND:                -0.010
REMARK SMILES O=Cc1ccco1
REMARK SMILES IDX 5 1 6 2 7 3 3 4 4 5 2 6 1 7
REMARK H PARENT
REMARK Flexibility Score: inf
ROOT
ATOM      1  C   UNL     1     178.708 160.330 171.011  1.00  0.00     0.043 A 
ATOM      2  C   UNL     1     178.738 159.875 169.708  1.00  0.00     0.196 A 
ATOM      3  O   UNL     1     178.016 160.664 168.946  1.00  0.00    -0.462 OA
ATOM      4  C   UNL     1     177.514 161.620 169.692  1.00  0.00     0.166 A 
ATOM      5  C   UNL     1     177.917 161.460 171.003  1.00  0.00     0.054 A 
ENDROOT
BRANCH   4   6
ATOM      6  C   UNL     1     176.653 162.688 169.176  1.00  0.00     0.298 C 
ATOM      7  O   UNL     1     175.583 162.993 169.766  1.00  0.00    -0.294 OA
ENDBRANCH   4   6
TORSDOF 1
ENDMDL
MODEL 4
REMARK VINA RESULT:    -2.889      1.422      3.121
REMARK INTER + INTRA:          -3.068
REMARK INTER:                  -3.054
REMARK INTRA:                  -0.014
REMARK UNBOUND:                -0.010
REMARK SMILES O=Cc1ccco1
REMARK SMILES IDX 5 1 6 2 7 3 3 4 4 5 2 6 1 7
REMARK H PARENT
REMARK Flexibility Score: inf
ROOT
ATOM      1  C   UNL     1     160.423 178.038 169.559  1.00  0.00     0.043 A 
ATOM      2  C   UNL     1     160.609 178.670 168.346  1.00  0.00     0.196 A 
ATOM      3  O   UNL     1     161.879 178.963 168.188  1.00  0.00    -0.462 OA
ATOM      4  C   UNL     1     162.537 178.549 169.245  1.00  0.00     0.166 A 
ATOM      5  C   UNL     1     161.670 177.958 170.142  1.00  0.00     0.054 A 
ENDROOT
BRANCH   4   6
ATOM      6  C   UNL     1     163.984 178.707 169.416  1.00  0.00     0.298 C 
ATOM      7  O   UNL     1     164.761 178.618 168.430  1.00  0.00    -0.294 OA
ENDBRANCH   4   6
TORSDOF 1
ENDMDL
MODEL 5
REMARK VINA RESULT:    -2.886      1.402      3.075
REMARK INTER + INTRA:          -3.065
REMARK INTER:                  -3.054
REMARK INTRA:                  -0.010
REMARK UNBOUND:                -0.010
REMARK SMILES O=Cc1ccco1
REMARK SMILES IDX 5 1 6 2 7 3 3 4 4 5 2 6 1 7
REMARK H PARENT
REMARK Flexibility Score: inf
ROOT
ATOM      1  C   UNL     1     164.200 178.636 169.414  1.00  0.00     0.043 A 
ATOM      2  C   UNL     1     162.820 178.676 169.397  1.00  0.00     0.196 A 
ATOM      3  O   UNL     1     162.389 178.554 168.163  1.00  0.00    -0.462 OA
ATOM      4  C   UNL     1     163.425 178.434 167.368  1.00  0.00     0.166 A 
ATOM      5  C   UNL     1     164.594 178.479 168.103  1.00  0.00     0.054 A 
ENDROOT
BRANCH   4   6
ATOM      6  C   UNL     1     163.322 178.277 165.915  1.00  0.00     0.298 C 
ATOM      7  O   UNL     1     164.017 178.987 165.141  1.00  0.00    -0.294 OA
ENDBRANCH   4   6
TORSDOF 1
ENDMDL
MODEL 6
REMARK VINA RESULT:    -2.831     20.791     21.540
REMARK INTER + INTRA:          -3.007
REMARK INTER:                  -2.997
REMARK INTRA:                  -0.010
REMARK UNBOUND:                -0.010
REMARK SMILES O=Cc1ccco1
REMARK SMILES IDX 5 1 6 2 7 3 3 4 4 5 2 6 1 7
REMARK H PARENT
REMARK Flexibility Score: inf
ROOT
ATOM      1  C   UNL     1     178.181 162.883 166.404  1.00  0.00     0.043 A 
ATOM      2  C   UNL     1     177.964 161.531 166.581  1.00  0.00     0.196 A 
ATOM      3  O   UNL     1     177.331 161.328 167.713  1.00  0.00    -0.462 OA
ATOM      4  C   UNL     1     177.122 162.489 168.288  1.00  0.00     0.166 A 
ATOM      5  C   UNL     1     177.636 163.504 167.507  1.00  0.00     0.054 A 
ENDROOT
BRANCH   4   6
ATOM      6  C   UNL     1     176.437 162.648 169.574  1.00  0.00     0.298 C 
ATOM      7  O   UNL     1     175.213 162.940 169.619  1.00  0.00    -0.294 OA
ENDBRANCH   4   6
TORSDOF 1
ENDMDL
MODEL 7
REMARK VINA RESULT:    -2.781     21.388     21.975
REMARK INTER + INTRA:          -2.954
REMARK INTER:                  -2.941
REMARK INTRA:                  -0.013
REMARK UNBOUND:                -0.010
REMARK SMILES O=Cc1ccco1
REMARK SMILES IDX 5 1 6 2 7 3 3 4 4 5 2 6 1 7
REMARK H PARENT
REMARK Flexibility Score: inf
ROOT
ATOM      1  C   UNL     1     177.059 163.193 168.895  1.00  0.00     0.043 A 
ATOM      2  C   UNL     1     176.882 161.834 168.736  1.00  0.00     0.196 A 
ATOM      3  O   UNL     1     177.283 161.471 167.540  1.00  0.00    -0.462 OA
ATOM      4  C   UNL     1     177.716 162.534 166.904  1.00  0.00     0.166 A 
ATOM      5  C   UNL     1     177.599 163.649 167.711  1.00  0.00     0.054 A 
ENDROOT
BRANCH   4   6
ATOM      6  C   UNL     1     178.242 162.507 165.537  1.00  0.00     0.298 C 
ATOM      7  O   UNL     1     177.559 162.026 164.595  1.00  0.00    -0.294 OA
ENDBRANCH   4   6
TORSDOF 1
ENDMDL
MODEL 8
REMARK VINA RESULT:    -2.727     21.299     22.163
REMARK INTER + INTRA:          -2.897
REMARK INTER:                  -2.886
REMARK INTRA:                  -0.010
REMARK UNBOUND:                -0.010
REMARK SMILES O=Cc1ccco1
REMARK SMILES IDX 5 1 6 2 7 3 3 4 4 5 2 6 1 7
REMARK H PARENT
REMARK Flexibility Score: inf
ROOT
ATOM      1  C   UNL     1     177.534 161.522 170.911  1.00  0.00     0.043 A 
ATOM      2  C   UNL     1     178.870 161.821 170.736  1.00  0.00     0.196 A 
ATOM      3  O   UNL     1     179.020 162.578 169.674  1.00  0.00    -0.462 OA
ATOM      4  C   UNL     1     177.839 162.791 169.143  1.00  0.00     0.166 A 
ATOM      5  C   UNL     1     176.865 162.149 169.881  1.00  0.00     0.054 A 
ENDROOT
BRANCH   4   6
ATOM      6  C   UNL     1     177.621 163.598 167.940  1.00  0.00     0.298 C 
ATOM      7  O   UNL     1     177.646 163.070 166.798  1.00  0.00    -0.294 OA
ENDBRANCH   4   6
TORSDOF 1
ENDMDL
