MODEL 1
REMARK VINA RESULT:    -4.350      0.000      0.000
REMARK INTER + INTRA:          -5.787
REMARK INTER:                  -5.367
REMARK INTRA:                  -0.420
REMARK UNBOUND:                -0.420
REMARK SMILES C=CC[C@@H](C)C(=O)CC
REMARK SMILES IDX 4 1 5 2 6 3 7 4 8 5 9 6 3 7 2 8 1 9
REMARK H PARENT
REMARK Flexibility Score: inf
ROOT
ATOM      1  C   UNL     1      -3.431 -15.373  -7.407  1.00  0.00     0.057 C 
ATOM      2  C   UNL     1      -3.015 -16.065  -6.102  1.00  0.00     0.016 C 
ENDROOT
BRANCH   1   3
ATOM      3  C   UNL     1      -4.834 -14.811  -7.297  1.00  0.00     0.135 C 
ATOM      4  O   UNL     1      -5.348 -14.666  -6.197  1.00  0.00    -0.299 OA
BRANCH   3   5
ATOM      5  C   UNL     1      -5.618 -14.428  -8.525  1.00  0.00     0.072 C 
ATOM      6  C   UNL     1      -6.066 -12.973  -8.449  1.00  0.00     0.012 C 
ENDBRANCH   3   5
ENDBRANCH   1   3
BRANCH   1   7
ATOM      7  C   UNL     1      -2.418 -14.299  -7.862  1.00  0.00     0.038 C 
BRANCH   7   8
ATOM      8  C   UNL     1      -2.354 -13.098  -6.954  1.00  0.00    -0.034 C 
ATOM      9  C   UNL     1      -2.733 -11.883  -7.361  1.00  0.00     0.004 C 
ENDBRANCH   7   8
ENDBRANCH   1   7
TORSDOF 4
ENDMDL
MODEL 2
REMARK VINA RESULT:    -4.328      1.370      2.474
REMARK INTER + INTRA:          -5.761
REMARK INTER:                  -5.340
REMARK INTRA:                  -0.421
REMARK UNBOUND:                -0.420
REMARK SMILES C=CC[C@@H](C)C(=O)CC
REMARK SMILES IDX 4 1 5 2 6 3 7 4 8 5 9 6 3 7 2 8 1 9
REMARK H PARENT
REMARK Flexibility Score: inf
ROOT
ATOM      1  C   UNL     1      -4.789 -14.247  -8.269  1.00  0.00     0.057 C 
ATOM      2  C   UNL     1      -5.968 -14.757  -9.108  1.00  0.00     0.016 C 
ENDROOT
BRANCH   1   3
ATOM      3  C   UNL     1      -5.251 -13.214  -7.260  1.00  0.00     0.135 C 
ATOM      4  O   UNL     1      -5.579 -13.565  -6.135  1.00  0.00    -0.299 OA
BRANCH   3   5
ATOM      5  C   UNL     1      -5.320 -11.753  -7.618  1.00  0.00     0.072 C 
ATOM      6  C   UNL     1      -4.477 -11.458  -8.853  1.00  0.00     0.012 C 
ENDBRANCH   3   5
ENDBRANCH   1   3
BRANCH   1   7
ATOM      7  C   UNL     1      -3.997 -15.390  -7.596  1.00  0.00     0.038 C 
BRANCH   7   8
ATOM      8  C   UNL     1      -2.566 -15.037  -7.281  1.00  0.00    -0.034 C 
ATOM      9  C   UNL     1      -1.831 -14.271  -8.093  1.00  0.00     0.004 C 
ENDBRANCH   7   8
ENDBRANCH   1   7
TORSDOF 4
ENDMDL
MODEL 3
REMARK VINA RESULT:    -4.307      1.539      3.149
REMARK INTER + INTRA:          -5.734
REMARK INTER:                  -5.453
REMARK INTRA:                  -0.281
REMARK UNBOUND:                -0.420
REMARK SMILES C=CC[C@@H](C)C(=O)CC
REMARK SMILES IDX 4 1 5 2 6 3 7 4 8 5 9 6 3 7 2 8 1 9
REMARK H PARENT
REMARK Flexibility Score: inf
ROOT
ATOM      1  C   UNL     1      -4.543 -14.984  -8.373  1.00  0.00     0.057 C 
ATOM      2  C   UNL     1      -3.187 -14.653  -9.011  1.00  0.00     0.016 C 
ENDROOT
BRANCH   1   3
ATOM      3  C   UNL     1      -4.415 -15.106  -6.867  1.00  0.00     0.135 C 
ATOM      4  O   UNL     1      -5.306 -14.684  -6.144  1.00  0.00    -0.299 OA
BRANCH   3   5
ATOM      5  C   UNL     1      -3.202 -15.740  -6.238  1.00  0.00     0.072 C 
ATOM      6  C   UNL     1      -3.442 -17.221  -5.969  1.00  0.00     0.012 C 
ENDBRANCH   3   5
ENDBRANCH   1   3
BRANCH   1   7
ATOM      7  C   UNL     1      -5.651 -13.985  -8.774  1.00  0.00     0.038 C 
BRANCH   7   8
ATOM      8  C   UNL     1      -5.187 -12.552  -8.835  1.00  0.00    -0.034 C 
ATOM      9  C   UNL     1      -5.632 -11.628  -7.979  1.00  0.00     0.004 C 
ENDBRANCH   7   8
ENDBRANCH   1   7
TORSDOF 4
ENDMDL
MODEL 4
REMARK VINA RESULT:    -4.238      1.249      3.008
REMARK INTER + INTRA:          -5.649
REMARK INTER:                  -5.144
REMARK INTRA:                  -0.504
REMARK UNBOUND:                -0.420
REMARK SMILES C=CC[C@@H](C)C(=O)CC
REMARK SMILES IDX 4 1 5 2 6 3 7 4 8 5 9 6 3 7 2 8 1 9
REMARK H PARENT
REMARK Flexibility Score: inf
ROOT
ATOM      1  C   UNL     1      -5.442 -13.664  -7.738  1.00  0.00     0.057 C 
ATOM      2  C   UNL     1      -5.668 -14.346  -9.094  1.00  0.00     0.016 C 
ENDROOT
BRANCH   1   3
ATOM      3  C   UNL     1      -4.332 -14.351  -6.967  1.00  0.00     0.135 C 
ATOM      4  O   UNL     1      -4.300 -14.275  -5.747  1.00  0.00    -0.299 OA
BRANCH   3   5
ATOM      5  C   UNL     1      -3.256 -15.129  -7.679  1.00  0.00     0.072 C 
ATOM      6  C   UNL     1      -1.939 -14.362  -7.673  1.00  0.00     0.012 C 
ENDBRANCH   3   5
ENDBRANCH   1   3
BRANCH   1   7
ATOM      7  C   UNL     1      -5.194 -12.145  -7.868  1.00  0.00     0.038 C 
BRANCH   7   8
ATOM      8  C   UNL     1      -4.461 -11.752  -9.125  1.00  0.00    -0.034 C 
ATOM      9  C   UNL     1      -3.241 -11.208  -9.091  1.00  0.00     0.004 C 
ENDBRANCH   7   8
ENDBRANCH   1   7
TORSDOF 4
ENDMDL
MODEL 5
REMARK VINA RESULT:    -4.237      1.985      2.856
REMARK INTER + INTRA:          -5.648
REMARK INTER:                  -5.334
REMARK INTRA:                  -0.313
REMARK UNBOUND:                -0.420
REMARK SMILES C=CC[C@@H](C)C(=O)CC
REMARK SMILES IDX 4 1 5 2 6 3 7 4 8 5 9 6 3 7 2 8 1 9
REMARK H PARENT
REMARK Flexibility Score: inf
ROOT
ATOM      1  C   UNL     1      -2.686 -13.679  -8.658  1.00  0.00     0.057 C 
ATOM      2  C   UNL     1      -3.750 -14.680  -9.125  1.00  0.00     0.016 C 
ENDROOT
BRANCH   1   3
ATOM      3  C   UNL     1      -3.316 -12.346  -8.304  1.00  0.00     0.135 C 
ATOM      4  O   UNL     1      -2.740 -11.583  -7.542  1.00  0.00    -0.299 OA
BRANCH   3   5
ATOM      5  C   UNL     1      -4.650 -11.941  -8.874  1.00  0.00     0.072 C 
ATOM      6  C   UNL     1      -5.640 -11.620  -7.760  1.00  0.00     0.012 C 
ENDBRANCH   3   5
ENDBRANCH   1   3
BRANCH   1   7
ATOM      7  C   UNL     1      -1.816 -14.225  -7.504  1.00  0.00     0.038 C 
BRANCH   7   8
ATOM      8  C   UNL     1      -2.490 -15.302  -6.691  1.00  0.00    -0.034 C 
ATOM      9  C   UNL     1      -2.863 -15.102  -5.424  1.00  0.00     0.004 C 
ENDBRANCH   7   8
ENDBRANCH   1   7
TORSDOF 4
ENDMDL
MODEL 6
REMARK VINA RESULT:    -4.090      1.506      2.633
REMARK INTER + INTRA:          -5.466
REMARK INTER:                  -5.149
REMARK INTRA:                  -0.318
REMARK UNBOUND:                -0.420
REMARK SMILES C=CC[C@@H](C)C(=O)CC
REMARK SMILES IDX 4 1 5 2 6 3 7 4 8 5 9 6 3 7 2 8 1 9
REMARK H PARENT
REMARK Flexibility Score: inf
ROOT
ATOM      1  C   UNL     1      -3.508 -13.673  -8.068  1.00  0.00     0.057 C 
ATOM      2  C   UNL     1      -2.416 -14.167  -9.026  1.00  0.00     0.016 C 
ENDROOT
BRANCH   1   3
ATOM      3  C   UNL     1      -4.884 -14.065  -8.570  1.00  0.00     0.135 C 
ATOM      4  O   UNL     1      -5.088 -15.205  -8.961  1.00  0.00    -0.299 OA
BRANCH   3   5
ATOM      5  C   UNL     1      -6.014 -13.069  -8.600  1.00  0.00     0.072 C 
ATOM      6  C   UNL     1      -5.557 -11.715  -8.070  1.00  0.00     0.012 C 
ENDBRANCH   3   5
ENDBRANCH   1   3
BRANCH   1   7
ATOM      7  C   UNL     1      -3.277 -14.132  -6.612  1.00  0.00     0.038 C 
BRANCH   7   8
ATOM      8  C   UNL     1      -2.666 -15.505  -6.495  1.00  0.00    -0.034 C 
ATOM      9  C   UNL     1      -3.367 -16.555  -6.058  1.00  0.00     0.004 C 
ENDBRANCH   7   8
ENDBRANCH   1   7
TORSDOF 4
ENDMDL
MODEL 7
REMARK VINA RESULT:    -4.038      1.569      3.085
REMARK INTER + INTRA:          -5.402
REMARK INTER:                  -5.088
REMARK INTRA:                  -0.313
REMARK UNBOUND:                -0.420
REMARK SMILES C=CC[C@@H](C)C(=O)CC
REMARK SMILES IDX 4 1 5 2 6 3 7 4 8 5 9 6 3 7 2 8 1 9
REMARK H PARENT
REMARK Flexibility Score: inf
ROOT
ATOM      1  C   UNL     1      -3.370 -13.781  -8.792  1.00  0.00     0.057 C 
ATOM      2  C   UNL     1      -1.898 -14.062  -9.120  1.00  0.00     0.016 C 
ENDROOT
BRANCH   1   3
ATOM      3  C   UNL     1      -3.997 -14.957  -8.071  1.00  0.00     0.135 C 
ATOM      4  O   UNL     1      -4.532 -15.851  -8.712  1.00  0.00    -0.299 OA
BRANCH   3   5
ATOM      5  C   UNL     1      -3.979 -15.048  -6.567  1.00  0.00     0.072 C 
ATOM      6  C   UNL     1      -2.791 -15.875  -6.089  1.00  0.00     0.012 C 
ENDBRANCH   3   5
ENDBRANCH   1   3
BRANCH   1   7
ATOM      7  C   UNL     1      -3.566 -12.461  -8.014  1.00  0.00     0.038 C 
BRANCH   7   8
ATOM      8  C   UNL     1      -4.721 -11.627  -8.509  1.00  0.00    -0.034 C 
ATOM      9  C   UNL     1      -5.929 -11.684  -7.940  1.00  0.00     0.004 C 
ENDBRANCH   7   8
ENDBRANCH   1   7
TORSDOF 4
ENDMDL
MODEL 8
REMARK VINA RESULT:    -3.938      1.178      2.869
REMARK INTER + INTRA:          -5.280
REMARK INTER:                  -4.886
REMARK INTRA:                  -0.393
REMARK UNBOUND:                -0.420
REMARK SMILES C=CC[C@@H](C)C(=O)CC
REMARK SMILES IDX 4 1 5 2 6 3 7 4 8 5 9 6 3 7 2 8 1 9
REMARK H PARENT
REMARK Flexibility Score: inf
ROOT
ATOM      1  C   UNL     1      -3.994 -15.421  -6.865  1.00  0.00     0.057 C 
ATOM      2  C   UNL     1      -3.608 -16.779  -6.265  1.00  0.00     0.016 C 
ENDROOT
BRANCH   1   3
ATOM      3  C   UNL     1      -3.219 -14.298  -6.203  1.00  0.00     0.135 C 
ATOM      4  O   UNL     1      -3.393 -14.054  -5.018  1.00  0.00    -0.299 OA
BRANCH   3   5
ATOM      5  C   UNL     1      -2.232 -13.469  -6.983  1.00  0.00     0.072 C 
ATOM      6  C   UNL     1      -2.810 -12.095  -7.300  1.00  0.00     0.012 C 
ENDBRANCH   3   5
ENDBRANCH   1   3
BRANCH   1   7
ATOM      7  C   UNL     1      -3.852 -15.386  -8.403  1.00  0.00     0.038 C 
BRANCH   7   8
ATOM      8  C   UNL     1      -5.127 -15.031  -9.125  1.00  0.00    -0.034 C 
ATOM      9  C   UNL     1      -5.809 -13.916  -8.848  1.00  0.00     0.004 C 
ENDBRANCH   7   8
ENDBRANCH   1   7
TORSDOF 4
ENDMDL
MODEL 9
REMARK VINA RESULT:    -3.858      1.719      2.775
REMARK INTER + INTRA:          -5.180
REMARK INTER:                  -4.767
REMARK INTRA:                  -0.414
REMARK UNBOUND:                -0.420
REMARK SMILES C=CC[C@@H](C)C(=O)CC
REMARK SMILES IDX 4 1 5 2 6 3 7 4 8 5 9 6 3 7 2 8 1 9
REMARK H PARENT
REMARK Flexibility Score: inf
ROOT
ATOM      1  C   UNL     1      -3.918 -14.824  -6.831  1.00  0.00     0.057 C 
ATOM      2  C   UNL     1      -3.688 -16.134  -6.065  1.00  0.00     0.016 C 
ENDROOT
BRANCH   1   3
ATOM      3  C   UNL     1      -3.567 -14.987  -8.297  1.00  0.00     0.135 C 
ATOM      4  O   UNL     1      -4.306 -15.626  -9.033  1.00  0.00    -0.299 OA
BRANCH   3   5
ATOM      5  C   UNL     1      -2.315 -14.377  -8.871  1.00  0.00     0.072 C 
ATOM      6  C   UNL     1      -2.506 -12.886  -9.125  1.00  0.00     0.012 C 
ENDBRANCH   3   5
ENDBRANCH   1   3
BRANCH   1   7
ATOM      7  C   UNL     1      -5.345 -14.265  -6.642  1.00  0.00     0.038 C 
BRANCH   7   8
ATOM      8  C   UNL     1      -5.461 -12.786  -6.910  1.00  0.00    -0.034 C 
ATOM      9  C   UNL     1      -6.000 -12.312  -8.037  1.00  0.00     0.004 C 
ENDBRANCH   7   8
ENDBRANCH   1   7
TORSDOF 4
ENDMDL
