MODEL 1
REMARK VINA RESULT:    -4.728      0.000      0.000
REMARK INTER + INTRA:          -5.193
REMARK INTER:                  -5.142
REMARK INTRA:                  -0.051
REMARK UNBOUND:                -0.051
REMARK SMILES CCc1cccc(O)c1
REMARK SMILES IDX 3 1 9 2 7 3 6 4 5 5 4 6 2 7 1 8 8 9
REMARK H PARENT 8 10
REMARK Flexibility Score: inf
ROOT
ATOM      1  C   UNL     1      22.183 -24.839  19.790  1.00  0.00    -0.045 A 
ATOM      2  C   UNL     1      20.808 -24.938  19.523  1.00  0.00     0.049 A 
ATOM      3  C   UNL     1      20.211 -24.107  18.563  1.00  0.00     0.115 A 
ATOM      4  C   UNL     1      20.990 -23.170  17.875  1.00  0.00     0.046 A 
ATOM      5  C   UNL     1      22.356 -23.057  18.146  1.00  0.00     0.004 A 
ATOM      6  C   UNL     1      22.952 -23.884  19.104  1.00  0.00     0.004 A 
ENDROOT
BRANCH   1   7
ATOM      7  C   UNL     1      22.817 -25.706  20.844  1.00  0.00     0.032 C 
ATOM      8  C   UNL     1      21.851 -25.945  21.999  1.00  0.00     0.009 C 
ENDBRANCH   1   7
BRANCH   3   9
ATOM      9  O   UNL     1      18.849 -24.204  18.288  1.00  0.00    -0.508 OA
ATOM     10  H   UNL     1      18.456 -23.848  17.425  1.00  0.00     0.293 HD
ENDBRANCH   3   9
TORSDOF 2
ENDMDL
MODEL 2
REMARK VINA RESULT:    -4.577      0.958      3.104
REMARK INTER + INTRA:          -5.029
REMARK INTER:                  -4.982
REMARK INTRA:                  -0.047
REMARK UNBOUND:                -0.051
REMARK SMILES CCc1cccc(O)c1
REMARK SMILES IDX 3 1 9 2 7 3 6 4 5 5 4 6 2 7 1 8 8 9
REMARK H PARENT 8 10
REMARK Flexibility Score: inf
ROOT
ATOM      1  C   UNL     1      22.568 -23.295  18.641  1.00  0.00    -0.045 A 
ATOM      2  C   UNL     1      21.254 -23.286  18.145  1.00  0.00     0.049 A 
ATOM      3  C   UNL     1      20.300 -24.182  18.650  1.00  0.00     0.115 A 
ATOM      4  C   UNL     1      20.663 -25.093  19.648  1.00  0.00     0.046 A 
ATOM      5  C   UNL     1      21.972 -25.116  20.136  1.00  0.00     0.004 A 
ATOM      6  C   UNL     1      22.924 -24.224  19.632  1.00  0.00     0.004 A 
ENDROOT
BRANCH   1   7
ATOM      7  C   UNL     1      23.600 -22.357  18.075  1.00  0.00     0.032 C 
ATOM      8  C   UNL     1      23.036 -20.946  17.949  1.00  0.00     0.009 C 
ENDBRANCH   1   7
BRANCH   3   9
ATOM      9  O   UNL     1      18.994 -24.175  18.167  1.00  0.00    -0.508 OA
ATOM     10  H   UNL     1      18.641 -23.411  17.604  1.00  0.00     0.293 HD
ENDBRANCH   3   9
TORSDOF 2
ENDMDL
MODEL 3
REMARK VINA RESULT:    -4.249     14.102     14.517
REMARK INTER + INTRA:          -4.672
REMARK INTER:                  -4.627
REMARK INTRA:                  -0.046
REMARK UNBOUND:                -0.051
REMARK SMILES CCc1cccc(O)c1
REMARK SMILES IDX 3 1 9 2 7 3 6 4 5 5 4 6 2 7 1 8 8 9
REMARK H PARENT 8 10
REMARK Flexibility Score: inf
ROOT
ATOM      1  C   UNL     1      10.061 -16.725  22.876  1.00  0.00    -0.045 A 
ATOM      2  C   UNL     1       9.714 -16.913  21.528  1.00  0.00     0.049 A 
ATOM      3  C   UNL     1       9.043 -18.077  21.124  1.00  0.00     0.115 A 
ATOM      4  C   UNL     1       8.725 -19.058  22.069  1.00  0.00     0.046 A 
ATOM      5  C   UNL     1       9.080 -18.884  23.410  1.00  0.00     0.004 A 
ATOM      6  C   UNL     1       9.750 -17.724  23.813  1.00  0.00     0.004 A 
ENDROOT
BRANCH   1   7
ATOM      7  C   UNL     1      10.811 -15.492  23.303  1.00  0.00     0.032 C 
ATOM      8  C   UNL     1       9.973 -14.241  23.064  1.00  0.00     0.009 C 
ENDBRANCH   1   7
BRANCH   3   9
ATOM      9  O   UNL     1       8.691 -18.267  19.790  1.00  0.00    -0.508 OA
ATOM     10  H   UNL     1       9.367 -18.164  19.044  1.00  0.00     0.293 HD
ENDBRANCH   3   9
TORSDOF 2
ENDMDL
MODEL 4
REMARK VINA RESULT:    -4.245      1.843      3.626
REMARK INTER + INTRA:          -4.668
REMARK INTER:                  -4.594
REMARK INTRA:                  -0.074
REMARK UNBOUND:                -0.051
REMARK SMILES CCc1cccc(O)c1
REMARK SMILES IDX 3 1 9 2 7 3 6 4 5 5 4 6 2 7 1 8 8 9
REMARK H PARENT 8 10
REMARK Flexibility Score: inf
ROOT
ATOM      1  C   UNL     1      22.638 -23.082  18.527  1.00  0.00    -0.045 A 
ATOM      2  C   UNL     1      22.927 -24.092  19.459  1.00  0.00     0.049 A 
ATOM      3  C   UNL     1      21.973 -25.077  19.755  1.00  0.00     0.115 A 
ATOM      4  C   UNL     1      20.726 -25.049  19.123  1.00  0.00     0.046 A 
ATOM      5  C   UNL     1      20.427 -24.039  18.204  1.00  0.00     0.004 A 
ATOM      6  C   UNL     1      21.376 -23.055  17.910  1.00  0.00     0.004 A 
ENDROOT
BRANCH   1   7
ATOM      7  C   UNL     1      23.648 -22.005  18.235  1.00  0.00     0.032 C 
ATOM      8  C   UNL     1      22.957 -20.727  17.773  1.00  0.00     0.009 C 
ENDBRANCH   1   7
BRANCH   3   9
ATOM      9  O   UNL     1      22.255 -26.085  20.675  1.00  0.00    -0.508 OA
ATOM     10  H   UNL     1      22.397 -25.882  21.657  1.00  0.00     0.293 HD
ENDBRANCH   3   9
TORSDOF 2
ENDMDL
MODEL 5
REMARK VINA RESULT:    -4.227      8.950     10.235
REMARK INTER + INTRA:          -4.648
REMARK INTER:                  -4.575
REMARK INTRA:                  -0.074
REMARK UNBOUND:                -0.051
REMARK SMILES CCc1cccc(O)c1
REMARK SMILES IDX 3 1 9 2 7 3 6 4 5 5 4 6 2 7 1 8 8 9
REMARK H PARENT 8 10
REMARK Flexibility Score: inf
ROOT
ATOM      1  C   UNL     1      13.448 -25.046  12.804  1.00  0.00    -0.045 A 
ATOM      2  C   UNL     1      13.504 -23.797  12.166  1.00  0.00     0.049 A 
ATOM      3  C   UNL     1      14.741 -23.184  11.916  1.00  0.00     0.115 A 
ATOM      4  C   UNL     1      15.924 -23.819  12.310  1.00  0.00     0.046 A 
ATOM      5  C   UNL     1      15.874 -25.056  12.958  1.00  0.00     0.004 A 
ATOM      6  C   UNL     1      14.641 -25.668  13.209  1.00  0.00     0.004 A 
ENDROOT
BRANCH   1   7
ATOM      7  C   UNL     1      12.120 -25.688  13.103  1.00  0.00     0.032 C 
ATOM      8  C   UNL     1      12.216 -26.577  14.338  1.00  0.00     0.009 C 
ENDBRANCH   1   7
BRANCH   3   9
ATOM      9  O   UNL     1      14.805 -21.947  11.278  1.00  0.00    -0.508 OA
ATOM     10  H   UNL     1      15.405 -21.794  10.477  1.00  0.00     0.293 HD
ENDBRANCH   3   9
TORSDOF 2
ENDMDL
MODEL 6
REMARK VINA RESULT:    -4.144      8.217      9.774
REMARK INTER + INTRA:          -4.559
REMARK INTER:                  -4.485
REMARK INTRA:                  -0.074
REMARK UNBOUND:                -0.051
REMARK SMILES CCc1cccc(O)c1
REMARK SMILES IDX 3 1 9 2 7 3 6 4 5 5 4 6 2 7 1 8 8 9
REMARK H PARENT 8 10
REMARK Flexibility Score: inf
ROOT
ATOM      1  C   UNL     1      15.817 -24.131  12.604  1.00  0.00    -0.045 A 
ATOM      2  C   UNL     1      14.971 -23.426  11.733  1.00  0.00     0.049 A 
ATOM      3  C   UNL     1      13.755 -23.988  11.316  1.00  0.00     0.115 A 
ATOM      4  C   UNL     1      13.388 -25.261  11.767  1.00  0.00     0.046 A 
ATOM      5  C   UNL     1      14.232 -25.973  12.623  1.00  0.00     0.004 A 
ATOM      6  C   UNL     1      15.445 -25.414  13.037  1.00  0.00     0.004 A 
ENDROOT
BRANCH   1   7
ATOM      7  C   UNL     1      17.137 -23.542  13.023  1.00  0.00     0.032 C 
ATOM      8  C   UNL     1      17.694 -24.275  14.238  1.00  0.00     0.009 C 
ENDBRANCH   1   7
BRANCH   3   9
ATOM      9  O   UNL     1      12.908 -23.292  10.457  1.00  0.00    -0.508 OA
ATOM     10  H   UNL     1      11.901 -23.364  10.533  1.00  0.00     0.293 HD
ENDBRANCH   3   9
TORSDOF 2
ENDMDL
MODEL 7
REMARK VINA RESULT:    -4.034     12.144     13.607
REMARK INTER + INTRA:          -4.439
REMARK INTER:                  -4.365
REMARK INTRA:                  -0.073
REMARK UNBOUND:                -0.051
REMARK SMILES CCc1cccc(O)c1
REMARK SMILES IDX 3 1 9 2 7 3 6 4 5 5 4 6 2 7 1 8 8 9
REMARK H PARENT 8 10
REMARK Flexibility Score: inf
ROOT
ATOM      1  C   UNL     1       8.926 -25.929  16.223  1.00  0.00    -0.045 A 
ATOM      2  C   UNL     1       8.129 -24.922  16.792  1.00  0.00     0.049 A 
ATOM      3  C   UNL     1       7.312 -24.122  15.980  1.00  0.00     0.115 A 
ATOM      4  C   UNL     1       7.296 -24.325  14.596  1.00  0.00     0.046 A 
ATOM      5  C   UNL     1       8.097 -25.316  14.022  1.00  0.00     0.004 A 
ATOM      6  C   UNL     1       8.913 -26.114  14.830  1.00  0.00     0.004 A 
ENDROOT
BRANCH   1   7
ATOM      7  C   UNL     1       9.829 -26.765  17.090  1.00  0.00     0.032 C 
ATOM      8  C   UNL     1      11.078 -27.184  16.323  1.00  0.00     0.009 C 
ENDBRANCH   1   7
BRANCH   3   9
ATOM      9  O   UNL     1       6.515 -23.125  16.538  1.00  0.00    -0.508 OA
ATOM     10  H   UNL     1       6.452 -22.203  16.124  1.00  0.00     0.293 HD
ENDBRANCH   3   9
TORSDOF 2
ENDMDL
MODEL 8
REMARK VINA RESULT:    -3.989     13.045     14.057
REMARK INTER + INTRA:          -4.389
REMARK INTER:                  -4.314
REMARK INTRA:                  -0.076
REMARK UNBOUND:                -0.051
REMARK SMILES CCc1cccc(O)c1
REMARK SMILES IDX 3 1 9 2 7 3 6 4 5 5 4 6 2 7 1 8 8 9
REMARK H PARENT 8 10
REMARK Flexibility Score: inf
ROOT
ATOM      1  C   UNL     1       9.048 -26.614  14.307  1.00  0.00    -0.045 A 
ATOM      2  C   UNL     1       9.250 -25.966  15.537  1.00  0.00     0.049 A 
ATOM      3  C   UNL     1       8.443 -24.880  15.906  1.00  0.00     0.115 A 
ATOM      4  C   UNL     1       7.437 -24.436  15.041  1.00  0.00     0.046 A 
ATOM      5  C   UNL     1       7.240 -25.068  13.811  1.00  0.00     0.004 A 
ATOM      6  C   UNL     1       8.045 -26.150  13.441  1.00  0.00     0.004 A 
ENDROOT
BRANCH   1   7
ATOM      7  C   UNL     1       9.936 -27.758  13.896  1.00  0.00     0.032 C 
ATOM      8  C   UNL     1       9.484 -28.339  12.561  1.00  0.00     0.009 C 
ENDBRANCH   1   7
BRANCH   3   9
ATOM      9  O   UNL     1       8.634 -24.236  17.127  1.00  0.00    -0.508 OA
ATOM     10  H   UNL     1       9.058 -24.710  17.915  1.00  0.00     0.293 HD
ENDBRANCH   3   9
TORSDOF 2
ENDMDL
MODEL 9
REMARK VINA RESULT:    -3.969     12.910     14.360
REMARK INTER + INTRA:          -4.367
REMARK INTER:                  -4.294
REMARK INTRA:                  -0.073
REMARK UNBOUND:                -0.051
REMARK SMILES CCc1cccc(O)c1
REMARK SMILES IDX 3 1 9 2 7 3 6 4 5 5 4 6 2 7 1 8 8 9
REMARK H PARENT 8 10
REMARK Flexibility Score: inf
ROOT
ATOM      1  C   UNL     1       8.393 -25.321  15.194  1.00  0.00    -0.045 A 
ATOM      2  C   UNL     1       7.617 -24.189  15.492  1.00  0.00     0.049 A 
ATOM      3  C   UNL     1       6.766 -24.186  16.607  1.00  0.00     0.115 A 
ATOM      4  C   UNL     1       6.685 -25.320  17.421  1.00  0.00     0.046 A 
ATOM      5  C   UNL     1       7.443 -26.455  17.123  1.00  0.00     0.004 A 
ATOM      6  C   UNL     1       8.291 -26.460  16.011  1.00  0.00     0.004 A 
ENDROOT
BRANCH   1   7
ATOM      7  C   UNL     1       9.280 -25.337  13.978  1.00  0.00     0.032 C 
ATOM      8  C   UNL     1      10.360 -26.405  14.111  1.00  0.00     0.009 C 
ENDBRANCH   1   7
BRANCH   3   9
ATOM      9  O   UNL     1       5.999 -23.064  16.911  1.00  0.00    -0.508 OA
ATOM     10  H   UNL     1       6.405 -22.136  16.940  1.00  0.00     0.293 HD
ENDBRANCH   3   9
TORSDOF 2
ENDMDL
