MODEL 1
REMARK VINA RESULT:    -7.351      0.000      0.000
REMARK INTER + INTRA:         -11.361
REMARK INTER:                  -9.715
REMARK INTRA:                  -1.646
REMARK UNBOUND:                -1.646
REMARK SMILES CC[C@@H](C=C[C@@H](C)[C@H]1CC[C@@H]2C3=CC[C@@H]4C[C@H](O)CC[C@]4(C)[C@H]3CC[C@@]21C)C(C)C
REMARK SMILES IDX 6 1 7 2 5 3 4 4 3 5 2 6 1 7 28 8 29 9 30 10 8 11 9 12 26 13
REMARK SMILES IDX 10 14 11 15 25 16 27 17 12 18 24 19 23 20 13 21 21 22 14 23
REMARK SMILES IDX 15 24 20 25 22 26 16 27 19 28 17 29 18 30
REMARK H PARENT 18 31
REMARK Flexibility Score: inf
ROOT
ATOM      1  C   UNL     1     113.112 116.942 124.894  1.00  0.00     0.012 C 
ATOM      2  C   UNL     1     112.033 116.083 124.176  1.00  0.00     0.012 C 
ENDROOT
BRANCH   1   3
ATOM      3  C   UNL     1     112.832 116.820 126.396  1.00  0.00    -0.028 C 
ATOM      4  C   UNL     1     113.755 116.400 127.296  1.00  0.00    -0.027 C 
BRANCH   4   5
ATOM      5  C   UNL     1     113.557 116.342 128.805  1.00  0.00     0.014 C 
BRANCH   5   6
ATOM      6  C   UNL     1     112.270 117.084 129.278  1.00  0.00     0.004 C 
ATOM      7  C   UNL     1     112.258 117.302 130.796  1.00  0.00     0.004 C 
ENDBRANCH   5   6
BRANCH   5   8
ATOM      8  C   UNL     1     114.850 116.795 129.547  1.00  0.00    -0.011 C 
ATOM      9  C   UNL     1     115.421 118.087 128.923  1.00  0.00     0.008 C 
ATOM     10  C   UNL     1     115.933 115.694 129.517  1.00  0.00     0.008 C 
ENDBRANCH   5   8
ENDBRANCH   4   5
ENDBRANCH   1   3
BRANCH   1  11
ATOM     11  C   UNL     1     113.196 118.442 124.416  1.00  0.00     0.002 C 
ATOM     12  C   UNL     1     111.927 119.207 124.851  1.00  0.00     0.005 C 
ATOM     13  C   UNL     1     114.363 119.381 124.905  1.00  0.00    -0.023 C 
ATOM     14  C   UNL     1     112.322 120.185 125.963  1.00  0.00     0.009 C 
ATOM     15  C   UNL     1     113.822 120.028 126.186  1.00  0.00     0.021 C 
ATOM     16  C   UNL     1     114.576 120.479 123.824  1.00  0.00     0.008 C 
ATOM     17  C   UNL     1     115.687 118.652 125.194  1.00  0.00     0.012 C 
ATOM     18  C   UNL     1     114.466 121.358 126.574  1.00  0.00    -0.067 C 
ATOM     19  C   UNL     1     115.547 121.571 124.236  1.00  0.00     0.009 C 
ATOM     20  C   UNL     1     115.170 122.281 125.570  1.00  0.00     0.021 C 
ATOM     21  C   UNL     1     114.242 121.828 127.815  1.00  0.00    -0.027 C 
ATOM     22  C   UNL     1     116.366 123.058 126.268  1.00  0.00    -0.023 C 
ATOM     23  C   UNL     1     114.483 123.272 128.117  1.00  0.00     0.031 C 
ATOM     24  C   UNL     1     115.875 123.725 127.644  1.00  0.00     0.002 C 
ATOM     25  C   UNL     1     117.039 124.063 125.237  1.00  0.00     0.010 C 
ATOM     26  C   UNL     1     117.456 122.025 126.684  1.00  0.00     0.012 C 
ATOM     27  C   UNL     1     115.942 125.252 127.696  1.00  0.00     0.036 C 
ATOM     28  C   UNL     1     117.272 125.526 125.642  1.00  0.00     0.032 C 
ATOM     29  C   UNL     1     117.272 125.745 127.143  1.00  0.00     0.114 C 
BRANCH  29  30
ATOM     30  O   UNL     1     117.420 127.115 127.390  1.00  0.00    -0.393 OA
ATOM     31  H   UNL     1     116.545 127.541 127.187  1.00  0.00     0.210 HD
ENDBRANCH  29  30
ENDBRANCH   1  11
TORSDOF 6
ENDMDL
MODEL 2
REMARK VINA RESULT:    -7.191      3.440      9.455
REMARK INTER + INTRA:         -11.149
REMARK INTER:                 -10.823
REMARK INTRA:                  -0.326
REMARK UNBOUND:                -1.646
REMARK SMILES CC[C@@H](C=C[C@@H](C)[C@H]1CC[C@@H]2C3=CC[C@@H]4C[C@H](O)CC[C@]4(C)[C@H]3CC[C@@]21C)C(C)C
REMARK SMILES IDX 6 1 7 2 5 3 4 4 3 5 2 6 1 7 28 8 29 9 30 10 8 11 9 12 26 13
REMARK SMILES IDX 10 14 11 15 25 16 27 17 12 18 24 19 23 20 13 21 21 22 14 23
REMARK SMILES IDX 15 24 20 25 22 26 16 27 19 28 17 29 18 30
REMARK H PARENT 18 31
REMARK Flexibility Score: inf
ROOT
ATOM      1  C   UNL     1     117.653 125.643 126.540  1.00  0.00     0.012 C 
ATOM      2  C   UNL     1     116.894 126.239 127.758  1.00  0.00     0.012 C 
ENDROOT
BRANCH   1   3
ATOM      3  C   UNL     1     118.448 126.797 125.920  1.00  0.00    -0.028 C 
ATOM      4  C   UNL     1     118.013 128.081 125.907  1.00  0.00    -0.027 C 
BRANCH   4   5
ATOM      5  C   UNL     1     118.798 129.277 125.382  1.00  0.00     0.014 C 
BRANCH   5   6
ATOM      6  C   UNL     1     120.141 129.502 126.141  1.00  0.00     0.004 C 
ATOM      7  C   UNL     1     121.345 129.496 125.192  1.00  0.00     0.004 C 
ENDBRANCH   5   6
BRANCH   5   8
ATOM      8  C   UNL     1     117.893 130.543 125.319  1.00  0.00    -0.011 C 
ATOM      9  C   UNL     1     118.599 131.760 125.955  1.00  0.00     0.008 C 
ATOM     10  C   UNL     1     116.542 130.309 126.029  1.00  0.00     0.008 C 
ENDBRANCH   5   8
ENDBRANCH   4   5
ENDBRANCH   1   3
BRANCH   1  11
ATOM     11  C   UNL     1     116.744 124.903 125.486  1.00  0.00     0.002 C 
ATOM     12  C   UNL     1     117.622 124.251 124.395  1.00  0.00     0.005 C 
ATOM     13  C   UNL     1     115.791 123.727 125.925  1.00  0.00    -0.023 C 
ATOM     14  C   UNL     1     117.568 122.731 124.589  1.00  0.00     0.009 C 
ATOM     15  C   UNL     1     116.648 122.463 125.776  1.00  0.00     0.021 C 
ATOM     16  C   UNL     1     114.608 123.669 124.917  1.00  0.00     0.008 C 
ATOM     17  C   UNL     1     115.260 123.843 127.365  1.00  0.00     0.012 C 
ATOM     18  C   UNL     1     115.873 121.160 125.591  1.00  0.00    -0.067 C 
ATOM     19  C   UNL     1     113.698 122.468 125.101  1.00  0.00     0.009 C 
ATOM     20  C   UNL     1     114.441 121.099 125.046  1.00  0.00     0.021 C 
ATOM     21  C   UNL     1     116.544 120.002 125.738  1.00  0.00    -0.027 C 
ATOM     22  C   UNL     1     113.645 119.889 125.698  1.00  0.00    -0.023 C 
ATOM     23  C   UNL     1     115.973 118.738 125.180  1.00  0.00     0.031 C 
ATOM     24  C   UNL     1     114.510 118.538 125.612  1.00  0.00     0.002 C 
ATOM     25  C   UNL     1     112.188 119.793 125.071  1.00  0.00     0.010 C 
ATOM     26  C   UNL     1     113.475 120.166 127.222  1.00  0.00     0.012 C 
ATOM     27  C   UNL     1     113.897 117.415 124.776  1.00  0.00     0.036 C 
ATOM     28  C   UNL     1     111.673 118.445 124.544  1.00  0.00     0.032 C 
ATOM     29  C   UNL     1     112.420 117.251 125.107  1.00  0.00     0.114 C 
BRANCH  29  30
ATOM     30  O   UNL     1     111.916 116.091 124.507  1.00  0.00    -0.393 OA
ATOM     31  H   UNL     1     111.846 116.277 123.532  1.00  0.00     0.210 HD
ENDBRANCH  29  30
ENDBRANCH   1  11
TORSDOF 6
ENDMDL
MODEL 3
REMARK VINA RESULT:    -7.148      1.210      1.829
REMARK INTER + INTRA:         -11.092
REMARK INTER:                  -9.681
REMARK INTRA:                  -1.411
REMARK UNBOUND:                -1.646
REMARK SMILES CC[C@@H](C=C[C@@H](C)[C@H]1CC[C@@H]2C3=CC[C@@H]4C[C@H](O)CC[C@]4(C)[C@H]3CC[C@@]21C)C(C)C
REMARK SMILES IDX 6 1 7 2 5 3 4 4 3 5 2 6 1 7 28 8 29 9 30 10 8 11 9 12 26 13
REMARK SMILES IDX 10 14 11 15 25 16 27 17 12 18 24 19 23 20 13 21 21 22 14 23
REMARK SMILES IDX 15 24 20 25 22 26 16 27 19 28 17 29 18 30
REMARK H PARENT 18 31
REMARK Flexibility Score: inf
ROOT
ATOM      1  C   UNL     1     113.512 118.102 124.433  1.00  0.00     0.012 C 
ATOM      2  C   UNL     1     112.422 117.331 123.638  1.00  0.00     0.012 C 
ENDROOT
BRANCH   1   3
ATOM      3  C   UNL     1     113.113 118.014 125.910  1.00  0.00    -0.028 C 
ATOM      4  C   UNL     1     113.953 117.590 126.886  1.00  0.00    -0.027 C 
BRANCH   4   5
ATOM      5  C   UNL     1     113.637 117.563 128.376  1.00  0.00     0.014 C 
BRANCH   5   6
ATOM      6  C   UNL     1     114.809 118.098 129.255  1.00  0.00     0.004 C 
ATOM      7  C   UNL     1     115.852 118.855 128.425  1.00  0.00     0.004 C 
ENDBRANCH   5   6
BRANCH   5   8
ATOM      8  C   UNL     1     113.124 116.156 128.804  1.00  0.00    -0.011 C 
ATOM      9  C   UNL     1     111.613 116.010 128.519  1.00  0.00     0.008 C 
ATOM     10  C   UNL     1     113.388 115.890 130.302  1.00  0.00     0.008 C 
ENDBRANCH   5   8
ENDBRANCH   4   5
ENDBRANCH   1   3
BRANCH   1  11
ATOM     11  C   UNL     1     113.754 119.588 123.962  1.00  0.00     0.002 C 
ATOM     12  C   UNL     1     112.526 120.459 124.310  1.00  0.00     0.005 C 
ATOM     13  C   UNL     1     114.959 120.429 124.531  1.00  0.00    -0.023 C 
ATOM     14  C   UNL     1     112.924 121.406 125.447  1.00  0.00     0.009 C 
ATOM     15  C   UNL     1     114.387 121.126 125.773  1.00  0.00     0.021 C 
ATOM     16  C   UNL     1     115.336 121.499 123.468  1.00  0.00     0.008 C 
ATOM     17  C   UNL     1     116.194 119.594 124.910  1.00  0.00     0.012 C 
ATOM     18  C   UNL     1     115.112 122.400 126.204  1.00  0.00    -0.067 C 
ATOM     19  C   UNL     1     116.364 122.509 123.946  1.00  0.00     0.009 C 
ATOM     20  C   UNL     1     115.957 123.255 125.252  1.00  0.00     0.021 C 
ATOM     21  C   UNL     1     114.843 122.893 127.427  1.00  0.00    -0.027 C 
ATOM     22  C   UNL     1     117.164 123.933 126.030  1.00  0.00    -0.023 C 
ATOM     23  C   UNL     1     115.183 124.314 127.745  1.00  0.00     0.031 C 
ATOM     24  C   UNL     1     116.637 124.647 127.369  1.00  0.00     0.002 C 
ATOM     25  C   UNL     1     117.987 124.873 125.048  1.00  0.00     0.010 C 
ATOM     26  C   UNL     1     118.132 122.815 126.520  1.00  0.00     0.012 C 
ATOM     27  C   UNL     1     116.827 126.162 127.427  1.00  0.00     0.036 C 
ATOM     28  C   UNL     1     118.313 126.314 125.469  1.00  0.00     0.032 C 
ATOM     29  C   UNL     1     118.229 126.540 126.967  1.00  0.00     0.114 C 
BRANCH  29  30
ATOM     30  O   UNL     1     118.474 127.895 127.224  1.00  0.00    -0.393 OA
ATOM     31  H   UNL     1     118.696 128.318 126.352  1.00  0.00     0.210 HD
ENDBRANCH  29  30
ENDBRANCH   1  11
TORSDOF 6
ENDMDL
MODEL 4
REMARK VINA RESULT:    -6.619      4.105      7.790
REMARK INTER + INTRA:         -10.394
REMARK INTER:                  -8.517
REMARK INTRA:                  -1.877
REMARK UNBOUND:                -1.646
REMARK SMILES CC[C@@H](C=C[C@@H](C)[C@H]1CC[C@@H]2C3=CC[C@@H]4C[C@H](O)CC[C@]4(C)[C@H]3CC[C@@]21C)C(C)C
REMARK SMILES IDX 6 1 7 2 5 3 4 4 3 5 2 6 1 7 28 8 29 9 30 10 8 11 9 12 26 13
REMARK SMILES IDX 10 14 11 15 25 16 27 17 12 18 24 19 23 20 13 21 21 22 14 23
REMARK SMILES IDX 15 24 20 25 22 26 16 27 19 28 17 29 18 30
REMARK H PARENT 18 31
REMARK Flexibility Score: inf
ROOT
ATOM      1  C   UNL     1     112.258 119.272 127.465  1.00  0.00     0.012 C 
ATOM      2  C   UNL     1     110.902 119.687 128.103  1.00  0.00     0.012 C 
ENDROOT
BRANCH   1   3
ATOM      3  C   UNL     1     113.127 120.535 127.438  1.00  0.00    -0.028 C 
ATOM      4  C   UNL     1     114.434 120.549 127.799  1.00  0.00    -0.027 C 
BRANCH   4   5
ATOM      5  C   UNL     1     115.364 121.753 127.711  1.00  0.00     0.014 C 
BRANCH   5   6
ATOM      6  C   UNL     1     114.597 123.104 127.578  1.00  0.00     0.004 C 
ATOM      7  C   UNL     1     115.054 124.128 128.623  1.00  0.00     0.004 C 
ENDBRANCH   5   6
BRANCH   5   8
ATOM      8  C   UNL     1     116.444 121.533 126.610  1.00  0.00    -0.011 C 
ATOM      9  C   UNL     1     115.945 122.037 125.238  1.00  0.00     0.008 C 
ATOM     10  C   UNL     1     116.838 120.044 126.494  1.00  0.00     0.008 C 
ENDBRANCH   5   8
ENDBRANCH   4   5
ENDBRANCH   1   3
BRANCH   1  11
ATOM     11  C   UNL     1     112.146 118.588 126.049  1.00  0.00     0.002 C 
ATOM     12  C   UNL     1     112.603 119.572 124.949  1.00  0.00     0.005 C 
ATOM     13  C   UNL     1     112.960 117.281 125.717  1.00  0.00    -0.023 C 
ATOM     14  C   UNL     1     113.945 119.077 124.398  1.00  0.00     0.009 C 
ATOM     15  C   UNL     1     114.289 117.792 125.144  1.00  0.00     0.021 C 
ATOM     16  C   UNL     1     112.188 116.505 124.612  1.00  0.00     0.008 C 
ATOM     17  C   UNL     1     113.219 116.368 126.929  1.00  0.00     0.012 C 
ATOM     18  C   UNL     1     115.037 116.811 124.242  1.00  0.00    -0.067 C 
ATOM     19  C   UNL     1     112.941 115.311 124.054  1.00  0.00     0.009 C 
ATOM     20  C   UNL     1     114.352 115.660 123.495  1.00  0.00     0.021 C 
ATOM     21  C   UNL     1     116.320 117.085 123.943  1.00  0.00    -0.027 C 
ATOM     22  C   UNL     1     115.335 114.420 123.358  1.00  0.00    -0.023 C 
ATOM     23  C   UNL     1     116.967 116.420 122.771  1.00  0.00     0.031 C 
ATOM     24  C   UNL     1     116.764 114.895 122.802  1.00  0.00     0.002 C 
ATOM     25  C   UNL     1     114.639 113.262 122.520  1.00  0.00     0.010 C 
ATOM     26  C   UNL     1     115.622 113.851 124.780  1.00  0.00     0.012 C 
ATOM     27  C   UNL     1     117.170 114.316 121.446  1.00  0.00     0.036 C 
ATOM     28  C   UNL     1     115.390 112.617 121.345  1.00  0.00     0.032 C 
ATOM     29  C   UNL     1     116.893 112.819 121.403  1.00  0.00     0.114 C 
BRANCH  29  30
ATOM     30  O   UNL     1     117.459 112.255 120.254  1.00  0.00    -0.393 OA
ATOM     31  H   UNL     1     118.444 112.372 120.330  1.00  0.00     0.210 HD
ENDBRANCH  29  30
ENDBRANCH   1  11
TORSDOF 6
ENDMDL
MODEL 5
REMARK VINA RESULT:    -6.574      1.656      4.008
REMARK INTER + INTRA:         -10.334
REMARK INTER:                  -8.606
REMARK INTRA:                  -1.728
REMARK UNBOUND:                -1.646
REMARK SMILES CC[C@@H](C=C[C@@H](C)[C@H]1CC[C@@H]2C3=CC[C@@H]4C[C@H](O)CC[C@]4(C)[C@H]3CC[C@@]21C)C(C)C
REMARK SMILES IDX 6 1 7 2 5 3 4 4 3 5 2 6 1 7 28 8 29 9 30 10 8 11 9 12 26 13
REMARK SMILES IDX 10 14 11 15 25 16 27 17 12 18 24 19 23 20 13 21 21 22 14 23
REMARK SMILES IDX 15 24 20 25 22 26 16 27 19 28 17 29 18 30
REMARK H PARENT 18 31
REMARK Flexibility Score: inf
ROOT
ATOM      1  C   UNL     1     112.440 117.049 127.537  1.00  0.00     0.012 C 
ATOM      2  C   UNL     1     111.653 116.156 128.537  1.00  0.00     0.012 C 
ENDROOT
BRANCH   1   3
ATOM      3  C   UNL     1     113.465 116.136 126.856  1.00  0.00    -0.028 C 
ATOM      4  C   UNL     1     113.809 116.244 125.549  1.00  0.00    -0.027 C 
BRANCH   4   5
ATOM      5  C   UNL     1     114.880 115.421 124.844  1.00  0.00     0.014 C 
BRANCH   5   6
ATOM      6  C   UNL     1     116.305 116.039 124.977  1.00  0.00     0.004 C 
ATOM      7  C   UNL     1     116.566 117.116 123.917  1.00  0.00     0.004 C 
ENDBRANCH   5   6
BRANCH   5   8
ATOM      8  C   UNL     1     114.462 115.117 123.375  1.00  0.00    -0.011 C 
ATOM      9  C   UNL     1     113.179 115.887 122.995  1.00  0.00     0.008 C 
ATOM     10  C   UNL     1     114.234 113.606 123.153  1.00  0.00     0.008 C 
ENDBRANCH   5   8
ENDBRANCH   4   5
ENDBRANCH   1   3
BRANCH   1  11
ATOM     11  C   UNL     1     113.103 118.333 128.169  1.00  0.00     0.002 C 
ATOM     12  C   UNL     1     114.435 117.956 128.854  1.00  0.00     0.005 C 
ATOM     13  C   UNL     1     113.501 119.563 127.269  1.00  0.00    -0.023 C 
ATOM     14  C   UNL     1     115.579 118.534 128.014  1.00  0.00     0.009 C 
ATOM     15  C   UNL     1     114.945 119.272 126.840  1.00  0.00     0.021 C 
ATOM     16  C   UNL     1     113.476 120.836 128.162  1.00  0.00     0.008 C 
ATOM     17  C   UNL     1     112.608 119.761 126.032  1.00  0.00     0.012 C 
ATOM     18  C   UNL     1     115.772 120.493 126.442  1.00  0.00    -0.067 C 
ATOM     19  C   UNL     1     114.015 122.080 127.480  1.00  0.00     0.009 C 
ATOM     20  C   UNL     1     115.460 121.917 126.920  1.00  0.00     0.021 C 
ATOM     21  C   UNL     1     116.934 120.283 125.796  1.00  0.00    -0.027 C 
ATOM     22  C   UNL     1     115.865 122.980 125.812  1.00  0.00    -0.023 C 
ATOM     23  C   UNL     1     117.963 121.367 125.749  1.00  0.00     0.031 C 
ATOM     24  C   UNL     1     117.357 122.704 125.288  1.00  0.00     0.002 C 
ATOM     25  C   UNL     1     115.604 124.454 126.349  1.00  0.00     0.010 C 
ATOM     26  C   UNL     1     114.952 122.775 124.567  1.00  0.00     0.012 C 
ATOM     27  C   UNL     1     118.367 123.821 125.553  1.00  0.00     0.036 C 
ATOM     28  C   UNL     1     116.712 125.511 126.237  1.00  0.00     0.032 C 
ATOM     29  C   UNL     1     117.767 125.175 125.199  1.00  0.00     0.114 C 
BRANCH  29  30
ATOM     30  O   UNL     1     118.755 126.166 125.236  1.00  0.00    -0.393 OA
ATOM     31  H   UNL     1     118.285 127.042 125.257  1.00  0.00     0.210 HD
ENDBRANCH  29  30
ENDBRANCH   1  11
TORSDOF 6
ENDMDL
MODEL 6
REMARK VINA RESULT:    -6.500      1.788      3.825
REMARK INTER + INTRA:         -10.236
REMARK INTER:                  -8.284
REMARK INTRA:                  -1.952
REMARK UNBOUND:                -1.646
REMARK SMILES CC[C@@H](C=C[C@@H](C)[C@H]1CC[C@@H]2C3=CC[C@@H]4C[C@H](O)CC[C@]4(C)[C@H]3CC[C@@]21C)C(C)C
REMARK SMILES IDX 6 1 7 2 5 3 4 4 3 5 2 6 1 7 28 8 29 9 30 10 8 11 9 12 26 13
REMARK SMILES IDX 10 14 11 15 25 16 27 17 12 18 24 19 23 20 13 21 21 22 14 23
REMARK SMILES IDX 15 24 20 25 22 26 16 27 19 28 17 29 18 30
REMARK H PARENT 18 31
REMARK Flexibility Score: inf
ROOT
ATOM      1  C   UNL     1     113.282 117.669 126.727  1.00  0.00     0.012 C 
ATOM      2  C   UNL     1     112.350 116.625 127.402  1.00  0.00     0.012 C 
ENDROOT
BRANCH   1   3
ATOM      3  C   UNL     1     114.493 116.891 126.200  1.00  0.00    -0.028 C 
ATOM      4  C   UNL     1     114.951 116.995 124.928  1.00  0.00    -0.027 C 
BRANCH   4   5
ATOM      5  C   UNL     1     116.197 116.312 124.377  1.00  0.00     0.014 C 
BRANCH   5   6
ATOM      6  C   UNL     1     116.527 114.973 125.103  1.00  0.00     0.004 C 
ATOM      7  C   UNL     1     115.857 113.771 124.426  1.00  0.00     0.004 C 
ENDBRANCH   5   6
BRANCH   5   8
ATOM      8  C   UNL     1     117.392 117.309 124.325  1.00  0.00    -0.011 C 
ATOM      9  C   UNL     1     118.130 117.358 125.681  1.00  0.00     0.008 C 
ATOM     10  C   UNL     1     116.926 118.731 123.946  1.00  0.00     0.008 C 
ENDBRANCH   5   8
ENDBRANCH   4   5
ENDBRANCH   1   3
BRANCH   1  11
ATOM     11  C   UNL     1     113.699 118.882 127.645  1.00  0.00     0.002 C 
ATOM     12  C   UNL     1     114.918 118.495 128.511  1.00  0.00     0.005 C 
ATOM     13  C   UNL     1     114.133 120.260 127.016  1.00  0.00    -0.023 C 
ATOM     14  C   UNL     1     116.134 119.270 127.990  1.00  0.00     0.009 C 
ATOM     15  C   UNL     1     115.651 120.136 126.832  1.00  0.00     0.021 C 
ATOM     16  C   UNL     1     113.830 121.375 128.056  1.00  0.00     0.008 C 
ATOM     17  C   UNL     1     113.458 120.585 125.672  1.00  0.00     0.012 C 
ATOM     18  C   UNL     1     116.417 121.456 126.771  1.00  0.00    -0.067 C 
ATOM     19  C   UNL     1     114.362 122.743 127.668  1.00  0.00     0.009 C 
ATOM     20  C   UNL     1     115.892 122.765 127.375  1.00  0.00     0.021 C 
ATOM     21  C   UNL     1     117.689 121.426 126.333  1.00  0.00    -0.027 C 
ATOM     22  C   UNL     1     116.385 124.011 126.522  1.00  0.00    -0.023 C 
ATOM     23  C   UNL     1     118.603 122.571 126.632  1.00  0.00     0.031 C 
ATOM     24  C   UNL     1     117.966 123.919 126.255  1.00  0.00     0.002 C 
ATOM     25  C   UNL     1     115.896 125.363 127.199  1.00  0.00     0.010 C 
ATOM     26  C   UNL     1     115.730 123.939 125.109  1.00  0.00     0.012 C 
ATOM     27  C   UNL     1     118.803 125.047 126.859  1.00  0.00     0.036 C 
ATOM     28  C   UNL     1     116.901 126.498 127.446  1.00  0.00     0.032 C 
ATOM     29  C   UNL     1     118.150 126.396 126.589  1.00  0.00     0.114 C 
BRANCH  29  30
ATOM     30  O   UNL     1     119.018 127.434 126.949  1.00  0.00    -0.393 OA
ATOM     31  H   UNL     1     118.502 128.053 127.531  1.00  0.00     0.210 HD
ENDBRANCH  29  30
ENDBRANCH   1  11
TORSDOF 6
ENDMDL
MODEL 7
REMARK VINA RESULT:    -6.490      3.277      7.452
REMARK INTER + INTRA:         -10.222
REMARK INTER:                  -8.505
REMARK INTRA:                  -1.717
REMARK UNBOUND:                -1.646
REMARK SMILES CC[C@@H](C=C[C@@H](C)[C@H]1CC[C@@H]2C3=CC[C@@H]4C[C@H](O)CC[C@]4(C)[C@H]3CC[C@@]21C)C(C)C
REMARK SMILES IDX 6 1 7 2 5 3 4 4 3 5 2 6 1 7 28 8 29 9 30 10 8 11 9 12 26 13
REMARK SMILES IDX 10 14 11 15 25 16 27 17 12 18 24 19 23 20 13 21 21 22 14 23
REMARK SMILES IDX 15 24 20 25 22 26 16 27 19 28 17 29 18 30
REMARK H PARENT 18 31
REMARK Flexibility Score: inf
ROOT
ATOM      1  C   UNL     1     112.073 120.025 124.789  1.00  0.00     0.012 C 
ATOM      2  C   UNL     1     110.877 120.263 123.825  1.00  0.00     0.012 C 
ENDROOT
BRANCH   1   3
ATOM      3  C   UNL     1     113.335 120.428 124.018  1.00  0.00    -0.028 C 
ATOM      4  C   UNL     1     114.328 121.183 124.552  1.00  0.00    -0.027 C 
BRANCH   4   5
ATOM      5  C   UNL     1     115.638 121.539 123.862  1.00  0.00     0.014 C 
BRANCH   5   6
ATOM      6  C   UNL     1     116.879 120.877 124.535  1.00  0.00     0.004 C 
ATOM      7  C   UNL     1     116.669 120.660 126.038  1.00  0.00     0.004 C 
ENDBRANCH   5   6
BRANCH   5   8
ATOM      8  C   UNL     1     115.766 123.082 123.689  1.00  0.00    -0.011 C 
ATOM      9  C   UNL     1     117.249 123.513 123.665  1.00  0.00     0.008 C 
ATOM     10  C   UNL     1     115.033 123.840 124.816  1.00  0.00     0.008 C 
ENDBRANCH   5   8
ENDBRANCH   4   5
ENDBRANCH   1   3
BRANCH   1  11
ATOM     11  C   UNL     1     112.170 118.568 125.384  1.00  0.00     0.002 C 
ATOM     12  C   UNL     1     112.644 117.582 124.294  1.00  0.00     0.005 C 
ATOM     13  C   UNL     1     113.130 118.251 126.592  1.00  0.00    -0.023 C 
ATOM     14  C   UNL     1     114.075 117.151 124.635  1.00  0.00     0.009 C 
ATOM     15  C   UNL     1     114.458 117.855 125.933  1.00  0.00     0.021 C 
ATOM     16  C   UNL     1     112.549 117.027 127.355  1.00  0.00     0.008 C 
ATOM     17  C   UNL     1     113.347 119.430 127.558  1.00  0.00     0.012 C 
ATOM     18  C   UNL     1     115.381 116.984 126.783  1.00  0.00    -0.067 C 
ATOM     19  C   UNL     1     113.461 116.486 128.441  1.00  0.00     0.009 C 
ATOM     20  C   UNL     1     114.884 116.102 127.936  1.00  0.00     0.021 C 
ATOM     21  C   UNL     1     116.657 116.841 126.381  1.00  0.00    -0.027 C 
ATOM     22  C   UNL     1     115.986 116.001 129.076  1.00  0.00    -0.023 C 
ATOM     23  C   UNL     1     117.478 115.708 126.909  1.00  0.00     0.031 C 
ATOM     24  C   UNL     1     117.414 115.629 128.444  1.00  0.00     0.002 C 
ATOM     25  C   UNL     1     115.488 115.027 130.230  1.00  0.00     0.010 C 
ATOM     26  C   UNL     1     116.177 117.411 129.712  1.00  0.00     0.012 C 
ATOM     27  C   UNL     1     118.007 114.294 128.894  1.00  0.00     0.036 C 
ATOM     28  C   UNL     1     116.410 113.905 130.728  1.00  0.00     0.032 C 
ATOM     29  C   UNL     1     117.874 114.136 130.403  1.00  0.00     0.114 C 
BRANCH  29  30
ATOM     30  O   UNL     1     118.605 113.023 130.839  1.00  0.00    -0.393 OA
ATOM     31  H   UNL     1     119.567 113.264 130.769  1.00  0.00     0.210 HD
ENDBRANCH  29  30
ENDBRANCH   1  11
TORSDOF 6
ENDMDL
MODEL 8
REMARK VINA RESULT:    -6.450      2.406      4.595
REMARK INTER + INTRA:         -10.170
REMARK INTER:                  -9.010
REMARK INTRA:                  -1.161
REMARK UNBOUND:                -1.646
REMARK SMILES CC[C@@H](C=C[C@@H](C)[C@H]1CC[C@@H]2C3=CC[C@@H]4C[C@H](O)CC[C@]4(C)[C@H]3CC[C@@]21C)C(C)C
REMARK SMILES IDX 6 1 7 2 5 3 4 4 3 5 2 6 1 7 28 8 29 9 30 10 8 11 9 12 26 13
REMARK SMILES IDX 10 14 11 15 25 16 27 17 12 18 24 19 23 20 13 21 21 22 14 23
REMARK SMILES IDX 15 24 20 25 22 26 16 27 19 28 17 29 18 30
REMARK H PARENT 18 31
REMARK Flexibility Score: inf
ROOT
ATOM      1  C   UNL     1     113.527 116.992 124.994  1.00  0.00     0.012 C 
ATOM      2  C   UNL     1     112.207 116.287 125.415  1.00  0.00     0.012 C 
ENDROOT
BRANCH   1   3
ATOM      3  C   UNL     1     114.479 115.884 124.530  1.00  0.00    -0.028 C 
ATOM      4  C   UNL     1     114.758 115.637 123.226  1.00  0.00    -0.027 C 
BRANCH   4   5
ATOM      5  C   UNL     1     115.759 114.608 122.714  1.00  0.00     0.014 C 
BRANCH   5   6
ATOM      6  C   UNL     1     116.794 115.211 121.717  1.00  0.00     0.004 C 
ATOM      7  C   UNL     1     117.577 116.376 122.336  1.00  0.00     0.004 C 
ENDBRANCH   5   6
BRANCH   5   8
ATOM      8  C   UNL     1     115.022 113.349 122.168  1.00  0.00    -0.011 C 
ATOM      9  C   UNL     1     114.670 112.375 123.313  1.00  0.00     0.008 C 
ATOM     10  C   UNL     1     115.872 112.610 121.113  1.00  0.00     0.008 C 
ENDBRANCH   5   8
ENDBRANCH   4   5
ENDBRANCH   1   3
BRANCH   1  11
ATOM     11  C   UNL     1     114.171 117.916 126.098  1.00  0.00     0.002 C 
ATOM     12  C   UNL     1     115.696 117.680 126.160  1.00  0.00     0.005 C 
ATOM     13  C   UNL     1     114.057 119.485 126.004  1.00  0.00    -0.023 C 
ATOM     14  C   UNL     1     116.391 118.923 125.593  1.00  0.00     0.009 C 
ATOM     15  C   UNL     1     115.297 119.912 125.207  1.00  0.00     0.021 C 
ATOM     16  C   UNL     1     114.151 120.056 127.448  1.00  0.00     0.008 C 
ATOM     17  C   UNL     1     112.779 119.989 125.312  1.00  0.00     0.012 C 
ATOM     18  C   UNL     1     115.753 121.354 125.423  1.00  0.00    -0.067 C 
ATOM     19  C   UNL     1     114.240 121.571 127.508  1.00  0.00     0.009 C 
ATOM     20  C   UNL     1     115.418 122.167 126.680  1.00  0.00     0.021 C 
ATOM     21  C   UNL     1     116.645 121.868 124.556  1.00  0.00    -0.027 C 
ATOM     22  C   UNL     1     115.264 123.707 126.325  1.00  0.00    -0.023 C 
ATOM     23  C   UNL     1     117.427 123.086 124.932  1.00  0.00     0.031 C 
ATOM     24  C   UNL     1     116.513 124.209 125.451  1.00  0.00     0.002 C 
ATOM     25  C   UNL     1     114.988 124.547 127.647  1.00  0.00     0.010 C 
ATOM     26  C   UNL     1     114.023 123.884 125.399  1.00  0.00     0.012 C 
ATOM     27  C   UNL     1     117.379 125.290 126.098  1.00  0.00     0.036 C 
ATOM     28  C   UNL     1     115.826 125.800 127.940  1.00  0.00     0.032 C 
ATOM     29  C   UNL     1     116.504 126.376 126.710  1.00  0.00     0.114 C 
BRANCH  29  30
ATOM     30  O   UNL     1     117.291 127.464 127.108  1.00  0.00    -0.393 OA
ATOM     31  H   UNL     1     117.846 127.155 127.873  1.00  0.00     0.210 HD
ENDBRANCH  29  30
ENDBRANCH   1  11
TORSDOF 6
ENDMDL
