MODEL 1
REMARK VINA RESULT:    -4.001      0.000      0.000
REMARK INTER + INTRA:          -4.247
REMARK INTER:                  -4.235
REMARK INTRA:                  -0.012
REMARK UNBOUND:                -0.012
REMARK SMILES O=Cc1ccccc1
REMARK SMILES IDX 6 1 5 2 4 3 3 4 8 5 7 6 2 7 1 8
REMARK H PARENT
REMARK Flexibility Score: inf
ROOT
ATOM      1  C   UNL     1      18.354  29.957  30.395  1.00  0.00     0.000 A 
ATOM      2  C   UNL     1      18.477  30.472  29.102  1.00  0.00     0.001 A 
ATOM      3  C   UNL     1      18.356  29.627  27.995  1.00  0.00     0.011 A 
ATOM      4  C   UNL     1      18.111  28.255  28.174  1.00  0.00     0.014 A 
ATOM      5  C   UNL     1      17.989  27.744  29.480  1.00  0.00     0.011 A 
ATOM      6  C   UNL     1      18.110  28.594  30.583  1.00  0.00     0.001 A 
ENDROOT
BRANCH   4   7
ATOM      7  C   UNL     1      17.987  27.377  26.997  1.00  0.00     0.260 C 
ATOM      8  O   UNL     1      18.370  26.177  27.036  1.00  0.00    -0.298 OA
ENDBRANCH   4   7
TORSDOF 1
ENDMDL
MODEL 2
REMARK VINA RESULT:    -3.997      0.044      1.714
REMARK INTER + INTRA:          -4.243
REMARK INTER:                  -4.230
REMARK INTRA:                  -0.012
REMARK UNBOUND:                -0.012
REMARK SMILES O=Cc1ccccc1
REMARK SMILES IDX 6 1 5 2 4 3 3 4 8 5 7 6 2 7 1 8
REMARK H PARENT
REMARK Flexibility Score: inf
ROOT
ATOM      1  C   UNL     1      18.350  29.963  30.378  1.00  0.00     0.000 A 
ATOM      2  C   UNL     1      18.138  28.596  30.577  1.00  0.00     0.001 A 
ATOM      3  C   UNL     1      18.023  27.737  29.479  1.00  0.00     0.011 A 
ATOM      4  C   UNL     1      18.120  28.241  28.172  1.00  0.00     0.014 A 
ATOM      5  C   UNL     1      18.334  29.619  27.980  1.00  0.00     0.011 A 
ATOM      6  C   UNL     1      18.449  30.473  29.081  1.00  0.00     0.001 A 
ENDROOT
BRANCH   4   7
ATOM      7  C   UNL     1      17.997  27.322  27.026  1.00  0.00     0.260 C 
ATOM      8  O   UNL     1      18.406  26.132  27.098  1.00  0.00    -0.298 OA
ENDBRANCH   4   7
TORSDOF 1
ENDMDL
MODEL 3
REMARK VINA RESULT:    -3.997     12.587     13.139
REMARK INTER + INTRA:          -4.243
REMARK INTER:                  -4.233
REMARK INTRA:                  -0.010
REMARK UNBOUND:                -0.012
REMARK SMILES O=Cc1ccccc1
REMARK SMILES IDX 6 1 5 2 4 3 3 4 8 5 7 6 2 7 1 8
REMARK H PARENT
REMARK Flexibility Score: inf
ROOT
ATOM      1  C   UNL     1      14.457  19.173  38.051  1.00  0.00     0.000 A 
ATOM      2  C   UNL     1      14.529  19.006  36.666  1.00  0.00     0.001 A 
ATOM      3  C   UNL     1      13.496  19.473  35.848  1.00  0.00     0.011 A 
ATOM      4  C   UNL     1      12.379  20.113  36.412  1.00  0.00     0.014 A 
ATOM      5  C   UNL     1      12.314  20.278  37.808  1.00  0.00     0.011 A 
ATOM      6  C   UNL     1      13.351  19.809  38.621  1.00  0.00     0.001 A 
ENDROOT
BRANCH   4   7
ATOM      7  C   UNL     1      11.298  20.599  35.536  1.00  0.00     0.260 C 
ATOM      8  O   UNL     1      10.962  21.814  35.529  1.00  0.00    -0.298 OA
ENDBRANCH   4   7
TORSDOF 1
ENDMDL
MODEL 4
REMARK VINA RESULT:    -3.943      4.300      5.317
REMARK INTER + INTRA:          -4.185
REMARK INTER:                  -4.173
REMARK INTRA:                  -0.012
REMARK UNBOUND:                -0.012
REMARK SMILES O=Cc1ccccc1
REMARK SMILES IDX 6 1 5 2 4 3 3 4 8 5 7 6 2 7 1 8
REMARK H PARENT
REMARK Flexibility Score: inf
ROOT
ATOM      1  C   UNL     1      16.822  30.411  33.355  1.00  0.00     0.000 A 
ATOM      2  C   UNL     1      17.625  29.898  32.334  1.00  0.00     0.001 A 
ATOM      3  C   UNL     1      18.561  28.897  32.612  1.00  0.00     0.011 A 
ATOM      4  C   UNL     1      18.700  28.401  33.919  1.00  0.00     0.014 A 
ATOM      5  C   UNL     1      17.886  28.922  34.943  1.00  0.00     0.011 A 
ATOM      6  C   UNL     1      16.952  29.923  34.658  1.00  0.00     0.001 A 
ENDROOT
BRANCH   4   7
ATOM      7  C   UNL     1      19.691  27.346  34.196  1.00  0.00     0.260 C 
ATOM      8  O   UNL     1      19.941  26.449  33.348  1.00  0.00    -0.298 OA
ENDBRANCH   4   7
TORSDOF 1
ENDMDL
MODEL 5
REMARK VINA RESULT:    -3.903      4.640      6.184
REMARK INTER + INTRA:          -4.143
REMARK INTER:                  -4.132
REMARK INTRA:                  -0.011
REMARK UNBOUND:                -0.012
REMARK SMILES O=Cc1ccccc1
REMARK SMILES IDX 6 1 5 2 4 3 3 4 8 5 7 6 2 7 1 8
REMARK H PARENT
REMARK Flexibility Score: inf
ROOT
ATOM      1  C   UNL     1      19.873  27.020  32.573  1.00  0.00     0.000 A 
ATOM      2  C   UNL     1      19.909  26.874  33.962  1.00  0.00     0.001 A 
ATOM      3  C   UNL     1      19.161  27.728  34.777  1.00  0.00     0.011 A 
ATOM      4  C   UNL     1      18.369  28.739  34.207  1.00  0.00     0.014 A 
ATOM      5  C   UNL     1      18.338  28.880  32.807  1.00  0.00     0.011 A 
ATOM      6  C   UNL     1      19.088  28.022  31.997  1.00  0.00     0.001 A 
ENDROOT
BRANCH   4   7
ATOM      7  C   UNL     1      17.587  29.632  35.080  1.00  0.00     0.260 C 
ATOM      8  O   UNL     1      16.390  29.923  34.810  1.00  0.00    -0.298 OA
ENDBRANCH   4   7
TORSDOF 1
ENDMDL
MODEL 6
REMARK VINA RESULT:    -3.893     12.857     13.518
REMARK INTER + INTRA:          -4.132
REMARK INTER:                  -4.119
REMARK INTRA:                  -0.012
REMARK UNBOUND:                -0.012
REMARK SMILES O=Cc1ccccc1
REMARK SMILES IDX 6 1 5 2 4 3 3 4 8 5 7 6 2 7 1 8
REMARK H PARENT
REMARK Flexibility Score: inf
ROOT
ATOM      1  C   UNL     1      11.019  20.783  36.537  1.00  0.00     0.000 A 
ATOM      2  C   UNL     1      11.899  20.247  35.593  1.00  0.00     0.001 A 
ATOM      3  C   UNL     1      13.097  19.656  36.007  1.00  0.00     0.011 A 
ATOM      4  C   UNL     1      13.425  19.598  37.372  1.00  0.00     0.014 A 
ATOM      5  C   UNL     1      12.533  20.140  38.316  1.00  0.00     0.011 A 
ATOM      6  C   UNL     1      11.336  20.729  37.897  1.00  0.00     0.001 A 
ENDROOT
BRANCH   4   7
ATOM      7  C   UNL     1      14.691  18.973  37.791  1.00  0.00     0.260 C 
ATOM      8  O   UNL     1      15.223  19.256  38.898  1.00  0.00    -0.298 OA
ENDBRANCH   4   7
TORSDOF 1
ENDMDL
MODEL 7
REMARK VINA RESULT:    -3.868     12.997     13.819
REMARK INTER + INTRA:          -4.106
REMARK INTER:                  -4.093
REMARK INTRA:                  -0.013
REMARK UNBOUND:                -0.012
REMARK SMILES O=Cc1ccccc1
REMARK SMILES IDX 6 1 5 2 4 3 3 4 8 5 7 6 2 7 1 8
REMARK H PARENT
REMARK Flexibility Score: inf
ROOT
ATOM      1  C   UNL     1      11.743  20.212  35.496  1.00  0.00     0.000 A 
ATOM      2  C   UNL     1      12.963  19.599  35.792  1.00  0.00     0.001 A 
ATOM      3  C   UNL     1      13.415  19.538  37.114  1.00  0.00     0.011 A 
ATOM      4  C   UNL     1      12.648  20.092  38.152  1.00  0.00     0.014 A 
ATOM      5  C   UNL     1      11.419  20.707  37.845  1.00  0.00     0.011 A 
ATOM      6  C   UNL     1      10.972  20.765  36.522  1.00  0.00     0.001 A 
ENDROOT
BRANCH   4   7
ATOM      7  C   UNL     1      13.138  20.019  39.540  1.00  0.00     0.260 C 
ATOM      8  O   UNL     1      14.358  19.828  39.790  1.00  0.00    -0.298 OA
ENDBRANCH   4   7
TORSDOF 1
ENDMDL
MODEL 8
REMARK VINA RESULT:    -3.838      3.537      4.905
REMARK INTER + INTRA:          -4.074
REMARK INTER:                  -4.063
REMARK INTRA:                  -0.011
REMARK UNBOUND:                -0.012
REMARK SMILES O=Cc1ccccc1
REMARK SMILES IDX 6 1 5 2 4 3 3 4 8 5 7 6 2 7 1 8
REMARK H PARENT
REMARK Flexibility Score: inf
ROOT
ATOM      1  C   UNL     1      19.865  27.002  34.757  1.00  0.00     0.000 A 
ATOM      2  C   UNL     1      18.988  28.069  34.967  1.00  0.00     0.001 A 
ATOM      3  C   UNL     1      18.425  28.740  33.877  1.00  0.00     0.011 A 
ATOM      4  C   UNL     1      18.737  28.346  32.565  1.00  0.00     0.014 A 
ATOM      5  C   UNL     1      19.620  27.270  32.362  1.00  0.00     0.011 A 
ATOM      6  C   UNL     1      20.180  26.603  33.456  1.00  0.00     0.001 A 
ENDROOT
BRANCH   4   7
ATOM      7  C   UNL     1      18.135  29.063  31.427  1.00  0.00     0.260 C 
ATOM      8  O   UNL     1      17.773  28.449  30.387  1.00  0.00    -0.298 OA
ENDBRANCH   4   7
TORSDOF 1
ENDMDL
MODEL 9
REMARK VINA RESULT:    -3.826      2.234      3.308
REMARK INTER + INTRA:          -4.061
REMARK INTER:                  -4.049
REMARK INTRA:                  -0.012
REMARK UNBOUND:                -0.012
REMARK SMILES O=Cc1ccccc1
REMARK SMILES IDX 6 1 5 2 4 3 3 4 8 5 7 6 2 7 1 8
REMARK H PARENT
REMARK Flexibility Score: inf
ROOT
ATOM      1  C   UNL     1      18.232  28.552  27.542  1.00  0.00     0.000 A 
ATOM      2  C   UNL     1      18.392  29.854  28.024  1.00  0.00     0.001 A 
ATOM      3  C   UNL     1      18.363  30.101  29.400  1.00  0.00     0.011 A 
ATOM      4  C   UNL     1      18.174  29.045  30.306  1.00  0.00     0.014 A 
ATOM      5  C   UNL     1      18.014  27.736  29.813  1.00  0.00     0.011 A 
ATOM      6  C   UNL     1      18.044  27.495  28.436  1.00  0.00     0.001 A 
ENDROOT
BRANCH   4   7
ATOM      7  C   UNL     1      18.146  29.322  31.753  1.00  0.00     0.260 C 
ATOM      8  O   UNL     1      18.550  28.469  32.588  1.00  0.00    -0.298 OA
ENDBRANCH   4   7
TORSDOF 1
ENDMDL
