MODEL 1
REMARK VINA RESULT:    -5.814      0.000      0.000
REMARK INTER + INTRA:          -5.814
REMARK INTER:                  -5.814
REMARK INTRA:                   0.000
REMARK UNBOUND:                 0.000
REMARK SMILES CC(C)=C1CC[C@H](C)CC1=O
REMARK SMILES IDX 8 1 7 2 6 3 5 4 4 5 2 6 1 7 3 8 10 9 11 10 9 11
REMARK H PARENT
REMARK Flexibility Score: inf
ROOT
ATOM      1  C   UNL     1     -30.510  19.873 -34.052  1.00  0.00     0.008 C 
ATOM      2  C   UNL     1     -29.035  19.476 -33.919  1.00  0.00    -0.006 C 
ATOM      3  C   UNL     1     -28.122  20.661 -34.267  1.00  0.00     0.008 C 
ATOM      4  C   UNL     1     -26.643  20.253 -34.237  1.00  0.00     0.039 C 
ATOM      5  C   UNL     1     -26.250  19.576 -32.932  1.00  0.00    -0.006 C 
ATOM      6  C   UNL     1     -24.992  19.705 -32.415  1.00  0.00    -0.070 C 
ATOM      7  C   UNL     1     -23.931  20.511 -33.130  1.00  0.00     0.039 C 
ATOM      8  C   UNL     1     -24.606  19.084 -31.092  1.00  0.00     0.039 C 
ATOM      9  C   UNL     1     -27.278  18.680 -32.322  1.00  0.00     0.159 C 
ATOM     10  O   UNL     1     -26.947  17.658 -31.663  1.00  0.00    -0.295 OA
ATOM     11  C   UNL     1     -28.738  18.985 -32.495  1.00  0.00     0.084 C 
ENDROOT
TORSDOF 0
ENDMDL
MODEL 2
REMARK VINA RESULT:    -5.201      2.874      4.786
REMARK INTER + INTRA:          -5.201
REMARK INTER:                  -5.201
REMARK INTRA:                   0.000
REMARK UNBOUND:                 0.000
REMARK SMILES CC(C)=C1CC[C@H](C)CC1=O
REMARK SMILES IDX 8 1 7 2 6 3 5 4 4 5 2 6 1 7 3 8 10 9 11 10 9 11
REMARK H PARENT
REMARK Flexibility Score: inf
ROOT
ATOM      1  C   UNL     1     -24.605  20.608 -33.170  1.00  0.00     0.008 C 
ATOM      2  C   UNL     1     -24.661  19.538 -32.074  1.00  0.00    -0.006 C 
ATOM      3  C   UNL     1     -26.059  18.903 -32.010  1.00  0.00     0.008 C 
ATOM      4  C   UNL     1     -26.164  17.902 -30.853  1.00  0.00     0.039 C 
ATOM      5  C   UNL     1     -25.051  16.864 -30.875  1.00  0.00    -0.006 C 
ATOM      6  C   UNL     1     -25.255  15.593 -30.417  1.00  0.00    -0.070 C 
ATOM      7  C   UNL     1     -26.592  15.170 -29.852  1.00  0.00     0.039 C 
ATOM      8  C   UNL     1     -24.175  14.538 -30.486  1.00  0.00     0.039 C 
ATOM      9  C   UNL     1     -23.709  17.351 -31.313  1.00  0.00     0.159 C 
ATOM     10  O   UNL     1     -22.648  16.858 -30.844  1.00  0.00    -0.295 OA
ATOM     11  C   UNL     1     -23.603  18.454 -32.326  1.00  0.00     0.084 C 
ENDROOT
TORSDOF 0
ENDMDL
MODEL 3
REMARK VINA RESULT:    -5.096      3.839      5.827
REMARK INTER + INTRA:          -5.096
REMARK INTER:                  -5.096
REMARK INTRA:                   0.000
REMARK UNBOUND:                 0.000
REMARK SMILES CC(C)=C1CC[C@H](C)CC1=O
REMARK SMILES IDX 8 1 7 2 6 3 5 4 4 5 2 6 1 7 3 8 10 9 11 10 9 11
REMARK H PARENT
REMARK Flexibility Score: inf
ROOT
ATOM      1  C   UNL     1     -23.884  19.266 -31.936  1.00  0.00     0.008 C 
ATOM      2  C   UNL     1     -24.310  18.080 -31.063  1.00  0.00    -0.006 C 
ATOM      3  C   UNL     1     -25.837  17.912 -31.086  1.00  0.00     0.008 C 
ATOM      4  C   UNL     1     -26.291  16.794 -30.139  1.00  0.00     0.039 C 
ATOM      5  C   UNL     1     -25.555  15.485 -30.386  1.00  0.00    -0.006 C 
ATOM      6  C   UNL     1     -26.161  14.279 -30.174  1.00  0.00    -0.070 C 
ATOM      7  C   UNL     1     -27.583  14.195 -29.667  1.00  0.00     0.039 C 
ATOM      8  C   UNL     1     -25.461  12.973 -30.470  1.00  0.00     0.039 C 
ATOM      9  C   UNL     1     -24.113  15.602 -30.757  1.00  0.00     0.159 C 
ATOM     10  O   UNL     1     -23.276  14.724 -30.416  1.00  0.00    -0.295 OA
ATOM     11  C   UNL     1     -23.633  16.788 -31.542  1.00  0.00     0.084 C 
ENDROOT
TORSDOF 0
ENDMDL
MODEL 4
REMARK VINA RESULT:    -4.889      1.712      4.747
REMARK INTER + INTRA:          -4.889
REMARK INTER:                  -4.889
REMARK INTRA:                   0.000
REMARK UNBOUND:                 0.000
REMARK SMILES CC(C)=C1CC[C@H](C)CC1=O
REMARK SMILES IDX 8 1 7 2 6 3 5 4 4 5 2 6 1 7 3 8 10 9 11 10 9 11
REMARK H PARENT
REMARK Flexibility Score: inf
ROOT
ATOM      1  C   UNL     1     -22.523  19.892 -31.822  1.00  0.00     0.008 C 
ATOM      2  C   UNL     1     -23.843  19.461 -32.473  1.00  0.00    -0.006 C 
ATOM      3  C   UNL     1     -24.944  19.307 -31.412  1.00  0.00     0.008 C 
ATOM      4  C   UNL     1     -26.245  18.779 -32.031  1.00  0.00     0.039 C 
ATOM      5  C   UNL     1     -26.698  19.602 -33.228  1.00  0.00    -0.006 C 
ATOM      6  C   UNL     1     -28.024  19.757 -33.522  1.00  0.00    -0.070 C 
ATOM      7  C   UNL     1     -29.095  19.101 -32.681  1.00  0.00     0.039 C 
ATOM      8  C   UNL     1     -28.488  20.618 -34.674  1.00  0.00     0.039 C 
ATOM      9  C   UNL     1     -25.615  20.123 -34.114  1.00  0.00     0.159 C 
ATOM     10  O   UNL     1     -25.794  20.265 -35.354  1.00  0.00    -0.295 OA
ATOM     11  C   UNL     1     -24.277  20.482 -33.534  1.00  0.00     0.084 C 
ENDROOT
TORSDOF 0
ENDMDL
MODEL 5
REMARK VINA RESULT:    -4.608      1.854      3.063
REMARK INTER + INTRA:          -4.608
REMARK INTER:                  -4.608
REMARK INTRA:                   0.000
REMARK UNBOUND:                 0.000
REMARK SMILES CC(C)=C1CC[C@H](C)CC1=O
REMARK SMILES IDX 8 1 7 2 6 3 5 4 4 5 2 6 1 7 3 8 10 9 11 10 9 11
REMARK H PARENT
REMARK Flexibility Score: inf
ROOT
ATOM      1  C   UNL     1     -27.931  20.931 -34.529  1.00  0.00     0.008 C 
ATOM      2  C   UNL     1     -27.266  20.317 -33.292  1.00  0.00    -0.006 C 
ATOM      3  C   UNL     1     -27.900  18.959 -32.954  1.00  0.00     0.008 C 
ATOM      4  C   UNL     1     -27.316  18.377 -31.660  1.00  0.00     0.039 C 
ATOM      5  C   UNL     1     -25.796  18.323 -31.679  1.00  0.00    -0.006 C 
ATOM      6  C   UNL     1     -25.112  17.341 -31.019  1.00  0.00    -0.070 C 
ATOM      7  C   UNL     1     -25.838  16.277 -30.228  1.00  0.00     0.039 C 
ATOM      8  C   UNL     1     -23.604  17.244 -31.077  1.00  0.00     0.039 C 
ATOM      9  C   UNL     1     -25.106  19.463 -32.355  1.00  0.00     0.159 C 
ATOM     10  O   UNL     1     -23.981  19.874 -31.963  1.00  0.00    -0.295 OA
ATOM     11  C   UNL     1     -25.757  20.149 -33.521  1.00  0.00     0.084 C 
ENDROOT
TORSDOF 0
ENDMDL
MODEL 6
REMARK VINA RESULT:    -4.495      7.497      9.523
REMARK INTER + INTRA:          -4.495
REMARK INTER:                  -4.495
REMARK INTRA:                   0.000
REMARK UNBOUND:                 0.000
REMARK SMILES CC(C)=C1CC[C@H](C)CC1=O
REMARK SMILES IDX 8 1 7 2 6 3 5 4 4 5 2 6 1 7 3 8 10 9 11 10 9 11
REMARK H PARENT
REMARK Flexibility Score: inf
ROOT
ATOM      1  C   UNL     1     -23.433  11.213 -29.005  1.00  0.00     0.008 C 
ATOM      2  C   UNL     1     -24.942  11.172 -29.273  1.00  0.00    -0.006 C 
ATOM      3  C   UNL     1     -25.722  11.039 -27.956  1.00  0.00     0.008 C 
ATOM      4  C   UNL     1     -27.227  10.895 -28.212  1.00  0.00     0.039 C 
ATOM      5  C   UNL     1     -27.776  11.996 -29.107  1.00  0.00    -0.006 C 
ATOM      6  C   UNL     1     -29.055  12.455 -28.966  1.00  0.00    -0.070 C 
ATOM      7  C   UNL     1     -29.985  11.874 -27.926  1.00  0.00     0.039 C 
ATOM      8  C   UNL     1     -29.593  13.587 -29.811  1.00  0.00     0.039 C 
ATOM      9  C   UNL     1     -26.878  12.454 -30.209  1.00  0.00     0.159 C 
ATOM     10  O   UNL     1     -27.344  12.855 -31.310  1.00  0.00    -0.295 OA
ATOM     11  C   UNL     1     -25.389  12.435 -30.022  1.00  0.00     0.084 C 
ENDROOT
TORSDOF 0
ENDMDL
MODEL 7
REMARK VINA RESULT:    -4.462     11.941     13.212
REMARK INTER + INTRA:          -4.462
REMARK INTER:                  -4.462
REMARK INTRA:                   0.000
REMARK UNBOUND:                 0.000
REMARK SMILES CC(C)=C1CC[C@H](C)CC1=O
REMARK SMILES IDX 8 1 7 2 6 3 5 4 4 5 2 6 1 7 3 8 10 9 11 10 9 11
REMARK H PARENT
REMARK Flexibility Score: inf
ROOT
ATOM      1  C   UNL     1     -12.434  16.259 -32.246  1.00  0.00     0.008 C 
ATOM      2  C   UNL     1     -13.892  15.867 -31.981  1.00  0.00    -0.006 C 
ATOM      3  C   UNL     1     -14.243  14.563 -32.713  1.00  0.00     0.008 C 
ATOM      4  C   UNL     1     -15.726  14.209 -32.542  1.00  0.00     0.039 C 
ATOM      5  C   UNL     1     -16.158  14.194 -31.083  1.00  0.00    -0.006 C 
ATOM      6  C   UNL     1     -17.135  13.348 -30.639  1.00  0.00    -0.070 C 
ATOM      7  C   UNL     1     -17.840  12.403 -31.585  1.00  0.00     0.039 C 
ATOM      8  C   UNL     1     -17.533  13.285 -29.183  1.00  0.00     0.039 C 
ATOM      9  C   UNL     1     -15.538  15.231 -30.204  1.00  0.00     0.159 C 
ATOM     10  O   UNL     1     -16.169  15.730 -29.234  1.00  0.00    -0.295 OA
ATOM     11  C   UNL     1     -14.140  15.706 -30.474  1.00  0.00     0.084 C 
ENDROOT
TORSDOF 0
ENDMDL
MODEL 8
REMARK VINA RESULT:    -4.302     11.528     13.197
REMARK INTER + INTRA:          -4.302
REMARK INTER:                  -4.302
REMARK INTRA:                   0.000
REMARK UNBOUND:                 0.000
REMARK SMILES CC(C)=C1CC[C@H](C)CC1=O
REMARK SMILES IDX 8 1 7 2 6 3 5 4 4 5 2 6 1 7 3 8 10 9 11 10 9 11
REMARK H PARENT
REMARK Flexibility Score: inf
ROOT
ATOM      1  C   UNL     1     -13.124  16.124 -32.308  1.00  0.00     0.008 C 
ATOM      2  C   UNL     1     -13.943  15.073 -31.550  1.00  0.00    -0.006 C 
ATOM      3  C   UNL     1     -14.473  15.651 -30.228  1.00  0.00     0.008 C 
ATOM      4  C   UNL     1     -15.209  14.584 -29.408  1.00  0.00     0.039 C 
ATOM      5  C   UNL     1     -16.289  13.873 -30.210  1.00  0.00    -0.006 C 
ATOM      6  C   UNL     1     -17.427  13.407 -29.614  1.00  0.00    -0.070 C 
ATOM      7  C   UNL     1     -17.651  13.562 -28.127  1.00  0.00     0.039 C 
ATOM      8  C   UNL     1     -18.532  12.750 -30.409  1.00  0.00     0.039 C 
ATOM      9  C   UNL     1     -15.978  13.617 -31.649  1.00  0.00     0.159 C 
ATOM     10  O   UNL     1     -16.422  12.599 -32.244  1.00  0.00    -0.295 OA
ATOM     11  C   UNL     1     -15.112  14.577 -32.412  1.00  0.00     0.084 C 
ENDROOT
TORSDOF 0
ENDMDL
MODEL 9
REMARK VINA RESULT:    -4.198     11.558     12.694
REMARK INTER + INTRA:          -4.198
REMARK INTER:                  -4.198
REMARK INTRA:                   0.000
REMARK UNBOUND:                 0.000
REMARK SMILES CC(C)=C1CC[C@H](C)CC1=O
REMARK SMILES IDX 8 1 7 2 6 3 5 4 4 5 2 6 1 7 3 8 10 9 11 10 9 11
REMARK H PARENT
REMARK Flexibility Score: inf
ROOT
ATOM      1  C   UNL     1     -19.094  12.091 -29.757  1.00  0.00     0.008 C 
ATOM      2  C   UNL     1     -18.066  13.159 -30.147  1.00  0.00    -0.006 C 
ATOM      3  C   UNL     1     -16.876  13.147 -29.175  1.00  0.00     0.008 C 
ATOM      4  C   UNL     1     -15.887  14.276 -29.490  1.00  0.00     0.039 C 
ATOM      5  C   UNL     1     -15.450  14.280 -30.947  1.00  0.00    -0.006 C 
ATOM      6  C   UNL     1     -14.202  14.699 -31.314  1.00  0.00    -0.070 C 
ATOM      7  C   UNL     1     -13.209  15.195 -30.287  1.00  0.00     0.039 C 
ATOM      8  C   UNL     1     -13.737  14.655 -32.751  1.00  0.00     0.039 C 
ATOM      9  C   UNL     1     -16.497  13.913 -31.947  1.00  0.00     0.159 C 
ATOM     10  O   UNL     1     -16.505  14.418 -33.102  1.00  0.00    -0.295 OA
ATOM     11  C   UNL     1     -17.572  12.931 -31.583  1.00  0.00     0.084 C 
ENDROOT
TORSDOF 0
ENDMDL
