MODEL 1
REMARK VINA RESULT:     2.153      0.000      0.000
REMARK INTER + INTRA:           2.341
REMARK INTER:                   2.341
REMARK INTRA:                   0.000
REMARK UNBOUND:                 0.000
REMARK SMILES Cc1cc(O)c2c(c1)C(=O)c1cc(O)cc(O)c1C2=O
REMARK SMILES IDX 1 1 2 2 8 3 7 4 6 5 4 6 3 7 19 8 20 9 18 10 11 11 9 12 10 13
REMARK SMILES IDX 12 14 13 15 15 16 16 17 5 18 17 20 14 22
REMARK H PARENT 5 19 17 21 14 23
REMARK Flexibility Score: inf
ROOT
ATOM      1  C   UNL     1       3.248 -15.123  11.703  1.00  0.00     0.044 C 
ATOM      2  C   UNL     1       3.278 -14.983  10.210  1.00  0.00    -0.047 A 
ATOM      3  C   UNL     1       2.083 -14.890   9.488  1.00  0.00     0.016 A 
ATOM      4  C   UNL     1       2.099 -14.787   8.086  1.00  0.00     0.038 A 
ATOM      5  C   UNL     1       3.331 -14.778   7.396  1.00  0.00     0.076 A 
ATOM      6  C   UNL     1       4.534 -14.957   8.127  1.00  0.00     0.127 A 
ATOM      7  C   UNL     1       4.494 -15.037   9.522  1.00  0.00     0.050 A 
ATOM      8  C   UNL     1       3.315 -14.518   5.933  1.00  0.00     0.201 C 
ATOM      9  O   UNL     1       4.297 -13.947   5.387  1.00  0.00    -0.288 OA
ATOM     10  C   UNL     1       2.073 -14.760   5.155  1.00  0.00     0.076 A 
ATOM     11  C   UNL     1       0.842 -14.772   5.848  1.00  0.00     0.041 A 
ATOM     12  C   UNL     1       0.828 -14.695   7.329  1.00  0.00     0.194 C 
ATOM     13  O   UNL     1      -0.268 -14.578   7.945  1.00  0.00    -0.289 OA
ATOM     14  C   UNL     1      -0.364 -14.859   5.133  1.00  0.00     0.059 A 
ATOM     15  C   UNL     1      -0.355 -14.950   3.738  1.00  0.00     0.120 A 
ATOM     16  C   UNL     1       0.859 -14.980   3.052  1.00  0.00     0.093 A 
ATOM     17  C   UNL     1       2.073 -14.915   3.744  1.00  0.00     0.131 A 
ENDROOT
BRANCH   6  18
ATOM     18  O   UNL     1       5.778 -15.097   7.508  1.00  0.00    -0.507 OA
ATOM     19  H   UNL     1       6.376 -15.904   7.629  1.00  0.00     0.293 HD
ENDBRANCH   6  18
BRANCH  17  20
ATOM     20  O   UNL     1       3.247 -15.042   2.998  1.00  0.00    -0.507 OA
ATOM     21  H   UNL     1       3.409 -15.787   2.335  1.00  0.00     0.293 HD
ENDBRANCH  17  20
BRANCH  15  22
ATOM     22  O   UNL     1      -1.549 -15.025   3.024  1.00  0.00    -0.508 OA
ATOM     23  H   UNL     1      -1.682 -15.706   2.285  1.00  0.00     0.293 HD
ENDBRANCH  15  22
TORSDOF 3
ENDMDL
