MODEL 1
REMARK VINA RESULT:    -3.638      0.000      0.000
REMARK INTER + INTRA:          -9.671
REMARK INTER:                  -6.615
REMARK INTRA:                  -3.055
REMARK UNBOUND:                -3.055
REMARK SMILES CCCCCCCCCCCCCC[C@H](C)C(=O)[O-]
REMARK SMILES IDX 9 1 10 2 11 3 12 4 13 5 14 6 15 7 16 8 17 9 18 10 19 11 8 12
REMARK SMILES IDX 7 13 6 14 5 15 4 16 3 17 2 18 1 19
REMARK H PARENT
REMARK Flexibility Score: inf
ROOT
ATOM      1  C   UNL     1      95.565  85.310  78.381  1.00  0.00     0.000 C 
ENDROOT
BRANCH   1   2
ATOM      2  C   UNL     1      96.559  86.298  79.013  1.00  0.00     0.000 C 
BRANCH   2   3
ATOM      3  C   UNL     1      97.870  85.621  79.443  1.00  0.00     0.000 C 
BRANCH   3   4
ATOM      4  C   UNL     1      98.157  85.777  80.948  1.00  0.00     0.000 C 
BRANCH   4   5
ATOM      5  C   UNL     1      96.948  85.534  81.874  1.00  0.00     0.001 C 
BRANCH   5   6
ATOM      6  C   UNL     1      96.692  84.059  82.249  1.00  0.00     0.009 C 
BRANCH   6   7
ATOM      7  C   UNL     1      95.198  83.690  82.391  1.00  0.00     0.032 C 
ATOM      8  C   UNL     1      94.315  84.814  81.842  1.00  0.00     0.014 C 
BRANCH   7   9
ATOM      9  C   UNL     1      94.835  83.416  83.826  1.00  0.00     0.044 C 
ATOM     10  O   UNL     1      93.678  83.014  84.119  1.00  0.00    -0.550 OA
ATOM     11  O   UNL     1      95.771  83.603  84.837  1.00  0.00    -0.550 OA
ENDBRANCH   7   9
ENDBRANCH   6   7
ENDBRANCH   5   6
ENDBRANCH   4   5
ENDBRANCH   3   4
ENDBRANCH   2   3
ENDBRANCH   1   2
BRANCH   1  12
ATOM     12  C   UNL     1      96.195  83.932  78.111  1.00  0.00     0.000 C 
BRANCH  12  13
ATOM     13  C   UNL     1      95.439  82.791  78.812  1.00  0.00    -0.000 C 
BRANCH  13  14
ATOM     14  C   UNL     1      96.378  81.692  79.340  1.00  0.00    -0.000 C 
BRANCH  14  15
ATOM     15  C   UNL     1      97.861  82.015  79.093  1.00  0.00    -0.000 C 
BRANCH  15  16
ATOM     16  C   UNL     1      98.695  81.984  80.382  1.00  0.00    -0.000 C 
BRANCH  16  17
ATOM     17  C   UNL     1     100.119  82.501  80.126  1.00  0.00    -0.000 C 
BRANCH  17  18
ATOM     18  C   UNL     1     100.735  83.172  81.362  1.00  0.00    -0.003 C 
ATOM     19  C   UNL     1     100.003  82.818  82.657  1.00  0.00     0.004 C 
ENDBRANCH  17  18
ENDBRANCH  16  17
ENDBRANCH  15  16
ENDBRANCH  14  15
ENDBRANCH  13  14
ENDBRANCH  12  13
ENDBRANCH   1  12
TORSDOF 14
ENDMDL
MODEL 2
REMARK VINA RESULT:    -3.535      3.202      4.540
REMARK INTER + INTRA:          -9.484
REMARK INTER:                  -6.845
REMARK INTRA:                  -2.638
REMARK UNBOUND:                -3.055
REMARK SMILES CCCCCCCCCCCCCC[C@H](C)C(=O)[O-]
REMARK SMILES IDX 9 1 10 2 11 3 12 4 13 5 14 6 15 7 16 8 17 9 18 10 19 11 8 12
REMARK SMILES IDX 7 13 6 14 5 15 4 16 3 17 2 18 1 19
REMARK H PARENT
REMARK Flexibility Score: inf
ROOT
ATOM      1  C   UNL     1      95.212  84.930  80.273  1.00  0.00     0.000 C 
ENDROOT
BRANCH   1   2
ATOM      2  C   UNL     1      95.834  85.554  79.014  1.00  0.00     0.000 C 
BRANCH   2   3
ATOM      3  C   UNL     1      94.782  86.187  78.088  1.00  0.00     0.000 C 
BRANCH   3   4
ATOM      4  C   UNL     1      94.652  85.450  76.743  1.00  0.00     0.000 C 
BRANCH   4   5
ATOM      5  C   UNL     1      93.520  84.404  76.675  1.00  0.00     0.001 C 
BRANCH   5   6
ATOM      6  C   UNL     1      92.296  84.700  77.566  1.00  0.00     0.009 C 
BRANCH   6   7
ATOM      7  C   UNL     1      91.799  83.489  78.387  1.00  0.00     0.032 C 
ATOM      8  C   UNL     1      92.437  82.195  77.871  1.00  0.00     0.014 C 
BRANCH   7   9
ATOM      9  C   UNL     1      90.300  83.369  78.337  1.00  0.00     0.044 C 
ATOM     10  O   UNL     1      89.666  82.949  79.340  1.00  0.00    -0.550 OA
ATOM     11  O   UNL     1      89.604  83.721  77.185  1.00  0.00    -0.550 OA
ENDBRANCH   7   9
ENDBRANCH   6   7
ENDBRANCH   5   6
ENDBRANCH   4   5
ENDBRANCH   3   4
ENDBRANCH   2   3
ENDBRANCH   1   2
BRANCH   1  12
ATOM     12  C   UNL     1      95.120  83.396  80.188  1.00  0.00     0.000 C 
BRANCH  12  13
ATOM     13  C   UNL     1      95.963  82.818  79.040  1.00  0.00    -0.000 C 
BRANCH  13  14
ATOM     14  C   UNL     1      96.859  81.650  79.491  1.00  0.00    -0.000 C 
BRANCH  14  15
ATOM     15  C   UNL     1      98.356  81.973  79.366  1.00  0.00    -0.000 C 
BRANCH  15  16
ATOM     16  C   UNL     1      98.983  82.396  80.703  1.00  0.00    -0.000 C 
BRANCH  16  17
ATOM     17  C   UNL     1      99.196  83.917  80.751  1.00  0.00    -0.000 C 
BRANCH  17  18
ATOM     18  C   UNL     1      98.514  84.571  81.961  1.00  0.00    -0.003 C 
ATOM     19  C   UNL     1      97.735  83.571  82.816  1.00  0.00     0.004 C 
ENDBRANCH  17  18
ENDBRANCH  16  17
ENDBRANCH  15  16
ENDBRANCH  14  15
ENDBRANCH  13  14
ENDBRANCH  12  13
ENDBRANCH   1  12
TORSDOF 14
ENDMDL
MODEL 3
REMARK VINA RESULT:    -3.506      2.427      4.858
REMARK INTER + INTRA:          -9.431
REMARK INTER:                  -6.985
REMARK INTRA:                  -2.447
REMARK UNBOUND:                -3.055
REMARK SMILES CCCCCCCCCCCCCC[C@H](C)C(=O)[O-]
REMARK SMILES IDX 9 1 10 2 11 3 12 4 13 5 14 6 15 7 16 8 17 9 18 10 19 11 8 12
REMARK SMILES IDX 7 13 6 14 5 15 4 16 3 17 2 18 1 19
REMARK H PARENT
REMARK Flexibility Score: inf
ROOT
ATOM      1  C   UNL     1      99.004  82.033  79.907  1.00  0.00     0.000 C 
ENDROOT
BRANCH   1   2
ATOM      2  C   UNL     1      97.556  81.603  80.190  1.00  0.00     0.000 C 
BRANCH   2   3
ATOM      3  C   UNL     1      96.587  82.023  79.072  1.00  0.00     0.000 C 
BRANCH   3   4
ATOM      4  C   UNL     1      97.047  83.291  78.331  1.00  0.00     0.000 C 
BRANCH   4   5
ATOM      5  C   UNL     1      96.007  84.430  78.272  1.00  0.00     0.001 C 
BRANCH   5   6
ATOM      6  C   UNL     1      94.654  84.121  78.946  1.00  0.00     0.009 C 
BRANCH   6   7
ATOM      7  C   UNL     1      93.539  83.692  77.966  1.00  0.00     0.032 C 
ATOM      8  C   UNL     1      93.632  84.496  76.666  1.00  0.00     0.014 C 
BRANCH   7   9
ATOM      9  C   UNL     1      92.175  83.869  78.576  1.00  0.00     0.044 C 
ATOM     10  O   UNL     1      91.236  83.091  78.260  1.00  0.00    -0.550 OA
ATOM     11  O   UNL     1      91.940  84.890  79.490  1.00  0.00    -0.550 OA
ENDBRANCH   7   9
ENDBRANCH   6   7
ENDBRANCH   5   6
ENDBRANCH   4   5
ENDBRANCH   3   4
ENDBRANCH   2   3
ENDBRANCH   1   2
BRANCH   1  12
ATOM     12  C   UNL     1      99.673  82.691  81.128  1.00  0.00     0.000 C 
BRANCH  12  13
ATOM     13  C   UNL     1     100.221  84.093  80.816  1.00  0.00    -0.000 C 
BRANCH  13  14
ATOM     14  C   UNL     1      99.114  85.160  80.744  1.00  0.00    -0.000 C 
BRANCH  14  15
ATOM     15  C   UNL     1      98.314  85.269  82.052  1.00  0.00    -0.000 C 
BRANCH  15  16
ATOM     16  C   UNL     1      96.800  85.137  81.830  1.00  0.00    -0.000 C 
BRANCH  16  17
ATOM     17  C   UNL     1      96.238  83.927  82.592  1.00  0.00    -0.000 C 
BRANCH  17  18
ATOM     18  C   UNL     1      97.111  83.526  83.790  1.00  0.00    -0.003 C 
ATOM     19  C   UNL     1      96.452  83.836  85.134  1.00  0.00     0.004 C 
ENDBRANCH  17  18
ENDBRANCH  16  17
ENDBRANCH  15  16
ENDBRANCH  14  15
ENDBRANCH  13  14
ENDBRANCH  12  13
ENDBRANCH   1  12
TORSDOF 14
ENDMDL
MODEL 4
REMARK VINA RESULT:    -3.482      2.650      5.326
REMARK INTER + INTRA:          -9.387
REMARK INTER:                  -7.794
REMARK INTRA:                  -1.594
REMARK UNBOUND:                -3.055
REMARK SMILES CCCCCCCCCCCCCC[C@H](C)C(=O)[O-]
REMARK SMILES IDX 9 1 10 2 11 3 12 4 13 5 14 6 15 7 16 8 17 9 18 10 19 11 8 12
REMARK SMILES IDX 7 13 6 14 5 15 4 16 3 17 2 18 1 19
REMARK H PARENT
REMARK Flexibility Score: inf
ROOT
ATOM      1  C   UNL     1      96.155  82.368  78.881  1.00  0.00     0.000 C 
ENDROOT
BRANCH   1   2
ATOM      2  C   UNL     1      97.127  81.582  79.776  1.00  0.00     0.000 C 
BRANCH   2   3
ATOM      3  C   UNL     1      98.544  82.181  79.775  1.00  0.00     0.000 C 
BRANCH   3   4
ATOM      4  C   UNL     1      99.136  82.313  81.190  1.00  0.00     0.000 C 
BRANCH   4   5
ATOM      5  C   UNL     1      99.276  83.759  81.710  1.00  0.00     0.001 C 
BRANCH   5   6
ATOM      6  C   UNL     1      97.946  84.480  82.016  1.00  0.00     0.009 C 
BRANCH   6   7
ATOM      7  C   UNL     1      96.881  83.588  82.692  1.00  0.00     0.032 C 
ATOM      8  C   UNL     1      95.475  84.013  82.259  1.00  0.00     0.014 C 
BRANCH   7   9
ATOM      9  C   UNL     1      96.989  83.646  84.192  1.00  0.00     0.044 C 
ATOM     10  O   UNL     1      96.175  84.340  84.857  1.00  0.00    -0.550 OA
ATOM     11  O   UNL     1      97.985  82.937  84.854  1.00  0.00    -0.550 OA
ENDBRANCH   7   9
ENDBRANCH   6   7
ENDBRANCH   5   6
ENDBRANCH   4   5
ENDBRANCH   3   4
ENDBRANCH   2   3
ENDBRANCH   1   2
BRANCH   1  12
ATOM     12  C   UNL     1      96.694  83.760  78.505  1.00  0.00     0.000 C 
BRANCH  12  13
ATOM     13  C   UNL     1      95.653  84.615  77.765  1.00  0.00    -0.000 C 
BRANCH  13  14
ATOM     14  C   UNL     1      94.206  84.214  78.105  1.00  0.00    -0.000 C 
BRANCH  14  15
ATOM     15  C   UNL     1      93.263  84.325  76.896  1.00  0.00    -0.000 C 
BRANCH  15  16
ATOM     16  C   UNL     1      92.177  83.238  76.892  1.00  0.00    -0.000 C 
BRANCH  16  17
ATOM     17  C   UNL     1      90.834  83.806  77.376  1.00  0.00    -0.000 C 
BRANCH  17  18
ATOM     18  C   UNL     1      90.486  83.364  78.805  1.00  0.00    -0.003 C 
ATOM     19  C   UNL     1      88.984  83.168  79.016  1.00  0.00     0.004 C 
ENDBRANCH  17  18
ENDBRANCH  16  17
ENDBRANCH  15  16
ENDBRANCH  14  15
ENDBRANCH  13  14
ENDBRANCH  12  13
ENDBRANCH   1  12
TORSDOF 14
ENDMDL
MODEL 5
REMARK VINA RESULT:    -3.479      2.311      5.413
REMARK INTER + INTRA:          -9.382
REMARK INTER:                  -7.258
REMARK INTRA:                  -2.124
REMARK UNBOUND:                -3.055
REMARK SMILES CCCCCCCCCCCCCC[C@H](C)C(=O)[O-]
REMARK SMILES IDX 9 1 10 2 11 3 12 4 13 5 14 6 15 7 16 8 17 9 18 10 19 11 8 12
REMARK SMILES IDX 7 13 6 14 5 15 4 16 3 17 2 18 1 19
REMARK H PARENT
REMARK Flexibility Score: inf
ROOT
ATOM      1  C   UNL     1      95.790  83.484  80.365  1.00  0.00     0.000 C 
ENDROOT
BRANCH   1   2
ATOM      2  C   UNL     1      95.760  82.611  79.100  1.00  0.00     0.000 C 
BRANCH   2   3
ATOM      3  C   UNL     1      96.983  81.684  78.996  1.00  0.00     0.000 C 
BRANCH   3   4
ATOM      4  C   UNL     1      97.889  81.751  80.238  1.00  0.00     0.000 C 
BRANCH   4   5
ATOM      5  C   UNL     1      99.360  82.125  79.958  1.00  0.00     0.001 C 
BRANCH   5   6
ATOM      6  C   UNL     1     100.057  82.931  81.074  1.00  0.00     0.009 C 
BRANCH   6   7
ATOM      7  C   UNL     1      99.091  83.562  82.101  1.00  0.00     0.032 C 
ATOM      8  C   UNL     1      99.231  85.088  82.099  1.00  0.00     0.014 C 
BRANCH   7   9
ATOM      9  C   UNL     1      99.340  83.032  83.487  1.00  0.00     0.044 C 
ATOM     10  O   UNL     1      99.416  83.825  84.463  1.00  0.00    -0.550 OA
ATOM     11  O   UNL     1      99.488  81.666  83.702  1.00  0.00    -0.550 OA
ENDBRANCH   7   9
ENDBRANCH   6   7
ENDBRANCH   5   6
ENDBRANCH   4   5
ENDBRANCH   3   4
ENDBRANCH   2   3
ENDBRANCH   1   2
BRANCH   1  12
ATOM     12  C   UNL     1      95.645  84.984  80.050  1.00  0.00     0.000 C 
BRANCH  12  13
ATOM     13  C   UNL     1      96.402  85.395  78.778  1.00  0.00    -0.000 C 
BRANCH  13  14
ATOM     14  C   UNL     1      95.508  86.135  77.767  1.00  0.00    -0.000 C 
BRANCH  14  15
ATOM     15  C   UNL     1      94.072  85.587  77.738  1.00  0.00    -0.000 C 
BRANCH  15  16
ATOM     16  C   UNL     1      93.847  84.580  76.600  1.00  0.00    -0.000 C 
BRANCH  16  17
ATOM     17  C   UNL     1      92.670  83.646  76.921  1.00  0.00    -0.000 C 
BRANCH  17  18
ATOM     18  C   UNL     1      92.380  83.555  78.426  1.00  0.00    -0.003 C 
ATOM     19  C   UNL     1      90.885  83.586  78.746  1.00  0.00     0.004 C 
ENDBRANCH  17  18
ENDBRANCH  16  17
ENDBRANCH  15  16
ENDBRANCH  14  15
ENDBRANCH  13  14
ENDBRANCH  12  13
ENDBRANCH   1  12
TORSDOF 14
ENDMDL
MODEL 6
REMARK VINA RESULT:    -3.451      2.937      4.904
REMARK INTER + INTRA:          -9.332
REMARK INTER:                  -7.543
REMARK INTRA:                  -1.788
REMARK UNBOUND:                -3.055
REMARK SMILES CCCCCCCCCCCCCC[C@H](C)C(=O)[O-]
REMARK SMILES IDX 9 1 10 2 11 3 12 4 13 5 14 6 15 7 16 8 17 9 18 10 19 11 8 12
REMARK SMILES IDX 7 13 6 14 5 15 4 16 3 17 2 18 1 19
REMARK H PARENT
REMARK Flexibility Score: inf
ROOT
ATOM      1  C   UNL     1      96.770  81.641  79.168  1.00  0.00     0.000 C 
ENDROOT
BRANCH   1   2
ATOM      2  C   UNL     1      95.831  82.854  79.073  1.00  0.00     0.000 C 
BRANCH   2   3
ATOM      3  C   UNL     1      96.362  83.937  78.118  1.00  0.00     0.000 C 
BRANCH   3   4
ATOM      4  C   UNL     1      95.393  85.123  77.963  1.00  0.00     0.000 C 
BRANCH   4   5
ATOM      5  C   UNL     1      94.024  84.774  77.343  1.00  0.00     0.001 C 
BRANCH   5   6
ATOM      6  C   UNL     1      92.862  84.636  78.349  1.00  0.00     0.009 C 
BRANCH   6   7
ATOM      7  C   UNL     1      92.139  83.271  78.300  1.00  0.00     0.032 C 
ATOM      8  C   UNL     1      92.491  82.525  77.009  1.00  0.00     0.014 C 
BRANCH   7   9
ATOM      9  C   UNL     1      90.647  83.437  78.399  1.00  0.00     0.044 C 
ATOM     10  O   UNL     1      89.966  83.663  77.363  1.00  0.00    -0.550 OA
ATOM     11  O   UNL     1      90.008  83.343  79.630  1.00  0.00    -0.550 OA
ENDBRANCH   7   9
ENDBRANCH   6   7
ENDBRANCH   5   6
ENDBRANCH   4   5
ENDBRANCH   3   4
ENDBRANCH   2   3
ENDBRANCH   1   2
BRANCH   1  12
ATOM     12  C   UNL     1      98.248  82.049  79.306  1.00  0.00     0.000 C 
BRANCH  12  13
ATOM     13  C   UNL     1      98.720  82.071  80.769  1.00  0.00    -0.000 C 
BRANCH  13  14
ATOM     14  C   UNL     1      99.535  83.332  81.110  1.00  0.00    -0.000 C 
BRANCH  14  15
ATOM     15  C   UNL     1      98.770  84.630  80.805  1.00  0.00    -0.000 C 
BRANCH  15  16
ATOM     16  C   UNL     1      97.536  84.812  81.700  1.00  0.00    -0.000 C 
BRANCH  16  17
ATOM     17  C   UNL     1      97.910  84.671  83.183  1.00  0.00    -0.000 C 
BRANCH  17  18
ATOM     18  C   UNL     1      97.178  83.508  83.869  1.00  0.00    -0.003 C 
ATOM     19  C   UNL     1      95.676  83.501  83.584  1.00  0.00     0.004 C 
ENDBRANCH  17  18
ENDBRANCH  16  17
ENDBRANCH  15  16
ENDBRANCH  14  15
ENDBRANCH  13  14
ENDBRANCH  12  13
ENDBRANCH   1  12
TORSDOF 14
ENDMDL
MODEL 7
REMARK VINA RESULT:    -3.449      2.977      6.005
REMARK INTER + INTRA:          -9.327
REMARK INTER:                  -7.430
REMARK INTRA:                  -1.897
REMARK UNBOUND:                -3.055
REMARK SMILES CCCCCCCCCCCCCC[C@H](C)C(=O)[O-]
REMARK SMILES IDX 9 1 10 2 11 3 12 4 13 5 14 6 15 7 16 8 17 9 18 10 19 11 8 12
REMARK SMILES IDX 7 13 6 14 5 15 4 16 3 17 2 18 1 19
REMARK H PARENT
REMARK Flexibility Score: inf
ROOT
ATOM      1  C   UNL     1      94.653  85.519  79.343  1.00  0.00     0.000 C 
ENDROOT
BRANCH   1   2
ATOM      2  C   UNL     1      95.845  84.638  79.753  1.00  0.00     0.000 C 
BRANCH   2   3
ATOM      3  C   UNL     1      95.420  83.206  80.117  1.00  0.00     0.000 C 
BRANCH   3   4
ATOM      4  C   UNL     1      96.106  82.141  79.243  1.00  0.00     0.000 C 
BRANCH   4   5
ATOM      5  C   UNL     1      97.551  82.473  78.817  1.00  0.00     0.001 C 
BRANCH   5   6
ATOM      6  C   UNL     1      98.652  81.956  79.766  1.00  0.00     0.009 C 
BRANCH   6   7
ATOM      7  C   UNL     1      99.263  83.041  80.681  1.00  0.00     0.032 C 
ATOM      8  C   UNL     1     100.793  82.977  80.637  1.00  0.00     0.014 C 
BRANCH   7   9
ATOM      9  C   UNL     1      98.791  82.890  82.102  1.00  0.00     0.044 C 
ATOM     10  O   UNL     1      97.899  83.656  82.555  1.00  0.00    -0.550 OA
ATOM     11  O   UNL     1      99.333  81.908  82.923  1.00  0.00    -0.550 OA
ENDBRANCH   7   9
ENDBRANCH   6   7
ENDBRANCH   5   6
ENDBRANCH   4   5
ENDBRANCH   3   4
ENDBRANCH   2   3
ENDBRANCH   1   2
BRANCH   1  12
ATOM     12  C   UNL     1      94.761  86.017  77.890  1.00  0.00     0.000 C 
BRANCH  12  13
ATOM     13  C   UNL     1      94.451  84.914  76.865  1.00  0.00    -0.000 C 
BRANCH  13  14
ATOM     14  C   UNL     1      92.968  84.503  76.864  1.00  0.00    -0.000 C 
BRANCH  14  15
ATOM     15  C   UNL     1      92.756  83.056  77.336  1.00  0.00    -0.000 C 
BRANCH  15  16
ATOM     16  C   UNL     1      91.642  82.934  78.387  1.00  0.00    -0.000 C 
BRANCH  16  17
ATOM     17  C   UNL     1      91.088  84.317  78.760  1.00  0.00    -0.000 C 
BRANCH  17  18
ATOM     18  C   UNL     1      89.590  84.457  78.451  1.00  0.00    -0.003 C 
ATOM     19  C   UNL     1      88.850  85.315  79.478  1.00  0.00     0.004 C 
ENDBRANCH  17  18
ENDBRANCH  16  17
ENDBRANCH  15  16
ENDBRANCH  14  15
ENDBRANCH  13  14
ENDBRANCH  12  13
ENDBRANCH   1  12
TORSDOF 14
ENDMDL
MODEL 8
REMARK VINA RESULT:    -3.392      2.451      5.244
REMARK INTER + INTRA:          -9.224
REMARK INTER:                  -7.008
REMARK INTRA:                  -2.217
REMARK UNBOUND:                -3.055
REMARK SMILES CCCCCCCCCCCCCC[C@H](C)C(=O)[O-]
REMARK SMILES IDX 9 1 10 2 11 3 12 4 13 5 14 6 15 7 16 8 17 9 18 10 19 11 8 12
REMARK SMILES IDX 7 13 6 14 5 15 4 16 3 17 2 18 1 19
REMARK H PARENT
REMARK Flexibility Score: inf
ROOT
ATOM      1  C   UNL     1      96.397  84.094  78.064  1.00  0.00     0.000 C 
ENDROOT
BRANCH   1   2
ATOM      2  C   UNL     1      95.611  83.165  79.004  1.00  0.00     0.000 C 
BRANCH   2   3
ATOM      3  C   UNL     1      96.412  81.912  79.399  1.00  0.00     0.000 C 
BRANCH   3   4
ATOM      4  C   UNL     1      97.873  81.962  78.916  1.00  0.00     0.000 C 
BRANCH   4   5
ATOM      5  C   UNL     1      98.930  82.061  80.036  1.00  0.00     0.001 C 
BRANCH   5   6
ATOM      6  C   UNL     1      98.412  82.607  81.383  1.00  0.00     0.009 C 
BRANCH   6   7
ATOM      7  C   UNL     1      99.483  83.334  82.227  1.00  0.00     0.032 C 
ATOM      8  C   UNL     1     100.786  83.474  81.433  1.00  0.00     0.014 C 
BRANCH   7   9
ATOM      9  C   UNL     1      99.751  82.608  83.517  1.00  0.00     0.044 C 
ATOM     10  O   UNL     1     100.364  83.187  84.453  1.00  0.00    -0.550 OA
ATOM     11  O   UNL     1      99.326  81.294  83.687  1.00  0.00    -0.550 OA
ENDBRANCH   7   9
ENDBRANCH   6   7
ENDBRANCH   5   6
ENDBRANCH   4   5
ENDBRANCH   3   4
ENDBRANCH   2   3
ENDBRANCH   1   2
BRANCH   1  12
ATOM     12  C   UNL     1      96.348  85.565  78.514  1.00  0.00     0.000 C 
BRANCH  12  13
ATOM     13  C   UNL     1      97.007  85.785  79.885  1.00  0.00    -0.000 C 
BRANCH  13  14
ATOM     14  C   UNL     1      98.541  85.877  79.799  1.00  0.00    -0.000 C 
BRANCH  14  15
ATOM     15  C   UNL     1      99.013  86.899  78.752  1.00  0.00    -0.000 C 
BRANCH  15  16
ATOM     16  C   UNL     1      98.782  88.350  79.199  1.00  0.00    -0.000 C 
BRANCH  16  17
ATOM     17  C   UNL     1      98.256  89.204  78.035  1.00  0.00    -0.000 C 
BRANCH  17  18
ATOM     18  C   UNL     1      98.120  88.405  76.730  1.00  0.00    -0.003 C 
ATOM     19  C   UNL     1      96.703  88.440  76.158  1.00  0.00     0.004 C 
ENDBRANCH  17  18
ENDBRANCH  16  17
ENDBRANCH  15  16
ENDBRANCH  14  15
ENDBRANCH  13  14
ENDBRANCH  12  13
ENDBRANCH   1  12
TORSDOF 14
ENDMDL
MODEL 9
REMARK VINA RESULT:    -3.341      2.831      5.506
REMARK INTER + INTRA:          -9.131
REMARK INTER:                  -6.613
REMARK INTRA:                  -2.519
REMARK UNBOUND:                -3.055
REMARK SMILES CCCCCCCCCCCCCC[C@H](C)C(=O)[O-]
REMARK SMILES IDX 9 1 10 2 11 3 12 4 13 5 14 6 15 7 16 8 17 9 18 10 19 11 8 12
REMARK SMILES IDX 7 13 6 14 5 15 4 16 3 17 2 18 1 19
REMARK H PARENT
REMARK Flexibility Score: inf
ROOT
ATOM      1  C   UNL     1     101.007  84.700  81.682  1.00  0.00     0.000 C 
ENDROOT
BRANCH   1   2
ATOM      2  C   UNL     1      99.890  84.070  80.835  1.00  0.00     0.000 C 
BRANCH   2   3
ATOM      3  C   UNL     1      99.785  82.549  81.036  1.00  0.00     0.000 C 
BRANCH   3   4
ATOM      4  C   UNL     1      98.563  81.937  80.327  1.00  0.00     0.000 C 
BRANCH   4   5
ATOM      5  C   UNL     1      97.434  82.933  79.988  1.00  0.00     0.001 C 
BRANCH   5   6
ATOM      6  C   UNL     1      97.094  83.057  78.488  1.00  0.00     0.009 C 
BRANCH   6   7
ATOM      7  C   UNL     1      96.413  84.388  78.099  1.00  0.00     0.032 C 
ATOM      8  C   UNL     1      96.539  85.406  79.237  1.00  0.00     0.014 C 
BRANCH   7   9
ATOM      9  C   UNL     1      94.961  84.183  77.760  1.00  0.00     0.044 C 
ATOM     10  O   UNL     1      94.187  83.649  78.597  1.00  0.00    -0.550 OA
ATOM     11  O   UNL     1      94.464  84.581  76.524  1.00  0.00    -0.550 OA
ENDBRANCH   7   9
ENDBRANCH   6   7
ENDBRANCH   5   6
ENDBRANCH   4   5
ENDBRANCH   3   4
ENDBRANCH   2   3
ENDBRANCH   1   2
BRANCH   1  12
ATOM     12  C   UNL     1     100.462  85.648  82.765  1.00  0.00     0.000 C 
BRANCH  12  13
ATOM     13  C   UNL     1     101.098  85.397  84.142  1.00  0.00    -0.000 C 
BRANCH  13  14
ATOM     14  C   UNL     1     100.177  84.604  85.086  1.00  0.00    -0.000 C 
BRANCH  14  15
ATOM     15  C   UNL     1     100.301  83.084  84.891  1.00  0.00    -0.000 C 
BRANCH  15  16
ATOM     16  C   UNL     1      98.966  82.426  84.511  1.00  0.00    -0.000 C 
BRANCH  16  17
ATOM     17  C   UNL     1      97.792  83.383  84.770  1.00  0.00    -0.000 C 
BRANCH  17  18
ATOM     18  C   UNL     1      96.907  83.582  83.530  1.00  0.00    -0.003 C 
ATOM     19  C   UNL     1      96.863  85.036  83.061  1.00  0.00     0.004 C 
ENDBRANCH  17  18
ENDBRANCH  16  17
ENDBRANCH  15  16
ENDBRANCH  14  15
ENDBRANCH  13  14
ENDBRANCH  12  13
ENDBRANCH   1  12
TORSDOF 14
ENDMDL
