MODEL 1
REMARK VINA RESULT:    -3.447      0.000      0.000
REMARK INTER + INTRA:          -5.918
REMARK INTER:                  -5.060
REMARK INTRA:                  -0.858
REMARK UNBOUND:                -0.858
REMARK SMILES O=C([O-])CCCCCCCC(=O)[O-]
REMARK SMILES IDX 7 1 6 2 5 3 4 4 2 5 1 6 3 7 8 8 9 9 10 10 11 11 12 12 13 13
REMARK H PARENT
REMARK Flexibility Score: inf
ROOT
ATOM      1  C   UNL     1      -4.310  -0.953  38.391  1.00  0.00     0.000 C 
ENDROOT
BRANCH   1   2
ATOM      2  C   UNL     1      -3.565  -0.174  37.290  1.00  0.00     0.000 C 
BRANCH   2   3
ATOM      3  C   UNL     1      -2.072  -0.525  37.143  1.00  0.00     0.006 C 
BRANCH   3   4
ATOM      4  C   UNL     1      -1.736  -1.349  35.890  1.00  0.00     0.053 C 
BRANCH   4   5
ATOM      5  C   UNL     1      -1.241  -2.720  36.238  1.00  0.00     0.041 C 
ATOM      6  O   UNL     1      -2.043  -3.688  36.287  1.00  0.00    -0.550 OA
ATOM      7  O   UNL     1       0.111  -2.932  36.474  1.00  0.00    -0.550 OA
ENDBRANCH   4   5
ENDBRANCH   3   4
ENDBRANCH   2   3
ENDBRANCH   1   2
BRANCH   1   8
ATOM      8  C   UNL     1      -4.765  -2.362  37.955  1.00  0.00     0.000 C 
BRANCH   8   9
ATOM      9  C   UNL     1      -5.749  -2.319  36.772  1.00  0.00     0.006 C 
BRANCH   9  10
ATOM     10  C   UNL     1      -5.383  -3.328  35.676  1.00  0.00     0.053 C 
BRANCH  10  11
ATOM     11  C   UNL     1      -4.891  -2.646  34.437  1.00  0.00     0.041 C 
ATOM     12  O   UNL     1      -5.271  -1.477  34.163  1.00  0.00    -0.550 OA
ATOM     13  O   UNL     1      -4.038  -3.313  33.567  1.00  0.00    -0.550 OA
ENDBRANCH  10  11
ENDBRANCH   9  10
ENDBRANCH   8   9
ENDBRANCH   1   8
TORSDOF 8
ENDMDL
MODEL 2
REMARK VINA RESULT:    -3.428      1.945      3.251
REMARK INTER + INTRA:          -5.890
REMARK INTER:                  -5.103
REMARK INTRA:                  -0.787
REMARK UNBOUND:                -0.858
REMARK SMILES O=C([O-])CCCCCCCC(=O)[O-]
REMARK SMILES IDX 7 1 6 2 5 3 4 4 2 5 1 6 3 7 8 8 9 9 10 10 11 11 12 12 13 13
REMARK H PARENT
REMARK Flexibility Score: inf
ROOT
ATOM      1  C   UNL     1      -4.963  -2.533  34.476  1.00  0.00     0.000 C 
ENDROOT
BRANCH   1   2
ATOM      2  C   UNL     1      -3.550  -2.916  33.995  1.00  0.00     0.000 C 
BRANCH   2   3
ATOM      3  C   UNL     1      -2.402  -2.133  34.660  1.00  0.00     0.006 C 
BRANCH   3   4
ATOM      4  C   UNL     1      -1.797  -2.824  35.893  1.00  0.00     0.053 C 
BRANCH   4   5
ATOM      5  C   UNL     1      -0.537  -2.153  36.349  1.00  0.00     0.041 C 
ATOM      6  O   UNL     1       0.572  -2.734  36.220  1.00  0.00    -0.550 OA
ATOM      7  O   UNL     1      -0.586  -0.872  36.884  1.00  0.00    -0.550 OA
ENDBRANCH   4   5
ENDBRANCH   3   4
ENDBRANCH   2   3
ENDBRANCH   1   2
BRANCH   1   8
ATOM      8  C   UNL     1      -5.399  -3.262  35.764  1.00  0.00     0.000 C 
BRANCH   8   9
ATOM      9  C   UNL     1      -5.899  -2.289  36.846  1.00  0.00     0.006 C 
BRANCH   9  10
ATOM     10  C   UNL     1      -4.899  -2.139  37.999  1.00  0.00     0.053 C 
BRANCH  10  11
ATOM     11  C   UNL     1      -4.132  -0.856  37.904  1.00  0.00     0.041 C 
ATOM     12  O   UNL     1      -4.284  -0.099  36.909  1.00  0.00    -0.550 OA
ATOM     13  O   UNL     1      -3.226  -0.511  38.899  1.00  0.00    -0.550 OA
ENDBRANCH  10  11
ENDBRANCH   9  10
ENDBRANCH   8   9
ENDBRANCH   1   8
TORSDOF 8
ENDMDL
MODEL 3
REMARK VINA RESULT:    -3.305      0.873      4.298
REMARK INTER + INTRA:          -5.709
REMARK INTER:                  -4.978
REMARK INTRA:                  -0.731
REMARK UNBOUND:                -0.858
REMARK SMILES O=C([O-])CCCCCCCC(=O)[O-]
REMARK SMILES IDX 7 1 6 2 5 3 4 4 2 5 1 6 3 7 8 8 9 9 10 10 11 11 12 12 13 13
REMARK H PARENT
REMARK Flexibility Score: inf
ROOT
ATOM      1  C   UNL     1      -4.749  -0.579  37.568  1.00  0.00     0.000 C 
ENDROOT
BRANCH   1   2
ATOM      2  C   UNL     1      -4.969  -2.100  37.677  1.00  0.00     0.000 C 
BRANCH   2   3
ATOM      3  C   UNL     1      -5.762  -2.727  36.514  1.00  0.00     0.006 C 
BRANCH   3   4
ATOM      4  C   UNL     1      -4.913  -3.582  35.559  1.00  0.00     0.053 C 
BRANCH   4   5
ATOM      5  C   UNL     1      -4.629  -2.869  34.272  1.00  0.00     0.041 C 
ATOM      6  O   UNL     1      -3.969  -3.439  33.365  1.00  0.00    -0.550 OA
ATOM      7  O   UNL     1      -5.122  -1.587  34.063  1.00  0.00    -0.550 OA
ENDBRANCH   4   5
ENDBRANCH   3   4
ENDBRANCH   2   3
ENDBRANCH   1   2
BRANCH   1   8
ATOM      8  C   UNL     1      -3.374  -0.192  36.983  1.00  0.00     0.000 C 
BRANCH   8   9
ATOM      9  C   UNL     1      -2.340  -1.323  37.121  1.00  0.00     0.006 C 
BRANCH   9  10
ATOM     10  C   UNL     1      -1.418  -1.418  35.899  1.00  0.00     0.053 C 
BRANCH  10  11
ATOM     11  C   UNL     1      -0.055  -1.917  36.270  1.00  0.00     0.041 C 
ATOM     12  O   UNL     1       0.931  -1.133  36.264  1.00  0.00    -0.550 OA
ATOM     13  O   UNL     1       0.132  -3.255  36.593  1.00  0.00    -0.550 OA
ENDBRANCH  10  11
ENDBRANCH   9  10
ENDBRANCH   8   9
ENDBRANCH   1   8
TORSDOF 8
ENDMDL
MODEL 4
REMARK VINA RESULT:    -3.257      1.392      2.049
REMARK INTER + INTRA:          -5.639
REMARK INTER:                  -4.960
REMARK INTRA:                  -0.678
REMARK UNBOUND:                -0.858
REMARK SMILES O=C([O-])CCCCCCCC(=O)[O-]
REMARK SMILES IDX 7 1 6 2 5 3 4 4 2 5 1 6 3 7 8 8 9 9 10 10 11 11 12 12 13 13
REMARK H PARENT
REMARK Flexibility Score: inf
ROOT
ATOM      1  C   UNL     1      -2.664  -0.970  37.431  1.00  0.00     0.000 C 
ENDROOT
BRANCH   1   2
ATOM      2  C   UNL     1      -1.998  -0.536  36.111  1.00  0.00     0.000 C 
BRANCH   2   3
ATOM      3  C   UNL     1      -1.362  -1.680  35.298  1.00  0.00     0.006 C 
BRANCH   3   4
ATOM      4  C   UNL     1      -0.443  -2.602  36.115  1.00  0.00     0.053 C 
BRANCH   4   5
ATOM      5  C   UNL     1       1.005  -2.289  35.891  1.00  0.00     0.041 C 
ATOM      6  O   UNL     1       1.748  -3.114  35.299  1.00  0.00    -0.550 OA
ATOM      7  O   UNL     1       1.525  -1.070  36.307  1.00  0.00    -0.550 OA
ENDBRANCH   4   5
ENDBRANCH   3   4
ENDBRANCH   2   3
ENDBRANCH   1   2
BRANCH   1   8
ATOM      8  C   UNL     1      -4.207  -0.943  37.386  1.00  0.00     0.000 C 
BRANCH   8   9
ATOM      9  C   UNL     1      -4.823  -2.332  37.627  1.00  0.00     0.006 C 
BRANCH   9  10
ATOM     10  C   UNL     1      -5.631  -2.826  36.420  1.00  0.00     0.053 C 
BRANCH  10  11
ATOM     11  C   UNL     1      -4.743  -3.196  35.272  1.00  0.00     0.041 C 
ATOM     12  O   UNL     1      -4.886  -2.636  34.153  1.00  0.00    -0.550 OA
ATOM     13  O   UNL     1      -3.777  -4.182  35.429  1.00  0.00    -0.550 OA
ENDBRANCH  10  11
ENDBRANCH   9  10
ENDBRANCH   8   9
ENDBRANCH   1   8
TORSDOF 8
ENDMDL
MODEL 5
REMARK VINA RESULT:    -3.256      2.409      4.603
REMARK INTER + INTRA:          -5.636
REMARK INTER:                  -4.987
REMARK INTRA:                  -0.649
REMARK UNBOUND:                -0.858
REMARK SMILES O=C([O-])CCCCCCCC(=O)[O-]
REMARK SMILES IDX 7 1 6 2 5 3 4 4 2 5 1 6 3 7 8 8 9 9 10 10 11 11 12 12 13 13
REMARK H PARENT
REMARK Flexibility Score: inf
ROOT
ATOM      1  C   UNL     1      -6.201  -1.117  36.799  1.00  0.00     0.000 C 
ENDROOT
BRANCH   1   2
ATOM      2  C   UNL     1      -5.248   0.035  36.427  1.00  0.00     0.000 C 
BRANCH   2   3
ATOM      3  C   UNL     1      -5.201   0.381  34.926  1.00  0.00     0.006 C 
BRANCH   3   4
ATOM      4  C   UNL     1      -6.374  -0.186  34.110  1.00  0.00     0.053 C 
BRANCH   4   5
ATOM      5  C   UNL     1      -6.776   0.732  32.996  1.00  0.00     0.041 C 
ATOM      6  O   UNL     1      -5.939   1.065  32.117  1.00  0.00    -0.550 OA
ATOM      7  O   UNL     1      -8.084   1.191  32.911  1.00  0.00    -0.550 OA
ENDBRANCH   4   5
ENDBRANCH   3   4
ENDBRANCH   2   3
ENDBRANCH   1   2
BRANCH   1   8
ATOM      8  C   UNL     1      -5.479  -2.448  37.098  1.00  0.00     0.000 C 
BRANCH   8   9
ATOM      9  C   UNL     1      -5.389  -3.355  35.858  1.00  0.00     0.006 C 
BRANCH   9  10
ATOM     10  C   UNL     1      -3.938  -3.671  35.475  1.00  0.00     0.053 C 
BRANCH  10  11
ATOM     11  C   UNL     1      -3.580  -3.096  34.139  1.00  0.00     0.041 C 
ATOM     12  O   UNL     1      -3.933  -3.681  33.081  1.00  0.00    -0.550 OA
ATOM     13  O   UNL     1      -2.829  -1.929  34.062  1.00  0.00    -0.550 OA
ENDBRANCH  10  11
ENDBRANCH   9  10
ENDBRANCH   8   9
ENDBRANCH   1   8
TORSDOF 8
ENDMDL
MODEL 6
REMARK VINA RESULT:    -3.225      2.048      4.381
REMARK INTER + INTRA:          -5.592
REMARK INTER:                  -4.898
REMARK INTRA:                  -0.693
REMARK UNBOUND:                -0.858
REMARK SMILES O=C([O-])CCCCCCCC(=O)[O-]
REMARK SMILES IDX 7 1 6 2 5 3 4 4 2 5 1 6 3 7 8 8 9 9 10 10 11 11 12 12 13 13
REMARK H PARENT
REMARK Flexibility Score: inf
ROOT
ATOM      1  C   UNL     1      -5.032  -2.585  34.644  1.00  0.00     0.000 C 
ENDROOT
BRANCH   1   2
ATOM      2  C   UNL     1      -5.327  -3.065  36.078  1.00  0.00     0.000 C 
BRANCH   2   3
ATOM      3  C   UNL     1      -6.120  -2.069  36.946  1.00  0.00     0.006 C 
BRANCH   3   4
ATOM      4  C   UNL     1      -5.345  -1.532  38.160  1.00  0.00     0.053 C 
BRANCH   4   5
ATOM      5  C   UNL     1      -4.245  -0.599  37.754  1.00  0.00     0.041 C 
ATOM      6  O   UNL     1      -4.447   0.269  36.866  1.00  0.00    -0.550 OA
ATOM      7  O   UNL     1      -3.008  -0.667  38.383  1.00  0.00    -0.550 OA
ENDBRANCH   4   5
ENDBRANCH   3   4
ENDBRANCH   2   3
ENDBRANCH   1   2
BRANCH   1   8
ATOM      8  C   UNL     1      -3.615  -2.945  34.148  1.00  0.00     0.000 C 
BRANCH   8   9
ATOM      9  C   UNL     1      -2.528  -2.075  34.803  1.00  0.00     0.006 C 
BRANCH   9  10
ATOM     10  C   UNL     1      -1.741  -2.840  35.875  1.00  0.00     0.053 C 
BRANCH  10  11
ATOM     11  C   UNL     1      -0.408  -2.210  36.138  1.00  0.00     0.041 C 
ATOM     12  O   UNL     1      -0.325  -0.976  36.377  1.00  0.00    -0.550 OA
ATOM     13  O   UNL     1       0.748  -2.980  36.089  1.00  0.00    -0.550 OA
ENDBRANCH  10  11
ENDBRANCH   9  10
ENDBRANCH   8   9
ENDBRANCH   1   8
TORSDOF 8
ENDMDL
MODEL 7
REMARK VINA RESULT:    -3.224      1.392      4.632
REMARK INTER + INTRA:          -5.589
REMARK INTER:                  -4.970
REMARK INTRA:                  -0.620
REMARK UNBOUND:                -0.858
REMARK SMILES O=C([O-])CCCCCCCC(=O)[O-]
REMARK SMILES IDX 7 1 6 2 5 3 4 4 2 5 1 6 3 7 8 8 9 9 10 10 11 11 12 12 13 13
REMARK H PARENT
REMARK Flexibility Score: inf
ROOT
ATOM      1  C   UNL     1      -2.625  -0.901  37.481  1.00  0.00     0.000 C 
ENDROOT
BRANCH   1   2
ATOM      2  C   UNL     1      -4.161  -0.929  37.364  1.00  0.00     0.000 C 
BRANCH   2   3
ATOM      3  C   UNL     1      -4.811  -2.292  37.671  1.00  0.00     0.006 C 
BRANCH   3   4
ATOM      4  C   UNL     1      -5.674  -2.853  36.529  1.00  0.00     0.053 C 
BRANCH   4   5
ATOM      5  C   UNL     1      -4.851  -3.201  35.326  1.00  0.00     0.041 C 
ATOM      6  O   UNL     1      -5.019  -2.583  34.243  1.00  0.00    -0.550 OA
ATOM      7  O   UNL     1      -3.875  -4.186  35.412  1.00  0.00    -0.550 OA
ENDBRANCH   4   5
ENDBRANCH   3   4
ENDBRANCH   2   3
ENDBRANCH   1   2
BRANCH   1   8
ATOM      8  C   UNL     1      -1.906  -0.616  36.145  1.00  0.00     0.000 C 
BRANCH   8   9
ATOM      9  C   UNL     1      -1.356  -1.896  35.493  1.00  0.00     0.006 C 
BRANCH   9  10
ATOM     10  C   UNL     1      -0.341  -2.615  36.390  1.00  0.00     0.053 C 
BRANCH  10  11
ATOM     11  C   UNL     1       1.069  -2.321  35.977  1.00  0.00     0.041 C 
ATOM     12  O   UNL     1       1.745  -3.189  35.365  1.00  0.00    -0.550 OA
ATOM     13  O   UNL     1       1.647  -1.098  36.296  1.00  0.00    -0.550 OA
ENDBRANCH  10  11
ENDBRANCH   9  10
ENDBRANCH   8   9
ENDBRANCH   1   8
TORSDOF 8
ENDMDL
MODEL 8
REMARK VINA RESULT:    -3.216      1.448      2.032
REMARK INTER + INTRA:          -5.578
REMARK INTER:                  -4.789
REMARK INTRA:                  -0.789
REMARK UNBOUND:                -0.858
REMARK SMILES O=C([O-])CCCCCCCC(=O)[O-]
REMARK SMILES IDX 7 1 6 2 5 3 4 4 2 5 1 6 3 7 8 8 9 9 10 10 11 11 12 12 13 13
REMARK H PARENT
REMARK Flexibility Score: inf
ROOT
ATOM      1  C   UNL     1      -5.131  -1.396  38.519  1.00  0.00     0.000 C 
ENDROOT
BRANCH   1   2
ATOM      2  C   UNL     1      -3.943  -0.424  38.383  1.00  0.00     0.000 C 
BRANCH   2   3
ATOM      3  C   UNL     1      -2.790  -0.929  37.494  1.00  0.00     0.006 C 
BRANCH   3   4
ATOM      4  C   UNL     1      -2.445  -0.001  36.318  1.00  0.00     0.053 C 
BRANCH   4   5
ATOM      5  C   UNL     1      -1.971  -0.768  35.121  1.00  0.00     0.041 C 
ATOM      6  O   UNL     1      -1.128  -1.692  35.254  1.00  0.00    -0.550 OA
ATOM      7  O   UNL     1      -2.488  -0.484  33.864  1.00  0.00    -0.550 OA
ENDBRANCH   4   5
ENDBRANCH   3   4
ENDBRANCH   2   3
ENDBRANCH   1   2
BRANCH   1   8
ATOM      8  C   UNL     1      -5.983  -1.520  37.238  1.00  0.00     0.000 C 
BRANCH   8   9
ATOM      9  C   UNL     1      -5.734  -2.845  36.496  1.00  0.00     0.006 C 
BRANCH   9  10
ATOM     10  C   UNL     1      -5.354  -2.624  35.027  1.00  0.00     0.053 C 
BRANCH  10  11
ATOM     11  C   UNL     1      -4.201  -3.489  34.617  1.00  0.00     0.041 C 
ATOM     12  O   UNL     1      -3.512  -4.082  35.488  1.00  0.00    -0.550 OA
ATOM     13  O   UNL     1      -3.868  -3.615  33.274  1.00  0.00    -0.550 OA
ENDBRANCH  10  11
ENDBRANCH   9  10
ENDBRANCH   8   9
ENDBRANCH   1   8
TORSDOF 8
ENDMDL
MODEL 9
REMARK VINA RESULT:    -3.194      1.844      2.868
REMARK INTER + INTRA:          -5.546
REMARK INTER:                  -4.742
REMARK INTRA:                  -0.804
REMARK UNBOUND:                -0.858
REMARK SMILES O=C([O-])CCCCCCCC(=O)[O-]
REMARK SMILES IDX 7 1 6 2 5 3 4 4 2 5 1 6 3 7 8 8 9 9 10 10 11 11 12 12 13 13
REMARK H PARENT
REMARK Flexibility Score: inf
ROOT
ATOM      1  C   UNL     1      -5.357  -3.423  35.931  1.00  0.00     0.000 C 
ENDROOT
BRANCH   1   2
ATOM      2  C   UNL     1      -3.959  -3.763  35.381  1.00  0.00     0.000 C 
BRANCH   2   3
ATOM      3  C   UNL     1      -3.497  -2.891  34.198  1.00  0.00     0.006 C 
BRANCH   3   4
ATOM      4  C   UNL     1      -2.678  -1.655  34.605  1.00  0.00     0.053 C 
BRANCH   4   5
ATOM      5  C   UNL     1      -1.721  -1.959  35.717  1.00  0.00     0.041 C 
ATOM      6  O   UNL     1      -0.699  -2.661  35.499  1.00  0.00    -0.550 OA
ATOM      7  O   UNL     1      -1.941  -1.438  36.986  1.00  0.00    -0.550 OA
ENDBRANCH   4   5
ENDBRANCH   3   4
ENDBRANCH   2   3
ENDBRANCH   1   2
BRANCH   1   8
ATOM      8  C   UNL     1      -5.331  -2.485  37.156  1.00  0.00     0.000 C 
BRANCH   8   9
ATOM      9  C   UNL     1      -6.337  -1.328  37.029  1.00  0.00     0.006 C 
BRANCH   9  10
ATOM     10  C   UNL     1      -5.767  -0.149  36.231  1.00  0.00     0.053 C 
BRANCH  10  11
ATOM     11  C   UNL     1      -6.538   0.092  34.970  1.00  0.00     0.041 C 
ATOM     12  O   UNL     1      -7.425   0.986  34.930  1.00  0.00    -0.550 OA
ATOM     13  O   UNL     1      -6.300  -0.691  33.848  1.00  0.00    -0.550 OA
ENDBRANCH  10  11
ENDBRANCH   9  10
ENDBRANCH   8   9
ENDBRANCH   1   8
TORSDOF 8
ENDMDL
