MODEL 1
REMARK VINA RESULT:    -7.940      0.000      0.000
REMARK INTER + INTRA:         -16.140
REMARK INTER:                 -13.046
REMARK INTRA:                  -3.094
REMARK UNBOUND:                -3.094
REMARK SMILES C[C@@H]1O[C@H](OC[C@H]2O[C@H](Oc3c(-c4ccc(O)c(O)c4)oc4cc(O)cc(O)c4c3=O)[C@H](O)[C@@H](O)[C@H]2O)[C@H](O)[C@H](O)[C@H]1O
REMARK SMILES IDX 7 1 36 2 34 3 32 4 9 5 8 6 6 7 5 8 4 9 1 10 2 11 42 12 3 13
REMARK SMILES IDX 40 14 38 15 43 16 41 18 39 20 37 22 35 24 10 26 11 27 12 28
REMARK SMILES IDX 30 29 21 30 29 31 31 32 22 33 27 34 23 35 26 36 24 37 13 38
REMARK SMILES IDX 20 39 14 40 18 41 15 42 16 43 19 44 17 46 28 48 25 50 33 52
REMARK H PARENT 43 17 41 19 39 21 37 23 35 25 19 45 17 47 28 49 25 51 33 53
REMARK Flexibility Score: inf
ROOT
ATOM      1  C   UNL     1     121.072 116.788 117.063  1.00  0.00     0.180 C 
ATOM      2  C   UNL     1     120.000 117.857 116.692  1.00  0.00     0.177 C 
ATOM      3  C   UNL     1     119.888 117.898 115.159  1.00  0.00     0.180 C 
ATOM      4  C   UNL     1     119.609 116.482 114.613  1.00  0.00     0.214 C 
ATOM      5  C   UNL     1     120.621 115.460 115.178  1.00  0.00     0.339 C 
ATOM      6  O   UNL     1     120.666 115.509 116.599  1.00  0.00    -0.332 OA
ENDROOT
BRANCH   1   7
ATOM      7  C   UNL     1     121.378 116.679 118.563  1.00  0.00     0.198 C 
BRANCH   7   8
ATOM      8  O   UNL     1     120.499 115.763 119.210  1.00  0.00    -0.347 OA
BRANCH   8   9
ATOM      9  C   UNL     1     120.538 115.800 120.636  1.00  0.00     0.281 C 
ATOM     10  C   UNL     1     123.074 117.693 122.591  1.00  0.00     0.041 C 
ATOM     11  C   UNL     1     121.714 117.038 122.350  1.00  0.00     0.150 C 
ATOM     12  C   UNL     1     120.586 118.093 122.330  1.00  0.00     0.174 C 
ATOM     13  O   UNL     1     121.770 116.359 121.112  1.00  0.00    -0.344 OA
ATOM     14  C   UNL     1     119.266 117.339 122.381  1.00  0.00     0.179 C 
ATOM     15  C   UNL     1     119.169 116.382 121.175  1.00  0.00     0.202 C 
BRANCH  12  16
ATOM     16  O   UNL     1     120.675 118.999 123.401  1.00  0.00    -0.388 OA
ATOM     17  H   UNL     1     119.995 118.743 124.079  1.00  0.00     0.211 HD
ENDBRANCH  12  16
BRANCH  14  18
ATOM     18  O   UNL     1     118.162 118.216 122.446  1.00  0.00    -0.387 OA
ATOM     19  H   UNL     1     118.395 119.055 121.962  1.00  0.00     0.211 HD
ENDBRANCH  14  18
BRANCH  15  20
ATOM     20  O   UNL     1     118.452 116.981 120.121  1.00  0.00    -0.385 OA
ATOM     21  H   UNL     1     117.848 117.660 120.527  1.00  0.00     0.211 HD
ENDBRANCH  15  20
ENDBRANCH   8   9
ENDBRANCH   7   8
ENDBRANCH   1   7
BRANCH   2  22
ATOM     22  O   UNL     1     118.739 117.563 117.244  1.00  0.00    -0.387 OA
ATOM     23  H   UNL     1     118.059 117.866 116.588  1.00  0.00     0.211 HD
ENDBRANCH   2  22
BRANCH   3  24
ATOM     24  O   UNL     1     118.853 118.769 114.778  1.00  0.00    -0.387 OA
ATOM     25  H   UNL     1     118.836 119.507 115.436  1.00  0.00     0.211 HD
ENDBRANCH   3  24
BRANCH   5  26
ATOM     26  O   UNL     1     121.933 115.673 114.642  1.00  0.00    -0.454 OA
BRANCH  26  27
ATOM     27  C   UNL     1     122.676 114.677 113.993  1.00  0.00     0.214 A 
ATOM     28  C   UNL     1     123.665 113.980 114.709  1.00  0.00     0.180 A 
ATOM     29  C   UNL     1     122.443 114.337 112.652  1.00  0.00     0.239 A 
ATOM     30  O   UNL     1     124.409 113.066 114.099  1.00  0.00    -0.452 OA
ATOM     31  C   UNL     1     123.234 113.337 112.040  1.00  0.00     0.111 A 
ATOM     32  O   UNL     1     121.512 114.904 112.019  1.00  0.00    -0.285 OA
ATOM     33  C   UNL     1     124.240 112.725 112.830  1.00  0.00     0.146 A 
ATOM     34  C   UNL     1     123.045 112.911 110.707  1.00  0.00     0.134 A 
ATOM     35  C   UNL     1     125.047 111.729 112.278  1.00  0.00     0.094 A 
ATOM     36  C   UNL     1     123.859 111.893 110.181  1.00  0.00     0.093 A 
ATOM     37  C   UNL     1     124.858 111.309 110.962  1.00  0.00     0.123 A 
BRANCH  28  38
ATOM     38  C   UNL     1     123.875 114.248 116.137  1.00  0.00     0.025 A 
ATOM     39  C   UNL     1     123.134 113.546 117.096  1.00  0.00     0.062 A 
ATOM     40  C   UNL     1     124.828 115.189 116.554  1.00  0.00     0.016 A 
ATOM     41  C   UNL     1     123.326 113.775 118.458  1.00  0.00     0.158 A 
ATOM     42  C   UNL     1     124.995 115.455 117.916  1.00  0.00     0.051 A 
ATOM     43  C   UNL     1     124.250 114.750 118.876  1.00  0.00     0.157 A 
BRANCH  41  44
ATOM     44  O   UNL     1     122.588 113.032 119.375  1.00  0.00    -0.504 OA
ATOM     45  H   UNL     1     122.315 112.070 119.207  1.00  0.00     0.293 HD
ENDBRANCH  41  44
BRANCH  43  46
ATOM     46  O   UNL     1     124.426 115.006 120.235  1.00  0.00    -0.504 OA
ATOM     47  H   UNL     1     123.655 114.968 120.882  1.00  0.00     0.293 HD
ENDBRANCH  43  46
ENDBRANCH  28  38
BRANCH  34  48
ATOM     48  O   UNL     1     122.063 113.484 109.900  1.00  0.00    -0.507 OA
ATOM     49  H   UNL     1     122.187 113.582 108.900  1.00  0.00     0.293 HD
ENDBRANCH  34  48
BRANCH  37  50
ATOM     50  O   UNL     1     125.654 110.300 110.419  1.00  0.00    -0.508 OA
ATOM     51  H   UNL     1     126.650 110.251 110.602  1.00  0.00     0.293 HD
ENDBRANCH  37  50
ENDBRANCH  26  27
ENDBRANCH   5  26
BRANCH   4  52
ATOM     52  O   UNL     1     119.674 116.474 113.210  1.00  0.00    -0.384 OA
ATOM     53  H   UNL     1     120.182 115.662 112.956  1.00  0.00     0.211 HD
ENDBRANCH   4  52
TORSDOF 16
ENDMDL
MODEL 2
REMARK VINA RESULT:    -7.774      0.914      1.607
REMARK INTER + INTRA:         -15.867
REMARK INTER:                 -13.396
REMARK INTRA:                  -2.472
REMARK UNBOUND:                -3.094
REMARK SMILES C[C@@H]1O[C@H](OC[C@H]2O[C@H](Oc3c(-c4ccc(O)c(O)c4)oc4cc(O)cc(O)c4c3=O)[C@H](O)[C@@H](O)[C@H]2O)[C@H](O)[C@H](O)[C@H]1O
REMARK SMILES IDX 7 1 36 2 34 3 32 4 9 5 8 6 6 7 5 8 4 9 1 10 2 11 42 12 3 13
REMARK SMILES IDX 40 14 38 15 43 16 41 18 39 20 37 22 35 24 10 26 11 27 12 28
REMARK SMILES IDX 30 29 21 30 29 31 31 32 22 33 27 34 23 35 26 36 24 37 13 38
REMARK SMILES IDX 20 39 14 40 18 41 15 42 16 43 19 44 17 46 28 48 25 50 33 52
REMARK H PARENT 43 17 41 19 39 21 37 23 35 25 19 45 17 47 28 49 25 51 33 53
REMARK Flexibility Score: inf
ROOT
ATOM      1  C   UNL     1     121.142 117.143 116.968  1.00  0.00     0.180 C 
ATOM      2  C   UNL     1     119.814 117.883 116.626  1.00  0.00     0.177 C 
ATOM      3  C   UNL     1     119.434 117.525 115.180  1.00  0.00     0.180 C 
ATOM      4  C   UNL     1     119.385 115.991 115.012  1.00  0.00     0.214 C 
ATOM      5  C   UNL     1     120.679 115.334 115.542  1.00  0.00     0.339 C 
ATOM      6  O   UNL     1     120.955 115.738 116.877  1.00  0.00    -0.332 OA
ENDROOT
BRANCH   1   7
ATOM      7  C   UNL     1     121.716 117.462 118.355  1.00  0.00     0.198 C 
BRANCH   7   8
ATOM      8  O   UNL     1     120.813 117.089 119.392  1.00  0.00    -0.347 OA
BRANCH   8   9
ATOM      9  C   UNL     1     120.851 117.925 120.549  1.00  0.00     0.281 C 
ATOM     10  C   UNL     1     117.833 118.930 122.477  1.00  0.00     0.041 C 
ATOM     11  C   UNL     1     119.319 118.625 122.285  1.00  0.00     0.150 C 
ATOM     12  C   UNL     1     119.747 117.403 123.126  1.00  0.00     0.174 C 
ATOM     13  O   UNL     1     119.539 118.376 120.912  1.00  0.00    -0.344 OA
ATOM     14  C   UNL     1     121.268 117.354 123.104  1.00  0.00     0.179 C 
ATOM     15  C   UNL     1     121.763 117.244 121.648  1.00  0.00     0.202 C 
BRANCH  12  16
ATOM     16  O   UNL     1     119.277 117.464 124.449  1.00  0.00    -0.388 OA
ATOM     17  H   UNL     1     118.939 118.384 124.614  1.00  0.00     0.211 HD
ENDBRANCH  12  16
BRANCH  14  18
ATOM     18  O   UNL     1     121.772 116.313 123.911  1.00  0.00    -0.387 OA
ATOM     19  H   UNL     1     121.963 115.526 123.331  1.00  0.00     0.211 HD
ENDBRANCH  14  18
BRANCH  15  20
ATOM     20  O   UNL     1     122.006 115.899 121.307  1.00  0.00    -0.385 OA
ATOM     21  H   UNL     1     122.962 115.833 121.041  1.00  0.00     0.211 HD
ENDBRANCH  15  20
ENDBRANCH   8   9
ENDBRANCH   7   8
ENDBRANCH   1   7
BRANCH   2  22
ATOM     22  O   UNL     1     118.761 117.518 117.487  1.00  0.00    -0.387 OA
ATOM     23  H   UNL     1     118.104 118.260 117.470  1.00  0.00     0.211 HD
ENDBRANCH   2  22
BRANCH   3  24
ATOM     24  O   UNL     1     118.183 118.080 114.861  1.00  0.00    -0.387 OA
ATOM     25  H   UNL     1     117.572 117.871 115.610  1.00  0.00     0.211 HD
ENDBRANCH   3  24
BRANCH   5  26
ATOM     26  O   UNL     1     121.800 115.634 114.701  1.00  0.00    -0.454 OA
BRANCH  26  27
ATOM     27  C   UNL     1     122.549 114.658 114.029  1.00  0.00     0.214 A 
ATOM     28  C   UNL     1     123.591 114.003 114.707  1.00  0.00     0.180 A 
ATOM     29  C   UNL     1     122.270 114.298 112.702  1.00  0.00     0.239 A 
ATOM     30  O   UNL     1     124.339 113.108 114.073  1.00  0.00    -0.452 OA
ATOM     31  C   UNL     1     123.068 113.319 112.064  1.00  0.00     0.111 A 
ATOM     32  O   UNL     1     121.294 114.827 112.105  1.00  0.00    -0.285 OA
ATOM     33  C   UNL     1     124.128 112.750 112.816  1.00  0.00     0.146 A 
ATOM     34  C   UNL     1     122.836 112.875 110.745  1.00  0.00     0.134 A 
ATOM     35  C   UNL     1     124.944 111.777 112.237  1.00  0.00     0.094 A 
ATOM     36  C   UNL     1     123.661 111.880 110.192  1.00  0.00     0.093 A 
ATOM     37  C   UNL     1     124.713 111.338 110.934  1.00  0.00     0.123 A 
BRANCH  28  38
ATOM     38  C   UNL     1     123.852 114.291 116.123  1.00  0.00     0.025 A 
ATOM     39  C   UNL     1     123.176 113.575 117.118  1.00  0.00     0.062 A 
ATOM     40  C   UNL     1     124.791 115.266 116.490  1.00  0.00     0.016 A 
ATOM     41  C   UNL     1     123.418 113.824 118.469  1.00  0.00     0.158 A 
ATOM     42  C   UNL     1     125.008 115.551 117.842  1.00  0.00     0.051 A 
ATOM     43  C   UNL     1     124.328 114.832 118.838  1.00  0.00     0.157 A 
BRANCH  41  44
ATOM     44  O   UNL     1     122.744 113.067 119.423  1.00  0.00    -0.504 OA
ATOM     45  H   UNL     1     122.053 113.464 120.050  1.00  0.00     0.293 HD
ENDBRANCH  41  44
BRANCH  43  46
ATOM     46  O   UNL     1     124.553 115.107 120.186  1.00  0.00    -0.504 OA
ATOM     47  H   UNL     1     124.998 115.961 120.482  1.00  0.00     0.293 HD
ENDBRANCH  43  46
ENDBRANCH  28  38
BRANCH  34  48
ATOM     48  O   UNL     1     121.801 113.406 109.976  1.00  0.00    -0.507 OA
ATOM     49  H   UNL     1     120.830 113.205 110.180  1.00  0.00     0.293 HD
ENDBRANCH  34  48
BRANCH  37  50
ATOM     50  O   UNL     1     125.519 110.351 110.365  1.00  0.00    -0.508 OA
ATOM     51  H   UNL     1     125.290 109.925 109.474  1.00  0.00     0.293 HD
ENDBRANCH  37  50
ENDBRANCH  26  27
ENDBRANCH   5  26
BRANCH   4  52
ATOM     52  O   UNL     1     119.209 115.650 113.661  1.00  0.00    -0.384 OA
ATOM     53  H   UNL     1     119.628 116.374 113.130  1.00  0.00     0.211 HD
ENDBRANCH   4  52
TORSDOF 16
ENDMDL
MODEL 3
REMARK VINA RESULT:    -7.249      1.689      8.941
REMARK INTER + INTRA:         -15.005
REMARK INTER:                 -12.108
REMARK INTRA:                  -2.897
REMARK UNBOUND:                -3.094
REMARK SMILES C[C@@H]1O[C@H](OC[C@H]2O[C@H](Oc3c(-c4ccc(O)c(O)c4)oc4cc(O)cc(O)c4c3=O)[C@H](O)[C@@H](O)[C@H]2O)[C@H](O)[C@H](O)[C@H]1O
REMARK SMILES IDX 7 1 36 2 34 3 32 4 9 5 8 6 6 7 5 8 4 9 1 10 2 11 42 12 3 13
REMARK SMILES IDX 40 14 38 15 43 16 41 18 39 20 37 22 35 24 10 26 11 27 12 28
REMARK SMILES IDX 30 29 21 30 29 31 31 32 22 33 27 34 23 35 26 36 24 37 13 38
REMARK SMILES IDX 20 39 14 40 18 41 15 42 16 43 19 44 17 46 28 48 25 50 33 52
REMARK H PARENT 43 17 41 19 39 21 37 23 35 25 19 45 17 47 28 49 25 51 33 53
REMARK Flexibility Score: inf
ROOT
ATOM      1  C   UNL     1     121.998 114.930 116.316  1.00  0.00     0.180 C 
ATOM      2  C   UNL     1     121.035 114.890 115.091  1.00  0.00     0.177 C 
ATOM      3  C   UNL     1     119.721 115.574 115.502  1.00  0.00     0.180 C 
ATOM      4  C   UNL     1     120.013 116.987 116.053  1.00  0.00     0.214 C 
ATOM      5  C   UNL     1     121.109 116.942 117.141  1.00  0.00     0.339 C 
ATOM      6  O   UNL     1     122.275 116.276 116.674  1.00  0.00    -0.332 OA
ENDROOT
BRANCH   1   7
ATOM      7  C   UNL     1     123.334 114.204 116.107  1.00  0.00     0.198 C 
BRANCH   7   8
ATOM      8  O   UNL     1     124.229 114.978 115.314  1.00  0.00    -0.347 OA
BRANCH   8   9
ATOM      9  C   UNL     1     124.748 114.305 114.166  1.00  0.00     0.281 C 
ATOM     10  C   UNL     1     123.025 111.480 112.467  1.00  0.00     0.041 C 
ATOM     11  C   UNL     1     123.962 112.685 112.551  1.00  0.00     0.150 C 
ATOM     12  C   UNL     1     123.453 113.845 111.668  1.00  0.00     0.174 C 
ATOM     13  O   UNL     1     124.030 113.092 113.902  1.00  0.00    -0.344 OA
ATOM     14  C   UNL     1     124.576 114.869 111.582  1.00  0.00     0.179 C 
ATOM     15  C   UNL     1     124.946 115.353 112.999  1.00  0.00     0.202 C 
BRANCH  12  16
ATOM     16  O   UNL     1     123.075 113.422 110.382  1.00  0.00    -0.388 OA
ATOM     17  H   UNL     1     122.110 113.188 110.406  1.00  0.00     0.211 HD
ENDBRANCH  12  16
BRANCH  14  18
ATOM     18  O   UNL     1     124.243 115.943 110.729  1.00  0.00    -0.387 OA
ATOM     19  H   UNL     1     124.480 115.691 109.794  1.00  0.00     0.211 HD
ENDBRANCH  14  18
BRANCH  15  20
ATOM     20  O   UNL     1     124.272 116.551 113.306  1.00  0.00    -0.385 OA
ATOM     21  H   UNL     1     124.569 116.830 114.213  1.00  0.00     0.211 HD
ENDBRANCH  15  20
ENDBRANCH   8   9
ENDBRANCH   7   8
ENDBRANCH   1   7
BRANCH   2  22
ATOM     22  O   UNL     1     121.571 115.547 113.968  1.00  0.00    -0.387 OA
ATOM     23  H   UNL     1     121.065 116.393 113.859  1.00  0.00     0.211 HD
ENDBRANCH   2  22
BRANCH   3  24
ATOM     24  O   UNL     1     118.860 115.662 114.395  1.00  0.00    -0.387 OA
ATOM     25  H   UNL     1     119.027 114.866 113.833  1.00  0.00     0.211 HD
ENDBRANCH   3  24
BRANCH   5  26
ATOM     26  O   UNL     1     120.633 116.309 118.336  1.00  0.00    -0.454 OA
BRANCH  26  27
ATOM     27  C   UNL     1     120.555 116.956 119.578  1.00  0.00     0.214 A 
ATOM     28  C   UNL     1     121.697 117.016 120.395  1.00  0.00     0.180 A 
ATOM     29  C   UNL     1     119.372 117.568 120.018  1.00  0.00     0.239 A 
ATOM     30  O   UNL     1     121.630 117.585 121.592  1.00  0.00    -0.452 OA
ATOM     31  C   UNL     1     119.342 118.192 121.287  1.00  0.00     0.111 A 
ATOM     32  O   UNL     1     118.361 117.584 119.266  1.00  0.00    -0.285 OA
ATOM     33  C   UNL     1     120.531 118.158 122.060  1.00  0.00     0.146 A 
ATOM     34  C   UNL     1     118.206 118.859 121.793  1.00  0.00     0.134 A 
ATOM     35  C   UNL     1     120.559 118.761 123.318  1.00  0.00     0.094 A 
ATOM     36  C   UNL     1     118.266 119.475 123.055  1.00  0.00     0.093 A 
ATOM     37  C   UNL     1     119.436 119.421 123.816  1.00  0.00     0.123 A 
BRANCH  28  38
ATOM     38  C   UNL     1     122.974 116.464 119.927  1.00  0.00     0.025 A 
ATOM     39  C   UNL     1     123.233 115.093 120.059  1.00  0.00     0.062 A 
ATOM     40  C   UNL     1     123.934 117.293 119.327  1.00  0.00     0.016 A 
ATOM     41  C   UNL     1     124.434 114.545 119.610  1.00  0.00     0.158 A 
ATOM     42  C   UNL     1     125.157 116.758 118.914  1.00  0.00     0.051 A 
ATOM     43  C   UNL     1     125.415 115.384 119.049  1.00  0.00     0.157 A 
BRANCH  41  44
ATOM     44  O   UNL     1     124.635 113.174 119.736  1.00  0.00    -0.504 OA
ATOM     45  H   UNL     1     124.523 112.530 118.960  1.00  0.00     0.293 HD
ENDBRANCH  41  44
BRANCH  43  46
ATOM     46  O   UNL     1     126.630 114.848 118.626  1.00  0.00    -0.504 OA
ATOM     47  H   UNL     1     126.859 113.879 118.776  1.00  0.00     0.293 HD
ENDBRANCH  43  46
ENDBRANCH  28  38
BRANCH  34  48
ATOM     48  O   UNL     1     117.020 118.920 121.062  1.00  0.00    -0.507 OA
ATOM     49  H   UNL     1     116.120 118.749 121.493  1.00  0.00     0.293 HD
ENDBRANCH  34  48
BRANCH  37  50
ATOM     50  O   UNL     1     119.473 120.040 125.065  1.00  0.00    -0.508 OA
ATOM     51  H   UNL     1     118.817 119.796 125.799  1.00  0.00     0.293 HD
ENDBRANCH  37  50
ENDBRANCH  26  27
ENDBRANCH   5  26
BRANCH   4  52
ATOM     52  O   UNL     1     118.847 117.556 116.589  1.00  0.00    -0.384 OA
ATOM     53  H   UNL     1     119.014 118.530 116.657  1.00  0.00     0.211 HD
ENDBRANCH   4  52
TORSDOF 16
ENDMDL
MODEL 4
REMARK VINA RESULT:    -7.041      1.592      1.919
REMARK INTER + INTRA:         -14.662
REMARK INTER:                 -11.779
REMARK INTRA:                  -2.883
REMARK UNBOUND:                -3.094
REMARK SMILES C[C@@H]1O[C@H](OC[C@H]2O[C@H](Oc3c(-c4ccc(O)c(O)c4)oc4cc(O)cc(O)c4c3=O)[C@H](O)[C@@H](O)[C@H]2O)[C@H](O)[C@H](O)[C@H]1O
REMARK SMILES IDX 7 1 36 2 34 3 32 4 9 5 8 6 6 7 5 8 4 9 1 10 2 11 42 12 3 13
REMARK SMILES IDX 40 14 38 15 43 16 41 18 39 20 37 22 35 24 10 26 11 27 12 28
REMARK SMILES IDX 30 29 21 30 29 31 31 32 22 33 27 34 23 35 26 36 24 37 13 38
REMARK SMILES IDX 20 39 14 40 18 41 15 42 16 43 19 44 17 46 28 48 25 50 33 52
REMARK H PARENT 43 17 41 19 39 21 37 23 35 25 19 45 17 47 28 49 25 51 33 53
REMARK Flexibility Score: inf
ROOT
ATOM      1  C   UNL     1     121.749 116.224 115.989  1.00  0.00     0.180 C 
ATOM      2  C   UNL     1     120.501 117.086 115.634  1.00  0.00     0.177 C 
ATOM      3  C   UNL     1     120.365 117.111 114.104  1.00  0.00     0.180 C 
ATOM      4  C   UNL     1     120.336 115.669 113.554  1.00  0.00     0.214 C 
ATOM      5  C   UNL     1     121.520 114.842 114.104  1.00  0.00     0.339 C 
ATOM      6  O   UNL     1     121.572 114.894 115.523  1.00  0.00    -0.332 OA
ENDROOT
BRANCH   1   7
ATOM      7  C   UNL     1     122.086 116.166 117.486  1.00  0.00     0.198 C 
BRANCH   7   8
ATOM      8  O   UNL     1     121.214 115.282 118.184  1.00  0.00    -0.347 OA
BRANCH   8   9
ATOM      9  C   UNL     1     121.368 115.284 119.603  1.00  0.00     0.281 C 
ATOM     10  C   UNL     1     124.039 117.154 121.394  1.00  0.00     0.041 C 
ATOM     11  C   UNL     1     122.669 116.491 121.247  1.00  0.00     0.150 C 
ATOM     12  C   UNL     1     121.535 117.535 121.346  1.00  0.00     0.174 C 
ATOM     13  O   UNL     1     122.630 115.844 119.992  1.00  0.00    -0.344 OA
ATOM     14  C   UNL     1     120.229 116.766 121.483  1.00  0.00     0.179 C 
ATOM     15  C   UNL     1     120.043 115.838 120.265  1.00  0.00     0.202 C 
BRANCH  12  16
ATOM     16  O   UNL     1     121.702 118.415 122.428  1.00  0.00    -0.388 OA
ATOM     17  H   UNL     1     122.622 118.294 122.785  1.00  0.00     0.211 HD
ENDBRANCH  12  16
BRANCH  14  18
ATOM     18  O   UNL     1     119.127 117.629 121.660  1.00  0.00    -0.387 OA
ATOM     19  H   UNL     1     119.085 118.252 120.884  1.00  0.00     0.211 HD
ENDBRANCH  14  18
BRANCH  15  20
ATOM     20  O   UNL     1     119.237 116.456 119.289  1.00  0.00    -0.385 OA
ATOM     21  H   UNL     1     118.853 115.732 118.726  1.00  0.00     0.211 HD
ENDBRANCH  15  20
ENDBRANCH   8   9
ENDBRANCH   7   8
ENDBRANCH   1   7
BRANCH   2  22
ATOM     22  O   UNL     1     119.318 116.572 116.199  1.00  0.00    -0.387 OA
ATOM     23  H   UNL     1     119.588 115.878 116.854  1.00  0.00     0.211 HD
ENDBRANCH   2  22
BRANCH   3  24
ATOM     24  O   UNL     1     119.188 117.785 113.737  1.00  0.00    -0.387 OA
ATOM     25  H   UNL     1     118.429 117.206 113.994  1.00  0.00     0.211 HD
ENDBRANCH   3  24
BRANCH   5  26
ATOM     26  O   UNL     1     122.767 115.285 113.554  1.00  0.00    -0.454 OA
BRANCH  26  27
ATOM     27  C   UNL     1     123.764 114.415 113.092  1.00  0.00     0.214 A 
ATOM     28  C   UNL     1     125.020 114.411 113.723  1.00  0.00     0.180 A 
ATOM     29  C   UNL     1     123.536 113.527 112.031  1.00  0.00     0.239 A 
ATOM     30  O   UNL     1     125.990 113.626 113.272  1.00  0.00    -0.452 OA
ATOM     31  C   UNL     1     124.582 112.682 111.592  1.00  0.00     0.111 A 
ATOM     32  O   UNL     1     122.393 113.470 111.502  1.00  0.00    -0.285 OA
ATOM     33  C   UNL     1     125.829 112.787 112.260  1.00  0.00     0.146 A 
ATOM     34  C   UNL     1     124.428 111.738 110.554  1.00  0.00     0.134 A 
ATOM     35  C   UNL     1     126.895 111.974 111.870  1.00  0.00     0.094 A 
ATOM     36  C   UNL     1     125.512 110.919 110.194  1.00  0.00     0.093 A 
ATOM     37  C   UNL     1     126.741 111.040 110.846  1.00  0.00     0.123 A 
BRANCH  28  38
ATOM     38  C   UNL     1     125.265 115.263 114.894  1.00  0.00     0.025 A 
ATOM     39  C   UNL     1     125.139 114.732 116.184  1.00  0.00     0.062 A 
ATOM     40  C   UNL     1     125.646 116.604 114.733  1.00  0.00     0.016 A 
ATOM     41  C   UNL     1     125.379 115.520 117.309  1.00  0.00     0.158 A 
ATOM     42  C   UNL     1     125.847 117.410 115.857  1.00  0.00     0.051 A 
ATOM     43  C   UNL     1     125.719 116.876 117.149  1.00  0.00     0.157 A 
BRANCH  41  44
ATOM     44  O   UNL     1     125.271 114.941 118.570  1.00  0.00    -0.504 OA
ATOM     45  H   UNL     1     125.928 115.130 119.319  1.00  0.00     0.293 HD
ENDBRANCH  41  44
BRANCH  43  46
ATOM     46  O   UNL     1     125.932 117.678 118.269  1.00  0.00    -0.504 OA
ATOM     47  H   UNL     1     126.407 118.563 118.201  1.00  0.00     0.293 HD
ENDBRANCH  43  46
ENDBRANCH  28  38
BRANCH  34  48
ATOM     48  O   UNL     1     123.216 111.602 109.877  1.00  0.00    -0.507 OA
ATOM     49  H   UNL     1     122.868 112.325 109.260  1.00  0.00     0.293 HD
ENDBRANCH  34  48
BRANCH  37  50
ATOM     50  O   UNL     1     127.802 110.217 110.473  1.00  0.00    -0.508 OA
ATOM     51  H   UNL     1     128.527 109.951 111.130  1.00  0.00     0.293 HD
ENDBRANCH  37  50
ENDBRANCH  26  27
ENDBRANCH   5  26
BRANCH   4  52
ATOM     52  O   UNL     1     120.386 115.677 112.150  1.00  0.00    -0.384 OA
ATOM     53  H   UNL     1     119.872 116.471 111.854  1.00  0.00     0.211 HD
ENDBRANCH   4  52
TORSDOF 16
ENDMDL
MODEL 5
REMARK VINA RESULT:    -7.024      2.228      8.865
REMARK INTER + INTRA:         -14.635
REMARK INTER:                 -12.193
REMARK INTRA:                  -2.443
REMARK UNBOUND:                -3.094
REMARK SMILES C[C@@H]1O[C@H](OC[C@H]2O[C@H](Oc3c(-c4ccc(O)c(O)c4)oc4cc(O)cc(O)c4c3=O)[C@H](O)[C@@H](O)[C@H]2O)[C@H](O)[C@H](O)[C@H]1O
REMARK SMILES IDX 7 1 36 2 34 3 32 4 9 5 8 6 6 7 5 8 4 9 1 10 2 11 42 12 3 13
REMARK SMILES IDX 40 14 38 15 43 16 41 18 39 20 37 22 35 24 10 26 11 27 12 28
REMARK SMILES IDX 30 29 21 30 29 31 31 32 22 33 27 34 23 35 26 36 24 37 13 38
REMARK SMILES IDX 20 39 14 40 18 41 15 42 16 43 19 44 17 46 28 48 25 50 33 52
REMARK H PARENT 43 17 41 19 39 21 37 23 35 25 19 45 17 47 28 49 25 51 33 53
REMARK Flexibility Score: inf
ROOT
ATOM      1  C   UNL     1     122.847 114.390 116.441  1.00  0.00     0.180 C 
ATOM      2  C   UNL     1     121.665 114.517 115.433  1.00  0.00     0.177 C 
ATOM      3  C   UNL     1     120.445 115.045 116.203  1.00  0.00     0.180 C 
ATOM      4  C   UNL     1     120.812 116.351 116.940  1.00  0.00     0.214 C 
ATOM      5  C   UNL     1     122.099 116.171 117.776  1.00  0.00     0.339 C 
ATOM      6  O   UNL     1     123.164 115.663 116.983  1.00  0.00    -0.332 OA
ENDROOT
BRANCH   1   7
ATOM      7  C   UNL     1     124.131 113.786 115.853  1.00  0.00     0.198 C 
BRANCH   7   8
ATOM      8  O   UNL     1     124.701 114.636 114.863  1.00  0.00    -0.347 OA
BRANCH   8   9
ATOM      9  C   UNL     1     125.037 113.986 113.637  1.00  0.00     0.281 C 
ATOM     10  C   UNL     1     122.964 111.327 112.066  1.00  0.00     0.041 C 
ATOM     11  C   UNL     1     123.970 112.478 112.075  1.00  0.00     0.150 C 
ATOM     12  C   UNL     1     123.422 113.699 111.305  1.00  0.00     0.174 C 
ATOM     13  O   UNL     1     124.226 112.823 113.421  1.00  0.00    -0.344 OA
ATOM     14  C   UNL     1     124.581 114.667 111.115  1.00  0.00     0.179 C 
ATOM     15  C   UNL     1     125.149 115.071 112.492  1.00  0.00     0.202 C 
BRANCH  12  16
ATOM     16  O   UNL     1     122.867 113.350 110.062  1.00  0.00    -0.388 OA
ATOM     17  H   UNL     1     123.102 112.403 109.874  1.00  0.00     0.211 HD
ENDBRANCH  12  16
BRANCH  14  18
ATOM     18  O   UNL     1     124.207 115.791 110.350  1.00  0.00    -0.387 OA
ATOM     19  H   UNL     1     124.908 116.492 110.451  1.00  0.00     0.211 HD
ENDBRANCH  14  18
BRANCH  15  20
ATOM     20  O   UNL     1     124.585 116.288 112.923  1.00  0.00    -0.385 OA
ATOM     21  H   UNL     1     124.078 116.664 112.154  1.00  0.00     0.211 HD
ENDBRANCH  15  20
ENDBRANCH   8   9
ENDBRANCH   7   8
ENDBRANCH   1   7
BRANCH   2  22
ATOM     22  O   UNL     1     121.961 115.391 114.370  1.00  0.00    -0.387 OA
ATOM     23  H   UNL     1     121.249 116.082 114.358  1.00  0.00     0.211 HD
ENDBRANCH   2  22
BRANCH   3  24
ATOM     24  O   UNL     1     119.383 115.283 115.313  1.00  0.00    -0.387 OA
ATOM     25  H   UNL     1     119.669 114.956 114.425  1.00  0.00     0.211 HD
ENDBRANCH   3  24
BRANCH   5  26
ATOM     26  O   UNL     1     121.876 115.312 118.901  1.00  0.00    -0.454 OA
BRANCH  26  27
ATOM     27  C   UNL     1     122.650 115.347 120.070  1.00  0.00     0.214 A 
ATOM     28  C   UNL     1     122.331 116.272 121.078  1.00  0.00     0.180 A 
ATOM     29  C   UNL     1     123.722 114.465 120.272  1.00  0.00     0.239 A 
ATOM     30  O   UNL     1     123.080 116.351 122.171  1.00  0.00    -0.452 OA
ATOM     31  C   UNL     1     124.482 114.555 121.461  1.00  0.00     0.111 A 
ATOM     32  O   UNL     1     123.975 113.583 119.407  1.00  0.00    -0.285 OA
ATOM     33  C   UNL     1     124.113 115.554 122.398  1.00  0.00     0.146 A 
ATOM     34  C   UNL     1     125.554 113.686 121.760  1.00  0.00     0.134 A 
ATOM     35  C   UNL     1     124.827 115.685 123.590  1.00  0.00     0.094 A 
ATOM     36  C   UNL     1     126.244 113.827 122.976  1.00  0.00     0.093 A 
ATOM     37  C   UNL     1     125.885 114.826 123.884  1.00  0.00     0.123 A 
BRANCH  28  38
ATOM     38  C   UNL     1     121.162 117.150 120.937  1.00  0.00     0.025 A 
ATOM     39  C   UNL     1     119.880 116.653 121.201  1.00  0.00     0.062 A 
ATOM     40  C   UNL     1     121.319 118.492 120.561  1.00  0.00     0.016 A 
ATOM     41  C   UNL     1     118.757 117.472 121.086  1.00  0.00     0.158 A 
ATOM     42  C   UNL     1     120.194 119.307 120.402  1.00  0.00     0.051 A 
ATOM     43  C   UNL     1     118.909 118.806 120.666  1.00  0.00     0.157 A 
BRANCH  41  44
ATOM     44  O   UNL     1     117.506 116.942 121.387  1.00  0.00    -0.504 OA
ATOM     45  H   UNL     1     116.639 117.416 121.157  1.00  0.00     0.293 HD
ENDBRANCH  41  44
BRANCH  43  46
ATOM     46  O   UNL     1     117.789 119.622 120.520  1.00  0.00    -0.504 OA
ATOM     47  H   UNL     1     117.412 120.143 121.296  1.00  0.00     0.293 HD
ENDBRANCH  43  46
ENDBRANCH  28  38
BRANCH  34  48
ATOM     48  O   UNL     1     125.944 112.688 120.867  1.00  0.00    -0.507 OA
ATOM     49  H   UNL     1     126.723 112.815 120.235  1.00  0.00     0.293 HD
ENDBRANCH  34  48
BRANCH  37  50
ATOM     50  O   UNL     1     126.583 114.946 125.085  1.00  0.00    -0.508 OA
ATOM     51  H   UNL     1     126.968 115.834 125.391  1.00  0.00     0.293 HD
ENDBRANCH  37  50
ENDBRANCH  26  27
ENDBRANCH   5  26
BRANCH   4  52
ATOM     52  O   UNL     1     119.762 116.751 117.782  1.00  0.00    -0.384 OA
ATOM     53  H   UNL     1     118.925 116.417 117.369  1.00  0.00     0.211 HD
ENDBRANCH   4  52
TORSDOF 16
ENDMDL
MODEL 6
REMARK VINA RESULT:    -6.947      2.466      4.350
REMARK INTER + INTRA:         -14.507
REMARK INTER:                 -11.843
REMARK INTRA:                  -2.664
REMARK UNBOUND:                -3.094
REMARK SMILES C[C@@H]1O[C@H](OC[C@H]2O[C@H](Oc3c(-c4ccc(O)c(O)c4)oc4cc(O)cc(O)c4c3=O)[C@H](O)[C@@H](O)[C@H]2O)[C@H](O)[C@H](O)[C@H]1O
REMARK SMILES IDX 7 1 36 2 34 3 32 4 9 5 8 6 6 7 5 8 4 9 1 10 2 11 42 12 3 13
REMARK SMILES IDX 40 14 38 15 43 16 41 18 39 20 37 22 35 24 10 26 11 27 12 28
REMARK SMILES IDX 30 29 21 30 29 31 31 32 22 33 27 34 23 35 26 36 24 37 13 38
REMARK SMILES IDX 20 39 14 40 18 41 15 42 16 43 19 44 17 46 28 48 25 50 33 52
REMARK H PARENT 43 17 41 19 39 21 37 23 35 25 19 45 17 47 28 49 25 51 33 53
REMARK Flexibility Score: inf
ROOT
ATOM      1  C   UNL     1     124.976 116.985 118.396  1.00  0.00     0.180 C 
ATOM      2  C   UNL     1     126.317 117.456 119.035  1.00  0.00     0.177 C 
ATOM      3  C   UNL     1     127.460 116.690 118.350  1.00  0.00     0.180 C 
ATOM      4  C   UNL     1     127.372 116.871 116.819  1.00  0.00     0.214 C 
ATOM      5  C   UNL     1     125.951 116.547 116.304  1.00  0.00     0.339 C 
ATOM      6  O   UNL     1     124.964 117.289 117.008  1.00  0.00    -0.332 OA
ENDROOT
BRANCH   1   7
ATOM      7  C   UNL     1     123.715 117.589 119.030  1.00  0.00     0.198 C 
BRANCH   7   8
ATOM      8  O   UNL     1     123.445 117.013 120.305  1.00  0.00    -0.347 OA
BRANCH   8   9
ATOM      9  C   UNL     1     122.824 117.894 121.241  1.00  0.00     0.281 C 
ATOM     10  C   UNL     1     119.417 119.320 120.797  1.00  0.00     0.041 C 
ATOM     11  C   UNL     1     120.628 118.843 121.599  1.00  0.00     0.150 C 
ATOM     12  C   UNL     1     120.267 117.623 122.474  1.00  0.00     0.174 C 
ATOM     13  O   UNL     1     121.651 118.505 120.685  1.00  0.00    -0.344 OA
ATOM     14  C   UNL     1     121.424 117.405 123.439  1.00  0.00     0.179 C 
ATOM     15  C   UNL     1     122.725 117.170 122.643  1.00  0.00     0.202 C 
BRANCH  12  16
ATOM     16  O   UNL     1     119.066 117.799 123.181  1.00  0.00    -0.388 OA
ATOM     17  H   UNL     1     118.312 117.636 122.555  1.00  0.00     0.211 HD
ENDBRANCH  12  16
BRANCH  14  18
ATOM     18  O   UNL     1     121.164 116.354 124.343  1.00  0.00    -0.387 OA
ATOM     19  H   UNL     1     120.657 115.642 123.864  1.00  0.00     0.211 HD
ENDBRANCH  14  18
BRANCH  15  20
ATOM     20  O   UNL     1     122.973 115.792 122.494  1.00  0.00    -0.385 OA
ATOM     21  H   UNL     1     123.525 115.681 121.674  1.00  0.00     0.211 HD
ENDBRANCH  15  20
ENDBRANCH   8   9
ENDBRANCH   7   8
ENDBRANCH   1   7
BRANCH   2  22
ATOM     22  O   UNL     1     126.526 118.840 118.881  1.00  0.00    -0.387 OA
ATOM     23  H   UNL     1     126.576 119.018 117.907  1.00  0.00     0.211 HD
ENDBRANCH   2  22
BRANCH   3  24
ATOM     24  O   UNL     1     128.699 117.162 118.815  1.00  0.00    -0.387 OA
ATOM     25  H   UNL     1     128.548 118.067 119.182  1.00  0.00     0.211 HD
ENDBRANCH   3  24
BRANCH   5  26
ATOM     26  O   UNL     1     125.667 115.146 116.399  1.00  0.00    -0.454 OA
BRANCH  26  27
ATOM     27  C   UNL     1     125.055 114.407 115.377  1.00  0.00     0.214 A 
ATOM     28  C   UNL     1     123.778 113.862 115.592  1.00  0.00     0.180 A 
ATOM     29  C   UNL     1     125.673 114.216 114.133  1.00  0.00     0.239 A 
ATOM     30  O   UNL     1     123.202 113.122 114.653  1.00  0.00    -0.452 OA
ATOM     31  C   UNL     1     125.020 113.447 113.141  1.00  0.00     0.111 A 
ATOM     32  O   UNL     1     126.788 114.759 113.901  1.00  0.00    -0.285 OA
ATOM     33  C   UNL     1     123.755 112.897 113.470  1.00  0.00     0.146 A 
ATOM     34  C   UNL     1     125.555 113.234 111.852  1.00  0.00     0.134 A 
ATOM     35  C   UNL     1     123.064 112.133 112.528  1.00  0.00     0.094 A 
ATOM     36  C   UNL     1     124.831 112.476 110.916  1.00  0.00     0.093 A 
ATOM     37  C   UNL     1     123.593 111.925 111.255  1.00  0.00     0.123 A 
BRANCH  28  38
ATOM     38  C   UNL     1     123.065 114.116 116.851  1.00  0.00     0.025 A 
ATOM     39  C   UNL     1     123.619 113.694 118.066  1.00  0.00     0.062 A 
ATOM     40  C   UNL     1     121.839 114.799 116.850  1.00  0.00     0.016 A 
ATOM     41  C   UNL     1     122.965 113.936 119.273  1.00  0.00     0.158 A 
ATOM     42  C   UNL     1     121.158 115.007 118.053  1.00  0.00     0.051 A 
ATOM     43  C   UNL     1     121.715 114.582 119.270  1.00  0.00     0.157 A 
BRANCH  41  44
ATOM     44  O   UNL     1     123.568 113.525 120.458  1.00  0.00    -0.504 OA
ATOM     45  H   UNL     1     123.898 114.177 121.161  1.00  0.00     0.293 HD
ENDBRANCH  41  44
BRANCH  43  46
ATOM     46  O   UNL     1     121.041 114.801 120.470  1.00  0.00    -0.504 OA
ATOM     47  H   UNL     1     120.542 114.060 120.937  1.00  0.00     0.293 HD
ENDBRANCH  43  46
ENDBRANCH  28  38
BRANCH  34  48
ATOM     48  O   UNL     1     126.794 113.762 111.489  1.00  0.00    -0.507 OA
ATOM     49  H   UNL     1     127.083 113.821 110.521  1.00  0.00     0.293 HD
ENDBRANCH  34  48
BRANCH  37  50
ATOM     50  O   UNL     1     122.892 111.177 110.310  1.00  0.00    -0.508 OA
ATOM     51  H   UNL     1     122.939 111.390 109.320  1.00  0.00     0.293 HD
ENDBRANCH  37  50
ENDBRANCH  26  27
ENDBRANCH   5  26
BRANCH   4  52
ATOM     52  O   UNL     1     128.302 116.041 116.172  1.00  0.00    -0.384 OA
ATOM     53  H   UNL     1     128.766 115.529 116.882  1.00  0.00     0.211 HD
ENDBRANCH   4  52
TORSDOF 16
ENDMDL
MODEL 7
REMARK VINA RESULT:    -6.895      1.648      9.656
REMARK INTER + INTRA:         -14.423
REMARK INTER:                 -11.625
REMARK INTRA:                  -2.798
REMARK UNBOUND:                -3.094
REMARK SMILES C[C@@H]1O[C@H](OC[C@H]2O[C@H](Oc3c(-c4ccc(O)c(O)c4)oc4cc(O)cc(O)c4c3=O)[C@H](O)[C@@H](O)[C@H]2O)[C@H](O)[C@H](O)[C@H]1O
REMARK SMILES IDX 7 1 36 2 34 3 32 4 9 5 8 6 6 7 5 8 4 9 1 10 2 11 42 12 3 13
REMARK SMILES IDX 40 14 38 15 43 16 41 18 39 20 37 22 35 24 10 26 11 27 12 28
REMARK SMILES IDX 30 29 21 30 29 31 31 32 22 33 27 34 23 35 26 36 24 37 13 38
REMARK SMILES IDX 20 39 14 40 18 41 15 42 16 43 19 44 17 46 28 48 25 50 33 52
REMARK H PARENT 43 17 41 19 39 21 37 23 35 25 19 45 17 47 28 49 25 51 33 53
REMARK Flexibility Score: inf
ROOT
ATOM      1  C   UNL     1     124.203 115.810 115.529  1.00  0.00     0.180 C 
ATOM      2  C   UNL     1     125.623 115.421 116.041  1.00  0.00     0.177 C 
ATOM      3  C   UNL     1     125.645 115.625 117.564  1.00  0.00     0.180 C 
ATOM      4  C   UNL     1     124.483 114.847 118.218  1.00  0.00     0.214 C 
ATOM      5  C   UNL     1     123.141 115.170 117.523  1.00  0.00     0.339 C 
ATOM      6  O   UNL     1     123.223 114.968 116.118  1.00  0.00    -0.332 OA
ENDROOT
BRANCH   1   7
ATOM      7  C   UNL     1     124.032 115.751 114.004  1.00  0.00     0.198 C 
BRANCH   7   8
ATOM      8  O   UNL     1     123.881 114.409 113.548  1.00  0.00    -0.347 OA
BRANCH   8   9
ATOM      9  C   UNL     1     124.678 114.070 112.413  1.00  0.00     0.281 C 
ATOM     10  C   UNL     1     127.428 111.567 112.487  1.00  0.00     0.041 C 
ATOM     11  C   UNL     1     126.318 112.389 111.832  1.00  0.00     0.150 C 
ATOM     12  C   UNL     1     125.176 111.478 111.333  1.00  0.00     0.174 C 
ATOM     13  O   UNL     1     125.830 113.304 112.792  1.00  0.00    -0.344 OA
ATOM     14  C   UNL     1     124.275 112.331 110.452  1.00  0.00     0.179 C 
ATOM     15  C   UNL     1     123.735 113.525 111.266  1.00  0.00     0.202 C 
BRANCH  12  16
ATOM     16  O   UNL     1     125.646 110.362 110.619  1.00  0.00    -0.388 OA
ATOM     17  H   UNL     1     124.868 109.781 110.409  1.00  0.00     0.211 HD
ENDBRANCH  12  16
BRANCH  14  18
ATOM     18  O   UNL     1     123.233 111.574 109.876  1.00  0.00    -0.387 OA
ATOM     19  H   UNL     1     122.578 111.341 110.589  1.00  0.00     0.211 HD
ENDBRANCH  14  18
BRANCH  15  20
ATOM     20  O   UNL     1     122.459 113.235 111.787  1.00  0.00    -0.385 OA
ATOM     21  H   UNL     1     122.070 112.513 111.223  1.00  0.00     0.211 HD
ENDBRANCH  15  20
ENDBRANCH   8   9
ENDBRANCH   7   8
ENDBRANCH   1   7
BRANCH   2  22
ATOM     22  O   UNL     1     125.950 114.084 115.745  1.00  0.00    -0.387 OA
ATOM     23  H   UNL     1     125.226 113.519 116.122  1.00  0.00     0.211 HD
ENDBRANCH   2  22
BRANCH   3  24
ATOM     24  O   UNL     1     126.871 115.180 118.089  1.00  0.00    -0.387 OA
ATOM     25  H   UNL     1     127.450 114.949 117.321  1.00  0.00     0.211 HD
ENDBRANCH   3  24
BRANCH   5  26
ATOM     26  O   UNL     1     122.720 116.512 117.799  1.00  0.00    -0.454 OA
BRANCH  26  27
ATOM     27  C   UNL     1     121.493 116.832 118.399  1.00  0.00     0.214 A 
ATOM     28  C   UNL     1     120.371 117.067 117.587  1.00  0.00     0.180 A 
ATOM     29  C   UNL     1     121.349 116.900 119.792  1.00  0.00     0.239 A 
ATOM     30  O   UNL     1     119.214 117.415 118.134  1.00  0.00    -0.452 OA
ATOM     31  C   UNL     1     120.094 117.245 120.346  1.00  0.00     0.111 A 
ATOM     32  O   UNL     1     122.330 116.623 120.534  1.00  0.00    -0.285 OA
ATOM     33  C   UNL     1     119.034 117.513 119.443  1.00  0.00     0.146 A 
ATOM     34  C   UNL     1     119.853 117.305 121.736  1.00  0.00     0.134 A 
ATOM     35  C   UNL     1     117.773 117.855 119.935  1.00  0.00     0.094 A 
ATOM     36  C   UNL     1     118.570 117.632 122.205  1.00  0.00     0.093 A 
ATOM     37  C   UNL     1     117.536 117.911 121.307  1.00  0.00     0.123 A 
BRANCH  28  38
ATOM     38  C   UNL     1     120.465 116.917 116.128  1.00  0.00     0.025 A 
ATOM     39  C   UNL     1     120.980 117.962 115.351  1.00  0.00     0.062 A 
ATOM     40  C   UNL     1     120.063 115.726 115.507  1.00  0.00     0.016 A 
ATOM     41  C   UNL     1     121.089 117.837 113.966  1.00  0.00     0.158 A 
ATOM     42  C   UNL     1     120.130 115.610 114.115  1.00  0.00     0.051 A 
ATOM     43  C   UNL     1     120.645 116.659 113.337  1.00  0.00     0.157 A 
BRANCH  41  44
ATOM     44  O   UNL     1     121.634 118.890 113.237  1.00  0.00    -0.504 OA
ATOM     45  H   UNL     1     121.733 118.866 112.228  1.00  0.00     0.293 HD
ENDBRANCH  41  44
BRANCH  43  46
ATOM     46  O   UNL     1     120.724 116.538 111.951  1.00  0.00    -0.504 OA
ATOM     47  H   UNL     1     120.824 117.345 111.356  1.00  0.00     0.293 HD
ENDBRANCH  43  46
ENDBRANCH  28  38
BRANCH  34  48
ATOM     48  O   UNL     1     120.868 117.043 122.655  1.00  0.00    -0.507 OA
ATOM     49  H   UNL     1     120.688 117.010 123.651  1.00  0.00     0.293 HD
ENDBRANCH  34  48
BRANCH  37  50
ATOM     50  O   UNL     1     116.270 118.234 121.796  1.00  0.00    -0.508 OA
ATOM     51  H   UNL     1     115.813 117.670 122.504  1.00  0.00     0.293 HD
ENDBRANCH  37  50
ENDBRANCH  26  27
ENDBRANCH   5  26
BRANCH   4  52
ATOM     52  O   UNL     1     124.388 115.160 119.583  1.00  0.00    -0.384 OA
ATOM     53  H   UNL     1     123.713 115.881 119.661  1.00  0.00     0.211 HD
ENDBRANCH   4  52
TORSDOF 16
ENDMDL
MODEL 8
REMARK VINA RESULT:    -6.867      3.951      9.600
REMARK INTER + INTRA:         -14.377
REMARK INTER:                 -11.887
REMARK INTRA:                  -2.490
REMARK UNBOUND:                -3.094
REMARK SMILES C[C@@H]1O[C@H](OC[C@H]2O[C@H](Oc3c(-c4ccc(O)c(O)c4)oc4cc(O)cc(O)c4c3=O)[C@H](O)[C@@H](O)[C@H]2O)[C@H](O)[C@H](O)[C@H]1O
REMARK SMILES IDX 7 1 36 2 34 3 32 4 9 5 8 6 6 7 5 8 4 9 1 10 2 11 42 12 3 13
REMARK SMILES IDX 40 14 38 15 43 16 41 18 39 20 37 22 35 24 10 26 11 27 12 28
REMARK SMILES IDX 30 29 21 30 29 31 31 32 22 33 27 34 23 35 26 36 24 37 13 38
REMARK SMILES IDX 20 39 14 40 18 41 15 42 16 43 19 44 17 46 28 48 25 50 33 52
REMARK H PARENT 43 17 41 19 39 21 37 23 35 25 19 45 17 47 28 49 25 51 33 53
REMARK Flexibility Score: inf
ROOT
ATOM      1  C   UNL     1     124.206 115.623 119.012  1.00  0.00     0.180 C 
ATOM      2  C   UNL     1     123.996 114.502 117.950  1.00  0.00     0.177 C 
ATOM      3  C   UNL     1     122.555 113.987 118.087  1.00  0.00     0.180 C 
ATOM      4  C   UNL     1     121.563 115.166 117.992  1.00  0.00     0.214 C 
ATOM      5  C   UNL     1     121.958 116.303 118.961  1.00  0.00     0.339 C 
ATOM      6  O   UNL     1     123.311 116.698 118.770  1.00  0.00    -0.332 OA
ENDROOT
BRANCH   1   7
ATOM      7  C   UNL     1     125.631 116.190 119.074  1.00  0.00     0.198 C 
BRANCH   7   8
ATOM      8  O   UNL     1     126.589 115.250 118.595  1.00  0.00    -0.347 OA
BRANCH   8   9
ATOM      9  C   UNL     1     127.860 115.807 118.261  1.00  0.00     0.281 C 
ATOM     10  C   UNL     1     131.050 114.815 119.897  1.00  0.00     0.041 C 
ATOM     11  C   UNL     1     130.184 115.354 118.759  1.00  0.00     0.150 C 
ATOM     12  C   UNL     1     130.243 114.422 117.529  1.00  0.00     0.174 C 
ATOM     13  O   UNL     1     128.857 115.457 119.232  1.00  0.00    -0.344 OA
ATOM     14  C   UNL     1     129.604 115.171 116.368  1.00  0.00     0.179 C 
ATOM     15  C   UNL     1     128.152 115.545 116.729  1.00  0.00     0.202 C 
BRANCH  12  16
ATOM     16  O   UNL     1     131.555 114.039 117.202  1.00  0.00    -0.388 OA
ATOM     17  H   UNL     1     132.075 113.969 118.046  1.00  0.00     0.211 HD
ENDBRANCH  12  16
BRANCH  14  18
ATOM     18  O   UNL     1     129.675 114.436 115.166  1.00  0.00    -0.387 OA
ATOM     19  H   UNL     1     129.640 113.465 115.385  1.00  0.00     0.211 HD
ENDBRANCH  14  18
BRANCH  15  20
ATOM     20  O   UNL     1     127.252 114.585 116.224  1.00  0.00    -0.385 OA
ATOM     21  H   UNL     1     127.090 113.926 116.950  1.00  0.00     0.211 HD
ENDBRANCH  15  20
ENDBRANCH   8   9
ENDBRANCH   7   8
ENDBRANCH   1   7
BRANCH   2  22
ATOM     22  O   UNL     1     124.203 114.964 116.636  1.00  0.00    -0.387 OA
ATOM     23  H   UNL     1     123.770 115.855 116.572  1.00  0.00     0.211 HD
ENDBRANCH   2  22
BRANCH   3  24
ATOM     24  O   UNL     1     122.282 113.051 117.075  1.00  0.00    -0.387 OA
ATOM     25  H   UNL     1     123.095 112.978 116.519  1.00  0.00     0.211 HD
ENDBRANCH   3  24
BRANCH   5  26
ATOM     26  O   UNL     1     121.751 115.921 120.326  1.00  0.00    -0.454 OA
BRANCH  26  27
ATOM     27  C   UNL     1     121.024 116.692 121.245  1.00  0.00     0.214 A 
ATOM     28  C   UNL     1     121.661 117.157 122.408  1.00  0.00     0.180 A 
ATOM     29  C   UNL     1     119.682 117.034 121.023  1.00  0.00     0.239 A 
ATOM     30  O   UNL     1     120.978 117.850 123.310  1.00  0.00    -0.452 OA
ATOM     31  C   UNL     1     118.990 117.799 121.991  1.00  0.00     0.111 A 
ATOM     32  O   UNL     1     119.119 116.684 119.951  1.00  0.00    -0.285 OA
ATOM     33  C   UNL     1     119.704 118.180 123.155  1.00  0.00     0.146 A 
ATOM     34  C   UNL     1     117.650 118.215 121.832  1.00  0.00     0.134 A 
ATOM     35  C   UNL     1     119.071 118.939 124.141  1.00  0.00     0.094 A 
ATOM     36  C   UNL     1     117.042 118.994 122.831  1.00  0.00     0.093 A 
ATOM     37  C   UNL     1     117.749 119.350 123.983  1.00  0.00     0.123 A 
BRANCH  28  38
ATOM     38  C   UNL     1     123.089 116.893 122.629  1.00  0.00     0.025 A 
ATOM     39  C   UNL     1     124.041 117.856 122.272  1.00  0.00     0.062 A 
ATOM     40  C   UNL     1     123.509 115.690 123.215  1.00  0.00     0.016 A 
ATOM     41  C   UNL     1     125.401 117.631 122.484  1.00  0.00     0.158 A 
ATOM     42  C   UNL     1     124.873 115.440 123.391  1.00  0.00     0.051 A 
ATOM     43  C   UNL     1     125.826 116.406 123.032  1.00  0.00     0.157 A 
BRANCH  41  44
ATOM     44  O   UNL     1     126.308 118.629 122.141  1.00  0.00    -0.504 OA
ATOM     45  H   UNL     1     126.240 119.577 122.494  1.00  0.00     0.293 HD
ENDBRANCH  41  44
BRANCH  43  46
ATOM     46  O   UNL     1     127.186 116.162 123.219  1.00  0.00    -0.504 OA
ATOM     47  H   UNL     1     127.748 116.745 123.818  1.00  0.00     0.293 HD
ENDBRANCH  43  46
ENDBRANCH  28  38
BRANCH  34  48
ATOM     48  O   UNL     1     116.916 117.865 120.700  1.00  0.00    -0.507 OA
ATOM     49  H   UNL     1     116.137 118.426 120.377  1.00  0.00     0.293 HD
ENDBRANCH  34  48
BRANCH  37  50
ATOM     50  O   UNL     1     117.125 120.124 124.961  1.00  0.00    -0.508 OA
ATOM     51  H   UNL     1     117.309 119.984 125.948  1.00  0.00     0.293 HD
ENDBRANCH  37  50
ENDBRANCH  26  27
ENDBRANCH   5  26
BRANCH   4  52
ATOM     52  O   UNL     1     120.259 114.736 118.286  1.00  0.00    -0.384 OA
ATOM     53  H   UNL     1     119.719 115.554 118.435  1.00  0.00     0.211 HD
ENDBRANCH   4  52
TORSDOF 16
ENDMDL
MODEL 9
REMARK VINA RESULT:    -6.734      3.133      5.160
REMARK INTER + INTRA:         -14.158
REMARK INTER:                 -10.933
REMARK INTRA:                  -3.225
REMARK UNBOUND:                -3.094
REMARK SMILES C[C@@H]1O[C@H](OC[C@H]2O[C@H](Oc3c(-c4ccc(O)c(O)c4)oc4cc(O)cc(O)c4c3=O)[C@H](O)[C@@H](O)[C@H]2O)[C@H](O)[C@H](O)[C@H]1O
REMARK SMILES IDX 7 1 36 2 34 3 32 4 9 5 8 6 6 7 5 8 4 9 1 10 2 11 42 12 3 13
REMARK SMILES IDX 40 14 38 15 43 16 41 18 39 20 37 22 35 24 10 26 11 27 12 28
REMARK SMILES IDX 30 29 21 30 29 31 31 32 22 33 27 34 23 35 26 36 24 37 13 38
REMARK SMILES IDX 20 39 14 40 18 41 15 42 16 43 19 44 17 46 28 48 25 50 33 52
REMARK H PARENT 43 17 41 19 39 21 37 23 35 25 19 45 17 47 28 49 25 51 33 53
REMARK Flexibility Score: inf
ROOT
ATOM      1  C   UNL     1     123.617 116.234 119.755  1.00  0.00     0.180 C 
ATOM      2  C   UNL     1     122.147 115.915 120.162  1.00  0.00     0.177 C 
ATOM      3  C   UNL     1     121.466 115.230 118.966  1.00  0.00     0.180 C 
ATOM      4  C   UNL     1     122.294 114.008 118.516  1.00  0.00     0.214 C 
ATOM      5  C   UNL     1     123.777 114.390 118.308  1.00  0.00     0.339 C 
ATOM      6  O   UNL     1     124.313 115.031 119.458  1.00  0.00    -0.332 OA
ENDROOT
BRANCH   1   7
ATOM      7  C   UNL     1     124.423 117.006 120.810  1.00  0.00     0.198 C 
BRANCH   7   8
ATOM      8  O   UNL     1     124.550 116.261 122.017  1.00  0.00    -0.347 OA
BRANCH   8   9
ATOM      9  C   UNL     1     125.881 115.851 122.332  1.00  0.00     0.281 C 
ATOM     10  C   UNL     1     127.471 116.351 125.656  1.00  0.00     0.041 C 
ATOM     11  C   UNL     1     127.260 115.660 124.309  1.00  0.00     0.150 C 
ATOM     12  C   UNL     1     126.746 114.217 124.502  1.00  0.00     0.174 C 
ATOM     13  O   UNL     1     126.324 116.419 123.572  1.00  0.00    -0.344 OA
ATOM     14  C   UNL     1     126.845 113.521 123.152  1.00  0.00     0.179 C 
ATOM     15  C   UNL     1     126.006 114.290 122.111  1.00  0.00     0.202 C 
BRANCH  12  16
ATOM     16  O   UNL     1     127.473 113.508 125.473  1.00  0.00    -0.388 OA
ATOM     17  H   UNL     1     127.985 112.791 125.013  1.00  0.00     0.211 HD
ENDBRANCH  12  16
BRANCH  14  18
ATOM     18  O   UNL     1     126.470 112.164 123.232  1.00  0.00    -0.387 OA
ATOM     19  H   UNL     1     125.512 112.114 123.501  1.00  0.00     0.211 HD
ENDBRANCH  14  18
BRANCH  15  20
ATOM     20  O   UNL     1     124.725 113.716 121.984  1.00  0.00    -0.385 OA
ATOM     21  H   UNL     1     124.094 114.296 122.488  1.00  0.00     0.211 HD
ENDBRANCH  15  20
ENDBRANCH   8   9
ENDBRANCH   7   8
ENDBRANCH   1   7
BRANCH   2  22
ATOM     22  O   UNL     1     122.074 115.070 121.286  1.00  0.00    -0.387 OA
ATOM     23  H   UNL     1     121.291 115.365 121.818  1.00  0.00     0.211 HD
ENDBRANCH   2  22
BRANCH   3  24
ATOM     24  O   UNL     1     120.169 114.822 119.322  1.00  0.00    -0.387 OA
ATOM     25  H   UNL     1     119.688 114.615 118.484  1.00  0.00     0.211 HD
ENDBRANCH   3  24
BRANCH   5  26
ATOM     26  O   UNL     1     123.944 115.231 117.160  1.00  0.00    -0.454 OA
BRANCH  26  27
ATOM     27  C   UNL     1     124.795 114.923 116.089  1.00  0.00     0.214 A 
ATOM     28  C   UNL     1     126.092 115.461 116.065  1.00  0.00     0.180 A 
ATOM     29  C   UNL     1     124.394 114.070 115.050  1.00  0.00     0.239 A 
ATOM     30  O   UNL     1     126.896 115.217 115.038  1.00  0.00    -0.452 OA
ATOM     31  C   UNL     1     125.286 113.806 113.984  1.00  0.00     0.111 A 
ATOM     32  O   UNL     1     123.259 113.525 115.094  1.00  0.00    -0.285 OA
ATOM     33  C   UNL     1     126.556 114.435 114.024  1.00  0.00     0.146 A 
ATOM     34  C   UNL     1     124.976 112.935 112.917  1.00  0.00     0.134 A 
ATOM     35  C   UNL     1     127.477 114.206 113.000  1.00  0.00     0.094 A 
ATOM     36  C   UNL     1     125.928 112.708 111.908  1.00  0.00     0.093 A 
ATOM     37  C   UNL     1     127.170 113.345 111.947  1.00  0.00     0.123 A 
BRANCH  28  38
ATOM     38  C   UNL     1     126.575 116.286 117.181  1.00  0.00     0.025 A 
ATOM     39  C   UNL     1     127.375 115.714 118.178  1.00  0.00     0.062 A 
ATOM     40  C   UNL     1     126.259 117.651 117.247  1.00  0.00     0.016 A 
ATOM     41  C   UNL     1     127.854 116.481 119.239  1.00  0.00     0.158 A 
ATOM     42  C   UNL     1     126.701 118.416 118.330  1.00  0.00     0.051 A 
ATOM     43  C   UNL     1     127.501 117.840 119.329  1.00  0.00     0.157 A 
BRANCH  41  44
ATOM     44  O   UNL     1     128.670 115.876 120.190  1.00  0.00    -0.504 OA
ATOM     45  H   UNL     1     129.022 114.930 120.089  1.00  0.00     0.293 HD
ENDBRANCH  41  44
BRANCH  43  46
ATOM     46  O   UNL     1     127.952 118.606 120.403  1.00  0.00    -0.504 OA
ATOM     47  H   UNL     1     127.755 118.345 121.356  1.00  0.00     0.293 HD
ENDBRANCH  43  46
ENDBRANCH  28  38
BRANCH  34  48
ATOM     48  O   UNL     1     123.740 112.294 112.844  1.00  0.00    -0.507 OA
ATOM     49  H   UNL     1     122.872 112.797 112.974  1.00  0.00     0.293 HD
ENDBRANCH  34  48
BRANCH  37  50
ATOM     50  O   UNL     1     128.099 113.104 110.935  1.00  0.00    -0.508 OA
ATOM     51  H   UNL     1     128.498 112.183 110.786  1.00  0.00     0.293 HD
ENDBRANCH  37  50
ENDBRANCH  26  27
ENDBRANCH   5  26
BRANCH   4  52
ATOM     52  O   UNL     1     121.779 113.476 117.323  1.00  0.00    -0.384 OA
ATOM     53  H   UNL     1     121.078 112.825 117.584  1.00  0.00     0.211 HD
ENDBRANCH   4  52
TORSDOF 16
ENDMDL
