MODEL 1
REMARK VINA RESULT:    -0.702      0.000      0.000
REMARK INTER + INTRA:           0.551
REMARK INTER:                  -0.948
REMARK INTRA:                   1.499
REMARK UNBOUND:                 1.499
REMARK SMILES CC[C@@H](CC[C@@H](C)[C@H]1CC[C@@H]2[C@H]3CC(=O)C4=CC(=O)CC[C@@]4(C)[C@H]3CC[C@@]21C)C(C)C
REMARK SMILES IDX 4 1 3 2 2 3 1 4 29 5 30 6 31 7 5 8 6 9 7 10 8 11 9 12 27 13
REMARK SMILES IDX 10 14 11 15 26 16 28 17 12 18 25 19 24 20 13 21 22 22 14 23
REMARK SMILES IDX 16 24 21 25 23 26 15 27 17 28 20 29 18 30 19 31
REMARK H PARENT
REMARK Flexibility Score: inf
ROOT
ATOM      1  C   UNL     1      82.218  -9.134  20.850  1.00  0.00     0.004 C 
ENDROOT
BRANCH   1   2
ATOM      2  C   UNL     1      80.815  -8.997  20.179  1.00  0.00    -0.009 C 
BRANCH   2   3
ATOM      3  C   UNL     1      80.541 -10.111  19.127  1.00  0.00     0.000 C 
ATOM      4  C   UNL     1      79.143 -10.124  18.505  1.00  0.00     0.004 C 
ENDBRANCH   2   3
BRANCH   2   5
ATOM      5  C   UNL     1      80.509  -7.531  19.721  1.00  0.00    -0.014 C 
ATOM      6  C   UNL     1      80.284  -7.432  18.206  1.00  0.00     0.007 C 
ATOM      7  C   UNL     1      81.522  -6.465  20.184  1.00  0.00     0.007 C 
ENDBRANCH   2   5
ENDBRANCH   1   2
BRANCH   1   8
ATOM      8  C   UNL     1      82.194  -9.107  22.394  1.00  0.00     0.004 C 
BRANCH   8   9
ATOM      9  C   UNL     1      80.784  -8.992  23.045  1.00  0.00    -0.011 C 
ATOM     10  C   UNL     1      79.871 -10.125  22.537  1.00  0.00     0.008 C 
BRANCH   9  11
ATOM     11  C   UNL     1      80.797  -8.988  24.618  1.00  0.00    -0.002 C 
ATOM     12  C   UNL     1      79.995 -10.083  25.309  1.00  0.00     0.005 C 
ATOM     13  C   UNL     1      82.181  -8.995  25.326  1.00  0.00    -0.026 C 
ATOM     14  C   UNL     1      80.415  -9.993  26.771  1.00  0.00     0.005 C 
ATOM     15  C   UNL     1      81.831  -9.366  26.808  1.00  0.00    -0.001 C 
ATOM     16  C   UNL     1      82.860  -7.596  25.197  1.00  0.00     0.007 C 
ATOM     17  C   UNL     1      83.127 -10.083  24.751  1.00  0.00     0.012 C 
ATOM     18  C   UNL     1      81.910  -8.145  27.772  1.00  0.00     0.004 C 
ATOM     19  C   UNL     1      83.911  -7.368  26.285  1.00  0.00     0.005 C 
ATOM     20  C   UNL     1      83.309  -7.429  27.721  1.00  0.00     0.003 C 
ATOM     21  C   UNL     1      81.413  -8.479  29.205  1.00  0.00     0.085 C 
ATOM     22  C   UNL     1      84.355  -7.822  28.853  1.00  0.00    -0.000 C 
ATOM     23  C   UNL     1      82.203  -7.782  30.262  1.00  0.00     0.159 C 
ATOM     24  C   UNL     1      83.656  -7.932  30.205  1.00  0.00     0.005 C 
ATOM     25  C   UNL     1      85.085  -9.180  28.610  1.00  0.00     0.020 C 
ATOM     26  C   UNL     1      85.398  -6.673  28.942  1.00  0.00     0.017 C 
ATOM     27  O   UNL     1      81.638  -7.206  31.229  1.00  0.00    -0.295 OA
ATOM     28  C   UNL     1      84.282  -8.466  31.266  1.00  0.00     0.055 C 
ATOM     29  C   UNL     1      86.092  -9.514  29.736  1.00  0.00     0.081 C 
ATOM     30  C   UNL     1      85.561  -9.177  31.105  1.00  0.00     0.156 C 
ATOM     31  O   UNL     1      86.206  -9.535  32.125  1.00  0.00    -0.295 OA
ENDBRANCH   9  11
ENDBRANCH   8   9
ENDBRANCH   1   8
TORSDOF 6
ENDMDL
