MODEL 1
REMARK VINA RESULT:     4.544      0.000      0.000
REMARK INTER + INTRA:           4.677
REMARK INTER:                   4.677
REMARK INTRA:                   0.000
REMARK UNBOUND:                 0.000
REMARK SMILES Cc1cccc(O)c1C
REMARK SMILES IDX 1 1 2 2 8 3 6 4 5 5 4 6 3 7 9 8 7 9
REMARK H PARENT 7 10
REMARK Flexibility Score: inf
ROOT
ATOM      1  C   UNL     1      -2.858  58.289  20.789  1.00  0.00     0.045 C 
ATOM      2  C   UNL     1      -2.928  58.485  22.282  1.00  0.00    -0.045 A 
ATOM      3  C   UNL     1      -2.993  59.777  22.872  1.00  0.00    -0.006 A 
ATOM      4  C   UNL     1      -3.058  59.887  24.285  1.00  0.00     0.118 A 
ATOM      5  C   UNL     1      -3.057  58.736  25.077  1.00  0.00     0.046 A 
ATOM      6  C   UNL     1      -2.991  57.475  24.493  1.00  0.00     0.004 A 
ATOM      7  C   UNL     1      -2.928  57.347  23.107  1.00  0.00     0.004 A 
ATOM      8  C   UNL     1      -2.997  61.037  22.034  1.00  0.00     0.048 C 
ENDROOT
BRANCH   4   9
ATOM      9  O   UNL     1      -3.125  61.123  24.933  1.00  0.00    -0.508 OA
ATOM     10  H   UNL     1      -3.029  62.010  24.456  1.00  0.00     0.293 HD
ENDBRANCH   4   9
TORSDOF 1
ENDMDL
MODEL 2
REMARK VINA RESULT:     4.748     18.117     19.297
REMARK INTER + INTRA:           4.887
REMARK INTER:                   4.887
REMARK INTRA:                   0.000
REMARK UNBOUND:                 0.000
REMARK SMILES Cc1cccc(O)c1C
REMARK SMILES IDX 1 1 2 2 8 3 6 4 5 5 4 6 3 7 9 8 7 9
REMARK H PARENT 7 10
REMARK Flexibility Score: inf
ROOT
ATOM      1  C   UNL     1       3.845  42.793  24.675  1.00  0.00     0.045 C 
ATOM      2  C   UNL     1       5.300  42.400  24.633  1.00  0.00    -0.045 A 
ATOM      3  C   UNL     1       6.257  43.125  23.870  1.00  0.00    -0.006 A 
ATOM      4  C   UNL     1       7.609  42.698  23.877  1.00  0.00     0.118 A 
ATOM      5  C   UNL     1       7.987  41.580  24.625  1.00  0.00     0.046 A 
ATOM      6  C   UNL     1       7.045  40.875  25.369  1.00  0.00     0.004 A 
ATOM      7  C   UNL     1       5.712  41.280  25.374  1.00  0.00     0.004 A 
ATOM      8  C   UNL     1       5.871  44.338  23.053  1.00  0.00     0.048 C 
ENDROOT
BRANCH   4   9
ATOM      9  O   UNL     1       8.603  43.362  23.152  1.00  0.00    -0.508 OA
ATOM     10  H   UNL     1       9.142  44.133  23.521  1.00  0.00     0.293 HD
ENDBRANCH   4   9
TORSDOF 1
ENDMDL
MODEL 3
REMARK VINA RESULT:     5.420     18.010     19.146
REMARK INTER + INTRA:           5.579
REMARK INTER:                   5.579
REMARK INTRA:                   0.000
REMARK UNBOUND:                 0.000
REMARK SMILES Cc1cccc(O)c1C
REMARK SMILES IDX 1 1 2 2 8 3 6 4 5 5 4 6 3 7 9 8 7 9
REMARK H PARENT 7 10
REMARK Flexibility Score: inf
ROOT
ATOM      1  C   UNL     1       8.831  42.952  23.132  1.00  0.00     0.045 C 
ATOM      2  C   UNL     1       7.602  42.506  23.882  1.00  0.00    -0.045 A 
ATOM      3  C   UNL     1       6.384  43.240  23.839  1.00  0.00    -0.006 A 
ATOM      4  C   UNL     1       5.266  42.761  24.571  1.00  0.00     0.118 A 
ATOM      5  C   UNL     1       5.371  41.586  25.320  1.00  0.00     0.046 A 
ATOM      6  C   UNL     1       6.566  40.875  25.358  1.00  0.00     0.004 A 
ATOM      7  C   UNL     1       7.673  41.329  24.645  1.00  0.00     0.004 A 
ATOM      8  C   UNL     1       6.248  44.514  23.035  1.00  0.00     0.048 C 
ENDROOT
BRANCH   4   9
ATOM      9  O   UNL     1       4.038  43.429  24.574  1.00  0.00    -0.508 OA
ATOM     10  H   UNL     1       3.217  43.091  24.090  1.00  0.00     0.293 HD
ENDBRANCH   4   9
TORSDOF 1
ENDMDL
MODEL 4
REMARK VINA RESULT:     5.517     18.321     19.506
REMARK INTER + INTRA:           5.678
REMARK INTER:                   5.678
REMARK INTRA:                   0.000
REMARK UNBOUND:                 0.000
REMARK SMILES Cc1cccc(O)c1C
REMARK SMILES IDX 1 1 2 2 8 3 6 4 5 5 4 6 3 7 9 8 7 9
REMARK H PARENT 7 10
REMARK Flexibility Score: inf
ROOT
ATOM      1  C   UNL     1       8.964  40.875  24.575  1.00  0.00     0.045 C 
ATOM      2  C   UNL     1       7.619  41.554  24.524  1.00  0.00    -0.045 A 
ATOM      3  C   UNL     1       7.419  42.785  23.842  1.00  0.00    -0.006 A 
ATOM      4  C   UNL     1       6.125  43.367  23.835  1.00  0.00     0.118 A 
ATOM      5  C   UNL     1       5.069  42.732  24.493  1.00  0.00     0.046 A 
ATOM      6  C   UNL     1       5.272  41.528  25.160  1.00  0.00     0.004 A 
ATOM      7  C   UNL     1       6.535  40.941  25.176  1.00  0.00     0.004 A 
ATOM      8  C   UNL     1       8.548  43.490  23.122  1.00  0.00     0.048 C 
ENDROOT
BRANCH   4   9
ATOM      9  O   UNL     1       5.856  44.574  23.185  1.00  0.00    -0.508 OA
ATOM     10  H   UNL     1       5.964  45.480  23.621  1.00  0.00     0.293 HD
ENDBRANCH   4   9
TORSDOF 1
ENDMDL
MODEL 5
REMARK VINA RESULT:     5.955      1.883      2.916
REMARK INTER + INTRA:           6.129
REMARK INTER:                   6.129
REMARK INTRA:                   0.000
REMARK UNBOUND:                 0.000
REMARK SMILES Cc1cccc(O)c1C
REMARK SMILES IDX 1 1 2 2 8 3 6 4 5 5 4 6 3 7 9 8 7 9
REMARK H PARENT 7 10
REMARK Flexibility Score: inf
ROOT
ATOM      1  C   UNL     1      -1.931  61.124  20.693  1.00  0.00     0.045 C 
ATOM      2  C   UNL     1      -2.343  60.267  21.862  1.00  0.00    -0.045 A 
ATOM      3  C   UNL     1      -2.402  58.848  21.774  1.00  0.00    -0.006 A 
ATOM      4  C   UNL     1      -2.798  58.103  22.914  1.00  0.00     0.118 A 
ATOM      5  C   UNL     1      -3.125  58.763  24.102  1.00  0.00     0.046 A 
ATOM      6  C   UNL     1      -3.066  60.151  24.180  1.00  0.00     0.004 A 
ATOM      7  C   UNL     1      -2.678  60.898  23.071  1.00  0.00     0.004 A 
ATOM      8  C   UNL     1      -2.053  58.113  20.499  1.00  0.00     0.048 C 
ENDROOT
BRANCH   4   9
ATOM      9  O   UNL     1      -2.878  56.708  22.901  1.00  0.00    -0.508 OA
ATOM     10  H   UNL     1      -2.278  56.109  23.452  1.00  0.00     0.293 HD
ENDBRANCH   4   9
TORSDOF 1
ENDMDL
MODEL 6
REMARK VINA RESULT:     6.247      8.323      8.893
REMARK INTER + INTRA:           6.429
REMARK INTER:                   6.429
REMARK INTRA:                   0.000
REMARK UNBOUND:                 0.000
REMARK SMILES Cc1cccc(O)c1C
REMARK SMILES IDX 1 1 2 2 8 3 6 4 5 5 4 6 3 7 9 8 7 9
REMARK H PARENT 7 10
REMARK Flexibility Score: inf
ROOT
ATOM      1  C   UNL     1      -2.299  50.721  22.485  1.00  0.00     0.045 C 
ATOM      2  C   UNL     1      -1.744  51.150  21.150  1.00  0.00    -0.045 A 
ATOM      3  C   UNL     1      -0.451  51.727  21.020  1.00  0.00    -0.006 A 
ATOM      4  C   UNL     1       0.007  52.107  19.732  1.00  0.00     0.118 A 
ATOM      5  C   UNL     1      -0.807  51.913  18.614  1.00  0.00     0.046 A 
ATOM      6  C   UNL     1      -2.072  51.348  18.749  1.00  0.00     0.004 A 
ATOM      7  C   UNL     1      -2.538  50.968  20.006  1.00  0.00     0.004 A 
ATOM      8  C   UNL     1       0.449  51.947  22.217  1.00  0.00     0.048 C 
ENDROOT
BRANCH   4   9
ATOM      9  O   UNL     1       1.266  52.680  19.529  1.00  0.00    -0.508 OA
ATOM     10  H   UNL     1       1.403  53.628  19.206  1.00  0.00     0.293 HD
ENDBRANCH   4   9
TORSDOF 1
ENDMDL
MODEL 7
REMARK VINA RESULT:     6.489      8.337      8.471
REMARK INTER + INTRA:           6.678
REMARK INTER:                   6.678
REMARK INTRA:                   0.000
REMARK UNBOUND:                 0.000
REMARK SMILES Cc1cccc(O)c1C
REMARK SMILES IDX 1 1 2 2 8 3 6 4 5 5 4 6 3 7 9 8 7 9
REMARK H PARENT 7 10
REMARK Flexibility Score: inf
ROOT
ATOM      1  C   UNL     1      -1.615  51.715  18.082  1.00  0.00     0.045 C 
ATOM      2  C   UNL     1      -1.490  51.509  19.569  1.00  0.00    -0.045 A 
ATOM      3  C   UNL     1      -0.294  51.816  20.276  1.00  0.00    -0.006 A 
ATOM      4  C   UNL     1      -0.247  51.597  21.677  1.00  0.00     0.118 A 
ATOM      5  C   UNL     1      -1.364  51.087  22.344  1.00  0.00     0.046 A 
ATOM      6  C   UNL     1      -2.530  50.787  21.646  1.00  0.00     0.004 A 
ATOM      7  C   UNL     1      -2.595  50.997  20.270  1.00  0.00     0.004 A 
ATOM      8  C   UNL     1       0.927  52.370  19.576  1.00  0.00     0.048 C 
ENDROOT
BRANCH   4   9
ATOM      9  O   UNL     1       0.893  51.876  22.436  1.00  0.00    -0.508 OA
ATOM     10  H   UNL     1       0.987  52.694  23.024  1.00  0.00     0.293 HD
ENDBRANCH   4   9
TORSDOF 1
ENDMDL
MODEL 8
REMARK VINA RESULT:     6.730     17.811     19.004
REMARK INTER + INTRA:           6.927
REMARK INTER:                   6.927
REMARK INTRA:                   0.000
REMARK UNBOUND:                 0.000
REMARK SMILES Cc1cccc(O)c1C
REMARK SMILES IDX 1 1 2 2 8 3 6 4 5 5 4 6 3 7 9 8 7 9
REMARK H PARENT 7 10
REMARK Flexibility Score: inf
ROOT
ATOM      1  C   UNL     1       6.250  44.659  23.081  1.00  0.00     0.045 C 
ATOM      2  C   UNL     1       6.218  43.378  23.875  1.00  0.00    -0.045 A 
ATOM      3  C   UNL     1       4.997  42.751  24.248  1.00  0.00    -0.006 A 
ATOM      4  C   UNL     1       5.042  41.546  24.996  1.00  0.00     0.118 A 
ATOM      5  C   UNL     1       6.272  40.992  25.356  1.00  0.00     0.046 A 
ATOM      6  C   UNL     1       7.463  41.611  24.989  1.00  0.00     0.004 A 
ATOM      7  C   UNL     1       7.438  42.794  24.254  1.00  0.00     0.004 A 
ATOM      8  C   UNL     1       3.653  43.333  23.869  1.00  0.00     0.048 C 
ENDROOT
BRANCH   4   9
ATOM      9  O   UNL     1       3.883  40.875  25.396  1.00  0.00    -0.508 OA
ATOM     10  H   UNL     1       3.567  40.009  24.980  1.00  0.00     0.293 HD
ENDBRANCH   4   9
TORSDOF 1
ENDMDL
