MODEL 1
REMARK VINA RESULT:    -4.937      0.000      0.000
REMARK INTER + INTRA:         -16.161
REMARK INTER:                 -12.442
REMARK INTRA:                  -3.719
REMARK UNBOUND:                -3.719
REMARK SMILES CCCCCCCCCCCCCCCCCCCCCCCCCCCC(=O)[O-]
REMARK SMILES IDX 15 1 16 2 17 3 18 4 19 5 20 6 21 7 22 8 23 9 24 10 25 11
REMARK SMILES IDX 26 12 27 13 28 14 29 15 30 16 14 17 13 18 12 19 11 20 10 21
REMARK SMILES IDX 9 22 8 23 7 24 6 25 5 26 4 27 3 28 2 29 1 30
REMARK H PARENT
REMARK Flexibility Score: inf
ROOT
ATOM      1  C   UNL     1      -1.300  -1.488 -17.960  1.00  0.00     0.000 C 
ENDROOT
BRANCH   1   2
ATOM      2  C   UNL     1      -2.796  -1.607 -18.297  1.00  0.00     0.000 C 
BRANCH   2   3
ATOM      3  C   UNL     1      -3.662  -1.830 -17.047  1.00  0.00     0.000 C 
BRANCH   3   4
ATOM      4  C   UNL     1      -3.705  -3.304 -16.616  1.00  0.00     0.000 C 
BRANCH   4   5
ATOM      5  C   UNL     1      -4.805  -3.536 -15.568  1.00  0.00     0.000 C 
BRANCH   5   6
ATOM      6  C   UNL     1      -5.080  -2.293 -14.708  1.00  0.00     0.000 C 
BRANCH   6   7
ATOM      7  C   UNL     1      -6.190  -2.527 -13.668  1.00  0.00     0.000 C 
BRANCH   7   8
ATOM      8  C   UNL     1      -7.536  -2.904 -14.308  1.00  0.00     0.000 C 
BRANCH   8   9
ATOM      9  C   UNL     1      -8.232  -4.135 -13.693  1.00  0.00     0.000 C 
BRANCH   9  10
ATOM     10  C   UNL     1      -8.752  -5.144 -14.739  1.00  0.00     0.000 C 
BRANCH  10  11
ATOM     11  C   UNL     1      -8.921  -4.506 -16.127  1.00  0.00     0.000 C 
BRANCH  11  12
ATOM     12  C   UNL     1     -10.344  -3.957 -16.311  1.00  0.00     0.006 C 
BRANCH  12  13
ATOM     13  C   UNL     1     -11.417  -4.977 -15.909  1.00  0.00     0.053 C 
BRANCH  13  14
ATOM     14  C   UNL     1     -12.521  -4.344 -15.119  1.00  0.00     0.041 C 
ATOM     15  O   UNL     1     -12.665  -4.623 -13.899  1.00  0.00    -0.550 OA
ATOM     16  O   UNL     1     -13.397  -3.455 -15.732  1.00  0.00    -0.550 OA
ENDBRANCH  13  14
ENDBRANCH  12  13
ENDBRANCH  11  12
ENDBRANCH  10  11
ENDBRANCH   9  10
ENDBRANCH   8   9
ENDBRANCH   7   8
ENDBRANCH   6   7
ENDBRANCH   5   6
ENDBRANCH   4   5
ENDBRANCH   3   4
ENDBRANCH   2   3
ENDBRANCH   1   2
BRANCH   1  17
ATOM     17  C   UNL     1      -1.027  -0.505 -16.809  1.00  0.00     0.000 C 
BRANCH  17  18
ATOM     18  C   UNL     1      -0.094  -1.091 -15.732  1.00  0.00     0.000 C 
BRANCH  18  19
ATOM     19  C   UNL     1      -0.710  -1.021 -14.317  1.00  0.00     0.000 C 
BRANCH  19  20
ATOM     20  C   UNL     1      -1.491  -2.285 -13.918  1.00  0.00     0.000 C 
BRANCH  20  21
ATOM     21  C   UNL     1      -2.197  -2.149 -12.560  1.00  0.00     0.000 C 
BRANCH  21  22
ATOM     22  C   UNL     1      -2.697  -0.720 -12.295  1.00  0.00    -0.000 C 
BRANCH  22  23
ATOM     23  C   UNL     1      -3.945  -0.691 -11.395  1.00  0.00    -0.000 C 
BRANCH  23  24
ATOM     24  C   UNL     1      -4.176  -2.021 -10.656  1.00  0.00    -0.000 C 
BRANCH  24  25
ATOM     25  C   UNL     1      -5.592  -2.198 -10.069  1.00  0.00    -0.000 C 
BRANCH  25  26
ATOM     26  C   UNL     1      -6.556  -1.022 -10.323  1.00  0.00    -0.000 C 
BRANCH  26  27
ATOM     27  C   UNL     1      -6.884  -0.166  -9.085  1.00  0.00    -0.000 C 
BRANCH  27  28
ATOM     28  C   UNL     1      -6.649   1.335  -9.319  1.00  0.00    -0.000 C 
BRANCH  28  29
ATOM     29  C   UNL     1      -5.349   1.835  -8.666  1.00  0.00    -0.003 C 
ATOM     30  C   UNL     1      -4.666   0.767  -7.812  1.00  0.00     0.004 C 
ENDBRANCH  28  29
ENDBRANCH  27  28
ENDBRANCH  26  27
ENDBRANCH  25  26
ENDBRANCH  24  25
ENDBRANCH  23  24
ENDBRANCH  22  23
ENDBRANCH  21  22
ENDBRANCH  20  21
ENDBRANCH  19  20
ENDBRANCH  18  19
ENDBRANCH  17  18
ENDBRANCH   1  17
TORSDOF 26
ENDMDL
MODEL 2
REMARK VINA RESULT:    -4.902      3.637      7.179
REMARK INTER + INTRA:         -16.071
REMARK INTER:                 -11.843
REMARK INTRA:                  -4.228
REMARK UNBOUND:                -3.719
REMARK SMILES CCCCCCCCCCCCCCCCCCCCCCCCCCCC(=O)[O-]
REMARK SMILES IDX 15 1 16 2 17 3 18 4 19 5 20 6 21 7 22 8 23 9 24 10 25 11
REMARK SMILES IDX 26 12 27 13 28 14 29 15 30 16 14 17 13 18 12 19 11 20 10 21
REMARK SMILES IDX 9 22 8 23 7 24 6 25 5 26 4 27 3 28 2 29 1 30
REMARK H PARENT
REMARK Flexibility Score: inf
ROOT
ATOM      1  C   UNL     1     -11.592  -5.691 -14.953  1.00  0.00     0.000 C 
ENDROOT
BRANCH   1   2
ATOM      2  C   UNL     1     -10.808  -6.511 -13.914  1.00  0.00     0.000 C 
BRANCH   2   3
ATOM      3  C   UNL     1     -10.412  -7.900 -14.440  1.00  0.00     0.000 C 
BRANCH   3   4
ATOM      4  C   UNL     1      -8.987  -8.301 -14.031  1.00  0.00     0.000 C 
BRANCH   4   5
ATOM      5  C   UNL     1      -8.054  -7.081 -14.033  1.00  0.00     0.000 C 
BRANCH   5   6
ATOM      6  C   UNL     1      -7.350  -6.871 -15.382  1.00  0.00     0.000 C 
BRANCH   6   7
ATOM      7  C   UNL     1      -5.884  -6.428 -15.223  1.00  0.00     0.000 C 
BRANCH   7   8
ATOM      8  C   UNL     1      -5.631  -5.668 -13.911  1.00  0.00     0.000 C 
BRANCH   8   9
ATOM      9  C   UNL     1      -4.773  -4.394 -14.047  1.00  0.00     0.000 C 
BRANCH   9  10
ATOM     10  C   UNL     1      -4.997  -3.631 -15.370  1.00  0.00     0.000 C 
BRANCH  10  11
ATOM     11  C   UNL     1      -4.341  -2.242 -15.358  1.00  0.00     0.000 C 
BRANCH  11  12
ATOM     12  C   UNL     1      -3.825  -1.864 -16.755  1.00  0.00     0.006 C 
BRANCH  12  13
ATOM     13  C   UNL     1      -3.230  -3.066 -17.499  1.00  0.00     0.053 C 
BRANCH  13  14
ATOM     14  C   UNL     1      -1.732  -3.051 -17.477  1.00  0.00     0.041 C 
ATOM     15  O   UNL     1      -1.081  -3.737 -18.308  1.00  0.00    -0.550 OA
ATOM     16  O   UNL     1      -1.056  -2.287 -16.532  1.00  0.00    -0.550 OA
ENDBRANCH  13  14
ENDBRANCH  12  13
ENDBRANCH  11  12
ENDBRANCH  10  11
ENDBRANCH   9  10
ENDBRANCH   8   9
ENDBRANCH   7   8
ENDBRANCH   6   7
ENDBRANCH   5   6
ENDBRANCH   4   5
ENDBRANCH   3   4
ENDBRANCH   2   3
ENDBRANCH   1   2
BRANCH   1  17
ATOM     17  C   UNL     1     -11.096  -4.240 -15.061  1.00  0.00     0.000 C 
BRANCH  17  18
ATOM     18  C   UNL     1      -9.957  -4.072 -16.084  1.00  0.00     0.000 C 
BRANCH  18  19
ATOM     19  C   UNL     1      -8.617  -3.688 -15.417  1.00  0.00     0.000 C 
BRANCH  19  20
ATOM     20  C   UNL     1      -8.732  -3.414 -13.908  1.00  0.00     0.000 C 
BRANCH  20  21
ATOM     21  C   UNL     1      -7.813  -2.278 -13.433  1.00  0.00     0.000 C 
BRANCH  21  22
ATOM     22  C   UNL     1      -7.772  -2.153 -11.902  1.00  0.00    -0.000 C 
BRANCH  22  23
ATOM     23  C   UNL     1      -6.864  -3.209 -11.249  1.00  0.00    -0.000 C 
BRANCH  23  24
ATOM     24  C   UNL     1      -5.690  -2.585 -10.473  1.00  0.00    -0.000 C 
BRANCH  24  25
ATOM     25  C   UNL     1      -4.585  -1.970 -11.356  1.00  0.00    -0.000 C 
BRANCH  25  26
ATOM     26  C   UNL     1      -4.555  -0.429 -11.387  1.00  0.00    -0.000 C 
BRANCH  26  27
ATOM     27  C   UNL     1      -5.196   0.263 -10.170  1.00  0.00    -0.000 C 
BRANCH  27  28
ATOM     28  C   UNL     1      -6.432   1.100 -10.542  1.00  0.00    -0.000 C 
BRANCH  28  29
ATOM     29  C   UNL     1      -6.317   2.558 -10.070  1.00  0.00    -0.003 C 
ATOM     30  C   UNL     1      -7.279   3.495 -10.800  1.00  0.00     0.004 C 
ENDBRANCH  28  29
ENDBRANCH  27  28
ENDBRANCH  26  27
ENDBRANCH  25  26
ENDBRANCH  24  25
ENDBRANCH  23  24
ENDBRANCH  22  23
ENDBRANCH  21  22
ENDBRANCH  20  21
ENDBRANCH  19  20
ENDBRANCH  18  19
ENDBRANCH  17  18
ENDBRANCH   1  17
TORSDOF 26
ENDMDL
MODEL 3
REMARK VINA RESULT:    -4.897      3.212      8.223
REMARK INTER + INTRA:         -16.061
REMARK INTER:                 -11.626
REMARK INTRA:                  -4.434
REMARK UNBOUND:                -3.719
REMARK SMILES CCCCCCCCCCCCCCCCCCCCCCCCCCCC(=O)[O-]
REMARK SMILES IDX 15 1 16 2 17 3 18 4 19 5 20 6 21 7 22 8 23 9 24 10 25 11
REMARK SMILES IDX 26 12 27 13 28 14 29 15 30 16 14 17 13 18 12 19 11 20 10 21
REMARK SMILES IDX 9 22 8 23 7 24 6 25 5 26 4 27 3 28 2 29 1 30
REMARK H PARENT
REMARK Flexibility Score: inf
ROOT
ATOM      1  C   UNL     1     -11.545  -5.611 -14.288  1.00  0.00     0.000 C 
ENDROOT
BRANCH   1   2
ATOM      2  C   UNL     1     -11.344  -5.118 -15.731  1.00  0.00     0.000 C 
BRANCH   2   3
ATOM      3  C   UNL     1     -10.477  -3.850 -15.802  1.00  0.00     0.000 C 
BRANCH   3   4
ATOM      4  C   UNL     1      -9.009  -4.158 -16.130  1.00  0.00     0.000 C 
BRANCH   4   5
ATOM      5  C   UNL     1      -8.082  -3.656 -15.012  1.00  0.00     0.000 C 
BRANCH   5   6
ATOM      6  C   UNL     1      -8.852  -3.100 -13.804  1.00  0.00     0.000 C 
BRANCH   6   7
ATOM      7  C   UNL     1      -7.946  -2.328 -12.829  1.00  0.00     0.000 C 
BRANCH   7   8
ATOM      8  C   UNL     1      -7.287  -3.239 -11.780  1.00  0.00     0.000 C 
BRANCH   8   9
ATOM      9  C   UNL     1      -5.797  -2.952 -11.506  1.00  0.00     0.000 C 
BRANCH   9  10
ATOM     10  C   UNL     1      -5.369  -1.508 -11.840  1.00  0.00     0.000 C 
BRANCH  10  11
ATOM     11  C   UNL     1      -4.780  -0.780 -10.623  1.00  0.00     0.000 C 
BRANCH  11  12
ATOM     12  C   UNL     1      -5.756  -0.808  -9.437  1.00  0.00     0.006 C 
BRANCH  12  13
ATOM     13  C   UNL     1      -6.978   0.090  -9.670  1.00  0.00     0.053 C 
BRANCH  13  14
ATOM     14  C   UNL     1      -6.610   1.542  -9.678  1.00  0.00     0.041 C 
ATOM     15  O   UNL     1      -6.398   2.146  -8.593  1.00  0.00    -0.550 OA
ATOM     16  O   UNL     1      -6.511   2.230 -10.882  1.00  0.00    -0.550 OA
ENDBRANCH  13  14
ENDBRANCH  12  13
ENDBRANCH  11  12
ENDBRANCH  10  11
ENDBRANCH   9  10
ENDBRANCH   8   9
ENDBRANCH   7   8
ENDBRANCH   6   7
ENDBRANCH   5   6
ENDBRANCH   4   5
ENDBRANCH   3   4
ENDBRANCH   2   3
ENDBRANCH   1   2
BRANCH   1  17
ATOM     17  C   UNL     1     -10.520  -6.682 -13.880  1.00  0.00     0.000 C 
BRANCH  17  18
ATOM     18  C   UNL     1     -10.557  -7.924 -14.791  1.00  0.00     0.000 C 
BRANCH  18  19
ATOM     19  C   UNL     1      -9.153  -8.519 -15.035  1.00  0.00     0.000 C 
BRANCH  19  20
ATOM     20  C   UNL     1      -8.382  -7.840 -16.179  1.00  0.00     0.000 C 
BRANCH  20  21
ATOM     21  C   UNL     1      -7.049  -7.225 -15.722  1.00  0.00     0.000 C 
BRANCH  21  22
ATOM     22  C   UNL     1      -6.823  -7.365 -14.208  1.00  0.00    -0.000 C 
BRANCH  22  23
ATOM     23  C   UNL     1      -6.088  -6.155 -13.609  1.00  0.00    -0.000 C 
BRANCH  23  24
ATOM     24  C   UNL     1      -4.601  -6.107 -14.002  1.00  0.00    -0.000 C 
BRANCH  24  25
ATOM     25  C   UNL     1      -4.039  -4.691 -14.241  1.00  0.00    -0.000 C 
BRANCH  25  26
ATOM     26  C   UNL     1      -4.669  -3.928 -15.423  1.00  0.00    -0.000 C 
BRANCH  26  27
ATOM     27  C   UNL     1      -4.531  -2.395 -15.361  1.00  0.00    -0.000 C 
BRANCH  27  28
ATOM     28  C   UNL     1      -3.299  -1.876 -16.119  1.00  0.00    -0.000 C 
BRANCH  28  29
ATOM     29  C   UNL     1      -3.629  -1.456 -17.561  1.00  0.00    -0.003 C 
ATOM     30  C   UNL     1      -2.510  -1.790 -18.547  1.00  0.00     0.004 C 
ENDBRANCH  28  29
ENDBRANCH  27  28
ENDBRANCH  26  27
ENDBRANCH  25  26
ENDBRANCH  24  25
ENDBRANCH  23  24
ENDBRANCH  22  23
ENDBRANCH  21  22
ENDBRANCH  20  21
ENDBRANCH  19  20
ENDBRANCH  18  19
ENDBRANCH  17  18
ENDBRANCH   1  17
TORSDOF 26
ENDMDL
MODEL 4
REMARK VINA RESULT:    -4.879      1.410      2.163
REMARK INTER + INTRA:         -16.015
REMARK INTER:                 -11.924
REMARK INTRA:                  -4.091
REMARK UNBOUND:                -3.719
REMARK SMILES CCCCCCCCCCCCCCCCCCCCCCCCCCCC(=O)[O-]
REMARK SMILES IDX 15 1 16 2 17 3 18 4 19 5 20 6 21 7 22 8 23 9 24 10 25 11
REMARK SMILES IDX 26 12 27 13 28 14 29 15 30 16 14 17 13 18 12 19 11 20 10 21
REMARK SMILES IDX 9 22 8 23 7 24 6 25 5 26 4 27 3 28 2 29 1 30
REMARK H PARENT
REMARK Flexibility Score: inf
ROOT
ATOM      1  C   UNL     1      -0.991  -0.497 -17.465  1.00  0.00     0.000 C 
ENDROOT
BRANCH   1   2
ATOM      2  C   UNL     1      -1.240  -1.604 -18.502  1.00  0.00     0.000 C 
BRANCH   2   3
ATOM      3  C   UNL     1      -2.709  -2.056 -18.535  1.00  0.00     0.000 C 
BRANCH   3   4
ATOM      4  C   UNL     1      -3.589  -1.272 -17.551  1.00  0.00     0.000 C 
BRANCH   4   5
ATOM      5  C   UNL     1      -3.944  -2.134 -16.329  1.00  0.00     0.000 C 
BRANCH   5   6
ATOM      6  C   UNL     1      -3.568  -3.612 -16.513  1.00  0.00     0.000 C 
BRANCH   6   7
ATOM      7  C   UNL     1      -4.096  -4.503 -15.375  1.00  0.00     0.000 C 
BRANCH   7   8
ATOM      8  C   UNL     1      -5.012  -5.632 -15.877  1.00  0.00     0.000 C 
BRANCH   8   9
ATOM      9  C   UNL     1      -6.506  -5.467 -15.531  1.00  0.00     0.000 C 
BRANCH   9  10
ATOM     10  C   UNL     1      -6.763  -4.594 -14.285  1.00  0.00     0.000 C 
BRANCH  10  11
ATOM     11  C   UNL     1      -7.586  -3.339 -14.614  1.00  0.00     0.000 C 
BRANCH  11  12
ATOM     12  C   UNL     1      -9.017  -3.460 -14.070  1.00  0.00     0.006 C 
BRANCH  12  13
ATOM     13  C   UNL     1      -9.847  -4.493 -14.843  1.00  0.00     0.053 C 
BRANCH  13  14
ATOM     14  C   UNL     1     -10.776  -3.842 -15.822  1.00  0.00     0.041 C 
ATOM     15  O   UNL     1     -12.021  -4.007 -15.718  1.00  0.00    -0.550 OA
ATOM     16  O   UNL     1     -10.267  -3.064 -16.856  1.00  0.00    -0.550 OA
ENDBRANCH  13  14
ENDBRANCH  12  13
ENDBRANCH  11  12
ENDBRANCH  10  11
ENDBRANCH   9  10
ENDBRANCH   8   9
ENDBRANCH   7   8
ENDBRANCH   6   7
ENDBRANCH   5   6
ENDBRANCH   4   5
ENDBRANCH   3   4
ENDBRANCH   2   3
ENDBRANCH   1   2
BRANCH   1  17
ATOM     17  C   UNL     1      -0.013  -0.928 -16.359  1.00  0.00     0.000 C 
BRANCH  17  18
ATOM     18  C   UNL     1      -0.682  -1.030 -14.975  1.00  0.00     0.000 C 
BRANCH  18  19
ATOM     19  C   UNL     1      -0.680  -2.472 -14.423  1.00  0.00     0.000 C 
BRANCH  19  20
ATOM     20  C   UNL     1      -1.379  -2.616 -13.061  1.00  0.00     0.000 C 
BRANCH  20  21
ATOM     21  C   UNL     1      -2.620  -1.720 -12.926  1.00  0.00     0.000 C 
BRANCH  21  22
ATOM     22  C   UNL     1      -3.835  -2.476 -12.367  1.00  0.00    -0.000 C 
BRANCH  22  23
ATOM     23  C   UNL     1      -5.127  -1.644 -12.432  1.00  0.00    -0.000 C 
BRANCH  23  24
ATOM     24  C   UNL     1      -6.123  -2.003 -11.315  1.00  0.00    -0.000 C 
BRANCH  24  25
ATOM     25  C   UNL     1      -7.020  -0.838 -10.848  1.00  0.00    -0.000 C 
BRANCH  25  26
ATOM     26  C   UNL     1      -6.568  -0.146  -9.547  1.00  0.00    -0.000 C 
BRANCH  26  27
ATOM     27  C   UNL     1      -6.474   1.389  -9.620  1.00  0.00    -0.000 C 
BRANCH  27  28
ATOM     28  C   UNL     1      -5.835   1.886 -10.927  1.00  0.00    -0.000 C 
BRANCH  28  29
ATOM     29  C   UNL     1      -4.306   1.730 -10.930  1.00  0.00    -0.003 C 
ATOM     30  C   UNL     1      -3.668   2.110  -9.595  1.00  0.00     0.004 C 
ENDBRANCH  28  29
ENDBRANCH  27  28
ENDBRANCH  26  27
ENDBRANCH  25  26
ENDBRANCH  24  25
ENDBRANCH  23  24
ENDBRANCH  22  23
ENDBRANCH  21  22
ENDBRANCH  20  21
ENDBRANCH  19  20
ENDBRANCH  18  19
ENDBRANCH  17  18
ENDBRANCH   1  17
TORSDOF 26
ENDMDL
MODEL 5
REMARK VINA RESULT:    -4.872      3.825      7.761
REMARK INTER + INTRA:         -15.998
REMARK INTER:                 -11.810
REMARK INTRA:                  -4.188
REMARK UNBOUND:                -3.719
REMARK SMILES CCCCCCCCCCCCCCCCCCCCCCCCCCCC(=O)[O-]
REMARK SMILES IDX 15 1 16 2 17 3 18 4 19 5 20 6 21 7 22 8 23 9 24 10 25 11
REMARK SMILES IDX 26 12 27 13 28 14 29 15 30 16 14 17 13 18 12 19 11 20 10 21
REMARK SMILES IDX 9 22 8 23 7 24 6 25 5 26 4 27 3 28 2 29 1 30
REMARK H PARENT
REMARK Flexibility Score: inf
ROOT
ATOM      1  C   UNL     1      -9.321  -3.771 -15.691  1.00  0.00     0.000 C 
ENDROOT
BRANCH   1   2
ATOM      2  C   UNL     1      -8.922  -3.366 -14.261  1.00  0.00     0.000 C 
BRANCH   2   3
ATOM      3  C   UNL     1      -7.641  -4.072 -13.788  1.00  0.00     0.000 C 
BRANCH   3   4
ATOM      4  C   UNL     1      -6.533  -4.055 -14.850  1.00  0.00     0.000 C 
BRANCH   4   5
ATOM      5  C   UNL     1      -5.767  -2.723 -14.820  1.00  0.00     0.000 C 
BRANCH   5   6
ATOM      6  C   UNL     1      -4.244  -2.913 -14.746  1.00  0.00     0.000 C 
BRANCH   6   7
ATOM      7  C   UNL     1      -3.639  -2.338 -13.453  1.00  0.00     0.000 C 
BRANCH   7   8
ATOM      8  C   UNL     1      -4.707  -1.860 -12.455  1.00  0.00     0.000 C 
BRANCH   8   9
ATOM      9  C   UNL     1      -5.006  -2.835 -11.298  1.00  0.00     0.000 C 
BRANCH   9  10
ATOM     10  C   UNL     1      -6.343  -2.558 -10.580  1.00  0.00     0.000 C 
BRANCH  10  11
ATOM     11  C   UNL     1      -7.029  -1.286 -11.100  1.00  0.00     0.000 C 
BRANCH  11  12
ATOM     12  C   UNL     1      -6.932  -0.148 -10.072  1.00  0.00     0.006 C 
BRANCH  12  13
ATOM     13  C   UNL     1      -6.061   1.012 -10.570  1.00  0.00     0.053 C 
BRANCH  13  14
ATOM     14  C   UNL     1      -6.692   2.342 -10.294  1.00  0.00     0.041 C 
ATOM     15  O   UNL     1      -6.923   2.698  -9.108  1.00  0.00    -0.550 OA
ATOM     16  O   UNL     1      -7.033   3.185 -11.346  1.00  0.00    -0.550 OA
ENDBRANCH  13  14
ENDBRANCH  12  13
ENDBRANCH  11  12
ENDBRANCH  10  11
ENDBRANCH   9  10
ENDBRANCH   8   9
ENDBRANCH   7   8
ENDBRANCH   6   7
ENDBRANCH   5   6
ENDBRANCH   4   5
ENDBRANCH   3   4
ENDBRANCH   2   3
ENDBRANCH   1   2
BRANCH   1  17
ATOM     17  C   UNL     1     -10.826  -4.053 -15.830  1.00  0.00     0.000 C 
BRANCH  17  18
ATOM     18  C   UNL     1     -11.387  -4.893 -14.666  1.00  0.00     0.000 C 
BRANCH  18  19
ATOM     19  C   UNL     1     -11.130  -6.404 -14.852  1.00  0.00     0.000 C 
BRANCH  19  20
ATOM     20  C   UNL     1     -10.086  -6.980 -13.881  1.00  0.00     0.000 C 
BRANCH  20  21
ATOM     21  C   UNL     1      -8.761  -7.342 -14.571  1.00  0.00     0.000 C 
BRANCH  21  22
ATOM     22  C   UNL     1      -7.669  -7.753 -13.571  1.00  0.00    -0.000 C 
BRANCH  22  23
ATOM     23  C   UNL     1      -6.268  -7.777 -14.206  1.00  0.00    -0.000 C 
BRANCH  23  24
ATOM     24  C   UNL     1      -5.148  -7.498 -13.188  1.00  0.00    -0.000 C 
BRANCH  24  25
ATOM     25  C   UNL     1      -5.488  -6.430 -12.129  1.00  0.00    -0.000 C 
BRANCH  25  26
ATOM     26  C   UNL     1      -5.134  -6.812 -10.677  1.00  0.00    -0.000 C 
BRANCH  26  27
ATOM     27  C   UNL     1      -6.327  -7.245  -9.805  1.00  0.00    -0.000 C 
BRANCH  27  28
ATOM     28  C   UNL     1      -6.924  -6.085  -8.991  1.00  0.00    -0.000 C 
BRANCH  28  29
ATOM     29  C   UNL     1      -7.709  -6.572  -7.763  1.00  0.00    -0.003 C 
ATOM     30  C   UNL     1      -6.837  -7.331  -6.763  1.00  0.00     0.004 C 
ENDBRANCH  28  29
ENDBRANCH  27  28
ENDBRANCH  26  27
ENDBRANCH  25  26
ENDBRANCH  24  25
ENDBRANCH  23  24
ENDBRANCH  22  23
ENDBRANCH  21  22
ENDBRANCH  20  21
ENDBRANCH  19  20
ENDBRANCH  18  19
ENDBRANCH  17  18
ENDBRANCH   1  17
TORSDOF 26
ENDMDL
MODEL 6
REMARK VINA RESULT:    -4.871      3.619      7.412
REMARK INTER + INTRA:         -15.993
REMARK INTER:                 -12.283
REMARK INTRA:                  -3.710
REMARK UNBOUND:                -3.719
REMARK SMILES CCCCCCCCCCCCCCCCCCCCCCCCCCCC(=O)[O-]
REMARK SMILES IDX 15 1 16 2 17 3 18 4 19 5 20 6 21 7 22 8 23 9 24 10 25 11
REMARK SMILES IDX 26 12 27 13 28 14 29 15 30 16 14 17 13 18 12 19 11 20 10 21
REMARK SMILES IDX 9 22 8 23 7 24 6 25 5 26 4 27 3 28 2 29 1 30
REMARK H PARENT
REMARK Flexibility Score: inf
ROOT
ATOM      1  C   UNL     1      -9.405  -3.629 -15.455  1.00  0.00     0.000 C 
ENDROOT
BRANCH   1   2
ATOM      2  C   UNL     1     -10.113  -4.353 -16.613  1.00  0.00     0.000 C 
BRANCH   2   3
ATOM      3  C   UNL     1     -11.290  -5.217 -16.132  1.00  0.00     0.000 C 
BRANCH   3   4
ATOM      4  C   UNL     1     -11.573  -5.045 -14.632  1.00  0.00     0.000 C 
BRANCH   4   5
ATOM      5  C   UNL     1     -11.176  -6.308 -13.852  1.00  0.00     0.000 C 
BRANCH   5   6
ATOM      6  C   UNL     1     -10.643  -7.427 -14.761  1.00  0.00     0.000 C 
BRANCH   6   7
ATOM      7  C   UNL     1      -9.212  -7.856 -14.393  1.00  0.00     0.000 C 
BRANCH   7   8
ATOM      8  C   UNL     1      -8.534  -6.889 -13.409  1.00  0.00     0.000 C 
BRANCH   8   9
ATOM      9  C   UNL     1      -7.404  -7.505 -12.559  1.00  0.00     0.000 C 
BRANCH   9  10
ATOM     10  C   UNL     1      -6.742  -6.507 -11.586  1.00  0.00     0.000 C 
BRANCH  10  11
ATOM     11  C   UNL     1      -6.424  -7.145 -10.225  1.00  0.00     0.000 C 
BRANCH  11  12
ATOM     12  C   UNL     1      -6.854  -6.227  -9.072  1.00  0.00     0.006 C 
BRANCH  12  13
ATOM     13  C   UNL     1      -7.657  -6.977  -8.001  1.00  0.00     0.053 C 
BRANCH  13  14
ATOM     14  C   UNL     1      -7.038  -6.844  -6.643  1.00  0.00     0.041 C 
ATOM     15  O   UNL     1      -6.226  -5.909  -6.408  1.00  0.00    -0.550 OA
ATOM     16  O   UNL     1      -7.348  -7.757  -5.642  1.00  0.00    -0.550 OA
ENDBRANCH  13  14
ENDBRANCH  12  13
ENDBRANCH  11  12
ENDBRANCH  10  11
ENDBRANCH   9  10
ENDBRANCH   8   9
ENDBRANCH   7   8
ENDBRANCH   6   7
ENDBRANCH   5   6
ENDBRANCH   4   5
ENDBRANCH   3   4
ENDBRANCH   2   3
ENDBRANCH   1   2
BRANCH   1  17
ATOM     17  C   UNL     1      -7.960  -4.111 -15.249  1.00  0.00     0.000 C 
BRANCH  17  18
ATOM     18  C   UNL     1      -7.274  -3.446 -14.040  1.00  0.00     0.000 C 
BRANCH  18  19
ATOM     19  C   UNL     1      -8.117  -2.296 -13.444  1.00  0.00     0.000 C 
BRANCH  19  20
ATOM     20  C   UNL     1      -7.778  -1.975 -11.978  1.00  0.00     0.000 C 
BRANCH  20  21
ATOM     21  C   UNL     1      -7.069  -3.133 -11.259  1.00  0.00     0.000 C 
BRANCH  21  22
ATOM     22  C   UNL     1      -5.745  -2.702 -10.609  1.00  0.00    -0.000 C 
BRANCH  22  23
ATOM     23  C   UNL     1      -5.605  -1.173 -10.517  1.00  0.00    -0.000 C 
BRANCH  23  24
ATOM     24  C   UNL     1      -4.483  -0.623 -11.416  1.00  0.00    -0.000 C 
BRANCH  24  25
ATOM     25  C   UNL     1      -3.724  -1.691 -12.231  1.00  0.00    -0.000 C 
BRANCH  25  26
ATOM     26  C   UNL     1      -4.062  -1.728 -13.734  1.00  0.00    -0.000 C 
BRANCH  26  27
ATOM     27  C   UNL     1      -3.796  -3.075 -14.432  1.00  0.00    -0.000 C 
BRANCH  27  28
ATOM     28  C   UNL     1      -4.086  -3.033 -15.941  1.00  0.00    -0.000 C 
BRANCH  28  29
ATOM     29  C   UNL     1      -3.440  -1.819 -16.630  1.00  0.00    -0.003 C 
ATOM     30  C   UNL     1      -3.358  -1.973 -18.148  1.00  0.00     0.004 C 
ENDBRANCH  28  29
ENDBRANCH  27  28
ENDBRANCH  26  27
ENDBRANCH  25  26
ENDBRANCH  24  25
ENDBRANCH  23  24
ENDBRANCH  22  23
ENDBRANCH  21  22
ENDBRANCH  20  21
ENDBRANCH  19  20
ENDBRANCH  18  19
ENDBRANCH  17  18
ENDBRANCH   1  17
TORSDOF 26
ENDMDL
MODEL 7
REMARK VINA RESULT:    -4.858      3.612      8.224
REMARK INTER + INTRA:         -15.963
REMARK INTER:                 -12.079
REMARK INTRA:                  -3.883
REMARK UNBOUND:                -3.719
REMARK SMILES CCCCCCCCCCCCCCCCCCCCCCCCCCCC(=O)[O-]
REMARK SMILES IDX 15 1 16 2 17 3 18 4 19 5 20 6 21 7 22 8 23 9 24 10 25 11
REMARK SMILES IDX 26 12 27 13 28 14 29 15 30 16 14 17 13 18 12 19 11 20 10 21
REMARK SMILES IDX 9 22 8 23 7 24 6 25 5 26 4 27 3 28 2 29 1 30
REMARK H PARENT
REMARK Flexibility Score: inf
ROOT
ATOM      1  C   UNL     1      -4.434  -3.873  -9.490  1.00  0.00     0.000 C 
ENDROOT
BRANCH   1   2
ATOM      2  C   UNL     1      -4.250  -2.509  -8.804  1.00  0.00     0.000 C 
BRANCH   2   3
ATOM      3  C   UNL     1      -3.886  -1.396  -9.801  1.00  0.00     0.000 C 
BRANCH   3   4
ATOM      4  C   UNL     1      -4.737  -0.132  -9.607  1.00  0.00     0.000 C 
BRANCH   4   5
ATOM      5  C   UNL     1      -6.235  -0.474  -9.622  1.00  0.00     0.000 C 
BRANCH   5   6
ATOM      6  C   UNL     1      -6.840  -0.443 -11.034  1.00  0.00     0.000 C 
BRANCH   6   7
ATOM      7  C   UNL     1      -7.577  -1.746 -11.391  1.00  0.00     0.000 C 
BRANCH   7   8
ATOM      8  C   UNL     1      -7.213  -2.273 -12.788  1.00  0.00     0.000 C 
BRANCH   8   9
ATOM      9  C   UNL     1      -5.702  -2.367 -13.080  1.00  0.00     0.000 C 
BRANCH   9  10
ATOM     10  C   UNL     1      -5.354  -2.337 -14.583  1.00  0.00     0.000 C 
BRANCH  10  11
ATOM     11  C   UNL     1      -3.845  -2.476 -14.834  1.00  0.00     0.000 C 
BRANCH  11  12
ATOM     12  C   UNL     1      -3.561  -2.852 -16.296  1.00  0.00     0.006 C 
BRANCH  12  13
ATOM     13  C   UNL     1      -3.631  -1.637 -17.231  1.00  0.00     0.053 C 
BRANCH  13  14
ATOM     14  C   UNL     1      -2.279  -1.253 -17.748  1.00  0.00     0.041 C 
ATOM     15  O   UNL     1      -1.975  -1.476 -18.950  1.00  0.00    -0.550 OA
ATOM     16  O   UNL     1      -1.351  -0.658 -16.901  1.00  0.00    -0.550 OA
ENDBRANCH  13  14
ENDBRANCH  12  13
ENDBRANCH  11  12
ENDBRANCH  10  11
ENDBRANCH   9  10
ENDBRANCH   8   9
ENDBRANCH   7   8
ENDBRANCH   6   7
ENDBRANCH   5   6
ENDBRANCH   4   5
ENDBRANCH   3   4
ENDBRANCH   2   3
ENDBRANCH   1   2
BRANCH   1  17
ATOM     17  C   UNL     1      -5.909  -4.197  -9.780  1.00  0.00     0.000 C 
BRANCH  17  18
ATOM     18  C   UNL     1      -6.293  -5.637  -9.388  1.00  0.00     0.000 C 
BRANCH  18  19
ATOM     19  C   UNL     1      -6.462  -6.557 -10.617  1.00  0.00     0.000 C 
BRANCH  19  20
ATOM     20  C   UNL     1      -6.402  -5.814 -11.962  1.00  0.00     0.000 C 
BRANCH  20  21
ATOM     21  C   UNL     1      -7.712  -5.907 -12.758  1.00  0.00     0.000 C 
BRANCH  21  22
ATOM     22  C   UNL     1      -7.647  -6.954 -13.881  1.00  0.00    -0.000 C 
BRANCH  22  23
ATOM     23  C   UNL     1      -6.729  -6.522 -15.037  1.00  0.00    -0.000 C 
BRANCH  23  24
ATOM     24  C   UNL     1      -7.207  -5.230 -15.724  1.00  0.00    -0.000 C 
BRANCH  24  25
ATOM     25  C   UNL     1      -8.610  -5.316 -16.361  1.00  0.00    -0.000 C 
BRANCH  25  26
ATOM     26  C   UNL     1      -9.515  -4.092 -16.116  1.00  0.00    -0.000 C 
BRANCH  26  27
ATOM     27  C   UNL     1     -10.197  -4.047 -14.736  1.00  0.00    -0.000 C 
BRANCH  27  28
ATOM     28  C   UNL     1     -11.265  -5.139 -14.563  1.00  0.00    -0.000 C 
BRANCH  28  29
ATOM     29  C   UNL     1     -12.657  -4.557 -14.265  1.00  0.00    -0.003 C 
ATOM     30  C   UNL     1     -13.239  -3.778 -15.444  1.00  0.00     0.004 C 
ENDBRANCH  28  29
ENDBRANCH  27  28
ENDBRANCH  26  27
ENDBRANCH  25  26
ENDBRANCH  24  25
ENDBRANCH  23  24
ENDBRANCH  22  23
ENDBRANCH  21  22
ENDBRANCH  20  21
ENDBRANCH  19  20
ENDBRANCH  18  19
ENDBRANCH  17  18
ENDBRANCH   1  17
TORSDOF 26
ENDMDL
MODEL 8
REMARK VINA RESULT:    -4.827      2.028      4.897
REMARK INTER + INTRA:         -15.883
REMARK INTER:                 -10.755
REMARK INTRA:                  -5.128
REMARK UNBOUND:                -3.719
REMARK SMILES CCCCCCCCCCCCCCCCCCCCCCCCCCCC(=O)[O-]
REMARK SMILES IDX 15 1 16 2 17 3 18 4 19 5 20 6 21 7 22 8 23 9 24 10 25 11
REMARK SMILES IDX 26 12 27 13 28 14 29 15 30 16 14 17 13 18 12 19 11 20 10 21
REMARK SMILES IDX 9 22 8 23 7 24 6 25 5 26 4 27 3 28 2 29 1 30
REMARK H PARENT
REMARK Flexibility Score: inf
ROOT
ATOM      1  C   UNL     1      -0.229  -1.819 -16.039  1.00  0.00     0.000 C 
ENDROOT
BRANCH   1   2
ATOM      2  C   UNL     1      -0.584  -1.553 -14.566  1.00  0.00     0.000 C 
BRANCH   2   3
ATOM      3  C   UNL     1      -0.743  -2.851 -13.758  1.00  0.00     0.000 C 
BRANCH   3   4
ATOM      4  C   UNL     1      -1.488  -2.632 -12.433  1.00  0.00     0.000 C 
BRANCH   4   5
ATOM      5  C   UNL     1      -2.335  -1.351 -12.487  1.00  0.00     0.000 C 
BRANCH   5   6
ATOM      6  C   UNL     1      -3.831  -1.634 -12.691  1.00  0.00     0.000 C 
BRANCH   6   7
ATOM      7  C   UNL     1      -4.715  -0.926 -11.650  1.00  0.00     0.000 C 
BRANCH   7   8
ATOM      8  C   UNL     1      -5.682  -1.885 -10.936  1.00  0.00     0.000 C 
BRANCH   8   9
ATOM      9  C   UNL     1      -7.155  -1.429 -10.906  1.00  0.00     0.000 C 
BRANCH   9  10
ATOM     10  C   UNL     1      -7.920  -1.708 -12.217  1.00  0.00     0.000 C 
BRANCH  10  11
ATOM     11  C   UNL     1      -7.570  -3.080 -12.813  1.00  0.00     0.000 C 
BRANCH  11  12
ATOM     12  C   UNL     1      -7.920  -3.137 -14.308  1.00  0.00     0.006 C 
BRANCH  12  13
ATOM     13  C   UNL     1      -9.242  -3.870 -14.567  1.00  0.00     0.053 C 
BRANCH  13  14
ATOM     14  C   UNL     1      -9.457  -4.136 -16.025  1.00  0.00     0.041 C 
ATOM     15  O   UNL     1     -10.026  -3.276 -16.748  1.00  0.00    -0.550 OA
ATOM     16  O   UNL     1      -9.037  -5.338 -16.584  1.00  0.00    -0.550 OA
ENDBRANCH  13  14
ENDBRANCH  12  13
ENDBRANCH  11  12
ENDBRANCH  10  11
ENDBRANCH   9  10
ENDBRANCH   8   9
ENDBRANCH   7   8
ENDBRANCH   6   7
ENDBRANCH   5   6
ENDBRANCH   4   5
ENDBRANCH   3   4
ENDBRANCH   2   3
ENDBRANCH   1   2
BRANCH   1  17
ATOM     17  C   UNL     1      -0.314  -3.309 -16.410  1.00  0.00     0.000 C 
BRANCH  17  18
ATOM     18  C   UNL     1      -0.631  -3.537 -17.900  1.00  0.00     0.000 C 
BRANCH  18  19
ATOM     19  C   UNL     1      -0.636  -2.222 -18.710  1.00  0.00     0.000 C 
BRANCH  19  20
ATOM     20  C   UNL     1      -1.958  -1.954 -19.449  1.00  0.00     0.000 C 
BRANCH  20  21
ATOM     21  C   UNL     1      -3.194  -2.379 -18.641  1.00  0.00     0.000 C 
BRANCH  21  22
ATOM     22  C   UNL     1      -3.565  -1.362 -17.551  1.00  0.00    -0.000 C 
BRANCH  22  23
ATOM     23  C   UNL     1      -3.925  -2.035 -16.216  1.00  0.00    -0.000 C 
BRANCH  23  24
ATOM     24  C   UNL     1      -4.140  -3.553 -16.355  1.00  0.00    -0.000 C 
BRANCH  24  25
ATOM     25  C   UNL     1      -3.625  -4.391 -15.166  1.00  0.00    -0.000 C 
BRANCH  25  26
ATOM     26  C   UNL     1      -4.723  -5.022 -14.286  1.00  0.00    -0.000 C 
BRANCH  26  27
ATOM     27  C   UNL     1      -4.403  -5.082 -12.782  1.00  0.00    -0.000 C 
BRANCH  27  28
ATOM     28  C   UNL     1      -5.351  -6.012 -12.006  1.00  0.00    -0.000 C 
BRANCH  28  29
ATOM     29  C   UNL     1      -5.536  -5.575 -10.544  1.00  0.00    -0.003 C 
ATOM     30  C   UNL     1      -7.005  -5.458 -10.141  1.00  0.00     0.004 C 
ENDBRANCH  28  29
ENDBRANCH  27  28
ENDBRANCH  26  27
ENDBRANCH  25  26
ENDBRANCH  24  25
ENDBRANCH  23  24
ENDBRANCH  22  23
ENDBRANCH  21  22
ENDBRANCH  20  21
ENDBRANCH  19  20
ENDBRANCH  18  19
ENDBRANCH  17  18
ENDBRANCH   1  17
TORSDOF 26
ENDMDL
MODEL 9
REMARK VINA RESULT:    -4.814      1.711      5.656
REMARK INTER + INTRA:         -15.851
REMARK INTER:                 -11.320
REMARK INTRA:                  -4.531
REMARK UNBOUND:                -3.719
REMARK SMILES CCCCCCCCCCCCCCCCCCCCCCCCCCCC(=O)[O-]
REMARK SMILES IDX 15 1 16 2 17 3 18 4 19 5 20 6 21 7 22 8 23 9 24 10 25 11
REMARK SMILES IDX 26 12 27 13 28 14 29 15 30 16 14 17 13 18 12 19 11 20 10 21
REMARK SMILES IDX 9 22 8 23 7 24 6 25 5 26 4 27 3 28 2 29 1 30
REMARK H PARENT
REMARK Flexibility Score: inf
ROOT
ATOM      1  C   UNL     1      -4.435   1.802 -11.263  1.00  0.00     0.000 C 
ENDROOT
BRANCH   1   2
ATOM      2  C   UNL     1      -5.191   1.047 -10.156  1.00  0.00     0.000 C 
BRANCH   2   3
ATOM      3  C   UNL     1      -6.611   0.646 -10.585  1.00  0.00     0.000 C 
BRANCH   3   4
ATOM      4  C   UNL     1      -6.926  -0.825 -10.278  1.00  0.00     0.000 C 
BRANCH   4   5
ATOM      5  C   UNL     1      -5.775  -1.479  -9.497  1.00  0.00     0.000 C 
BRANCH   5   6
ATOM      6  C   UNL     1      -5.640  -2.983  -9.784  1.00  0.00     0.000 C 
BRANCH   6   7
ATOM      7  C   UNL     1      -6.685  -3.489 -10.794  1.00  0.00     0.000 C 
BRANCH   7   8
ATOM      8  C   UNL     1      -6.269  -4.804 -11.473  1.00  0.00     0.000 C 
BRANCH   8   9
ATOM      9  C   UNL     1      -6.579  -4.889 -12.981  1.00  0.00     0.000 C 
BRANCH   9  10
ATOM     10  C   UNL     1      -7.727  -3.962 -13.434  1.00  0.00     0.000 C 
BRANCH  10  11
ATOM     11  C   UNL     1      -7.813  -3.849 -14.964  1.00  0.00     0.000 C 
BRANCH  11  12
ATOM     12  C   UNL     1      -8.794  -4.882 -15.538  1.00  0.00     0.006 C 
BRANCH  12  13
ATOM     13  C   UNL     1      -9.978  -5.144 -14.598  1.00  0.00     0.053 C 
BRANCH  13  14
ATOM     14  C   UNL     1     -11.212  -4.419 -15.040  1.00  0.00     0.041 C 
ATOM     15  O   UNL     1     -11.150  -3.575 -15.972  1.00  0.00    -0.550 OA
ATOM     16  O   UNL     1     -12.429  -4.669 -14.414  1.00  0.00    -0.550 OA
ENDBRANCH  13  14
ENDBRANCH  12  13
ENDBRANCH  11  12
ENDBRANCH  10  11
ENDBRANCH   9  10
ENDBRANCH   8   9
ENDBRANCH   7   8
ENDBRANCH   6   7
ENDBRANCH   5   6
ENDBRANCH   4   5
ENDBRANCH   3   4
ENDBRANCH   2   3
ENDBRANCH   1   2
BRANCH   1  17
ATOM     17  C   UNL     1      -2.974   2.101 -10.886  1.00  0.00     0.000 C 
BRANCH  17  18
ATOM     18  C   UNL     1      -2.665   1.801  -9.407  1.00  0.00     0.000 C 
BRANCH  18  19
ATOM     19  C   UNL     1      -1.477   0.827  -9.239  1.00  0.00     0.000 C 
BRANCH  19  20
ATOM     20  C   UNL     1      -1.355  -0.205 -10.373  1.00  0.00     0.000 C 
BRANCH  20  21
ATOM     21  C   UNL     1      -2.142  -1.495 -10.097  1.00  0.00     0.000 C 
BRANCH  21  22
ATOM     22  C   UNL     1      -2.414  -2.306 -11.374  1.00  0.00    -0.000 C 
BRANCH  22  23
ATOM     23  C   UNL     1      -2.907  -1.426 -12.535  1.00  0.00    -0.000 C 
BRANCH  23  24
ATOM     24  C   UNL     1      -4.387  -1.672 -12.880  1.00  0.00    -0.000 C 
BRANCH  24  25
ATOM     25  C   UNL     1      -4.661  -2.002 -14.362  1.00  0.00    -0.000 C 
BRANCH  25  26
ATOM     26  C   UNL     1      -3.631  -2.938 -15.024  1.00  0.00    -0.000 C 
BRANCH  26  27
ATOM     27  C   UNL     1      -3.721  -3.031 -16.559  1.00  0.00    -0.000 C 
BRANCH  27  28
ATOM     28  C   UNL     1      -3.640  -1.658 -17.245  1.00  0.00    -0.000 C 
BRANCH  28  29
ATOM     29  C   UNL     1      -2.294  -1.434 -17.954  1.00  0.00    -0.003 C 
ATOM     30  C   UNL     1      -1.310  -0.618 -17.115  1.00  0.00     0.004 C 
ENDBRANCH  28  29
ENDBRANCH  27  28
ENDBRANCH  26  27
ENDBRANCH  25  26
ENDBRANCH  24  25
ENDBRANCH  23  24
ENDBRANCH  22  23
ENDBRANCH  21  22
ENDBRANCH  20  21
ENDBRANCH  19  20
ENDBRANCH  18  19
ENDBRANCH  17  18
ENDBRANCH   1  17
TORSDOF 26
ENDMDL
