MODEL 1
REMARK VINA RESULT:    -3.317      0.000      0.000
REMARK INTER + INTRA:          -3.852
REMARK INTER:                  -3.801
REMARK INTRA:                  -0.051
REMARK UNBOUND:                -0.051
REMARK SMILES CC(C)[C@H]([NH3+])C(=O)[O-]
REMARK SMILES IDX 4 1 5 2 6 6 7 7 8 8 2 9 1 10 3 11
REMARK H PARENT 5 3 5 4 5 5
REMARK Flexibility Score: inf
ROOT
ATOM      1  C   UNL     1     128.214 133.446 124.187  1.00  0.00     0.230 C 
ENDROOT
BRANCH   1   2
ATOM      2  N   UNL     1     129.139 134.227 123.351  1.00  0.00    -0.350 N 
ATOM      3  H   UNL     1     128.881 134.108 122.343  1.00  0.00     0.345 HD
ATOM      4  H   UNL     1     130.118 133.882 123.468  1.00  0.00     0.345 HD
ATOM      5  H   UNL     1     129.099 135.245 123.583  1.00  0.00     0.345 HD
ENDBRANCH   1   2
BRANCH   1   6
ATOM      6  C   UNL     1     126.808 133.522 123.642  1.00  0.00     0.099 C 
ATOM      7  O   UNL     1     126.433 132.706 122.759  1.00  0.00    -0.544 OA
ATOM      8  O   UNL     1     125.903 134.454 124.138  1.00  0.00    -0.544 OA
ENDBRANCH   1   6
BRANCH   1   9
ATOM      9  C   UNL     1     128.251 133.863 125.689  1.00  0.00     0.047 C 
ATOM     10  C   UNL     1     128.932 135.219 125.936  1.00  0.00     0.014 C 
ATOM     11  C   UNL     1     128.892 132.780 126.567  1.00  0.00     0.014 C 
ENDBRANCH   1   9
TORSDOF 3
ENDMDL
MODEL 2
REMARK VINA RESULT:    -3.307      9.361     10.255
REMARK INTER + INTRA:          -3.841
REMARK INTER:                  -3.791
REMARK INTRA:                  -0.050
REMARK UNBOUND:                -0.051
REMARK SMILES CC(C)[C@H]([NH3+])C(=O)[O-]
REMARK SMILES IDX 4 1 5 2 6 6 7 7 8 8 2 9 1 10 3 11
REMARK H PARENT 5 3 5 4 5 5
REMARK Flexibility Score: inf
ROOT
ATOM      1  C   UNL     1     129.840 124.570 124.149  1.00  0.00     0.230 C 
ENDROOT
BRANCH   1   2
ATOM      2  N   UNL     1     128.913 123.816 123.290  1.00  0.00    -0.350 N 
ATOM      3  H   UNL     1     128.025 123.635 123.813  1.00  0.00     0.345 HD
ATOM      4  H   UNL     1     129.322 122.890 123.035  1.00  0.00     0.345 HD
ATOM      5  H   UNL     1     128.681 124.345 122.419  1.00  0.00     0.345 HD
ENDBRANCH   1   2
BRANCH   1   6
ATOM      6  C   UNL     1     131.251 124.484 123.617  1.00  0.00     0.099 C 
ATOM      7  O   UNL     1     131.652 125.322 122.767  1.00  0.00    -0.544 OA
ATOM      8  O   UNL     1     132.131 123.517 124.090  1.00  0.00    -0.544 OA
ENDBRANCH   1   6
BRANCH   1   9
ATOM      9  C   UNL     1     129.782 124.128 125.643  1.00  0.00     0.047 C 
ATOM     10  C   UNL     1     129.100 122.766 125.856  1.00  0.00     0.014 C 
ATOM     11  C   UNL     1     129.124 125.194 126.530  1.00  0.00     0.014 C 
ENDBRANCH   1   9
TORSDOF 3
ENDMDL
MODEL 3
REMARK VINA RESULT:    -3.306      7.406      8.354
REMARK INTER + INTRA:          -3.840
REMARK INTER:                  -3.789
REMARK INTRA:                  -0.051
REMARK UNBOUND:                -0.051
REMARK SMILES CC(C)[C@H]([NH3+])C(=O)[O-]
REMARK SMILES IDX 4 1 5 2 6 6 7 7 8 8 2 9 1 10 3 11
REMARK H PARENT 5 3 5 4 5 5
REMARK Flexibility Score: inf
ROOT
ATOM      1  C   UNL     1     129.780 133.458 132.071  1.00  0.00     0.230 C 
ENDROOT
BRANCH   1   2
ATOM      2  N   UNL     1     128.855 134.241 132.904  1.00  0.00    -0.350 N 
ATOM      3  H   UNL     1     129.167 135.240 132.925  1.00  0.00     0.345 HD
ATOM      4  H   UNL     1     128.862 133.890 133.888  1.00  0.00     0.345 HD
ATOM      5  H   UNL     1     127.880 134.209 132.531  1.00  0.00     0.345 HD
ENDBRANCH   1   2
BRANCH   1   6
ATOM      6  C   UNL     1     131.190 133.552 132.604  1.00  0.00     0.099 C 
ATOM      7  O   UNL     1     131.946 134.481 132.216  1.00  0.00    -0.544 OA
ATOM      8  O   UNL     1     131.650 132.650 133.557  1.00  0.00    -0.544 OA
ENDBRANCH   1   6
BRANCH   1   9
ATOM      9  C   UNL     1     129.729 133.858 130.564  1.00  0.00     0.047 C 
ATOM     10  C   UNL     1     129.019 135.197 130.306  1.00  0.00     0.014 C 
ATOM     11  C   UNL     1     129.106 132.753 129.700  1.00  0.00     0.014 C 
ENDBRANCH   1   9
TORSDOF 3
ENDMDL
MODEL 4
REMARK VINA RESULT:    -3.276     11.325     12.287
REMARK INTER + INTRA:          -3.806
REMARK INTER:                  -3.751
REMARK INTRA:                  -0.054
REMARK UNBOUND:                -0.051
REMARK SMILES CC(C)[C@H]([NH3+])C(=O)[O-]
REMARK SMILES IDX 4 1 5 2 6 6 7 7 8 8 2 9 1 10 3 11
REMARK H PARENT 5 3 5 4 5 5
REMARK Flexibility Score: inf
ROOT
ATOM      1  C   UNL     1     128.234 124.543 132.048  1.00  0.00     0.230 C 
ENDROOT
BRANCH   1   2
ATOM      2  N   UNL     1     129.151 123.746 132.879  1.00  0.00    -0.350 N 
ATOM      3  H   UNL     1     128.602 123.234 133.608  1.00  0.00     0.345 HD
ATOM      4  H   UNL     1     129.829 124.367 133.374  1.00  0.00     0.345 HD
ATOM      5  H   UNL     1     129.674 123.045 132.308  1.00  0.00     0.345 HD
ENDBRANCH   1   2
BRANCH   1   6
ATOM      6  C   UNL     1     126.832 124.499 132.608  1.00  0.00     0.099 C 
ATOM      7  O   UNL     1     125.999 123.674 132.147  1.00  0.00    -0.544 OA
ATOM      8  O   UNL     1     126.461 125.328 133.660  1.00  0.00    -0.544 OA
ENDBRANCH   1   6
BRANCH   1   9
ATOM      9  C   UNL     1     128.247 124.118 130.548  1.00  0.00     0.047 C 
ATOM     10  C   UNL     1     128.914 122.755 130.299  1.00  0.00     0.014 C 
ATOM     11  C   UNL     1     128.885 125.191 129.655  1.00  0.00     0.014 C 
ENDBRANCH   1   9
TORSDOF 3
ENDMDL
MODEL 5
REMARK VINA RESULT:    -3.156      7.573      8.578
REMARK INTER + INTRA:          -3.668
REMARK INTER:                  -3.622
REMARK INTRA:                  -0.046
REMARK UNBOUND:                -0.051
REMARK SMILES CC(C)[C@H]([NH3+])C(=O)[O-]
REMARK SMILES IDX 4 1 5 2 6 6 7 7 8 8 2 9 1 10 3 11
REMARK H PARENT 5 3 5 4 5 5
REMARK Flexibility Score: inf
ROOT
ATOM      1  C   UNL     1     131.762 134.680 132.033  1.00  0.00     0.230 C 
ENDROOT
BRANCH   1   2
ATOM      2  N   UNL     1     133.230 134.591 131.986  1.00  0.00    -0.350 N 
ATOM      3  H   UNL     1     133.613 135.426 131.486  1.00  0.00     0.345 HD
ATOM      4  H   UNL     1     133.528 133.742 131.455  1.00  0.00     0.345 HD
ATOM      5  H   UNL     1     133.643 134.563 132.946  1.00  0.00     0.345 HD
ENDBRANCH   1   2
BRANCH   1   6
ATOM      6  C   UNL     1     131.176 133.486 132.747  1.00  0.00     0.099 C 
ATOM      7  O   UNL     1     131.936 132.679 133.346  1.00  0.00    -0.544 OA
ATOM      8  O   UNL     1     129.800 133.290 132.793  1.00  0.00    -0.544 OA
ENDBRANCH   1   6
BRANCH   1   9
ATOM      9  C   UNL     1     131.118 134.854 130.623  1.00  0.00     0.047 C 
ATOM     10  C   UNL     1     131.284 133.626 129.713  1.00  0.00     0.014 C 
ATOM     11  C   UNL     1     131.631 136.114 129.912  1.00  0.00     0.014 C 
ENDBRANCH   1   9
TORSDOF 3
ENDMDL
MODEL 6
REMARK VINA RESULT:    -3.108      6.704      7.599
REMARK INTER + INTRA:          -3.613
REMARK INTER:                  -3.537
REMARK INTRA:                  -0.076
REMARK UNBOUND:                -0.051
REMARK SMILES CC(C)[C@H]([NH3+])C(=O)[O-]
REMARK SMILES IDX 4 1 5 2 6 6 7 7 8 8 2 9 1 10 3 11
REMARK H PARENT 5 3 5 4 5 5
REMARK Flexibility Score: inf
ROOT
ATOM      1  C   UNL     1     129.927 133.278 130.883  1.00  0.00     0.230 C 
ENDROOT
BRANCH   1   2
ATOM      2  N   UNL     1     128.634 133.138 130.196  1.00  0.00    -0.350 N 
ATOM      3  H   UNL     1     128.078 132.379 130.654  1.00  0.00     0.345 HD
ATOM      4  H   UNL     1     128.778 132.863 129.198  1.00  0.00     0.345 HD
ATOM      5  H   UNL     1     128.080 134.023 130.236  1.00  0.00     0.345 HD
ENDBRANCH   1   2
BRANCH   1   6
ATOM      6  C   UNL     1     129.725 133.464 132.368  1.00  0.00     0.099 C 
ATOM      7  O   UNL     1     130.169 132.603 133.173  1.00  0.00    -0.544 OA
ATOM      8  O   UNL     1     129.095 134.600 132.863  1.00  0.00    -0.544 OA
ENDBRANCH   1   6
BRANCH   1   9
ATOM      9  C   UNL     1     130.808 134.423 130.296  1.00  0.00     0.047 C 
ATOM     10  C   UNL     1     130.839 134.450 128.759  1.00  0.00     0.014 C 
ATOM     11  C   UNL     1     132.238 134.388 130.854  1.00  0.00     0.014 C 
ENDBRANCH   1   9
TORSDOF 3
ENDMDL
MODEL 7
REMARK VINA RESULT:    -3.098     12.665     13.430
REMARK INTER + INTRA:          -3.602
REMARK INTER:                  -3.550
REMARK INTRA:                  -0.052
REMARK UNBOUND:                -0.051
REMARK SMILES CC(C)[C@H]([NH3+])C(=O)[O-]
REMARK SMILES IDX 4 1 5 2 6 6 7 7 8 8 2 9 1 10 3 11
REMARK H PARENT 5 3 5 4 5 5
REMARK Flexibility Score: inf
ROOT
ATOM      1  C   UNL     1     128.439 123.456 132.063  1.00  0.00     0.230 C 
ENDROOT
BRANCH   1   2
ATOM      2  N   UNL     1     129.454 123.319 133.119  1.00  0.00    -0.350 N 
ATOM      3  H   UNL     1     129.908 122.378 133.044  1.00  0.00     0.345 HD
ATOM      4  H   UNL     1     129.010 123.379 134.063  1.00  0.00     0.345 HD
ATOM      5  H   UNL     1     130.195 124.050 133.036  1.00  0.00     0.345 HD
ENDBRANCH   1   2
BRANCH   1   6
ATOM      6  C   UNL     1     127.272 124.284 132.547  1.00  0.00     0.099 C 
ATOM      7  O   UNL     1     127.467 125.224 133.362  1.00  0.00    -0.544 OA
ATOM      8  O   UNL     1     125.989 124.051 132.067  1.00  0.00    -0.544 OA
ENDBRANCH   1   6
BRANCH   1   9
ATOM      9  C   UNL     1     127.952 122.084 131.504  1.00  0.00     0.047 C 
ATOM     10  C   UNL     1     127.726 121.021 132.591  1.00  0.00     0.014 C 
ATOM     11  C   UNL     1     128.895 121.541 130.420  1.00  0.00     0.014 C 
ENDBRANCH   1   9
TORSDOF 3
ENDMDL
MODEL 8
REMARK VINA RESULT:    -3.089      4.493      5.241
REMARK INTER + INTRA:          -3.592
REMARK INTER:                  -3.534
REMARK INTRA:                  -0.058
REMARK UNBOUND:                -0.051
REMARK SMILES CC(C)[C@H]([NH3+])C(=O)[O-]
REMARK SMILES IDX 4 1 5 2 6 6 7 7 8 8 2 9 1 10 3 11
REMARK H PARENT 5 3 5 4 5 5
REMARK Flexibility Score: inf
ROOT
ATOM      1  C   UNL     1     129.379 133.908 128.048  1.00  0.00     0.230 C 
ENDROOT
BRANCH   1   2
ATOM      2  N   UNL     1     129.742 133.149 126.841  1.00  0.00    -0.350 N 
ATOM      3  H   UNL     1     130.524 132.491 127.068  1.00  0.00     0.345 HD
ATOM      4  H   UNL     1     130.081 133.793 126.092  1.00  0.00     0.345 HD
ATOM      5  H   UNL     1     128.936 132.590 126.482  1.00  0.00     0.345 HD
ENDBRANCH   1   2
BRANCH   1   6
ATOM      6  C   UNL     1     130.006 133.293 129.276  1.00  0.00     0.099 C 
ATOM      7  O   UNL     1     131.241 133.432 129.485  1.00  0.00    -0.544 OA
ATOM      8  O   UNL     1     129.229 132.613 130.206  1.00  0.00    -0.544 OA
ENDBRANCH   1   6
BRANCH   1   9
ATOM      9  C   UNL     1     127.838 134.061 128.230  1.00  0.00     0.047 C 
ATOM     10  C   UNL     1     127.037 133.815 126.940  1.00  0.00     0.014 C 
ATOM     11  C   UNL     1     127.465 135.423 128.832  1.00  0.00     0.014 C 
ENDBRANCH   1   9
TORSDOF 3
ENDMDL
MODEL 9
REMARK VINA RESULT:    -3.088     10.284     10.621
REMARK INTER + INTRA:          -3.591
REMARK INTER:                  -3.533
REMARK INTRA:                  -0.058
REMARK UNBOUND:                -0.051
REMARK SMILES CC(C)[C@H]([NH3+])C(=O)[O-]
REMARK SMILES IDX 4 1 5 2 6 6 7 7 8 8 2 9 1 10 3 11
REMARK H PARENT 5 3 5 4 5 5
REMARK Flexibility Score: inf
ROOT
ATOM      1  C   UNL     1     128.614 124.065 128.038  1.00  0.00     0.230 C 
ENDROOT
BRANCH   1   2
ATOM      2  N   UNL     1     128.238 124.819 126.832  1.00  0.00    -0.350 N 
ATOM      3  H   UNL     1     127.344 125.335 127.010  1.00  0.00     0.345 HD
ATOM      4  H   UNL     1     128.071 124.170 126.032  1.00  0.00     0.345 HD
ATOM      5  H   UNL     1     128.973 125.514 126.570  1.00  0.00     0.345 HD
ENDBRANCH   1   2
BRANCH   1   6
ATOM      6  C   UNL     1     127.976 124.668 129.267  1.00  0.00     0.099 C 
ATOM      7  O   UNL     1     126.736 124.548 129.452  1.00  0.00    -0.544 OA
ATOM      8  O   UNL     1     128.749 125.316 130.223  1.00  0.00    -0.544 OA
ENDBRANCH   1   6
BRANCH   1   9
ATOM      9  C   UNL     1     130.157 123.937 128.220  1.00  0.00     0.047 C 
ATOM     10  C   UNL     1     130.955 124.227 126.938  1.00  0.00     0.014 C 
ATOM     11  C   UNL     1     130.554 122.570 128.794  1.00  0.00     0.014 C 
ENDBRANCH   1   9
TORSDOF 3
ENDMDL
