MODEL 1
REMARK VINA RESULT:    -4.333      0.000      0.000
REMARK INTER + INTRA:          -5.945
REMARK INTER:                  -5.599
REMARK INTRA:                  -0.346
REMARK UNBOUND:                -0.346
REMARK SMILES CCCCCCC(=O)[O-]
REMARK SMILES IDX 5 1 6 2 7 3 8 4 9 5 4 6 3 7 2 8 1 9
REMARK H PARENT
REMARK Flexibility Score: inf
ROOT
ATOM      1  C   UNL     1     -99.165 -61.711 -66.033  1.00  0.00     0.006 C 
ENDROOT
BRANCH   1   2
ATOM      2  C   UNL     1     -98.698 -61.771 -64.570  1.00  0.00     0.053 C 
BRANCH   2   3
ATOM      3  C   UNL     1     -97.268 -61.354 -64.420  1.00  0.00     0.041 C 
ATOM      4  O   UNL     1     -96.978 -60.144 -64.222  1.00  0.00    -0.550 OA
ATOM      5  O   UNL     1     -96.255 -62.303 -64.465  1.00  0.00    -0.550 OA
ENDBRANCH   2   3
ENDBRANCH   1   2
BRANCH   1   6
ATOM      6  C   UNL     1    -100.382 -60.795 -66.276  1.00  0.00     0.000 C 
BRANCH   6   7
ATOM      7  C   UNL     1    -100.042 -59.354 -66.708  1.00  0.00    -0.000 C 
BRANCH   7   8
ATOM      8  C   UNL     1     -98.616 -59.160 -67.254  1.00  0.00    -0.003 C 
ATOM      9  C   UNL     1     -97.918 -57.933 -66.669  1.00  0.00     0.004 C 
ENDBRANCH   7   8
ENDBRANCH   6   7
ENDBRANCH   1   6
TORSDOF 5
ENDMDL
MODEL 2
REMARK VINA RESULT:    -4.225      2.058      2.780
REMARK INTER + INTRA:          -5.806
REMARK INTER:                  -5.444
REMARK INTRA:                  -0.362
REMARK UNBOUND:                -0.346
REMARK SMILES CCCCCCC(=O)[O-]
REMARK SMILES IDX 5 1 6 2 7 3 8 4 9 5 4 6 3 7 2 8 1 9
REMARK H PARENT
REMARK Flexibility Score: inf
ROOT
ATOM      1  C   UNL     1     -97.228 -61.486 -64.819  1.00  0.00     0.006 C 
ENDROOT
BRANCH   1   2
ATOM      2  C   UNL     1     -98.501 -61.786 -64.011  1.00  0.00     0.053 C 
BRANCH   2   3
ATOM      3  C   UNL     1     -99.726 -61.773 -64.870  1.00  0.00     0.041 C 
ATOM      4  O   UNL     1    -100.740 -61.114 -64.517  1.00  0.00    -0.550 OA
ATOM      5  O   UNL     1     -99.739 -62.461 -66.077  1.00  0.00    -0.550 OA
ENDBRANCH   2   3
ENDBRANCH   1   2
BRANCH   1   6
ATOM      6  C   UNL     1     -96.954 -59.985 -65.043  1.00  0.00     0.000 C 
BRANCH   6   7
ATOM      7  C   UNL     1     -97.033 -59.516 -66.510  1.00  0.00    -0.000 C 
BRANCH   7   8
ATOM      8  C   UNL     1     -98.013 -58.359 -66.770  1.00  0.00    -0.003 C 
ATOM      9  C   UNL     1     -99.412 -58.839 -67.152  1.00  0.00     0.004 C 
ENDBRANCH   7   8
ENDBRANCH   6   7
ENDBRANCH   1   6
TORSDOF 5
ENDMDL
MODEL 3
REMARK VINA RESULT:    -4.211      2.394      4.148
REMARK INTER + INTRA:          -5.788
REMARK INTER:                  -5.432
REMARK INTRA:                  -0.356
REMARK UNBOUND:                -0.346
REMARK SMILES CCCCCCC(=O)[O-]
REMARK SMILES IDX 5 1 6 2 7 3 8 4 9 5 4 6 3 7 2 8 1 9
REMARK H PARENT
REMARK Flexibility Score: inf
ROOT
ATOM      1  C   UNL     1     -96.491 -60.229 -66.311  1.00  0.00     0.006 C 
ENDROOT
BRANCH   1   2
ATOM      2  C   UNL     1     -97.648 -60.071 -67.311  1.00  0.00     0.053 C 
BRANCH   2   3
ATOM      3  C   UNL     1     -98.517 -58.898 -66.981  1.00  0.00     0.041 C 
ATOM      4  O   UNL     1     -99.771 -59.018 -66.983  1.00  0.00    -0.550 OA
ATOM      5  O   UNL     1     -97.945 -57.680 -66.638  1.00  0.00    -0.550 OA
ENDBRANCH   2   3
ENDBRANCH   1   2
BRANCH   1   6
ATOM      6  C   UNL     1     -96.932 -60.340 -64.838  1.00  0.00     0.000 C 
BRANCH   6   7
ATOM      7  C   UNL     1     -97.415 -61.738 -64.402  1.00  0.00    -0.000 C 
BRANCH   7   8
ATOM      8  C   UNL     1     -98.919 -61.838 -64.094  1.00  0.00    -0.003 C 
ATOM      9  C   UNL     1     -99.735 -62.360 -65.276  1.00  0.00     0.004 C 
ENDBRANCH   7   8
ENDBRANCH   6   7
ENDBRANCH   1   6
TORSDOF 5
ENDMDL
MODEL 4
REMARK VINA RESULT:    -4.179      1.228      2.503
REMARK INTER + INTRA:          -5.746
REMARK INTER:                  -5.433
REMARK INTRA:                  -0.313
REMARK UNBOUND:                -0.346
REMARK SMILES CCCCCCC(=O)[O-]
REMARK SMILES IDX 5 1 6 2 7 3 8 4 9 5 4 6 3 7 2 8 1 9
REMARK H PARENT
REMARK Flexibility Score: inf
ROOT
ATOM      1  C   UNL     1     -97.247 -59.798 -66.378  1.00  0.00     0.006 C 
ENDROOT
BRANCH   1   2
ATOM      2  C   UNL     1     -96.943 -59.961 -64.880  1.00  0.00     0.053 C 
BRANCH   2   3
ATOM      3  C   UNL     1     -97.308 -61.324 -64.380  1.00  0.00     0.041 C 
ATOM      4  O   UNL     1     -96.443 -62.240 -64.350  1.00  0.00    -0.550 OA
ATOM      5  O   UNL     1     -98.591 -61.576 -63.913  1.00  0.00    -0.550 OA
ENDBRANCH   2   3
ENDBRANCH   1   2
BRANCH   1   6
ATOM      6  C   UNL     1     -98.051 -58.530 -66.731  1.00  0.00     0.000 C 
BRANCH   6   7
ATOM      7  C   UNL     1     -99.503 -58.780 -67.184  1.00  0.00    -0.000 C 
BRANCH   7   8
ATOM      8  C   UNL     1    -100.057 -60.176 -66.848  1.00  0.00    -0.003 C 
ATOM      9  C   UNL     1    -101.264 -60.127 -65.912  1.00  0.00     0.004 C 
ENDBRANCH   7   8
ENDBRANCH   6   7
ENDBRANCH   1   6
TORSDOF 5
ENDMDL
MODEL 5
REMARK VINA RESULT:    -4.166      2.000      3.516
REMARK INTER + INTRA:          -5.730
REMARK INTER:                  -5.368
REMARK INTRA:                  -0.362
REMARK UNBOUND:                -0.346
REMARK SMILES CCCCCCC(=O)[O-]
REMARK SMILES IDX 5 1 6 2 7 3 8 4 9 5 4 6 3 7 2 8 1 9
REMARK H PARENT
REMARK Flexibility Score: inf
ROOT
ATOM      1  C   UNL     1    -100.476 -60.595 -66.723  1.00  0.00     0.006 C 
ENDROOT
BRANCH   1   2
ATOM      2  C   UNL     1    -100.056 -59.121 -66.841  1.00  0.00     0.053 C 
BRANCH   2   3
ATOM      3  C   UNL     1     -98.601 -58.977 -67.166  1.00  0.00     0.041 C 
ATOM      4  O   UNL     1     -97.998 -57.901 -66.910  1.00  0.00    -0.550 OA
ATOM      5  O   UNL     1     -97.901 -60.042 -67.718  1.00  0.00    -0.550 OA
ENDBRANCH   2   3
ENDBRANCH   1   2
BRANCH   1   6
ATOM      6  C   UNL     1    -100.405 -61.165 -65.292  1.00  0.00     0.000 C 
BRANCH   6   7
ATOM      7  C   UNL     1     -99.184 -62.062 -65.004  1.00  0.00    -0.000 C 
BRANCH   7   8
ATOM      8  C   UNL     1     -98.042 -61.376 -64.233  1.00  0.00    -0.003 C 
ATOM      9  C   UNL     1     -96.657 -61.833 -64.691  1.00  0.00     0.004 C 
ENDBRANCH   7   8
ENDBRANCH   6   7
ENDBRANCH   1   6
TORSDOF 5
ENDMDL
MODEL 6
REMARK VINA RESULT:    -4.145      1.727      2.163
REMARK INTER + INTRA:          -5.702
REMARK INTER:                  -5.360
REMARK INTRA:                  -0.342
REMARK UNBOUND:                -0.346
REMARK SMILES CCCCCCC(=O)[O-]
REMARK SMILES IDX 5 1 6 2 7 3 8 4 9 5 4 6 3 7 2 8 1 9
REMARK H PARENT
REMARK Flexibility Score: inf
ROOT
ATOM      1  C   UNL     1    -100.558 -60.986 -66.908  1.00  0.00     0.006 C 
ENDROOT
BRANCH   1   2
ATOM      2  C   UNL     1     -99.641 -62.109 -66.396  1.00  0.00     0.053 C 
BRANCH   2   3
ATOM      3  C   UNL     1     -99.511 -62.090 -64.905  1.00  0.00     0.041 C 
ATOM      4  O   UNL     1    -100.496 -62.391 -64.179  1.00  0.00    -0.550 OA
ATOM      5  O   UNL     1     -98.294 -61.776 -64.314  1.00  0.00    -0.550 OA
ENDBRANCH   2   3
ENDBRANCH   1   2
BRANCH   1   6
ATOM      6  C   UNL     1    -100.196 -59.581 -66.388  1.00  0.00     0.000 C 
BRANCH   6   7
ATOM      7  C   UNL     1     -99.321 -58.736 -67.336  1.00  0.00    -0.000 C 
BRANCH   7   8
ATOM      8  C   UNL     1     -98.114 -58.053 -66.671  1.00  0.00    -0.003 C 
ATOM      9  C   UNL     1     -97.093 -59.051 -66.124  1.00  0.00     0.004 C 
ENDBRANCH   7   8
ENDBRANCH   6   7
ENDBRANCH   1   6
TORSDOF 5
ENDMDL
MODEL 7
REMARK VINA RESULT:    -4.128      2.674      3.809
REMARK INTER + INTRA:          -5.680
REMARK INTER:                  -5.350
REMARK INTRA:                  -0.330
REMARK UNBOUND:                -0.346
REMARK SMILES CCCCCCC(=O)[O-]
REMARK SMILES IDX 5 1 6 2 7 3 8 4 9 5 4 6 3 7 2 8 1 9
REMARK H PARENT
REMARK Flexibility Score: inf
ROOT
ATOM      1  C   UNL     1     -99.487 -62.131 -66.155  1.00  0.00     0.006 C 
ENDROOT
BRANCH   1   2
ATOM      2  C   UNL     1    -100.687 -61.383 -66.759  1.00  0.00     0.053 C 
BRANCH   2   3
ATOM      3  C   UNL     1    -100.739 -59.955 -66.313  1.00  0.00     0.041 C 
ATOM      4  O   UNL     1     -99.869 -59.135 -66.711  1.00  0.00    -0.550 OA
ATOM      5  O   UNL     1    -101.766 -59.519 -65.487  1.00  0.00    -0.550 OA
ENDBRANCH   2   3
ENDBRANCH   1   2
BRANCH   1   6
ATOM      6  C   UNL     1     -99.342 -61.976 -64.628  1.00  0.00     0.000 C 
BRANCH   6   7
ATOM      7  C   UNL     1     -97.900 -61.765 -64.125  1.00  0.00    -0.000 C 
BRANCH   7   8
ATOM      8  C   UNL     1     -97.089 -60.713 -64.902  1.00  0.00    -0.003 C 
ATOM      9  C   UNL     1     -95.907 -61.316 -65.661  1.00  0.00     0.004 C 
ENDBRANCH   7   8
ENDBRANCH   6   7
ENDBRANCH   1   6
TORSDOF 5
ENDMDL
MODEL 8
REMARK VINA RESULT:    -4.116      1.313      3.067
REMARK INTER + INTRA:          -5.666
REMARK INTER:                  -5.216
REMARK INTRA:                  -0.449
REMARK UNBOUND:                -0.346
REMARK SMILES CCCCCCC(=O)[O-]
REMARK SMILES IDX 5 1 6 2 7 3 8 4 9 5 4 6 3 7 2 8 1 9
REMARK H PARENT
REMARK Flexibility Score: inf
ROOT
ATOM      1  C   UNL     1     -99.069 -58.757 -67.245  1.00  0.00     0.006 C 
ENDROOT
BRANCH   1   2
ATOM      2  C   UNL     1     -97.780 -58.425 -66.476  1.00  0.00     0.053 C 
BRANCH   2   3
ATOM      3  C   UNL     1     -97.047 -59.659 -66.052  1.00  0.00     0.041 C 
ATOM      4  O   UNL     1     -96.597 -60.458 -66.916  1.00  0.00    -0.550 OA
ATOM      5  O   UNL     1     -96.829 -59.913 -64.704  1.00  0.00    -0.550 OA
ENDBRANCH   2   3
ENDBRANCH   1   2
BRANCH   1   6
ATOM      6  C   UNL     1    -100.093 -59.587 -66.445  1.00  0.00     0.000 C 
BRANCH   6   7
ATOM      7  C   UNL     1    -100.401 -60.982 -67.023  1.00  0.00    -0.000 C 
BRANCH   7   8
ATOM      8  C   UNL     1     -99.855 -62.162 -66.200  1.00  0.00    -0.003 C 
ATOM      9  C   UNL     1     -99.881 -61.898 -64.694  1.00  0.00     0.004 C 
ENDBRANCH   7   8
ENDBRANCH   6   7
ENDBRANCH   1   6
TORSDOF 5
ENDMDL
MODEL 9
REMARK VINA RESULT:    -4.102      2.513      4.128
REMARK INTER + INTRA:          -5.646
REMARK INTER:                  -5.322
REMARK INTRA:                  -0.324
REMARK UNBOUND:                -0.346
REMARK SMILES CCCCCCC(=O)[O-]
REMARK SMILES IDX 5 1 6 2 7 3 8 4 9 5 4 6 3 7 2 8 1 9
REMARK H PARENT
REMARK Flexibility Score: inf
ROOT
ATOM      1  C   UNL     1     -97.920 -59.611 -67.343  1.00  0.00     0.006 C 
ENDROOT
BRANCH   1   2
ATOM      2  C   UNL     1     -99.264 -58.913 -67.077  1.00  0.00     0.053 C 
BRANCH   2   3
ATOM      3  C   UNL     1    -100.331 -59.884 -66.678  1.00  0.00     0.041 C 
ATOM      4  O   UNL     1    -101.201 -59.555 -65.828  1.00  0.00    -0.550 OA
ATOM      5  O   UNL     1    -100.388 -61.140 -67.268  1.00  0.00    -0.550 OA
ENDBRANCH   2   3
ENDBRANCH   1   2
BRANCH   1   6
ATOM      6  C   UNL     1     -97.017 -59.748 -66.100  1.00  0.00     0.000 C 
BRANCH   6   7
ATOM      7  C   UNL     1     -96.450 -61.161 -65.855  1.00  0.00    -0.000 C 
BRANCH   7   8
ATOM      8  C   UNL     1     -96.817 -61.781 -64.496  1.00  0.00    -0.003 C 
ATOM      9  C   UNL     1     -98.301 -61.637 -64.159  1.00  0.00     0.004 C 
ENDBRANCH   7   8
ENDBRANCH   6   7
ENDBRANCH   1   6
TORSDOF 5
ENDMDL
