MODEL 1
REMARK VINA RESULT:    -4.083      0.000      0.000
REMARK INTER + INTRA:          -6.670
REMARK INTER:                  -5.993
REMARK INTRA:                  -0.677
REMARK UNBOUND:                -0.677
REMARK SMILES O=C([O-])CCCCCCCC(=O)[O-]
REMARK SMILES IDX 7 1 6 2 5 3 4 4 2 5 1 6 3 7 8 8 9 9 10 10 11 11 12 12 13 13
REMARK H PARENT
REMARK Flexibility Score: inf
ROOT
ATOM      1  C   UNL     1     -22.878  19.706 -22.762  1.00  0.00     0.000 C 
ENDROOT
BRANCH   1   2
ATOM      2  C   UNL     1     -22.508  18.592 -21.772  1.00  0.00     0.000 C 
BRANCH   2   3
ATOM      3  C   UNL     1     -22.353  17.245 -22.494  1.00  0.00     0.006 C 
BRANCH   3   4
ATOM      4  C   UNL     1     -20.943  16.659 -22.334  1.00  0.00     0.053 C 
BRANCH   4   5
ATOM      5  C   UNL     1     -20.965  15.341 -21.625  1.00  0.00     0.041 C 
ATOM      6  O   UNL     1     -19.950  14.595 -21.642  1.00  0.00    -0.550 OA
ATOM      7  O   UNL     1     -22.093  14.949 -20.916  1.00  0.00    -0.550 OA
ENDBRANCH   4   5
ENDBRANCH   3   4
ENDBRANCH   2   3
ENDBRANCH   1   2
BRANCH   1   8
ATOM      8  C   UNL     1     -22.884  19.224 -24.222  1.00  0.00     0.000 C 
BRANCH   8   9
ATOM      9  C   UNL     1     -21.771  19.864 -25.064  1.00  0.00     0.006 C 
BRANCH   9  10
ATOM     10  C   UNL     1     -20.656  18.856 -25.355  1.00  0.00     0.053 C 
BRANCH  10  11
ATOM     11  C   UNL     1     -21.082  17.895 -26.420  1.00  0.00     0.041 C 
ATOM     12  O   UNL     1     -21.153  18.270 -27.620  1.00  0.00    -0.550 OA
ATOM     13  O   UNL     1     -21.450  16.599 -26.080  1.00  0.00    -0.550 OA
ENDBRANCH  10  11
ENDBRANCH   9  10
ENDBRANCH   8   9
ENDBRANCH   1   8
TORSDOF 8
ENDMDL
MODEL 2
REMARK VINA RESULT:    -4.083      0.528      4.587
REMARK INTER + INTRA:          -6.669
REMARK INTER:                  -6.011
REMARK INTRA:                  -0.659
REMARK UNBOUND:                -0.677
REMARK SMILES O=C([O-])CCCCCCCC(=O)[O-]
REMARK SMILES IDX 7 1 6 2 5 3 4 4 2 5 1 6 3 7 8 8 9 9 10 10 11 11 12 12 13 13
REMARK H PARENT
REMARK Flexibility Score: inf
ROOT
ATOM      1  C   UNL     1     -22.866  20.133 -22.913  1.00  0.00     0.000 C 
ENDROOT
BRANCH   1   2
ATOM      2  C   UNL     1     -22.860  19.454 -24.291  1.00  0.00     0.000 C 
BRANCH   2   3
ATOM      3  C   UNL     1     -21.600  19.833 -25.084  1.00  0.00     0.006 C 
BRANCH   3   4
ATOM      4  C   UNL     1     -20.677  18.630 -25.318  1.00  0.00     0.053 C 
BRANCH   4   5
ATOM      5  C   UNL     1     -21.316  17.599 -26.196  1.00  0.00     0.041 C 
ATOM      6  O   UNL     1     -21.401  17.790 -27.438  1.00  0.00    -0.550 OA
ATOM      7  O   UNL     1     -21.788  16.413 -25.649  1.00  0.00    -0.550 OA
ENDBRANCH   4   5
ENDBRANCH   3   4
ENDBRANCH   2   3
ENDBRANCH   1   2
BRANCH   1   8
ATOM      8  C   UNL     1     -22.850  19.123 -21.755  1.00  0.00     0.000 C 
BRANCH   8   9
ATOM      9  C   UNL     1     -22.737  17.669 -22.237  1.00  0.00     0.006 C 
BRANCH   9  10
ATOM     10  C   UNL     1     -21.344  17.103 -21.950  1.00  0.00     0.053 C 
BRANCH  10  11
ATOM     11  C   UNL     1     -21.440  15.692 -21.464  1.00  0.00     0.041 C 
ATOM     12  O   UNL     1     -20.429  14.941 -21.494  1.00  0.00    -0.550 OA
ATOM     13  O   UNL     1     -22.658  15.189 -21.025  1.00  0.00    -0.550 OA
ENDBRANCH  10  11
ENDBRANCH   9  10
ENDBRANCH   8   9
ENDBRANCH   1   8
TORSDOF 8
ENDMDL
MODEL 3
REMARK VINA RESULT:    -3.957      1.790      5.344
REMARK INTER + INTRA:          -6.485
REMARK INTER:                  -6.002
REMARK INTRA:                  -0.483
REMARK UNBOUND:                -0.677
REMARK SMILES O=C([O-])CCCCCCCC(=O)[O-]
REMARK SMILES IDX 7 1 6 2 5 3 4 4 2 5 1 6 3 7 8 8 9 9 10 10 11 11 12 12 13 13
REMARK H PARENT
REMARK Flexibility Score: inf
ROOT
ATOM      1  C   UNL     1     -22.828  18.868 -21.692  1.00  0.00     0.000 C 
ENDROOT
BRANCH   1   2
ATOM      2  C   UNL     1     -22.831  19.913 -22.817  1.00  0.00     0.000 C 
BRANCH   2   3
ATOM      3  C   UNL     1     -22.778  19.236 -24.195  1.00  0.00     0.006 C 
BRANCH   3   4
ATOM      4  C   UNL     1     -21.629  19.770 -25.061  1.00  0.00     0.053 C 
BRANCH   4   5
ATOM      5  C   UNL     1     -20.728  18.671 -25.531  1.00  0.00     0.041 C 
ATOM      6  O   UNL     1     -20.880  18.175 -26.680  1.00  0.00    -0.550 OA
ATOM      7  O   UNL     1     -19.699  18.216 -24.717  1.00  0.00    -0.550 OA
ENDBRANCH   4   5
ENDBRANCH   3   4
ENDBRANCH   2   3
ENDBRANCH   1   2
BRANCH   1   8
ATOM      8  C   UNL     1     -21.919  17.667 -22.001  1.00  0.00     0.000 C 
BRANCH   8   9
ATOM      9  C   UNL     1     -22.691  16.342 -22.075  1.00  0.00     0.006 C 
BRANCH   9  10
ATOM     10  C   UNL     1     -24.003  16.427 -21.289  1.00  0.00     0.053 C 
BRANCH  10  11
ATOM     11  C   UNL     1     -24.229  15.172 -20.508  1.00  0.00     0.041 C 
ATOM     12  O   UNL     1     -23.861  14.061 -20.973  1.00  0.00    -0.550 OA
ATOM     13  O   UNL     1     -24.893  15.222 -19.289  1.00  0.00    -0.550 OA
ENDBRANCH  10  11
ENDBRANCH   9  10
ENDBRANCH   8   9
ENDBRANCH   1   8
TORSDOF 8
ENDMDL
MODEL 4
REMARK VINA RESULT:    -3.949      2.804      4.962
REMARK INTER + INTRA:          -6.473
REMARK INTER:                  -5.574
REMARK INTRA:                  -0.899
REMARK UNBOUND:                -0.677
REMARK SMILES O=C([O-])CCCCCCCC(=O)[O-]
REMARK SMILES IDX 7 1 6 2 5 3 4 4 2 5 1 6 3 7 8 8 9 9 10 10 11 11 12 12 13 13
REMARK H PARENT
REMARK Flexibility Score: inf
ROOT
ATOM      1  C   UNL     1     -21.353  16.980 -21.988  1.00  0.00     0.000 C 
ENDROOT
BRANCH   1   2
ATOM      2  C   UNL     1     -20.617  16.214 -23.098  1.00  0.00     0.000 C 
BRANCH   2   3
ATOM      3  C   UNL     1     -21.021  16.736 -24.485  1.00  0.00     0.006 C 
BRANCH   3   4
ATOM      4  C   UNL     1     -20.572  18.185 -24.714  1.00  0.00     0.053 C 
BRANCH   4   5
ATOM      5  C   UNL     1     -21.696  19.047 -25.199  1.00  0.00     0.041 C 
ATOM      6  O   UNL     1     -21.455  20.164 -25.728  1.00  0.00    -0.550 OA
ATOM      7  O   UNL     1     -23.008  18.602 -25.099  1.00  0.00    -0.550 OA
ENDBRANCH   4   5
ENDBRANCH   3   4
ENDBRANCH   2   3
ENDBRANCH   1   2
BRANCH   1   8
ATOM      8  C   UNL     1     -22.867  16.719 -21.992  1.00  0.00     0.000 C 
BRANCH   8   9
ATOM      9  C   UNL     1     -23.690  17.991 -21.738  1.00  0.00     0.006 C 
BRANCH   9  10
ATOM     10  C   UNL     1     -22.777  19.210 -21.577  1.00  0.00     0.053 C 
BRANCH  10  11
ATOM     11  C   UNL     1     -23.529  20.471 -21.863  1.00  0.00     0.041 C 
ATOM     12  O   UNL     1     -24.585  20.737 -21.230  1.00  0.00    -0.550 OA
ATOM     13  O   UNL     1     -23.093  21.329 -22.865  1.00  0.00    -0.550 OA
ENDBRANCH  10  11
ENDBRANCH   9  10
ENDBRANCH   8   9
ENDBRANCH   1   8
TORSDOF 8
ENDMDL
MODEL 5
REMARK VINA RESULT:    -3.938      1.948      2.899
REMARK INTER + INTRA:          -6.458
REMARK INTER:                  -5.619
REMARK INTRA:                  -0.838
REMARK UNBOUND:                -0.677
REMARK SMILES O=C([O-])CCCCCCCC(=O)[O-]
REMARK SMILES IDX 7 1 6 2 5 3 4 4 2 5 1 6 3 7 8 8 9 9 10 10 11 11 12 12 13 13
REMARK H PARENT
REMARK Flexibility Score: inf
ROOT
ATOM      1  C   UNL     1     -23.547  17.290 -22.141  1.00  0.00     0.000 C 
ENDROOT
BRANCH   1   2
ATOM      2  C   UNL     1     -22.926  15.988 -21.615  1.00  0.00     0.000 C 
BRANCH   2   3
ATOM      3  C   UNL     1     -21.394  16.093 -21.560  1.00  0.00     0.006 C 
BRANCH   3   4
ATOM      4  C   UNL     1     -20.720  15.387 -22.744  1.00  0.00     0.053 C 
BRANCH   4   5
ATOM      5  C   UNL     1     -20.517  16.314 -23.903  1.00  0.00     0.041 C 
ATOM      6  O   UNL     1     -19.725  17.289 -23.803  1.00  0.00    -0.550 OA
ATOM      7  O   UNL     1     -21.174  16.083 -25.104  1.00  0.00    -0.550 OA
ENDBRANCH   4   5
ENDBRANCH   3   4
ENDBRANCH   2   3
ENDBRANCH   1   2
BRANCH   1   8
ATOM      8  C   UNL     1     -22.715  18.531 -21.782  1.00  0.00     0.000 C 
BRANCH   8   9
ATOM      9  C   UNL     1     -22.863  19.663 -22.810  1.00  0.00     0.006 C 
BRANCH   9  10
ATOM     10  C   UNL     1     -22.807  19.115 -24.239  1.00  0.00     0.053 C 
BRANCH  10  11
ATOM     11  C   UNL     1     -21.873  19.929 -25.077  1.00  0.00     0.041 C 
ATOM     12  O   UNL     1     -21.225  19.388 -26.012  1.00  0.00    -0.550 OA
ATOM     13  O   UNL     1     -21.678  21.275 -24.793  1.00  0.00    -0.550 OA
ENDBRANCH  10  11
ENDBRANCH   9  10
ENDBRANCH   8   9
ENDBRANCH   1   8
TORSDOF 8
ENDMDL
MODEL 6
REMARK VINA RESULT:    -3.934      2.360      5.546
REMARK INTER + INTRA:          -6.451
REMARK INTER:                  -5.770
REMARK INTRA:                  -0.681
REMARK UNBOUND:                -0.677
REMARK SMILES O=C([O-])CCCCCCCC(=O)[O-]
REMARK SMILES IDX 7 1 6 2 5 3 4 4 2 5 1 6 3 7 8 8 9 9 10 10 11 11 12 12 13 13
REMARK H PARENT
REMARK Flexibility Score: inf
ROOT
ATOM      1  C   UNL     1     -20.881  17.285 -24.077  1.00  0.00     0.000 C 
ENDROOT
BRANCH   1   2
ATOM      2  C   UNL     1     -22.056  16.948 -25.007  1.00  0.00     0.000 C 
BRANCH   2   3
ATOM      3  C   UNL     1     -23.098  18.078 -25.005  1.00  0.00     0.006 C 
BRANCH   3   4
ATOM      4  C   UNL     1     -22.640  19.288 -24.180  1.00  0.00     0.053 C 
BRANCH   4   5
ATOM      5  C   UNL     1     -22.377  20.483 -25.043  1.00  0.00     0.041 C 
ATOM      6  O   UNL     1     -21.584  20.398 -26.019  1.00  0.00    -0.550 OA
ATOM      7  O   UNL     1     -23.032  21.682 -24.792  1.00  0.00    -0.550 OA
ENDBRANCH   4   5
ENDBRANCH   3   4
ENDBRANCH   2   3
ENDBRANCH   1   2
BRANCH   1   8
ATOM      8  C   UNL     1     -20.620  16.189 -23.032  1.00  0.00     0.000 C 
BRANCH   8   9
ATOM      9  C   UNL     1     -21.373  16.434 -21.715  1.00  0.00     0.006 C 
BRANCH   9  10
ATOM     10  C   UNL     1     -22.364  15.302 -21.433  1.00  0.00     0.053 C 
BRANCH  10  11
ATOM     11  C   UNL     1     -23.741  15.850 -21.229  1.00  0.00     0.041 C 
ATOM     12  O   UNL     1     -24.284  16.550 -22.124  1.00  0.00    -0.550 OA
ATOM     13  O   UNL     1     -24.406  15.629 -20.029  1.00  0.00    -0.550 OA
ENDBRANCH  10  11
ENDBRANCH   9  10
ENDBRANCH   8   9
ENDBRANCH   1   8
TORSDOF 8
ENDMDL
MODEL 7
REMARK VINA RESULT:    -3.931      2.341      4.658
REMARK INTER + INTRA:          -6.447
REMARK INTER:                  -5.810
REMARK INTRA:                  -0.636
REMARK UNBOUND:                -0.677
REMARK SMILES O=C([O-])CCCCCCCC(=O)[O-]
REMARK SMILES IDX 7 1 6 2 5 3 4 4 2 5 1 6 3 7 8 8 9 9 10 10 11 11 12 12 13 13
REMARK H PARENT
REMARK Flexibility Score: inf
ROOT
ATOM      1  C   UNL     1     -23.640  18.067 -21.835  1.00  0.00     0.000 C 
ENDROOT
BRANCH   1   2
ATOM      2  C   UNL     1     -22.775  19.286 -21.483  1.00  0.00     0.000 C 
BRANCH   2   3
ATOM      3  C   UNL     1     -23.115  20.480 -22.388  1.00  0.00     0.006 C 
BRANCH   3   4
ATOM      4  C   UNL     1     -22.703  20.240 -23.846  1.00  0.00     0.053 C 
BRANCH   4   5
ATOM      5  C   UNL     1     -22.507  21.525 -24.589  1.00  0.00     0.041 C 
ATOM      6  O   UNL     1     -21.423  21.750 -25.191  1.00  0.00    -0.550 OA
ATOM      7  O   UNL     1     -23.532  22.461 -24.646  1.00  0.00    -0.550 OA
ENDBRANCH   4   5
ENDBRANCH   3   4
ENDBRANCH   2   3
ENDBRANCH   1   2
BRANCH   1   8
ATOM      8  C   UNL     1     -22.831  16.762 -21.890  1.00  0.00     0.000 C 
BRANCH   8   9
ATOM      9  C   UNL     1     -21.316  17.005 -21.968  1.00  0.00     0.006 C 
BRANCH   9  10
ATOM     10  C   UNL     1     -20.704  16.268 -23.162  1.00  0.00     0.053 C 
BRANCH  10  11
ATOM     11  C   UNL     1     -20.879  17.065 -24.417  1.00  0.00     0.041 C 
ATOM     12  O   UNL     1     -21.791  16.769 -25.233  1.00  0.00    -0.550 OA
ATOM     13  O   UNL     1     -20.002  18.102 -24.709  1.00  0.00    -0.550 OA
ENDBRANCH  10  11
ENDBRANCH   9  10
ENDBRANCH   8   9
ENDBRANCH   1   8
TORSDOF 8
ENDMDL
MODEL 8
REMARK VINA RESULT:    -3.866      3.384      5.447
REMARK INTER + INTRA:          -6.351
REMARK INTER:                  -5.779
REMARK INTRA:                  -0.572
REMARK UNBOUND:                -0.677
REMARK SMILES O=C([O-])CCCCCCCC(=O)[O-]
REMARK SMILES IDX 7 1 6 2 5 3 4 4 2 5 1 6 3 7 8 8 9 9 10 10 11 11 12 12 13 13
REMARK H PARENT
REMARK Flexibility Score: inf
ROOT
ATOM      1  C   UNL     1     -22.447  18.600 -22.970  1.00  0.00     0.000 C 
ENDROOT
BRANCH   1   2
ATOM      2  C   UNL     1     -22.858  19.456 -24.177  1.00  0.00     0.000 C 
BRANCH   2   3
ATOM      3  C   UNL     1     -21.628  19.884 -24.991  1.00  0.00     0.006 C 
BRANCH   3   4
ATOM      4  C   UNL     1     -20.696  18.704 -25.297  1.00  0.00     0.053 C 
BRANCH   4   5
ATOM      5  C   UNL     1     -21.241  17.830 -26.385  1.00  0.00     0.041 C 
ATOM      6  O   UNL     1     -21.713  16.695 -26.108  1.00  0.00    -0.550 OA
ATOM      7  O   UNL     1     -21.259  18.282 -27.698  1.00  0.00    -0.550 OA
ENDBRANCH   4   5
ENDBRANCH   3   4
ENDBRANCH   2   3
ENDBRANCH   1   2
BRANCH   1   8
ATOM      8  C   UNL     1     -22.818  19.250 -21.627  1.00  0.00     0.000 C 
BRANCH   8   9
ATOM      9  C   UNL     1     -23.785  20.434 -21.788  1.00  0.00     0.006 C 
BRANCH   9  10
ATOM     10  C   UNL     1     -23.320  21.636 -20.963  1.00  0.00     0.053 C 
BRANCH  10  11
ATOM     11  C   UNL     1     -23.305  22.875 -21.802  1.00  0.00     0.041 C 
ATOM     12  O   UNL     1     -23.014  22.807 -23.026  1.00  0.00    -0.550 OA
ATOM     13  O   UNL     1     -23.562  24.111 -21.221  1.00  0.00    -0.550 OA
ENDBRANCH  10  11
ENDBRANCH   9  10
ENDBRANCH   8   9
ENDBRANCH   1   8
TORSDOF 8
ENDMDL
MODEL 9
REMARK VINA RESULT:    -3.863      3.443      6.349
REMARK INTER + INTRA:          -6.348
REMARK INTER:                  -5.934
REMARK INTRA:                  -0.414
REMARK UNBOUND:                -0.677
REMARK SMILES O=C([O-])CCCCCCCC(=O)[O-]
REMARK SMILES IDX 7 1 6 2 5 3 4 4 2 5 1 6 3 7 8 8 9 9 10 10 11 11 12 12 13 13
REMARK H PARENT
REMARK Flexibility Score: inf
ROOT
ATOM      1  C   UNL     1     -22.263  21.257 -24.940  1.00  0.00     0.000 C 
ENDROOT
BRANCH   1   2
ATOM      2  C   UNL     1     -23.155  22.450 -24.567  1.00  0.00     0.000 C 
BRANCH   2   3
ATOM      3  C   UNL     1     -22.451  23.780 -24.878  1.00  0.00     0.006 C 
BRANCH   3   4
ATOM      4  C   UNL     1     -21.027  23.572 -25.413  1.00  0.00     0.053 C 
BRANCH   4   5
ATOM      5  C   UNL     1     -20.785  24.348 -26.670  1.00  0.00     0.041 C 
ATOM      6  O   UNL     1     -21.705  25.052 -27.166  1.00  0.00    -0.550 OA
ATOM      7  O   UNL     1     -19.536  24.321 -27.276  1.00  0.00    -0.550 OA
ENDBRANCH   4   5
ENDBRANCH   3   4
ENDBRANCH   2   3
ENDBRANCH   1   2
BRANCH   1   8
ATOM      8  C   UNL     1     -22.497  20.036 -24.036  1.00  0.00     0.000 C 
BRANCH   8   9
ATOM      9  C   UNL     1     -21.809  18.767 -24.561  1.00  0.00     0.006 C 
BRANCH   9  10
ATOM     10  C   UNL     1     -21.097  19.040 -25.889  1.00  0.00     0.053 C 
BRANCH  10  11
ATOM     11  C   UNL     1     -21.250  17.876 -26.815  1.00  0.00     0.041 C 
ATOM     12  O   UNL     1     -21.286  18.057 -28.061  1.00  0.00    -0.550 OA
ATOM     13  O   UNL     1     -21.403  16.594 -26.301  1.00  0.00    -0.550 OA
ENDBRANCH  10  11
ENDBRANCH   9  10
ENDBRANCH   8   9
ENDBRANCH   1   8
TORSDOF 8
ENDMDL
