MODEL 1
REMARK VINA RESULT:    -0.624      0.000      0.000
REMARK INTER + INTRA:          -7.958
REMARK INTER:                  -1.572
REMARK INTRA:                  -6.386
REMARK UNBOUND:                -6.386
REMARK SMILES CCCCCCCCCCCCCCCCCCCCCCCCCCCC(=O)[O-]
REMARK SMILES IDX 15 1 16 2 17 3 18 4 19 5 20 6 21 7 22 8 23 9 24 10 25 11
REMARK SMILES IDX 26 12 27 13 28 14 29 15 30 16 14 17 13 18 12 19 11 20 10 21
REMARK SMILES IDX 9 22 8 23 7 24 6 25 5 26 4 27 3 28 2 29 1 30
REMARK H PARENT
REMARK Flexibility Score: inf
ROOT
ATOM      1  C   UNL     1     -17.800 -10.829  82.379  1.00  0.00     0.000 C 
ENDROOT
BRANCH   1   2
ATOM      2  C   UNL     1     -16.538 -11.396  81.701  1.00  0.00     0.000 C 
BRANCH   2   3
ATOM      3  C   UNL     1     -16.571 -12.915  81.434  1.00  0.00     0.000 C 
BRANCH   3   4
ATOM      4  C   UNL     1     -17.623 -13.649  82.284  1.00  0.00     0.000 C 
BRANCH   4   5
ATOM      5  C   UNL     1     -17.027 -14.805  83.109  1.00  0.00     0.000 C 
BRANCH   5   6
ATOM      6  C   UNL     1     -17.448 -14.847  84.593  1.00  0.00     0.000 C 
BRANCH   6   7
ATOM      7  C   UNL     1     -16.927 -13.682  85.455  1.00  0.00     0.000 C 
BRANCH   7   8
ATOM      8  C   UNL     1     -15.394 -13.679  85.588  1.00  0.00     0.000 C 
BRANCH   8   9
ATOM      9  C   UNL     1     -14.735 -12.559  84.766  1.00  0.00     0.000 C 
BRANCH   9  10
ATOM     10  C   UNL     1     -13.614 -13.074  83.847  1.00  0.00     0.000 C 
BRANCH  10  11
ATOM     11  C   UNL     1     -13.390 -14.592  83.976  1.00  0.00     0.000 C 
BRANCH  11  12
ATOM     12  C   UNL     1     -12.875 -15.280  82.700  1.00  0.00     0.006 C 
BRANCH  12  13
ATOM     13  C   UNL     1     -13.467 -14.680  81.419  1.00  0.00     0.053 C 
BRANCH  13  14
ATOM     14  C   UNL     1     -13.900 -15.765  80.484  1.00  0.00     0.041 C 
ATOM     15  O   UNL     1     -13.061 -16.590  80.038  1.00  0.00    -0.550 OA
ATOM     16  O   UNL     1     -15.241 -15.888  80.131  1.00  0.00    -0.550 OA
ENDBRANCH  13  14
ENDBRANCH  12  13
ENDBRANCH  11  12
ENDBRANCH  10  11
ENDBRANCH   9  10
ENDBRANCH   8   9
ENDBRANCH   7   8
ENDBRANCH   6   7
ENDBRANCH   5   6
ENDBRANCH   4   5
ENDBRANCH   3   4
ENDBRANCH   2   3
ENDBRANCH   1   2
BRANCH   1  17
ATOM     17  C   UNL     1     -17.518 -10.242  83.772  1.00  0.00     0.000 C 
BRANCH  17  18
ATOM     18  C   UNL     1     -18.660 -10.548  84.751  1.00  0.00     0.000 C 
BRANCH  18  19
ATOM     19  C   UNL     1     -19.903 -11.141  84.059  1.00  0.00     0.000 C 
BRANCH  19  20
ATOM     20  C   UNL     1     -20.353 -12.513  84.598  1.00  0.00     0.000 C 
BRANCH  20  21
ATOM     21  C   UNL     1     -21.007 -13.447  83.558  1.00  0.00     0.000 C 
BRANCH  21  22
ATOM     22  C   UNL     1     -21.191 -14.898  84.052  1.00  0.00    -0.000 C 
BRANCH  22  23
ATOM     23  C   UNL     1     -20.625 -15.941  83.072  1.00  0.00    -0.000 C 
BRANCH  23  24
ATOM     24  C   UNL     1     -21.266 -15.777  81.689  1.00  0.00    -0.000 C 
BRANCH  24  25
ATOM     25  C   UNL     1     -20.198 -15.616  80.592  1.00  0.00    -0.000 C 
BRANCH  25  26
ATOM     26  C   UNL     1     -20.823 -15.399  79.203  1.00  0.00    -0.000 C 
BRANCH  26  27
ATOM     27  C   UNL     1     -21.002 -13.908  78.865  1.00  0.00    -0.000 C 
BRANCH  27  28
ATOM     28  C   UNL     1     -19.936 -13.027  79.540  1.00  0.00    -0.000 C 
BRANCH  28  29
ATOM     29  C   UNL     1     -20.553 -11.814  80.261  1.00  0.00    -0.003 C 
ATOM     30  C   UNL     1     -22.068 -11.962  80.383  1.00  0.00     0.004 C 
ENDBRANCH  28  29
ENDBRANCH  27  28
ENDBRANCH  26  27
ENDBRANCH  25  26
ENDBRANCH  24  25
ENDBRANCH  23  24
ENDBRANCH  22  23
ENDBRANCH  21  22
ENDBRANCH  20  21
ENDBRANCH  19  20
ENDBRANCH  18  19
ENDBRANCH  17  18
ENDBRANCH   1  17
TORSDOF 26
ENDMDL
MODEL 2
REMARK VINA RESULT:    -0.586      2.718      5.556
REMARK INTER + INTRA:          -7.862
REMARK INTER:                  -1.458
REMARK INTRA:                  -6.404
REMARK UNBOUND:                -6.386
REMARK SMILES CCCCCCCCCCCCCCCCCCCCCCCCCCCC(=O)[O-]
REMARK SMILES IDX 15 1 16 2 17 3 18 4 19 5 20 6 21 7 22 8 23 9 24 10 25 11
REMARK SMILES IDX 26 12 27 13 28 14 29 15 30 16 14 17 13 18 12 19 11 20 10 21
REMARK SMILES IDX 9 22 8 23 7 24 6 25 5 26 4 27 3 28 2 29 1 30
REMARK H PARENT
REMARK Flexibility Score: inf
ROOT
ATOM      1  C   UNL     1     -16.318 -11.440  82.179  1.00  0.00     0.000 C 
ENDROOT
BRANCH   1   2
ATOM      2  C   UNL     1     -15.898 -12.904  81.945  1.00  0.00     0.000 C 
BRANCH   2   3
ATOM      3  C   UNL     1     -14.405 -13.200  82.193  1.00  0.00     0.000 C 
BRANCH   3   4
ATOM      4  C   UNL     1     -14.168 -14.578  82.837  1.00  0.00     0.000 C 
BRANCH   4   5
ATOM      5  C   UNL     1     -13.563 -14.483  84.250  1.00  0.00     0.000 C 
BRANCH   5   6
ATOM      6  C   UNL     1     -13.027 -13.092  84.650  1.00  0.00     0.000 C 
BRANCH   6   7
ATOM      7  C   UNL     1     -13.824 -12.377  85.756  1.00  0.00     0.000 C 
BRANCH   7   8
ATOM      8  C   UNL     1     -15.123 -13.113  86.125  1.00  0.00     0.000 C 
BRANCH   8   9
ATOM      9  C   UNL     1     -16.380 -12.288  85.800  1.00  0.00     0.000 C 
BRANCH   9  10
ATOM     10  C   UNL     1     -17.527 -13.146  85.239  1.00  0.00     0.000 C 
BRANCH  10  11
ATOM     11  C   UNL     1     -17.165 -14.640  85.151  1.00  0.00     0.000 C 
BRANCH  11  12
ATOM     12  C   UNL     1     -17.679 -15.356  83.889  1.00  0.00     0.006 C 
BRANCH  12  13
ATOM     13  C   UNL     1     -19.043 -14.833  83.422  1.00  0.00     0.053 C 
BRANCH  13  14
ATOM     14  C   UNL     1     -20.129 -15.785  83.812  1.00  0.00     0.041 C 
ATOM     15  O   UNL     1     -19.846 -16.878  84.369  1.00  0.00    -0.550 OA
ATOM     16  O   UNL     1     -21.462 -15.450  83.593  1.00  0.00    -0.550 OA
ENDBRANCH  13  14
ENDBRANCH  12  13
ENDBRANCH  11  12
ENDBRANCH  10  11
ENDBRANCH   9  10
ENDBRANCH   8   9
ENDBRANCH   7   8
ENDBRANCH   6   7
ENDBRANCH   5   6
ENDBRANCH   4   5
ENDBRANCH   3   4
ENDBRANCH   2   3
ENDBRANCH   1   2
BRANCH   1  17
ATOM     17  C   UNL     1     -15.163 -10.561  82.687  1.00  0.00     0.000 C 
BRANCH  17  18
ATOM     18  C   UNL     1     -14.758  -9.510  81.643  1.00  0.00     0.000 C 
BRANCH  18  19
ATOM     19  C   UNL     1     -13.266  -9.580  81.267  1.00  0.00     0.000 C 
BRANCH  19  20
ATOM     20  C   UNL     1     -12.929 -10.560  80.126  1.00  0.00     0.000 C 
BRANCH  20  21
ATOM     21  C   UNL     1     -14.013 -10.702  79.038  1.00  0.00     0.000 C 
BRANCH  21  22
ATOM     22  C   UNL     1     -14.330 -12.166  78.660  1.00  0.00    -0.000 C 
BRANCH  22  23
ATOM     23  C   UNL     1     -13.103 -13.089  78.760  1.00  0.00    -0.000 C 
BRANCH  23  24
ATOM     24  C   UNL     1     -13.540 -14.559  78.761  1.00  0.00    -0.000 C 
BRANCH  24  25
ATOM     25  C   UNL     1     -15.073 -14.687  78.765  1.00  0.00    -0.000 C 
BRANCH  25  26
ATOM     26  C   UNL     1     -15.554 -15.849  79.651  1.00  0.00    -0.000 C 
BRANCH  26  27
ATOM     27  C   UNL     1     -17.074 -15.811  79.897  1.00  0.00    -0.000 C 
BRANCH  27  28
ATOM     28  C   UNL     1     -17.741 -14.598  79.224  1.00  0.00    -0.000 C 
BRANCH  28  29
ATOM     29  C   UNL     1     -19.146 -14.318  79.787  1.00  0.00    -0.003 C 
ATOM     30  C   UNL     1     -19.942 -15.612  79.939  1.00  0.00     0.004 C 
ENDBRANCH  28  29
ENDBRANCH  27  28
ENDBRANCH  26  27
ENDBRANCH  25  26
ENDBRANCH  24  25
ENDBRANCH  23  24
ENDBRANCH  22  23
ENDBRANCH  21  22
ENDBRANCH  20  21
ENDBRANCH  19  20
ENDBRANCH  18  19
ENDBRANCH  17  18
ENDBRANCH   1  17
TORSDOF 26
ENDMDL
MODEL 3
REMARK VINA RESULT:    -0.552      1.947      4.109
REMARK INTER + INTRA:          -7.776
REMARK INTER:                  -1.426
REMARK INTRA:                  -6.350
REMARK UNBOUND:                -6.386
REMARK SMILES CCCCCCCCCCCCCCCCCCCCCCCCCCCC(=O)[O-]
REMARK SMILES IDX 15 1 16 2 17 3 18 4 19 5 20 6 21 7 22 8 23 9 24 10 25 11
REMARK SMILES IDX 26 12 27 13 28 14 29 15 30 16 14 17 13 18 12 19 11 20 10 21
REMARK SMILES IDX 9 22 8 23 7 24 6 25 5 26 4 27 3 28 2 29 1 30
REMARK H PARENT
REMARK Flexibility Score: inf
ROOT
ATOM      1  C   UNL     1     -17.572 -12.674  81.964  1.00  0.00     0.000 C 
ENDROOT
BRANCH   1   2
ATOM      2  C   UNL     1     -16.483 -11.611  82.207  1.00  0.00     0.000 C 
BRANCH   2   3
ATOM      3  C   UNL     1     -16.473 -11.003  83.625  1.00  0.00     0.000 C 
BRANCH   3   4
ATOM      4  C   UNL     1     -15.724 -11.878  84.645  1.00  0.00     0.000 C 
BRANCH   4   5
ATOM      5  C   UNL     1     -14.339 -12.329  84.145  1.00  0.00     0.000 C 
BRANCH   5   6
ATOM      6  C   UNL     1     -14.033 -13.833  84.303  1.00  0.00     0.000 C 
BRANCH   6   7
ATOM      7  C   UNL     1     -13.611 -14.554  83.011  1.00  0.00     0.000 C 
BRANCH   7   8
ATOM      8  C   UNL     1     -13.365 -13.586  81.841  1.00  0.00     0.000 C 
BRANCH   8   9
ATOM      9  C   UNL     1     -13.502 -14.271  80.471  1.00  0.00     0.000 C 
BRANCH   9  10
ATOM     10  C   UNL     1     -13.282 -15.793  80.541  1.00  0.00     0.000 C 
BRANCH  10  11
ATOM     11  C   UNL     1     -14.378 -16.587  79.806  1.00  0.00     0.000 C 
BRANCH  11  12
ATOM     12  C   UNL     1     -15.050 -15.837  78.643  1.00  0.00     0.006 C 
BRANCH  12  13
ATOM     13  C   UNL     1     -16.339 -16.514  78.163  1.00  0.00     0.053 C 
BRANCH  13  14
ATOM     14  C   UNL     1     -16.231 -16.878  76.716  1.00  0.00     0.041 C 
ATOM     15  O   UNL     1     -15.545 -17.872  76.361  1.00  0.00    -0.550 OA
ATOM     16  O   UNL     1     -16.919 -16.140  75.758  1.00  0.00    -0.550 OA
ENDBRANCH  13  14
ENDBRANCH  12  13
ENDBRANCH  11  12
ENDBRANCH  10  11
ENDBRANCH   9  10
ENDBRANCH   8   9
ENDBRANCH   7   8
ENDBRANCH   6   7
ENDBRANCH   5   6
ENDBRANCH   4   5
ENDBRANCH   3   4
ENDBRANCH   2   3
ENDBRANCH   1   2
BRANCH   1  17
ATOM     17  C   UNL     1     -17.098 -13.819  81.056  1.00  0.00     0.000 C 
BRANCH  17  18
ATOM     18  C   UNL     1     -17.125 -15.167  81.791  1.00  0.00     0.000 C 
BRANCH  18  19
ATOM     19  C   UNL     1     -17.307 -15.017  83.314  1.00  0.00     0.000 C 
BRANCH  19  20
ATOM     20  C   UNL     1     -18.443 -15.866  83.919  1.00  0.00     0.000 C 
BRANCH  20  21
ATOM     21  C   UNL     1     -19.254 -15.180  85.038  1.00  0.00     0.000 C 
BRANCH  21  22
ATOM     22  C   UNL     1     -18.552 -13.949  85.652  1.00  0.00    -0.000 C 
BRANCH  22  23
ATOM     23  C   UNL     1     -19.344 -12.645  85.449  1.00  0.00    -0.000 C 
BRANCH  23  24
ATOM     24  C   UNL     1     -20.607 -12.911  84.620  1.00  0.00    -0.000 C 
BRANCH  24  25
ATOM     25  C   UNL     1     -20.819 -11.818  83.558  1.00  0.00    -0.000 C 
BRANCH  25  26
ATOM     26  C   UNL     1     -21.080 -12.410  82.163  1.00  0.00    -0.000 C 
BRANCH  26  27
ATOM     27  C   UNL     1     -21.129 -13.949  82.177  1.00  0.00    -0.000 C 
BRANCH  27  28
ATOM     28  C   UNL     1     -20.824 -14.553  80.794  1.00  0.00    -0.000 C 
BRANCH  28  29
ATOM     29  C   UNL     1     -20.657 -16.082  80.850  1.00  0.00    -0.003 C 
ATOM     30  C   UNL     1     -19.781 -16.579  79.702  1.00  0.00     0.004 C 
ENDBRANCH  28  29
ENDBRANCH  27  28
ENDBRANCH  26  27
ENDBRANCH  25  26
ENDBRANCH  24  25
ENDBRANCH  23  24
ENDBRANCH  22  23
ENDBRANCH  21  22
ENDBRANCH  20  21
ENDBRANCH  19  20
ENDBRANCH  18  19
ENDBRANCH  17  18
ENDBRANCH   1  17
TORSDOF 26
ENDMDL
MODEL 4
REMARK VINA RESULT:    -0.534      8.044     11.293
REMARK INTER + INTRA:          -7.732
REMARK INTER:                  -0.950
REMARK INTRA:                  -6.782
REMARK UNBOUND:                -6.386
REMARK SMILES CCCCCCCCCCCCCCCCCCCCCCCCCCCC(=O)[O-]
REMARK SMILES IDX 15 1 16 2 17 3 18 4 19 5 20 6 21 7 22 8 23 9 24 10 25 11
REMARK SMILES IDX 26 12 27 13 28 14 29 15 30 16 14 17 13 18 12 19 11 20 10 21
REMARK SMILES IDX 9 22 8 23 7 24 6 25 5 26 4 27 3 28 2 29 1 30
REMARK H PARENT
REMARK Flexibility Score: inf
ROOT
ATOM      1  C   UNL     1     -17.655 -22.889  78.868  1.00  0.00     0.000 C 
ENDROOT
BRANCH   1   2
ATOM      2  C   UNL     1     -17.315 -22.362  80.276  1.00  0.00     0.000 C 
BRANCH   2   3
ATOM      3  C   UNL     1     -15.879 -22.662  80.752  1.00  0.00     0.000 C 
BRANCH   3   4
ATOM      4  C   UNL     1     -15.604 -22.152  82.178  1.00  0.00     0.000 C 
BRANCH   4   5
ATOM      5  C   UNL     1     -14.126 -22.287  82.589  1.00  0.00     0.000 C 
BRANCH   5   6
ATOM      6  C   UNL     1     -13.293 -23.281  81.752  1.00  0.00     0.000 C 
BRANCH   6   7
ATOM      7  C   UNL     1     -12.875 -24.566  82.488  1.00  0.00     0.000 C 
BRANCH   7   8
ATOM      8  C   UNL     1     -13.963 -25.653  82.455  1.00  0.00     0.000 C 
BRANCH   8   9
ATOM      9  C   UNL     1     -14.628 -25.862  83.826  1.00  0.00     0.000 C 
BRANCH   9  10
ATOM     10  C   UNL     1     -16.136 -25.561  83.810  1.00  0.00     0.000 C 
BRANCH  10  11
ATOM     11  C   UNL     1     -16.757 -25.706  82.408  1.00  0.00     0.000 C 
BRANCH  11  12
ATOM     12  C   UNL     1     -18.230 -25.274  82.305  1.00  0.00     0.006 C 
BRANCH  12  13
ATOM     13  C   UNL     1     -18.764 -24.664  83.607  1.00  0.00     0.053 C 
BRANCH  13  14
ATOM     14  C   UNL     1     -19.174 -23.242  83.389  1.00  0.00     0.041 C 
ATOM     15  O   UNL     1     -20.150 -22.970  82.642  1.00  0.00    -0.550 OA
ATOM     16  O   UNL     1     -18.500 -22.214  84.041  1.00  0.00    -0.550 OA
ENDBRANCH  13  14
ENDBRANCH  12  13
ENDBRANCH  11  12
ENDBRANCH  10  11
ENDBRANCH   9  10
ENDBRANCH   8   9
ENDBRANCH   7   8
ENDBRANCH   6   7
ENDBRANCH   5   6
ENDBRANCH   4   5
ENDBRANCH   3   4
ENDBRANCH   2   3
ENDBRANCH   1   2
BRANCH   1  17
ATOM     17  C   UNL     1     -17.697 -21.777  77.807  1.00  0.00     0.000 C 
BRANCH  17  18
ATOM     18  C   UNL     1     -17.759 -20.386  78.454  1.00  0.00     0.000 C 
BRANCH  18  19
ATOM     19  C   UNL     1     -17.040 -19.305  77.625  1.00  0.00     0.000 C 
BRANCH  19  20
ATOM     20  C   UNL     1     -15.847 -18.631  78.331  1.00  0.00     0.000 C 
BRANCH  20  21
ATOM     21  C   UNL     1     -15.610 -19.073  79.790  1.00  0.00     0.000 C 
BRANCH  21  22
ATOM     22  C   UNL     1     -14.142 -19.440  80.100  1.00  0.00    -0.000 C 
BRANCH  22  23
ATOM     23  C   UNL     1     -13.329 -19.774  78.838  1.00  0.00    -0.000 C 
BRANCH  23  24
ATOM     24  C   UNL     1     -13.219 -21.293  78.660  1.00  0.00    -0.000 C 
BRANCH  24  25
ATOM     25  C   UNL     1     -14.068 -21.780  77.472  1.00  0.00    -0.000 C 
BRANCH  25  26
ATOM     26  C   UNL     1     -14.236 -23.309  77.469  1.00  0.00    -0.000 C 
BRANCH  26  27
ATOM     27  C   UNL     1     -13.074 -24.029  78.178  1.00  0.00    -0.000 C 
BRANCH  27  28
ATOM     28  C   UNL     1     -13.493 -25.401  78.734  1.00  0.00    -0.000 C 
BRANCH  28  29
ATOM     29  C   UNL     1     -15.023 -25.563  78.797  1.00  0.00    -0.003 C 
ATOM     30  C   UNL     1     -15.407 -26.979  79.219  1.00  0.00     0.004 C 
ENDBRANCH  28  29
ENDBRANCH  27  28
ENDBRANCH  26  27
ENDBRANCH  25  26
ENDBRANCH  24  25
ENDBRANCH  23  24
ENDBRANCH  22  23
ENDBRANCH  21  22
ENDBRANCH  20  21
ENDBRANCH  19  20
ENDBRANCH  18  19
ENDBRANCH  17  18
ENDBRANCH   1  17
TORSDOF 26
ENDMDL
MODEL 5
REMARK VINA RESULT:    -0.527      2.450      5.830
REMARK INTER + INTRA:          -7.714
REMARK INTER:                  -1.783
REMARK INTRA:                  -5.931
REMARK UNBOUND:                -6.386
REMARK SMILES CCCCCCCCCCCCCCCCCCCCCCCCCCCC(=O)[O-]
REMARK SMILES IDX 15 1 16 2 17 3 18 4 19 5 20 6 21 7 22 8 23 9 24 10 25 11
REMARK SMILES IDX 26 12 27 13 28 14 29 15 30 16 14 17 13 18 12 19 11 20 10 21
REMARK SMILES IDX 9 22 8 23 7 24 6 25 5 26 4 27 3 28 2 29 1 30
REMARK H PARENT
REMARK Flexibility Score: inf
ROOT
ATOM      1  C   UNL     1     -19.158 -16.493  84.230  1.00  0.00     0.000 C 
ENDROOT
BRANCH   1   2
ATOM      2  C   UNL     1     -18.487 -16.529  82.843  1.00  0.00     0.000 C 
BRANCH   2   3
ATOM      3  C   UNL     1     -19.418 -16.194  81.661  1.00  0.00     0.000 C 
BRANCH   3   4
ATOM      4  C   UNL     1     -18.784 -15.210  80.661  1.00  0.00     0.000 C 
BRANCH   4   5
ATOM      5  C   UNL     1     -17.425 -14.664  81.137  1.00  0.00     0.000 C 
BRANCH   5   6
ATOM      6  C   UNL     1     -17.169 -13.172  80.840  1.00  0.00     0.000 C 
BRANCH   6   7
ATOM      7  C   UNL     1     -16.191 -12.892  79.685  1.00  0.00     0.000 C 
BRANCH   7   8
ATOM      8  C   UNL     1     -15.275 -14.089  79.377  1.00  0.00     0.000 C 
BRANCH   8   9
ATOM      9  C   UNL     1     -15.527 -14.679  77.980  1.00  0.00     0.000 C 
BRANCH   9  10
ATOM     10  C   UNL     1     -15.157 -16.170  77.887  1.00  0.00     0.000 C 
BRANCH  10  11
ATOM     11  C   UNL     1     -16.251 -17.091  78.458  1.00  0.00     0.000 C 
BRANCH  11  12
ATOM     12  C   UNL     1     -15.897 -17.761  79.797  1.00  0.00     0.006 C 
BRANCH  12  13
ATOM     13  C   UNL     1     -16.975 -18.741  80.276  1.00  0.00     0.053 C 
BRANCH  13  14
ATOM     14  C   UNL     1     -16.415 -20.123  80.385  1.00  0.00     0.041 C 
ATOM     15  O   UNL     1     -15.365 -20.332  81.049  1.00  0.00    -0.550 OA
ATOM     16  O   UNL     1     -17.071 -21.192  79.783  1.00  0.00    -0.550 OA
ENDBRANCH  13  14
ENDBRANCH  12  13
ENDBRANCH  11  12
ENDBRANCH  10  11
ENDBRANCH   9  10
ENDBRANCH   8   9
ENDBRANCH   7   8
ENDBRANCH   6   7
ENDBRANCH   5   6
ENDBRANCH   4   5
ENDBRANCH   3   4
ENDBRANCH   2   3
ENDBRANCH   1   2
BRANCH   1  17
ATOM     17  C   UNL     1     -18.321 -15.746  85.281  1.00  0.00     0.000 C 
BRANCH  17  18
ATOM     18  C   UNL     1     -17.224 -14.897  84.624  1.00  0.00     0.000 C 
BRANCH  18  19
ATOM     19  C   UNL     1     -16.290 -14.224  85.649  1.00  0.00     0.000 C 
BRANCH  19  20
ATOM     20  C   UNL     1     -14.875 -13.906  85.127  1.00  0.00     0.000 C 
BRANCH  20  21
ATOM     21  C   UNL     1     -14.626 -14.250  83.644  1.00  0.00     0.000 C 
BRANCH  21  22
ATOM     22  C   UNL     1     -14.018 -13.089  82.828  1.00  0.00    -0.000 C 
BRANCH  22  23
ATOM     23  C   UNL     1     -14.271 -11.712  83.465  1.00  0.00    -0.000 C 
BRANCH  23  24
ATOM     24  C   UNL     1     -14.769 -10.719  82.408  1.00  0.00    -0.000 C 
BRANCH  24  25
ATOM     25  C   UNL     1     -16.117 -10.097  82.816  1.00  0.00    -0.000 C 
BRANCH  25  26
ATOM     26  C   UNL     1     -16.713 -10.775  84.061  1.00  0.00    -0.000 C 
BRANCH  26  27
ATOM     27  C   UNL     1     -18.065 -11.453  83.771  1.00  0.00    -0.000 C 
BRANCH  27  28
ATOM     28  C   UNL     1     -18.935 -11.580  85.034  1.00  0.00    -0.000 C 
BRANCH  28  29
ATOM     29  C   UNL     1     -20.128 -12.531  84.827  1.00  0.00    -0.003 C 
ATOM     30  C   UNL     1     -20.240 -12.959  83.365  1.00  0.00     0.004 C 
ENDBRANCH  28  29
ENDBRANCH  27  28
ENDBRANCH  26  27
ENDBRANCH  25  26
ENDBRANCH  24  25
ENDBRANCH  23  24
ENDBRANCH  22  23
ENDBRANCH  21  22
ENDBRANCH  20  21
ENDBRANCH  19  20
ENDBRANCH  18  19
ENDBRANCH  17  18
ENDBRANCH   1  17
TORSDOF 26
ENDMDL
MODEL 6
REMARK VINA RESULT:    -0.503      2.899      5.527
REMARK INTER + INTRA:          -7.653
REMARK INTER:                  -1.213
REMARK INTRA:                  -6.440
REMARK UNBOUND:                -6.386
REMARK SMILES CCCCCCCCCCCCCCCCCCCCCCCCCCCC(=O)[O-]
REMARK SMILES IDX 15 1 16 2 17 3 18 4 19 5 20 6 21 7 22 8 23 9 24 10 25 11
REMARK SMILES IDX 26 12 27 13 28 14 29 15 30 16 14 17 13 18 12 19 11 20 10 21
REMARK SMILES IDX 9 22 8 23 7 24 6 25 5 26 4 27 3 28 2 29 1 30
REMARK H PARENT
REMARK Flexibility Score: inf
ROOT
ATOM      1  C   UNL     1     -18.494 -12.299  79.869  1.00  0.00     0.000 C 
ENDROOT
BRANCH   1   2
ATOM      2  C   UNL     1     -17.212 -12.026  80.679  1.00  0.00     0.000 C 
BRANCH   2   3
ATOM      3  C   UNL     1     -16.010 -12.920  80.315  1.00  0.00     0.000 C 
BRANCH   3   4
ATOM      4  C   UNL     1     -15.541 -13.799  81.488  1.00  0.00     0.000 C 
BRANCH   4   5
ATOM      5  C   UNL     1     -16.546 -14.910  81.845  1.00  0.00     0.000 C 
BRANCH   5   6
ATOM      6  C   UNL     1     -17.193 -14.796  83.241  1.00  0.00     0.000 C 
BRANCH   6   7
ATOM      7  C   UNL     1     -16.377 -14.004  84.278  1.00  0.00     0.000 C 
BRANCH   7   8
ATOM      8  C   UNL     1     -17.185 -12.872  84.934  1.00  0.00     0.000 C 
BRANCH   8   9
ATOM      9  C   UNL     1     -18.463 -12.531  84.151  1.00  0.00     0.000 C 
BRANCH   9  10
ATOM     10  C   UNL     1     -19.743 -12.721  84.984  1.00  0.00     0.000 C 
BRANCH  10  11
ATOM     11  C   UNL     1     -20.840 -13.489  84.223  1.00  0.00     0.000 C 
BRANCH  11  12
ATOM     12  C   UNL     1     -20.680 -15.019  84.229  1.00  0.00     0.006 C 
BRANCH  12  13
ATOM     13  C   UNL     1     -20.074 -15.550  85.533  1.00  0.00     0.053 C 
BRANCH  13  14
ATOM     14  C   UNL     1     -19.861 -17.028  85.447  1.00  0.00     0.041 C 
ATOM     15  O   UNL     1     -18.700 -17.508  85.520  1.00  0.00    -0.550 OA
ATOM     16  O   UNL     1     -20.952 -17.883  85.322  1.00  0.00    -0.550 OA
ENDBRANCH  13  14
ENDBRANCH  12  13
ENDBRANCH  11  12
ENDBRANCH  10  11
ENDBRANCH   9  10
ENDBRANCH   8   9
ENDBRANCH   7   8
ENDBRANCH   6   7
ENDBRANCH   5   6
ENDBRANCH   4   5
ENDBRANCH   3   4
ENDBRANCH   2   3
ENDBRANCH   1   2
BRANCH   1  17
ATOM     17  C   UNL     1     -19.756 -12.351  80.744  1.00  0.00     0.000 C 
BRANCH  17  18
ATOM     18  C   UNL     1     -20.516 -13.672  80.555  1.00  0.00     0.000 C 
BRANCH  18  19
ATOM     19  C   UNL     1     -19.620 -14.812  80.036  1.00  0.00     0.000 C 
BRANCH  19  20
ATOM     20  C   UNL     1     -20.043 -15.404  78.677  1.00  0.00     0.000 C 
BRANCH  20  21
ATOM     21  C   UNL     1     -18.952 -16.207  77.940  1.00  0.00     0.000 C 
BRANCH  21  22
ATOM     22  C   UNL     1     -17.526 -15.646  78.133  1.00  0.00    -0.000 C 
BRANCH  22  23
ATOM     23  C   UNL     1     -16.555 -16.674  78.738  1.00  0.00    -0.000 C 
BRANCH  23  24
ATOM     24  C   UNL     1     -17.270 -18.010  78.974  1.00  0.00    -0.000 C 
BRANCH  24  25
ATOM     25  C   UNL     1     -16.835 -18.650  80.304  1.00  0.00    -0.000 C 
BRANCH  25  26
ATOM     26  C   UNL     1     -18.039 -19.077  81.162  1.00  0.00    -0.000 C 
BRANCH  26  27
ATOM     27  C   UNL     1     -18.683 -17.891  81.902  1.00  0.00    -0.000 C 
BRANCH  27  28
ATOM     28  C   UNL     1     -20.221 -17.937  81.848  1.00  0.00    -0.000 C 
BRANCH  28  29
ATOM     29  C   UNL     1     -20.740 -18.501  80.512  1.00  0.00    -0.003 C 
ATOM     30  C   UNL     1     -22.164 -18.024  80.235  1.00  0.00     0.004 C 
ENDBRANCH  28  29
ENDBRANCH  27  28
ENDBRANCH  26  27
ENDBRANCH  25  26
ENDBRANCH  24  25
ENDBRANCH  23  24
ENDBRANCH  22  23
ENDBRANCH  21  22
ENDBRANCH  20  21
ENDBRANCH  19  20
ENDBRANCH  18  19
ENDBRANCH  17  18
ENDBRANCH   1  17
TORSDOF 26
ENDMDL
MODEL 7
REMARK VINA RESULT:    -0.492      2.380      5.728
REMARK INTER + INTRA:          -7.625
REMARK INTER:                  -1.419
REMARK INTRA:                  -6.206
REMARK UNBOUND:                -6.386
REMARK SMILES CCCCCCCCCCCCCCCCCCCCCCCCCCCC(=O)[O-]
REMARK SMILES IDX 15 1 16 2 17 3 18 4 19 5 20 6 21 7 22 8 23 9 24 10 25 11
REMARK SMILES IDX 26 12 27 13 28 14 29 15 30 16 14 17 13 18 12 19 11 20 10 21
REMARK SMILES IDX 9 22 8 23 7 24 6 25 5 26 4 27 3 28 2 29 1 30
REMARK H PARENT
REMARK Flexibility Score: inf
ROOT
ATOM      1  C   UNL     1     -19.079 -14.842  82.464  1.00  0.00     0.000 C 
ENDROOT
BRANCH   1   2
ATOM      2  C   UNL     1     -18.370 -14.062  81.340  1.00  0.00     0.000 C 
BRANCH   2   3
ATOM      3  C   UNL     1     -19.238 -12.997  80.639  1.00  0.00     0.000 C 
BRANCH   3   4
ATOM      4  C   UNL     1     -18.432 -11.761  80.205  1.00  0.00     0.000 C 
BRANCH   4   5
ATOM      5  C   UNL     1     -17.015 -12.111  79.712  1.00  0.00     0.000 C 
BRANCH   5   6
ATOM      6  C   UNL     1     -16.921 -12.587  78.247  1.00  0.00     0.000 C 
BRANCH   6   7
ATOM      7  C   UNL     1     -15.584 -13.243  77.857  1.00  0.00     0.000 C 
BRANCH   7   8
ATOM      8  C   UNL     1     -14.731 -13.629  79.077  1.00  0.00     0.000 C 
BRANCH   8   9
ATOM      9  C   UNL     1     -14.235 -15.083  79.013  1.00  0.00     0.000 C 
BRANCH   9  10
ATOM     10  C   UNL     1     -14.851 -15.971  80.108  1.00  0.00     0.000 C 
BRANCH  10  11
ATOM     11  C   UNL     1     -15.682 -17.133  79.533  1.00  0.00     0.000 C 
BRANCH  11  12
ATOM     12  C   UNL     1     -17.206 -16.958  79.651  1.00  0.00     0.006 C 
BRANCH  12  13
ATOM     13  C   UNL     1     -17.812 -16.194  78.468  1.00  0.00     0.053 C 
BRANCH  13  14
ATOM     14  C   UNL     1     -17.465 -16.867  77.178  1.00  0.00     0.041 C 
ATOM     15  O   UNL     1     -17.937 -18.003  76.908  1.00  0.00    -0.550 OA
ATOM     16  O   UNL     1     -16.648 -16.225  76.253  1.00  0.00    -0.550 OA
ENDBRANCH  13  14
ENDBRANCH  12  13
ENDBRANCH  11  12
ENDBRANCH  10  11
ENDBRANCH   9  10
ENDBRANCH   8   9
ENDBRANCH   7   8
ENDBRANCH   6   7
ENDBRANCH   5   6
ENDBRANCH   4   5
ENDBRANCH   3   4
ENDBRANCH   2   3
ENDBRANCH   1   2
BRANCH   1  17
ATOM     17  C   UNL     1     -18.142 -15.809  83.205  1.00  0.00     0.000 C 
BRANCH  17  18
ATOM     18  C   UNL     1     -17.801 -15.293  84.610  1.00  0.00     0.000 C 
BRANCH  18  19
ATOM     19  C   UNL     1     -18.974 -15.422  85.600  1.00  0.00     0.000 C 
BRANCH  19  20
ATOM     20  C   UNL     1     -19.537 -14.084  86.119  1.00  0.00     0.000 C 
BRANCH  20  21
ATOM     21  C   UNL     1     -18.693 -12.838  85.778  1.00  0.00     0.000 C 
BRANCH  21  22
ATOM     22  C   UNL     1     -19.363 -11.890  84.760  1.00  0.00    -0.000 C 
BRANCH  22  23
ATOM     23  C   UNL     1     -18.354 -11.220  83.811  1.00  0.00    -0.000 C 
BRANCH  23  24
ATOM     24  C   UNL     1     -16.957 -11.824  84.005  1.00  0.00    -0.000 C 
BRANCH  24  25
ATOM     25  C   UNL     1     -15.904 -11.077  83.168  1.00  0.00    -0.000 C 
BRANCH  25  26
ATOM     26  C   UNL     1     -14.788 -12.013  82.673  1.00  0.00    -0.000 C 
BRANCH  26  27
ATOM     27  C   UNL     1     -15.202 -13.495  82.717  1.00  0.00    -0.000 C 
BRANCH  27  28
ATOM     28  C   UNL     1     -14.290 -14.326  83.638  1.00  0.00    -0.000 C 
BRANCH  28  29
ATOM     29  C   UNL     1     -13.846 -13.539  84.884  1.00  0.00    -0.003 C 
ATOM     30  C   UNL     1     -14.636 -13.974  86.116  1.00  0.00     0.004 C 
ENDBRANCH  28  29
ENDBRANCH  27  28
ENDBRANCH  26  27
ENDBRANCH  25  26
ENDBRANCH  24  25
ENDBRANCH  23  24
ENDBRANCH  22  23
ENDBRANCH  21  22
ENDBRANCH  20  21
ENDBRANCH  19  20
ENDBRANCH  18  19
ENDBRANCH  17  18
ENDBRANCH   1  17
TORSDOF 26
ENDMDL
MODEL 8
REMARK VINA RESULT:    -0.472      6.062      9.045
REMARK INTER + INTRA:          -7.576
REMARK INTER:                  -0.993
REMARK INTRA:                  -6.583
REMARK UNBOUND:                -6.386
REMARK SMILES CCCCCCCCCCCCCCCCCCCCCCCCCCCC(=O)[O-]
REMARK SMILES IDX 15 1 16 2 17 3 18 4 19 5 20 6 21 7 22 8 23 9 24 10 25 11
REMARK SMILES IDX 26 12 27 13 28 14 29 15 30 16 14 17 13 18 12 19 11 20 10 21
REMARK SMILES IDX 9 22 8 23 7 24 6 25 5 26 4 27 3 28 2 29 1 30
REMARK H PARENT
REMARK Flexibility Score: inf
ROOT
ATOM      1  C   UNL     1     -16.902 -21.812  79.324  1.00  0.00     0.000 C 
ENDROOT
BRANCH   1   2
ATOM      2  C   UNL     1     -15.932 -22.985  79.562  1.00  0.00     0.000 C 
BRANCH   2   3
ATOM      3  C   UNL     1     -14.942 -22.785  80.728  1.00  0.00     0.000 C 
BRANCH   3   4
ATOM      4  C   UNL     1     -15.281 -23.651  81.954  1.00  0.00     0.000 C 
BRANCH   4   5
ATOM      5  C   UNL     1     -16.167 -22.918  82.979  1.00  0.00     0.000 C 
BRANCH   5   6
ATOM      6  C   UNL     1     -17.526 -23.585  83.278  1.00  0.00     0.000 C 
BRANCH   6   7
ATOM      7  C   UNL     1     -18.023 -24.569  82.203  1.00  0.00     0.000 C 
BRANCH   7   8
ATOM      8  C   UNL     1     -19.461 -24.274  81.744  1.00  0.00     0.000 C 
BRANCH   8   9
ATOM      9  C   UNL     1     -19.572 -24.117  80.219  1.00  0.00     0.000 C 
BRANCH   9  10
ATOM     10  C   UNL     1     -20.657 -23.110  79.800  1.00  0.00     0.000 C 
BRANCH  10  11
ATOM     11  C   UNL     1     -20.419 -22.528  78.395  1.00  0.00     0.000 C 
BRANCH  11  12
ATOM     12  C   UNL     1     -20.858 -21.064  78.219  1.00  0.00     0.006 C 
BRANCH  12  13
ATOM     13  C   UNL     1     -19.732 -20.163  77.697  1.00  0.00     0.053 C 
BRANCH  13  14
ATOM     14  C   UNL     1     -19.624 -20.270  76.208  1.00  0.00     0.041 C 
ATOM     15  O   UNL     1     -20.663 -20.300  75.497  1.00  0.00    -0.550 OA
ATOM     16  O   UNL     1     -18.373 -20.299  75.600  1.00  0.00    -0.550 OA
ENDBRANCH  13  14
ENDBRANCH  12  13
ENDBRANCH  11  12
ENDBRANCH  10  11
ENDBRANCH   9  10
ENDBRANCH   8   9
ENDBRANCH   7   8
ENDBRANCH   6   7
ENDBRANCH   5   6
ENDBRANCH   4   5
ENDBRANCH   3   4
ENDBRANCH   2   3
ENDBRANCH   1   2
BRANCH   1  17
ATOM     17  C   UNL     1     -16.320 -20.457  79.757  1.00  0.00     0.000 C 
BRANCH  17  18
ATOM     18  C   UNL     1     -17.181 -19.800  80.846  1.00  0.00     0.000 C 
BRANCH  18  19
ATOM     19  C   UNL     1     -18.457 -20.600  81.168  1.00  0.00     0.000 C 
BRANCH  19  20
ATOM     20  C   UNL     1     -19.016 -20.387  82.589  1.00  0.00     0.000 C 
BRANCH  20  21
ATOM     21  C   UNL     1     -20.424 -20.967  82.837  1.00  0.00     0.000 C 
BRANCH  21  22
ATOM     22  C   UNL     1     -21.556 -19.920  82.746  1.00  0.00    -0.000 C 
BRANCH  22  23
ATOM     23  C   UNL     1     -22.282 -19.939  81.390  1.00  0.00    -0.000 C 
BRANCH  23  24
ATOM     24  C   UNL     1     -22.362 -18.523  80.807  1.00  0.00    -0.000 C 
BRANCH  24  25
ATOM     25  C   UNL     1     -20.972 -18.011  80.390  1.00  0.00    -0.000 C 
BRANCH  25  26
ATOM     26  C   UNL     1     -20.611 -16.686  81.085  1.00  0.00    -0.000 C 
BRANCH  26  27
ATOM     27  C   UNL     1     -19.090 -16.463  81.171  1.00  0.00    -0.000 C 
BRANCH  27  28
ATOM     28  C   UNL     1     -18.532 -16.792  82.566  1.00  0.00    -0.000 C 
BRANCH  28  29
ATOM     29  C   UNL     1     -19.630 -16.810  83.645  1.00  0.00    -0.003 C 
ATOM     30  C   UNL     1     -19.157 -17.548  84.895  1.00  0.00     0.004 C 
ENDBRANCH  28  29
ENDBRANCH  27  28
ENDBRANCH  26  27
ENDBRANCH  25  26
ENDBRANCH  24  25
ENDBRANCH  23  24
ENDBRANCH  22  23
ENDBRANCH  21  22
ENDBRANCH  20  21
ENDBRANCH  19  20
ENDBRANCH  18  19
ENDBRANCH  17  18
ENDBRANCH   1  17
TORSDOF 26
ENDMDL
MODEL 9
REMARK VINA RESULT:     0.471      9.433     12.656
REMARK INTER + INTRA:          -5.200
REMARK INTER:                   1.125
REMARK INTRA:                  -6.324
REMARK UNBOUND:                -6.386
REMARK SMILES CCCCCCCCCCCCCCCCCCCCCCCCCCCC(=O)[O-]
REMARK SMILES IDX 15 1 16 2 17 3 18 4 19 5 20 6 21 7 22 8 23 9 24 10 25 11
REMARK SMILES IDX 26 12 27 13 28 14 29 15 30 16 14 17 13 18 12 19 11 20 10 21
REMARK SMILES IDX 9 22 8 23 7 24 6 25 5 26 4 27 3 28 2 29 1 30
REMARK H PARENT
REMARK Flexibility Score: inf
ROOT
ATOM      1  C   UNL     1     -17.649 -21.701  81.980  1.00  0.00     0.000 C 
ENDROOT
BRANCH   1   2
ATOM      2  C   UNL     1     -16.153 -21.680  81.611  1.00  0.00     0.000 C 
BRANCH   2   3
ATOM      3  C   UNL     1     -15.834 -21.102  80.218  1.00  0.00     0.000 C 
BRANCH   3   4
ATOM      4  C   UNL     1     -14.853 -21.977  79.418  1.00  0.00     0.000 C 
BRANCH   4   5
ATOM      5  C   UNL     1     -14.671 -23.381  80.024  1.00  0.00     0.000 C 
BRANCH   5   6
ATOM      6  C   UNL     1     -15.232 -24.546  79.181  1.00  0.00     0.000 C 
BRANCH   6   7
ATOM      7  C   UNL     1     -16.617 -25.060  79.615  1.00  0.00     0.000 C 
BRANCH   7   8
ATOM      8  C   UNL     1     -17.766 -24.163  79.125  1.00  0.00     0.000 C 
BRANCH   8   9
ATOM      9  C   UNL     1     -19.089 -24.452  79.853  1.00  0.00     0.000 C 
BRANCH   9  10
ATOM     10  C   UNL     1     -19.190 -25.903  80.352  1.00  0.00     0.000 C 
BRANCH  10  11
ATOM     11  C   UNL     1     -20.277 -26.089  81.427  1.00  0.00     0.000 C 
BRANCH  11  12
ATOM     12  C   UNL     1     -20.937 -24.785  81.911  1.00  0.00     0.006 C 
BRANCH  12  13
ATOM     13  C   UNL     1     -21.174 -24.764  83.425  1.00  0.00     0.053 C 
BRANCH  13  14
ATOM     14  C   UNL     1     -22.460 -25.448  83.763  1.00  0.00     0.041 C 
ATOM     15  O   UNL     1     -22.455 -26.624  84.213  1.00  0.00    -0.550 OA
ATOM     16  O   UNL     1     -23.669 -24.774  83.615  1.00  0.00    -0.550 OA
ENDBRANCH  13  14
ENDBRANCH  12  13
ENDBRANCH  11  12
ENDBRANCH  10  11
ENDBRANCH   9  10
ENDBRANCH   8   9
ENDBRANCH   7   8
ENDBRANCH   6   7
ENDBRANCH   5   6
ENDBRANCH   4   5
ENDBRANCH   3   4
ENDBRANCH   2   3
ENDBRANCH   1   2
BRANCH   1  17
ATOM     17  C   UNL     1     -17.998 -22.795  83.001  1.00  0.00     0.000 C 
BRANCH  17  18
ATOM     18  C   UNL     1     -16.932 -23.899  83.028  1.00  0.00     0.000 C 
BRANCH  18  19
ATOM     19  C   UNL     1     -17.459 -25.229  83.599  1.00  0.00     0.000 C 
BRANCH  19  20
ATOM     20  C   UNL     1     -17.067 -25.509  85.064  1.00  0.00     0.000 C 
BRANCH  20  21
ATOM     21  C   UNL     1     -15.792 -26.356  85.254  1.00  0.00     0.000 C 
BRANCH  21  22
ATOM     22  C   UNL     1     -15.579 -27.420  84.156  1.00  0.00    -0.000 C 
BRANCH  22  23
ATOM     23  C   UNL     1     -14.175 -27.363  83.530  1.00  0.00    -0.000 C 
BRANCH  23  24
ATOM     24  C   UNL     1     -14.116 -26.280  82.447  1.00  0.00    -0.000 C 
BRANCH  24  25
ATOM     25  C   UNL     1     -12.875 -25.386  82.616  1.00  0.00    -0.000 C 
BRANCH  25  26
ATOM     26  C   UNL     1     -13.001 -24.444  83.826  1.00  0.00    -0.000 C 
BRANCH  26  27
ATOM     27  C   UNL     1     -13.364 -23.005  83.415  1.00  0.00    -0.000 C 
BRANCH  27  28
ATOM     28  C   UNL     1     -13.681 -22.116  84.631  1.00  0.00    -0.000 C 
BRANCH  28  29
ATOM     29  C   UNL     1     -14.395 -22.894  85.752  1.00  0.00    -0.003 C 
ATOM     30  C   UNL     1     -15.728 -22.241  86.107  1.00  0.00     0.004 C 
ENDBRANCH  28  29
ENDBRANCH  27  28
ENDBRANCH  26  27
ENDBRANCH  25  26
ENDBRANCH  24  25
ENDBRANCH  23  24
ENDBRANCH  22  23
ENDBRANCH  21  22
ENDBRANCH  20  21
ENDBRANCH  19  20
ENDBRANCH  18  19
ENDBRANCH  17  18
ENDBRANCH   1  17
TORSDOF 26
ENDMDL
