MODEL 1
REMARK VINA RESULT:    -3.732      0.000      0.000
REMARK INTER + INTRA:          -4.785
REMARK INTER:                  -4.604
REMARK INTRA:                  -0.181
REMARK UNBOUND:                -0.181
REMARK SMILES CCCCC=CC(C)=O
REMARK SMILES IDX 4 1 3 2 2 3 1 4 5 5 6 6 7 7 9 8 8 9
REMARK H PARENT
REMARK Flexibility Score: inf
ROOT
ATOM      1  C   UNL     1       2.189   9.276  16.391  1.00  0.00     0.027 C 
ENDROOT
BRANCH   1   2
ATOM      2  C   UNL     1       1.719   9.724  17.782  1.00  0.00     0.004 C 
BRANCH   2   3
ATOM      3  C   UNL     1       1.367   8.533  18.685  1.00  0.00    -0.003 C 
ATOM      4  C   UNL     1      -0.135   8.265  18.681  1.00  0.00     0.004 C 
ENDBRANCH   2   3
ENDBRANCH   1   2
BRANCH   1   5
ATOM      5  C   UNL     1       2.066  10.368  15.365  1.00  0.00    -0.023 C 
ATOM      6  C   UNL     1       1.541  11.560  15.672  1.00  0.00     0.042 C 
BRANCH   6   7
ATOM      7  C   UNL     1       1.407  12.642  14.679  1.00  0.00     0.152 C 
ATOM      8  O   UNL     1       2.399  13.022  14.001  1.00  0.00    -0.295 OA
ATOM      9  C   UNL     1       0.080  13.298  14.476  1.00  0.00     0.093 C 
ENDBRANCH   6   7
ENDBRANCH   1   5
TORSDOF 4
ENDMDL
MODEL 2
REMARK VINA RESULT:    -3.663      8.279      9.559
REMARK INTER + INTRA:          -4.700
REMARK INTER:                  -4.521
REMARK INTRA:                  -0.179
REMARK UNBOUND:                -0.181
REMARK SMILES CCCCC=CC(C)=O
REMARK SMILES IDX 4 1 3 2 2 3 1 4 5 5 6 6 7 7 9 8 8 9
REMARK H PARENT
REMARK Flexibility Score: inf
ROOT
ATOM      1  C   UNL     1       2.805  16.320  22.435  1.00  0.00     0.027 C 
ENDROOT
BRANCH   1   2
ATOM      2  C   UNL     1       2.187  16.366  21.030  1.00  0.00     0.004 C 
BRANCH   2   3
ATOM      3  C   UNL     1       0.864  17.146  21.006  1.00  0.00    -0.003 C 
ATOM      4  C   UNL     1       0.185  17.119  22.373  1.00  0.00     0.004 C 
ENDBRANCH   2   3
ENDBRANCH   1   2
BRANCH   1   5
ATOM      5  C   UNL     1       3.036  14.913  22.913  1.00  0.00    -0.023 C 
ATOM      6  C   UNL     1       3.215  14.636  24.211  1.00  0.00     0.042 C 
BRANCH   6   7
ATOM      7  C   UNL     1       3.448  13.264  24.698  1.00  0.00     0.152 C 
ATOM      8  O   UNL     1       4.588  12.733  24.614  1.00  0.00    -0.295 OA
ATOM      9  C   UNL     1       2.317  12.491  25.296  1.00  0.00     0.093 C 
ENDBRANCH   6   7
ENDBRANCH   1   5
TORSDOF 4
ENDMDL
MODEL 3
REMARK VINA RESULT:    -3.625      2.151      3.486
REMARK INTER + INTRA:          -4.654
REMARK INTER:                  -4.429
REMARK INTRA:                  -0.224
REMARK UNBOUND:                -0.181
REMARK SMILES CCCCC=CC(C)=O
REMARK SMILES IDX 4 1 3 2 2 3 1 4 5 5 6 6 7 7 9 8 8 9
REMARK H PARENT
REMARK Flexibility Score: inf
ROOT
ATOM      1  C   UNL     1       0.232   8.109  18.962  1.00  0.00     0.027 C 
ENDROOT
BRANCH   1   2
ATOM      2  C   UNL     1      -0.171   8.630  20.350  1.00  0.00     0.004 C 
BRANCH   2   3
ATOM      3  C   UNL     1       0.303   7.701  21.476  1.00  0.00    -0.003 C 
ATOM      4  C   UNL     1       1.760   7.295  21.279  1.00  0.00     0.004 C 
ENDBRANCH   2   3
ENDBRANCH   1   2
BRANCH   1   5
ATOM      5  C   UNL     1       0.920   9.158  18.134  1.00  0.00    -0.023 C 
ATOM      6  C   UNL     1       2.037   8.886  17.448  1.00  0.00     0.042 C 
BRANCH   6   7
ATOM      7  C   UNL     1       2.729   9.902  16.634  1.00  0.00     0.152 C 
ATOM      8  O   UNL     1       3.861  10.342  16.974  1.00  0.00    -0.295 OA
ATOM      9  C   UNL     1       2.080  10.422  15.392  1.00  0.00     0.093 C 
ENDBRANCH   6   7
ENDBRANCH   1   5
TORSDOF 4
ENDMDL
MODEL 4
REMARK VINA RESULT:    -3.619      8.587      9.847
REMARK INTER + INTRA:          -4.646
REMARK INTER:                  -4.451
REMARK INTRA:                  -0.195
REMARK UNBOUND:                -0.181
REMARK SMILES CCCCC=CC(C)=O
REMARK SMILES IDX 4 1 3 2 2 3 1 4 5 5 6 6 7 7 9 8 8 9
REMARK H PARENT
REMARK Flexibility Score: inf
ROOT
ATOM      1  C   UNL     1       2.483  16.012  23.419  1.00  0.00     0.027 C 
ENDROOT
BRANCH   1   2
ATOM      2  C   UNL     1       2.648  16.364  21.933  1.00  0.00     0.004 C 
BRANCH   2   3
ATOM      3  C   UNL     1       1.311  16.732  21.274  1.00  0.00    -0.003 C 
ATOM      4  C   UNL     1       0.258  17.079  22.323  1.00  0.00     0.004 C 
ENDBRANCH   2   3
ENDBRANCH   1   2
BRANCH   1   5
ATOM      5  C   UNL     1       3.399  14.901  23.849  1.00  0.00    -0.023 C 
ATOM      6  C   UNL     1       2.928  13.788  24.424  1.00  0.00     0.042 C 
BRANCH   6   7
ATOM      7  C   UNL     1       3.812  12.690  24.857  1.00  0.00     0.152 C 
ATOM      8  O   UNL     1       3.344  11.678  25.447  1.00  0.00    -0.295 OA
ATOM      9  C   UNL     1       5.281  12.778  24.599  1.00  0.00     0.093 C 
ENDBRANCH   6   7
ENDBRANCH   1   5
TORSDOF 4
ENDMDL
MODEL 5
REMARK VINA RESULT:    -3.613      3.143      5.271
REMARK INTER + INTRA:          -4.638
REMARK INTER:                  -4.418
REMARK INTRA:                  -0.220
REMARK UNBOUND:                -0.181
REMARK SMILES CCCCC=CC(C)=O
REMARK SMILES IDX 4 1 3 2 2 3 1 4 5 5 6 6 7 7 9 8 8 9
REMARK H PARENT
REMARK Flexibility Score: inf
ROOT
ATOM      1  C   UNL     1       2.088   8.895  16.685  1.00  0.00     0.027 C 
ENDROOT
BRANCH   1   2
ATOM      2  C   UNL     1       2.101  10.068  15.694  1.00  0.00     0.004 C 
BRANCH   2   3
ATOM      3  C   UNL     1       1.600  11.371  16.332  1.00  0.00    -0.003 C 
ATOM      4  C   UNL     1       1.065  12.331  15.274  1.00  0.00     0.004 C 
ENDBRANCH   2   3
ENDBRANCH   1   2
BRANCH   1   5
ATOM      5  C   UNL     1       1.257   9.185  17.904  1.00  0.00    -0.023 C 
ATOM      6  C   UNL     1       0.880   8.211  18.741  1.00  0.00     0.042 C 
BRANCH   6   7
ATOM      7  C   UNL     1       0.060   8.474  19.939  1.00  0.00     0.152 C 
ATOM      8  O   UNL     1       0.204   7.785  20.984  1.00  0.00    -0.295 OA
ATOM      9  C   UNL     1      -0.956   9.570  19.912  1.00  0.00     0.093 C 
ENDBRANCH   6   7
ENDBRANCH   1   5
TORSDOF 4
ENDMDL
MODEL 6
REMARK VINA RESULT:    -3.526      7.994      8.484
REMARK INTER + INTRA:          -4.531
REMARK INTER:                  -4.326
REMARK INTRA:                  -0.205
REMARK UNBOUND:                -0.181
REMARK SMILES CCCCC=CC(C)=O
REMARK SMILES IDX 4 1 3 2 2 3 1 4 5 5 6 6 7 7 9 8 8 9
REMARK H PARENT
REMARK Flexibility Score: inf
ROOT
ATOM      1  C   UNL     1       3.524  14.907  24.242  1.00  0.00     0.027 C 
ENDROOT
BRANCH   1   2
ATOM      2  C   UNL     1       2.916  13.534  24.564  1.00  0.00     0.004 C 
BRANCH   2   3
ATOM      3  C   UNL     1       3.905  12.389  24.305  1.00  0.00    -0.003 C 
ATOM      4  C   UNL     1       5.325  12.791  24.690  1.00  0.00     0.004 C 
ENDBRANCH   2   3
ENDBRANCH   1   2
BRANCH   1   5
ATOM      5  C   UNL     1       2.554  15.811  23.534  1.00  0.00    -0.023 C 
ATOM      6  C   UNL     1       2.435  15.803  22.201  1.00  0.00     0.042 C 
BRANCH   6   7
ATOM      7  C   UNL     1       1.493  16.686  21.488  1.00  0.00     0.152 C 
ATOM      8  O   UNL     1       1.722  17.053  20.304  1.00  0.00    -0.295 OA
ATOM      9  C   UNL     1       0.254  17.155  22.179  1.00  0.00     0.093 C 
ENDBRANCH   6   7
ENDBRANCH   1   5
TORSDOF 4
ENDMDL
MODEL 7
REMARK VINA RESULT:    -3.516      2.787      5.026
REMARK INTER + INTRA:          -4.520
REMARK INTER:                  -4.293
REMARK INTRA:                  -0.227
REMARK UNBOUND:                -0.181
REMARK SMILES CCCCC=CC(C)=O
REMARK SMILES IDX 4 1 3 2 2 3 1 4 5 5 6 6 7 7 9 8 8 9
REMARK H PARENT
REMARK Flexibility Score: inf
ROOT
ATOM      1  C   UNL     1       2.288  10.057  15.686  1.00  0.00     0.027 C 
ENDROOT
BRANCH   1   2
ATOM      2  C   UNL     1       2.632  11.534  15.931  1.00  0.00     0.004 C 
BRANCH   2   3
ATOM      3  C   UNL     1       1.380  12.385  16.186  1.00  0.00    -0.003 C 
ATOM      4  C   UNL     1       0.706  12.779  14.875  1.00  0.00     0.004 C 
ENDBRANCH   2   3
ENDBRANCH   1   2
BRANCH   1   5
ATOM      5  C   UNL     1       1.451   9.474  16.791  1.00  0.00    -0.023 C 
ATOM      6  C   UNL     1       1.991   8.711  17.749  1.00  0.00     0.042 C 
BRANCH   6   7
ATOM      7  C   UNL     1       1.186   8.126  18.838  1.00  0.00     0.152 C 
ATOM      8  O   UNL     1       1.722   7.404  19.721  1.00  0.00    -0.295 OA
ATOM      9  C   UNL     1      -0.285   8.389  18.892  1.00  0.00     0.093 C 
ENDBRANCH   6   7
ENDBRANCH   1   5
TORSDOF 4
ENDMDL
MODEL 8
REMARK VINA RESULT:    -3.473      3.939      6.608
REMARK INTER + INTRA:          -4.466
REMARK INTER:                  -4.316
REMARK INTRA:                  -0.150
REMARK UNBOUND:                -0.181
REMARK SMILES CCCCC=CC(C)=O
REMARK SMILES IDX 4 1 3 2 2 3 1 4 5 5 6 6 7 7 9 8 8 9
REMARK H PARENT
REMARK Flexibility Score: inf
ROOT
ATOM      1  C   UNL     1       0.198   8.432  18.523  1.00  0.00     0.027 C 
ENDROOT
BRANCH   1   2
ATOM      2  C   UNL     1       1.250   9.423  18.005  1.00  0.00     0.004 C 
BRANCH   2   3
ATOM      3  C   UNL     1       1.737   9.065  16.594  1.00  0.00    -0.003 C 
ATOM      4  C   UNL     1       2.022  10.321  15.775  1.00  0.00     0.004 C 
ENDBRANCH   2   3
ENDBRANCH   1   2
BRANCH   1   5
ATOM      5  C   UNL     1       0.355   8.143  19.989  1.00  0.00    -0.023 C 
ATOM      6  C   UNL     1       1.490   7.632  20.484  1.00  0.00     0.042 C 
BRANCH   6   7
ATOM      7  C   UNL     1       1.662   7.336  21.918  1.00  0.00     0.152 C 
ATOM      8  O   UNL     1       2.739   7.615  22.510  1.00  0.00    -0.295 OA
ATOM      9  C   UNL     1       0.547   6.694  22.679  1.00  0.00     0.093 C 
ENDBRANCH   6   7
ENDBRANCH   1   5
TORSDOF 4
ENDMDL
MODEL 9
REMARK VINA RESULT:    -3.455      7.480      8.824
REMARK INTER + INTRA:          -4.443
REMARK INTER:                  -4.193
REMARK INTRA:                  -0.250
REMARK UNBOUND:                -0.181
REMARK SMILES CCCCC=CC(C)=O
REMARK SMILES IDX 4 1 3 2 2 3 1 4 5 5 6 6 7 7 9 8 8 9
REMARK H PARENT
REMARK Flexibility Score: inf
ROOT
ATOM      1  C   UNL     1       0.525  17.136  21.797  1.00  0.00     0.027 C 
ENDROOT
BRANCH   1   2
ATOM      2  C   UNL     1       0.985  17.531  20.385  1.00  0.00     0.004 C 
BRANCH   2   3
ATOM      3  C   UNL     1       0.734  16.414  19.362  1.00  0.00    -0.003 C 
ATOM      4  C   UNL     1       1.981  16.143  18.526  1.00  0.00     0.004 C 
ENDBRANCH   2   3
ENDBRANCH   1   2
BRANCH   1   5
ATOM      5  C   UNL     1       1.279  15.953  22.335  1.00  0.00    -0.023 C 
ATOM      6  C   UNL     1       2.609  15.978  22.483  1.00  0.00     0.042 C 
BRANCH   6   7
ATOM      7  C   UNL     1       3.366  14.826  23.004  1.00  0.00     0.152 C 
ATOM      8  O   UNL     1       3.990  14.057  22.225  1.00  0.00    -0.295 OA
ATOM      9  C   UNL     1       3.391  14.563  24.476  1.00  0.00     0.093 C 
ENDBRANCH   6   7
ENDBRANCH   1   5
TORSDOF 4
ENDMDL
