MODEL 1
REMARK VINA RESULT:    -5.754      0.000      0.000
REMARK INTER + INTRA:         -12.655
REMARK INTER:                 -10.127
REMARK INTRA:                  -2.527
REMARK UNBOUND:                -2.527
REMARK SMILES CCCCCCC=CCCCCCCCC(=O)[O-]
REMARK SMILES IDX 10 1 11 2 12 3 13 4 14 5 15 6 16 7 17 8 18 9 9 10 8 11 7 12
REMARK SMILES IDX 6 13 5 14 4 15 3 16 2 17 1 18
REMARK H PARENT
REMARK Flexibility Score: inf
ROOT
ATOM      1  C   UNL     1      21.048 -22.909 -11.565  1.00  0.00     0.004 C 
ENDROOT
BRANCH   1   2
ATOM      2  C   UNL     1      21.298 -21.786 -10.538  1.00  0.00     0.000 C 
BRANCH   2   3
ATOM      3  C   UNL     1      21.207 -22.210  -9.059  1.00  0.00     0.000 C 
BRANCH   3   4
ATOM      4  C   UNL     1      21.673 -21.152  -8.044  1.00  0.00     0.000 C 
BRANCH   4   5
ATOM      5  C   UNL     1      22.866 -21.624  -7.194  1.00  0.00     0.006 C 
BRANCH   5   6
ATOM      6  C   UNL     1      22.727 -23.091  -6.767  1.00  0.00     0.053 C 
BRANCH   6   7
ATOM      7  C   UNL     1      22.768 -23.243  -5.276  1.00  0.00     0.041 C 
ATOM      8  O   UNL     1      22.689 -24.386  -4.753  1.00  0.00    -0.550 OA
ATOM      9  O   UNL     1      22.869 -22.120  -4.465  1.00  0.00    -0.550 OA
ENDBRANCH   6   7
ENDBRANCH   5   6
ENDBRANCH   4   5
ENDBRANCH   3   4
ENDBRANCH   2   3
ENDBRANCH   1   2
BRANCH   1  10
ATOM     10  C   UNL     1      20.337 -24.140 -10.977  1.00  0.00     0.027 C 
BRANCH  10  11
ATOM     11  C   UNL     1      21.000 -25.429 -11.403  1.00  0.00    -0.031 C 
ATOM     12  C   UNL     1      22.077 -25.977 -10.810  1.00  0.00    -0.031 C 
BRANCH  12  13
ATOM     13  C   UNL     1      22.826 -25.369  -9.651  1.00  0.00     0.027 C 
BRANCH  13  14
ATOM     14  C   UNL     1      24.288 -25.073 -10.025  1.00  0.00     0.004 C 
BRANCH  14  15
ATOM     15  C   UNL     1      24.601 -23.568 -10.025  1.00  0.00     0.000 C 
BRANCH  15  16
ATOM     16  C   UNL     1      24.775 -22.998 -11.440  1.00  0.00    -0.000 C 
BRANCH  16  17
ATOM     17  C   UNL     1      24.729 -21.466 -11.422  1.00  0.00    -0.003 C 
ATOM     18  C   UNL     1      25.037 -20.920 -10.032  1.00  0.00     0.004 C 
ENDBRANCH  16  17
ENDBRANCH  15  16
ENDBRANCH  14  15
ENDBRANCH  13  14
ENDBRANCH  12  13
ENDBRANCH  10  11
ENDBRANCH   1  10
TORSDOF 13
ENDMDL
MODEL 2
REMARK VINA RESULT:    -5.645      1.161      2.192
REMARK INTER + INTRA:         -12.462
REMARK INTER:                  -9.860
REMARK INTRA:                  -2.602
REMARK UNBOUND:                -2.527
REMARK SMILES CCCCCCC=CCCCCCCCC(=O)[O-]
REMARK SMILES IDX 10 1 11 2 12 3 13 4 14 5 15 6 16 7 17 8 18 9 9 10 8 11 7 12
REMARK SMILES IDX 6 13 5 14 4 15 3 16 2 17 1 18
REMARK H PARENT
REMARK Flexibility Score: inf
ROOT
ATOM      1  C   UNL     1      20.941 -25.226 -11.689  1.00  0.00     0.004 C 
ENDROOT
BRANCH   1   2
ATOM      2  C   UNL     1      20.432 -23.903 -11.082  1.00  0.00     0.000 C 
BRANCH   2   3
ATOM      3  C   UNL     1      21.303 -22.665 -11.371  1.00  0.00     0.000 C 
BRANCH   3   4
ATOM      4  C   UNL     1      21.181 -21.524 -10.346  1.00  0.00     0.000 C 
BRANCH   4   5
ATOM      5  C   UNL     1      21.193 -22.024  -8.891  1.00  0.00     0.006 C 
BRANCH   5   6
ATOM      6  C   UNL     1      21.742 -20.970  -7.921  1.00  0.00     0.053 C 
BRANCH   6   7
ATOM      7  C   UNL     1      22.784 -21.542  -7.009  1.00  0.00     0.041 C 
ATOM      8  O   UNL     1      23.937 -21.038  -6.968  1.00  0.00    -0.550 OA
ATOM      9  O   UNL     1      22.488 -22.649  -6.223  1.00  0.00    -0.550 OA
ENDBRANCH   6   7
ENDBRANCH   5   6
ENDBRANCH   4   5
ENDBRANCH   3   4
ENDBRANCH   2   3
ENDBRANCH   1   2
BRANCH   1  10
ATOM     10  C   UNL     1      21.651 -26.141 -10.677  1.00  0.00     0.027 C 
BRANCH  10  11
ATOM     11  C   UNL     1      21.428 -25.686  -9.253  1.00  0.00    -0.031 C 
ATOM     12  C   UNL     1      22.399 -25.310  -8.400  1.00  0.00    -0.031 C 
BRANCH  12  13
ATOM     13  C   UNL     1      23.874 -25.325  -8.712  1.00  0.00     0.027 C 
BRANCH  13  14
ATOM     14  C   UNL     1      24.347 -23.959  -9.237  1.00  0.00     0.004 C 
BRANCH  14  15
ATOM     15  C   UNL     1      24.502 -23.939 -10.766  1.00  0.00     0.000 C 
BRANCH  15  16
ATOM     16  C   UNL     1      25.051 -22.604 -11.289  1.00  0.00    -0.000 C 
BRANCH  16  17
ATOM     17  C   UNL     1      24.804 -21.477 -10.280  1.00  0.00    -0.003 C 
ATOM     18  C   UNL     1      25.065 -20.110 -10.903  1.00  0.00     0.004 C 
ENDBRANCH  16  17
ENDBRANCH  15  16
ENDBRANCH  14  15
ENDBRANCH  13  14
ENDBRANCH  12  13
ENDBRANCH  10  11
ENDBRANCH   1  10
TORSDOF 13
ENDMDL
MODEL 3
REMARK VINA RESULT:    -5.630      2.691      5.422
REMARK INTER + INTRA:         -12.436
REMARK INTER:                  -9.734
REMARK INTRA:                  -2.702
REMARK UNBOUND:                -2.527
REMARK SMILES CCCCCCC=CCCCCCCCC(=O)[O-]
REMARK SMILES IDX 10 1 11 2 12 3 13 4 14 5 15 6 16 7 17 8 18 9 9 10 8 11 7 12
REMARK SMILES IDX 6 13 5 14 4 15 3 16 2 17 1 18
REMARK H PARENT
REMARK Flexibility Score: inf
ROOT
ATOM      1  C   UNL     1      22.948 -25.203  -7.437  1.00  0.00     0.004 C 
ENDROOT
BRANCH   1   2
ATOM      2  C   UNL     1      24.483 -25.345  -7.454  1.00  0.00     0.000 C 
BRANCH   2   3
ATOM      3  C   UNL     1      25.155 -25.099  -8.819  1.00  0.00     0.000 C 
BRANCH   3   4
ATOM      4  C   UNL     1      24.196 -25.043 -10.021  1.00  0.00     0.000 C 
BRANCH   4   5
ATOM      5  C   UNL     1      24.497 -23.871 -10.972  1.00  0.00     0.006 C 
BRANCH   5   6
ATOM      6  C   UNL     1      25.042 -22.646 -10.226  1.00  0.00     0.053 C 
BRANCH   6   7
ATOM      7  C   UNL     1      24.853 -21.385 -11.013  1.00  0.00     0.041 C 
ATOM      8  O   UNL     1      24.439 -21.435 -12.201  1.00  0.00    -0.550 OA
ATOM      9  O   UNL     1      25.160 -20.157 -10.441  1.00  0.00    -0.550 OA
ENDBRANCH   6   7
ENDBRANCH   5   6
ENDBRANCH   4   5
ENDBRANCH   3   4
ENDBRANCH   2   3
ENDBRANCH   1   2
BRANCH   1  10
ATOM     10  C   UNL     1      22.443 -24.021  -6.593  1.00  0.00     0.027 C 
BRANCH  10  11
ATOM     11  C   UNL     1      23.168 -22.738  -6.931  1.00  0.00    -0.031 C 
ATOM     12  C   UNL     1      22.656 -21.730  -7.660  1.00  0.00    -0.031 C 
BRANCH  12  13
ATOM     13  C   UNL     1      21.289 -21.734  -8.298  1.00  0.00     0.027 C 
BRANCH  13  14
ATOM     14  C   UNL     1      21.361 -22.179  -9.768  1.00  0.00     0.004 C 
BRANCH  14  15
ATOM     15  C   UNL     1      20.712 -23.552  -9.999  1.00  0.00     0.000 C 
BRANCH  15  16
ATOM     16  C   UNL     1      20.729 -23.976 -11.475  1.00  0.00    -0.000 C 
BRANCH  16  17
ATOM     17  C   UNL     1      20.845 -25.499 -11.606  1.00  0.00    -0.003 C 
ATOM     18  C   UNL     1      20.641 -26.186 -10.260  1.00  0.00     0.004 C 
ENDBRANCH  16  17
ENDBRANCH  15  16
ENDBRANCH  14  15
ENDBRANCH  13  14
ENDBRANCH  12  13
ENDBRANCH  10  11
ENDBRANCH   1  10
TORSDOF 13
ENDMDL
MODEL 4
REMARK VINA RESULT:    -5.585      2.040      3.717
REMARK INTER + INTRA:         -12.357
REMARK INTER:                  -9.917
REMARK INTRA:                  -2.440
REMARK UNBOUND:                -2.527
REMARK SMILES CCCCCCC=CCCCCCCCC(=O)[O-]
REMARK SMILES IDX 10 1 11 2 12 3 13 4 14 5 15 6 16 7 17 8 18 9 9 10 8 11 7 12
REMARK SMILES IDX 6 13 5 14 4 15 3 16 2 17 1 18
REMARK H PARENT
REMARK Flexibility Score: inf
ROOT
ATOM      1  C   UNL     1      21.131 -25.124 -11.685  1.00  0.00     0.004 C 
ENDROOT
BRANCH   1   2
ATOM      2  C   UNL     1      21.861 -25.823 -10.521  1.00  0.00     0.000 C 
BRANCH   2   3
ATOM      3  C   UNL     1      21.641 -25.195  -9.131  1.00  0.00     0.000 C 
BRANCH   3   4
ATOM      4  C   UNL     1      22.901 -25.087  -8.254  1.00  0.00     0.000 C 
BRANCH   4   5
ATOM      5  C   UNL     1      24.196 -25.383  -9.030  1.00  0.00     0.006 C 
BRANCH   5   6
ATOM      6  C   UNL     1      25.450 -25.020  -8.224  1.00  0.00     0.053 C 
BRANCH   6   7
ATOM      7  C   UNL     1      25.770 -26.062  -7.195  1.00  0.00     0.041 C 
ATOM      8  O   UNL     1      26.180 -27.199  -7.549  1.00  0.00    -0.550 OA
ATOM      9  O   UNL     1      25.592 -25.783  -5.845  1.00  0.00    -0.550 OA
ENDBRANCH   6   7
ENDBRANCH   5   6
ENDBRANCH   4   5
ENDBRANCH   3   4
ENDBRANCH   2   3
ENDBRANCH   1   2
BRANCH   1  10
ATOM     10  C   UNL     1      21.376 -23.607 -11.750  1.00  0.00     0.027 C 
BRANCH  10  11
ATOM     11  C   UNL     1      22.254 -23.227 -12.921  1.00  0.00    -0.031 C 
ATOM     12  C   UNL     1      23.593 -23.104 -12.875  1.00  0.00    -0.031 C 
BRANCH  12  13
ATOM     13  C   UNL     1      24.434 -23.281 -11.635  1.00  0.00     0.027 C 
BRANCH  13  14
ATOM     14  C   UNL     1      24.977 -21.934 -11.132  1.00  0.00     0.004 C 
BRANCH  14  15
ATOM     15  C   UNL     1      24.467 -21.583  -9.726  1.00  0.00     0.000 C 
BRANCH  15  16
ATOM     16  C   UNL     1      22.978 -21.209  -9.710  1.00  0.00    -0.000 C 
BRANCH  16  17
ATOM     17  C   UNL     1      22.340 -21.557  -8.361  1.00  0.00    -0.003 C 
ATOM     18  C   UNL     1      20.818 -21.544  -8.449  1.00  0.00     0.004 C 
ENDBRANCH  16  17
ENDBRANCH  15  16
ENDBRANCH  14  15
ENDBRANCH  13  14
ENDBRANCH  12  13
ENDBRANCH  10  11
ENDBRANCH   1  10
TORSDOF 13
ENDMDL
MODEL 5
REMARK VINA RESULT:    -5.577      1.640      4.038
REMARK INTER + INTRA:         -12.343
REMARK INTER:                 -10.249
REMARK INTRA:                  -2.094
REMARK UNBOUND:                -2.527
REMARK SMILES CCCCCCC=CCCCCCCCC(=O)[O-]
REMARK SMILES IDX 10 1 11 2 12 3 13 4 14 5 15 6 16 7 17 8 18 9 9 10 8 11 7 12
REMARK SMILES IDX 6 13 5 14 4 15 3 16 2 17 1 18
REMARK H PARENT
REMARK Flexibility Score: inf
ROOT
ATOM      1  C   UNL     1      22.251 -23.760 -12.562  1.00  0.00     0.004 C 
ENDROOT
BRANCH   1   2
ATOM      2  C   UNL     1      21.145 -23.143 -11.682  1.00  0.00     0.000 C 
BRANCH   2   3
ATOM      3  C   UNL     1      20.252 -24.153 -10.936  1.00  0.00     0.000 C 
BRANCH   3   4
ATOM      4  C   UNL     1      20.983 -25.387 -10.378  1.00  0.00     0.000 C 
BRANCH   4   5
ATOM      5  C   UNL     1      21.715 -25.100  -9.056  1.00  0.00     0.006 C 
BRANCH   5   6
ATOM      6  C   UNL     1      23.225 -25.350  -9.163  1.00  0.00     0.053 C 
BRANCH   6   7
ATOM      7  C   UNL     1      23.874 -25.425  -7.814  1.00  0.00     0.041 C 
ATOM      8  O   UNL     1      24.915 -26.113  -7.648  1.00  0.00    -0.550 OA
ATOM      9  O   UNL     1      23.313 -24.754  -6.734  1.00  0.00    -0.550 OA
ENDBRANCH   6   7
ENDBRANCH   5   6
ENDBRANCH   4   5
ENDBRANCH   3   4
ENDBRANCH   2   3
ENDBRANCH   1   2
BRANCH   1  10
ATOM     10  C   UNL     1      23.494 -22.868 -12.714  1.00  0.00     0.027 C 
BRANCH  10  11
ATOM     11  C   UNL     1      24.603 -23.281 -11.774  1.00  0.00    -0.031 C 
ATOM     12  C   UNL     1      25.184 -22.477 -10.865  1.00  0.00    -0.031 C 
BRANCH  12  13
ATOM     13  C   UNL     1      24.856 -21.019 -10.666  1.00  0.00     0.027 C 
BRANCH  13  14
ATOM     14  C   UNL     1      23.445 -20.839 -10.081  1.00  0.00     0.004 C 
BRANCH  14  15
ATOM     15  C   UNL     1      23.193 -21.744  -8.866  1.00  0.00     0.000 C 
BRANCH  15  16
ATOM     16  C   UNL     1      22.129 -21.177  -7.915  1.00  0.00    -0.000 C 
BRANCH  16  17
ATOM     17  C   UNL     1      20.719 -21.542  -8.392  1.00  0.00    -0.003 C 
ATOM     18  C   UNL     1      19.660 -20.712  -7.673  1.00  0.00     0.004 C 
ENDBRANCH  16  17
ENDBRANCH  15  16
ENDBRANCH  14  15
ENDBRANCH  13  14
ENDBRANCH  12  13
ENDBRANCH  10  11
ENDBRANCH   1  10
TORSDOF 13
ENDMDL
MODEL 6
REMARK VINA RESULT:    -5.571      2.949      5.254
REMARK INTER + INTRA:         -12.332
REMARK INTER:                 -10.169
REMARK INTRA:                  -2.163
REMARK UNBOUND:                -2.527
REMARK SMILES CCCCCCC=CCCCCCCCC(=O)[O-]
REMARK SMILES IDX 10 1 11 2 12 3 13 4 14 5 15 6 16 7 17 8 18 9 9 10 8 11 7 12
REMARK SMILES IDX 6 13 5 14 4 15 3 16 2 17 1 18
REMARK H PARENT
REMARK Flexibility Score: inf
ROOT
ATOM      1  C   UNL     1      24.449 -24.983 -10.277  1.00  0.00     0.004 C 
ENDROOT
BRANCH   1   2
ATOM      2  C   UNL     1      24.489 -24.729  -8.757  1.00  0.00     0.000 C 
BRANCH   2   3
ATOM      3  C   UNL     1      23.376 -25.418  -7.942  1.00  0.00     0.000 C 
BRANCH   3   4
ATOM      4  C   UNL     1      21.980 -24.784  -8.073  1.00  0.00     0.000 C 
BRANCH   4   5
ATOM      5  C   UNL     1      21.114 -25.464  -9.148  1.00  0.00     0.006 C 
BRANCH   5   6
ATOM      6  C   UNL     1      20.405 -24.446 -10.049  1.00  0.00     0.053 C 
BRANCH   6   7
ATOM      7  C   UNL     1      20.882 -24.529 -11.467  1.00  0.00     0.041 C 
ATOM      8  O   UNL     1      21.117 -25.649 -11.993  1.00  0.00    -0.550 OA
ATOM      9  O   UNL     1      21.093 -23.367 -12.199  1.00  0.00    -0.550 OA
ENDBRANCH   6   7
ENDBRANCH   5   6
ENDBRANCH   4   5
ENDBRANCH   3   4
ENDBRANCH   2   3
ENDBRANCH   1   2
BRANCH   1  10
ATOM     10  C   UNL     1      24.502 -23.699 -11.122  1.00  0.00     0.027 C 
BRANCH  10  11
ATOM     11  C   UNL     1      25.256 -22.593 -10.419  1.00  0.00    -0.031 C 
ATOM     12  C   UNL     1      24.795 -21.343 -10.231  1.00  0.00    -0.031 C 
BRANCH  12  13
ATOM     13  C   UNL     1      23.469 -20.827 -10.730  1.00  0.00     0.027 C 
BRANCH  13  14
ATOM     14  C   UNL     1      22.322 -21.234  -9.791  1.00  0.00     0.004 C 
BRANCH  14  15
ATOM     15  C   UNL     1      22.775 -21.354  -8.328  1.00  0.00     0.000 C 
BRANCH  15  16
ATOM     16  C   UNL     1      21.601 -21.328  -7.339  1.00  0.00    -0.000 C 
BRANCH  16  17
ATOM     17  C   UNL     1      20.267 -21.170  -8.077  1.00  0.00    -0.003 C 
ATOM     18  C   UNL     1      19.547 -19.895  -7.651  1.00  0.00     0.004 C 
ENDBRANCH  16  17
ENDBRANCH  15  16
ENDBRANCH  14  15
ENDBRANCH  13  14
ENDBRANCH  12  13
ENDBRANCH  10  11
ENDBRANCH   1  10
TORSDOF 13
ENDMDL
MODEL 7
REMARK VINA RESULT:    -5.523      1.954      4.858
REMARK INTER + INTRA:         -12.248
REMARK INTER:                  -9.807
REMARK INTRA:                  -2.441
REMARK UNBOUND:                -2.527
REMARK SMILES CCCCCCC=CCCCCCCCC(=O)[O-]
REMARK SMILES IDX 10 1 11 2 12 3 13 4 14 5 15 6 16 7 17 8 18 9 9 10 8 11 7 12
REMARK SMILES IDX 6 13 5 14 4 15 3 16 2 17 1 18
REMARK H PARENT
REMARK Flexibility Score: inf
ROOT
ATOM      1  C   UNL     1      24.748 -21.221 -11.390  1.00  0.00     0.004 C 
ENDROOT
BRANCH   1   2
ATOM      2  C   UNL     1      25.238 -22.665 -11.161  1.00  0.00     0.000 C 
BRANCH   2   3
ATOM      3  C   UNL     1      24.213 -23.770 -11.483  1.00  0.00     0.000 C 
BRANCH   3   4
ATOM      4  C   UNL     1      24.217 -24.969 -10.519  1.00  0.00     0.000 C 
BRANCH   4   5
ATOM      5  C   UNL     1      24.806 -24.625  -9.140  1.00  0.00     0.006 C 
BRANCH   5   6
ATOM      6  C   UNL     1      24.319 -25.583  -8.046  1.00  0.00     0.053 C 
BRANCH   6   7
ATOM      7  C   UNL     1      25.456 -26.123  -7.232  1.00  0.00     0.041 C 
ATOM      8  O   UNL     1      25.629 -25.734  -6.047  1.00  0.00    -0.550 OA
ATOM      9  O   UNL     1      26.340 -27.037  -7.792  1.00  0.00    -0.550 OA
ENDBRANCH   6   7
ENDBRANCH   5   6
ENDBRANCH   4   5
ENDBRANCH   3   4
ENDBRANCH   2   3
ENDBRANCH   1   2
BRANCH   1  10
ATOM     10  C   UNL     1      23.958 -20.639 -10.205  1.00  0.00     0.027 C 
BRANCH  10  11
ATOM     11  C   UNL     1      24.508 -21.107  -8.877  1.00  0.00    -0.031 C 
ATOM     12  C   UNL     1      23.762 -21.489  -7.824  1.00  0.00    -0.031 C 
BRANCH  12  13
ATOM     13  C   UNL     1      22.255 -21.470  -7.781  1.00  0.00     0.027 C 
BRANCH  13  14
ATOM     14  C   UNL     1      21.663 -22.766  -8.359  1.00  0.00     0.004 C 
BRANCH  14  15
ATOM     15  C   UNL     1      20.756 -22.507  -9.572  1.00  0.00     0.000 C 
BRANCH  15  16
ATOM     16  C   UNL     1      20.789 -23.654 -10.593  1.00  0.00    -0.000 C 
BRANCH  16  17
ATOM     17  C   UNL     1      20.591 -25.008  -9.901  1.00  0.00    -0.003 C 
ATOM     18  C   UNL     1      20.712 -26.159 -10.895  1.00  0.00     0.004 C 
ENDBRANCH  16  17
ENDBRANCH  15  16
ENDBRANCH  14  15
ENDBRANCH  13  14
ENDBRANCH  12  13
ENDBRANCH  10  11
ENDBRANCH   1  10
TORSDOF 13
ENDMDL
MODEL 8
REMARK VINA RESULT:    -5.495      2.466      4.030
REMARK INTER + INTRA:         -12.198
REMARK INTER:                  -9.825
REMARK INTRA:                  -2.374
REMARK UNBOUND:                -2.527
REMARK SMILES CCCCCCC=CCCCCCCCC(=O)[O-]
REMARK SMILES IDX 10 1 11 2 12 3 13 4 14 5 15 6 16 7 17 8 18 9 9 10 8 11 7 12
REMARK SMILES IDX 6 13 5 14 4 15 3 16 2 17 1 18
REMARK H PARENT
REMARK Flexibility Score: inf
ROOT
ATOM      1  C   UNL     1      22.876 -22.128  -7.367  1.00  0.00     0.004 C 
ENDROOT
BRANCH   1   2
ATOM      2  C   UNL     1      21.585 -21.298  -7.517  1.00  0.00     0.000 C 
BRANCH   2   3
ATOM      3  C   UNL     1      20.701 -21.662  -8.726  1.00  0.00     0.000 C 
BRANCH   3   4
ATOM      4  C   UNL     1      21.393 -21.563 -10.097  1.00  0.00     0.000 C 
BRANCH   4   5
ATOM      5  C   UNL     1      21.123 -22.786 -10.991  1.00  0.00     0.006 C 
BRANCH   5   6
ATOM      6  C   UNL     1      20.432 -23.922 -10.226  1.00  0.00     0.053 C 
BRANCH   6   7
ATOM      7  C   UNL     1      20.623 -25.245 -10.902  1.00  0.00     0.041 C 
ATOM      8  O   UNL     1      21.017 -25.297 -12.097  1.00  0.00    -0.550 OA
ATOM      9  O   UNL     1      20.341 -26.422 -10.219  1.00  0.00    -0.550 OA
ENDBRANCH   6   7
ENDBRANCH   5   6
ENDBRANCH   4   5
ENDBRANCH   3   4
ENDBRANCH   2   3
ENDBRANCH   1   2
BRANCH   1  10
ATOM     10  C   UNL     1      22.626 -23.631  -7.156  1.00  0.00     0.027 C 
BRANCH  10  11
ATOM     11  C   UNL     1      23.917 -24.413  -7.091  1.00  0.00    -0.031 C 
ATOM     12  C   UNL     1      24.394 -25.201  -8.072  1.00  0.00    -0.031 C 
BRANCH  12  13
ATOM     13  C   UNL     1      23.694 -25.468  -9.381  1.00  0.00     0.027 C 
BRANCH  13  14
ATOM     14  C   UNL     1      24.438 -24.812 -10.556  1.00  0.00     0.004 C 
BRANCH  14  15
ATOM     15  C   UNL     1      24.650 -23.305 -10.349  1.00  0.00     0.000 C 
BRANCH  15  16
ATOM     16  C   UNL     1      24.737 -22.531 -11.672  1.00  0.00    -0.000 C 
BRANCH  16  17
ATOM     17  C   UNL     1      24.689 -21.019 -11.426  1.00  0.00    -0.003 C 
ATOM     18  C   UNL     1      25.080 -20.679  -9.991  1.00  0.00     0.004 C 
ENDBRANCH  16  17
ENDBRANCH  15  16
ENDBRANCH  14  15
ENDBRANCH  13  14
ENDBRANCH  12  13
ENDBRANCH  10  11
ENDBRANCH   1  10
TORSDOF 13
ENDMDL
MODEL 9
REMARK VINA RESULT:    -5.474      1.220      4.019
REMARK INTER + INTRA:         -12.162
REMARK INTER:                  -9.329
REMARK INTRA:                  -2.833
REMARK UNBOUND:                -2.527
REMARK SMILES CCCCCCC=CCCCCCCCC(=O)[O-]
REMARK SMILES IDX 10 1 11 2 12 3 13 4 14 5 15 6 16 7 17 8 18 9 9 10 8 11 7 12
REMARK SMILES IDX 6 13 5 14 4 15 3 16 2 17 1 18
REMARK H PARENT
REMARK Flexibility Score: inf
ROOT
ATOM      1  C   UNL     1      24.356 -24.963 -10.220  1.00  0.00     0.004 C 
ENDROOT
BRANCH   1   2
ATOM      2  C   UNL     1      24.628 -24.868  -8.706  1.00  0.00     0.000 C 
BRANCH   2   3
ATOM      3  C   UNL     1      23.618 -25.606  -7.805  1.00  0.00     0.000 C 
BRANCH   3   4
ATOM      4  C   UNL     1      22.672 -24.698  -7.000  1.00  0.00     0.000 C 
BRANCH   4   5
ATOM      5  C   UNL     1      23.347 -23.396  -6.534  1.00  0.00     0.006 C 
BRANCH   5   6
ATOM      6  C   UNL     1      22.382 -22.488  -5.760  1.00  0.00     0.053 C 
BRANCH   6   7
ATOM      7  C   UNL     1      22.737 -22.410  -4.306  1.00  0.00     0.041 C 
ATOM      8  O   UNL     1      22.153 -23.148  -3.469  1.00  0.00    -0.550 OA
ATOM      9  O   UNL     1      23.696 -21.503  -3.872  1.00  0.00    -0.550 OA
ENDBRANCH   6   7
ENDBRANCH   5   6
ENDBRANCH   4   5
ENDBRANCH   3   4
ENDBRANCH   2   3
ENDBRANCH   1   2
BRANCH   1  10
ATOM     10  C   UNL     1      24.391 -23.606 -10.943  1.00  0.00     0.027 C 
BRANCH  10  11
ATOM     11  C   UNL     1      24.573 -22.458  -9.978  1.00  0.00    -0.031 C 
ATOM     12  C   UNL     1      23.634 -21.540  -9.682  1.00  0.00    -0.031 C 
BRANCH  12  13
ATOM     13  C   UNL     1      22.260 -21.482 -10.300  1.00  0.00     0.027 C 
BRANCH  13  14
ATOM     14  C   UNL     1      21.189 -22.009  -9.330  1.00  0.00     0.004 C 
BRANCH  14  15
ATOM     15  C   UNL     1      20.700 -23.417  -9.703  1.00  0.00     0.000 C 
BRANCH  15  16
ATOM     16  C   UNL     1      20.765 -23.686 -11.214  1.00  0.00    -0.000 C 
BRANCH  16  17
ATOM     17  C   UNL     1      20.830 -25.191 -11.499  1.00  0.00    -0.003 C 
ATOM     18  C   UNL     1      20.746 -26.002 -10.211  1.00  0.00     0.004 C 
ENDBRANCH  16  17
ENDBRANCH  15  16
ENDBRANCH  14  15
ENDBRANCH  13  14
ENDBRANCH  12  13
ENDBRANCH  10  11
ENDBRANCH   1  10
TORSDOF 13
ENDMDL
