MODEL 1
REMARK VINA RESULT:    -3.990      0.000      0.000
REMARK INTER + INTRA:          -4.466
REMARK INTER:                  -4.457
REMARK INTRA:                  -0.009
REMARK UNBOUND:                -0.009
REMARK SMILES CCCC(=O)[O-]
REMARK SMILES IDX 3 1 4 2 5 3 6 4 2 5 1 6
REMARK H PARENT
REMARK Flexibility Score: inf
ROOT
ATOM      1  C   UNL     1      -0.393  -0.909  -0.956  1.00  0.00     0.052 C 
ENDROOT
BRANCH   1   2
ATOM      2  C   UNL     1       0.406   0.348  -1.095  1.00  0.00     0.041 C 
ATOM      3  O   UNL     1      -0.082   1.452  -0.737  1.00  0.00    -0.550 OA
ATOM      4  O   UNL     1       1.709   0.294  -1.575  1.00  0.00    -0.550 OA
ENDBRANCH   1   2
BRANCH   1   5
ATOM      5  C   UNL     1      -1.752  -0.759  -1.644  1.00  0.00     0.003 C 
ATOM      6  C   UNL     1      -2.660  -1.946  -1.335  1.00  0.00     0.004 C 
ENDBRANCH   1   5
TORSDOF 2
ENDMDL
MODEL 2
REMARK VINA RESULT:    -3.974      1.988      3.468
REMARK INTER + INTRA:          -4.447
REMARK INTER:                  -4.438
REMARK INTRA:                  -0.009
REMARK UNBOUND:                -0.009
REMARK SMILES CCCC(=O)[O-]
REMARK SMILES IDX 3 1 4 2 5 3 6 4 2 5 1 6
REMARK H PARENT
REMARK Flexibility Score: inf
ROOT
ATOM      1  C   UNL     1       0.153   0.663  -1.004  1.00  0.00     0.052 C 
ENDROOT
BRANCH   1   2
ATOM      2  C   UNL     1      -0.645  -0.598  -1.110  1.00  0.00     0.041 C 
ATOM      3  O   UNL     1      -1.840  -0.560  -1.503  1.00  0.00    -0.550 OA
ATOM      4  O   UNL     1      -0.054  -1.821  -0.821  1.00  0.00    -0.550 OA
ENDBRANCH   1   2
BRANCH   1   5
ATOM      5  C   UNL     1       1.553   0.461  -1.593  1.00  0.00     0.003 C 
ATOM      6  C   UNL     1       2.477   1.618  -1.223  1.00  0.00     0.004 C 
ENDBRANCH   1   5
TORSDOF 2
ENDMDL
MODEL 3
REMARK VINA RESULT:    -3.736      1.224      1.813
REMARK INTER + INTRA:          -4.182
REMARK INTER:                  -4.145
REMARK INTRA:                  -0.037
REMARK UNBOUND:                -0.009
REMARK SMILES CCCC(=O)[O-]
REMARK SMILES IDX 3 1 4 2 5 3 6 4 2 5 1 6
REMARK H PARENT
REMARK Flexibility Score: inf
ROOT
ATOM      1  C   UNL     1       0.003   0.785  -0.877  1.00  0.00     0.052 C 
ENDROOT
BRANCH   1   2
ATOM      2  C   UNL     1       1.413   0.777  -1.377  1.00  0.00     0.041 C 
ATOM      3  O   UNL     1       1.840  -0.194  -2.054  1.00  0.00    -0.550 OA
ATOM      4  O   UNL     1       2.242   1.866  -1.135  1.00  0.00    -0.550 OA
ENDBRANCH   1   2
BRANCH   1   5
ATOM      5  C   UNL     1      -0.560  -0.638  -0.840  1.00  0.00     0.003 C 
ATOM      6  C   UNL     1      -1.823  -0.753  -1.689  1.00  0.00     0.004 C 
ENDBRANCH   1   5
TORSDOF 2
ENDMDL
MODEL 4
REMARK VINA RESULT:    -3.625      3.045      4.052
REMARK INTER + INTRA:          -4.057
REMARK INTER:                  -4.049
REMARK INTRA:                  -0.008
REMARK UNBOUND:                -0.009
REMARK SMILES CCCC(=O)[O-]
REMARK SMILES IDX 3 1 4 2 5 3 6 4 2 5 1 6
REMARK H PARENT
REMARK Flexibility Score: inf
ROOT
ATOM      1  C   UNL     1      -1.935  -1.006  -1.750  1.00  0.00     0.052 C 
ENDROOT
BRANCH   1   2
ATOM      2  C   UNL     1      -2.875  -1.949  -1.067  1.00  0.00     0.041 C 
ATOM      3  O   UNL     1      -2.679  -3.191  -1.125  1.00  0.00    -0.550 OA
ATOM      4  O   UNL     1      -3.939  -1.453  -0.325  1.00  0.00    -0.550 OA
ENDBRANCH   1   2
BRANCH   1   5
ATOM      5  C   UNL     1      -0.581  -0.988  -1.035  1.00  0.00     0.003 C 
ATOM      6  C   UNL     1      -0.052   0.437  -0.893  1.00  0.00     0.004 C 
ENDBRANCH   1   5
TORSDOF 2
ENDMDL
MODEL 5
REMARK VINA RESULT:    -3.577      1.951      2.608
REMARK INTER + INTRA:          -4.004
REMARK INTER:                  -3.999
REMARK INTRA:                  -0.006
REMARK UNBOUND:                -0.009
REMARK SMILES CCCC(=O)[O-]
REMARK SMILES IDX 3 1 4 2 5 3 6 4 2 5 1 6
REMARK H PARENT
REMARK Flexibility Score: inf
ROOT
ATOM      1  C   UNL     1       1.561   0.690  -1.595  1.00  0.00     0.052 C 
ENDROOT
BRANCH   1   2
ATOM      2  C   UNL     1       2.574   1.620  -1.006  1.00  0.00     0.041 C 
ATOM      3  O   UNL     1       2.400   2.865  -1.065  1.00  0.00    -0.550 OA
ATOM      4  O   UNL     1       3.686   1.110  -0.349  1.00  0.00    -0.550 OA
ENDBRANCH   1   2
BRANCH   1   5
ATOM      5  C   UNL     1       0.258   0.740  -0.793  1.00  0.00     0.003 C 
ATOM      6  C   UNL     1      -0.664  -0.418  -1.168  1.00  0.00     0.004 C 
ENDBRANCH   1   5
TORSDOF 2
ENDMDL
MODEL 6
REMARK VINA RESULT:    -2.853     13.860     14.700
REMARK INTER + INTRA:          -3.195
REMARK INTER:                  -3.187
REMARK INTRA:                  -0.008
REMARK UNBOUND:                -0.009
REMARK SMILES CCCC(=O)[O-]
REMARK SMILES IDX 3 1 4 2 5 3 6 4 2 5 1 6
REMARK H PARENT
REMARK Flexibility Score: inf
ROOT
ATOM      1  C   UNL     1       9.461   4.583   8.870  1.00  0.00     0.052 C 
ENDROOT
BRANCH   1   2
ATOM      2  C   UNL     1       9.111   6.034   8.974  1.00  0.00     0.041 C 
ATOM      3  O   UNL     1       7.945   6.382   9.298  1.00  0.00    -0.550 OA
ATOM      4  O   UNL     1      10.084   7.001   8.759  1.00  0.00    -0.550 OA
ENDBRANCH   1   2
BRANCH   1   5
ATOM      5  C   UNL     1       8.670   3.921   7.738  1.00  0.00     0.003 C 
ATOM      6  C   UNL     1       8.781   2.400   7.806  1.00  0.00     0.004 C 
ENDBRANCH   1   5
TORSDOF 2
ENDMDL
MODEL 7
REMARK VINA RESULT:    -2.823     13.451     14.428
REMARK INTER + INTRA:          -3.162
REMARK INTER:                  -3.151
REMARK INTRA:                  -0.011
REMARK UNBOUND:                -0.009
REMARK SMILES CCCC(=O)[O-]
REMARK SMILES IDX 3 1 4 2 5 3 6 4 2 5 1 6
REMARK H PARENT
REMARK Flexibility Score: inf
ROOT
ATOM      1  C   UNL     1      -9.625  -5.320   8.639  1.00  0.00     0.052 C 
ENDROOT
BRANCH   1   2
ATOM      2  C   UNL     1      -9.190  -6.743   8.789  1.00  0.00     0.041 C 
ATOM      3  O   UNL     1      -7.987  -7.015   9.038  1.00  0.00    -0.550 OA
ATOM      4  O   UNL     1     -10.124  -7.768   8.701  1.00  0.00    -0.550 OA
ENDBRANCH   1   2
BRANCH   1   5
ATOM      5  C   UNL     1      -8.739  -4.594   7.622  1.00  0.00     0.003 C 
ATOM      6  C   UNL     1      -8.899  -3.080   7.734  1.00  0.00     0.004 C 
ENDBRANCH   1   5
TORSDOF 2
ENDMDL
MODEL 8
REMARK VINA RESULT:    -2.617     13.315     13.991
REMARK INTER + INTRA:          -2.932
REMARK INTER:                  -2.918
REMARK INTRA:                  -0.014
REMARK UNBOUND:                -0.009
REMARK SMILES CCCC(=O)[O-]
REMARK SMILES IDX 3 1 4 2 5 3 6 4 2 5 1 6
REMARK H PARENT
REMARK Flexibility Score: inf
ROOT
ATOM      1  C   UNL     1       9.564   2.956   8.757  1.00  0.00     0.052 C 
ENDROOT
BRANCH   1   2
ATOM      2  C   UNL     1       8.954   4.136   8.070  1.00  0.00     0.041 C 
ATOM      3  O   UNL     1       8.114   3.967   7.148  1.00  0.00    -0.550 OA
ATOM      4  O   UNL     1       9.277   5.424   8.480  1.00  0.00    -0.550 OA
ENDBRANCH   1   2
BRANCH   1   5
ATOM      5  C   UNL     1       8.971   1.654   8.214  1.00  0.00     0.003 C 
ATOM      6  C   UNL     1       9.129   0.515   9.218  1.00  0.00     0.004 C 
ENDBRANCH   1   5
TORSDOF 2
ENDMDL
MODEL 9
REMARK VINA RESULT:    -2.604     13.544     14.214
REMARK INTER + INTRA:          -2.917
REMARK INTER:                  -2.900
REMARK INTRA:                  -0.017
REMARK UNBOUND:                -0.009
REMARK SMILES CCCC(=O)[O-]
REMARK SMILES IDX 3 1 4 2 5 3 6 4 2 5 1 6
REMARK H PARENT
REMARK Flexibility Score: inf
ROOT
ATOM      1  C   UNL     1       9.794   2.910   8.558  1.00  0.00     0.052 C 
ENDROOT
BRANCH   1   2
ATOM      2  C   UNL     1       9.201   1.543   8.419  1.00  0.00     0.041 C 
ATOM      3  O   UNL     1       8.049   1.400   7.934  1.00  0.00    -0.550 OA
ATOM      4  O   UNL     1       9.941   0.424   8.780  1.00  0.00    -0.550 OA
ENDBRANCH   1   2
BRANCH   1   5
ATOM      5  C   UNL     1       8.836   3.968   8.005  1.00  0.00     0.003 C 
ATOM      6  C   UNL     1       9.028   5.307   8.712  1.00  0.00     0.004 C 
ENDBRANCH   1   5
TORSDOF 2
ENDMDL
