MODEL 1
REMARK VINA RESULT:    -6.135      0.000      0.000
REMARK INTER + INTRA:          -6.314
REMARK INTER:                  -6.314
REMARK INTRA:                   0.000
REMARK UNBOUND:                 0.000
REMARK SMILES O=c1ccc2ccc(O)cc2o1
REMARK SMILES IDX 6 1 7 2 8 3 10 4 11 5 5 6 4 7 3 8 2 9 1 10 12 11 9 12
REMARK H PARENT 9 13
REMARK Flexibility Score: inf
ROOT
ATOM      1  C   UNL     1       5.233  46.487  10.007  1.00  0.00     0.016 A 
ATOM      2  C   UNL     1       5.234  47.447   8.990  1.00  0.00     0.047 A 
ATOM      3  C   UNL     1       4.034  47.836   8.382  1.00  0.00     0.119 A 
ATOM      4  C   UNL     1       2.823  47.262   8.796  1.00  0.00     0.094 A 
ATOM      5  C   UNL     1       2.811  46.302   9.813  1.00  0.00     0.142 A 
ATOM      6  C   UNL     1       4.025  45.911  10.423  1.00  0.00     0.018 A 
ATOM      7  C   UNL     1       3.981  44.949  11.436  1.00  0.00     0.019 A 
ATOM      8  C   UNL     1       2.754  44.407  11.813  1.00  0.00     0.094 A 
ATOM      9  C   UNL     1       1.592  44.842  11.165  1.00  0.00     0.336 A 
ATOM     10  O   UNL     1       0.474  44.364  11.492  1.00  0.00    -0.246 OA
ATOM     11  O   UNL     1       1.661  45.759  10.204  1.00  0.00    -0.423 OA
ENDROOT
BRANCH   3  12
ATOM     12  O   UNL     1       4.056  48.794   7.371  1.00  0.00    -0.508 OA
ATOM     13  H   UNL     1       4.636  49.622   7.437  1.00  0.00     0.293 HD
ENDBRANCH   3  12
TORSDOF 1
ENDMDL
MODEL 2
REMARK VINA RESULT:    -6.025      0.929      4.217
REMARK INTER + INTRA:          -6.201
REMARK INTER:                  -6.201
REMARK INTRA:                   0.000
REMARK UNBOUND:                 0.000
REMARK SMILES O=c1ccc2ccc(O)cc2o1
REMARK SMILES IDX 6 1 7 2 8 3 10 4 11 5 5 6 4 7 3 8 2 9 1 10 12 11 9 12
REMARK H PARENT 9 13
REMARK Flexibility Score: inf
ROOT
ATOM      1  C   UNL     1       4.488  44.829  11.471  1.00  0.00     0.016 A 
ATOM      2  C   UNL     1       3.558  44.039  12.155  1.00  0.00     0.047 A 
ATOM      3  C   UNL     1       2.194  44.131  11.853  1.00  0.00     0.119 A 
ATOM      4  C   UNL     1       1.756  45.019  10.859  1.00  0.00     0.094 A 
ATOM      5  C   UNL     1       2.679  45.813  10.169  1.00  0.00     0.142 A 
ATOM      6  C   UNL     1       4.055  45.717  10.477  1.00  0.00     0.018 A 
ATOM      7  C   UNL     1       4.953  46.522   9.772  1.00  0.00     0.019 A 
ATOM      8  C   UNL     1       4.472  47.390   8.792  1.00  0.00     0.094 A 
ATOM      9  C   UNL     1       3.095  47.431   8.540  1.00  0.00     0.336 A 
ATOM     10  O   UNL     1       2.641  48.208   7.660  1.00  0.00    -0.246 OA
ATOM     11  O   UNL     1       2.262  46.653   9.227  1.00  0.00    -0.423 OA
ENDROOT
BRANCH   3  12
ATOM     12  O   UNL     1       1.282  43.337  12.545  1.00  0.00    -0.508 OA
ATOM     13  H   UNL     1       0.551  42.827  12.063  1.00  0.00     0.293 HD
ENDBRANCH   3  12
TORSDOF 1
ENDMDL
MODEL 3
REMARK VINA RESULT:    -6.011      1.607      2.412
REMARK INTER + INTRA:          -6.187
REMARK INTER:                  -6.187
REMARK INTRA:                   0.000
REMARK UNBOUND:                 0.000
REMARK SMILES O=c1ccc2ccc(O)cc2o1
REMARK SMILES IDX 6 1 7 2 8 3 10 4 11 5 5 6 4 7 3 8 2 9 1 10 12 11 9 12
REMARK H PARENT 9 13
REMARK Flexibility Score: inf
ROOT
ATOM      1  C   UNL     1       1.510  46.738   9.031  1.00  0.00     0.016 A 
ATOM      2  C   UNL     1       2.131  47.629   8.150  1.00  0.00     0.047 A 
ATOM      3  C   UNL     1       3.520  47.808   8.186  1.00  0.00     0.119 A 
ATOM      4  C   UNL     1       4.293  47.088   9.110  1.00  0.00     0.094 A 
ATOM      5  C   UNL     1       3.681  46.195   9.995  1.00  0.00     0.142 A 
ATOM      6  C   UNL     1       2.279  46.018   9.955  1.00  0.00     0.018 A 
ATOM      7  C   UNL     1       1.696  45.119  10.852  1.00  0.00     0.019 A 
ATOM      8  C   UNL     1       2.505  44.427  11.752  1.00  0.00     0.094 A 
ATOM      9  C   UNL     1       3.887  44.652  11.734  1.00  0.00     0.336 A 
ATOM     10  O   UNL     1       4.634  44.037  12.539  1.00  0.00    -0.246 OA
ATOM     11  O   UNL     1       4.416  45.514  10.869  1.00  0.00    -0.423 OA
ENDROOT
BRANCH   3  12
ATOM     12  O   UNL     1       4.120  48.699   7.301  1.00  0.00    -0.508 OA
ATOM     13  H   UNL     1       4.840  48.400   6.653  1.00  0.00     0.293 HD
ENDBRANCH   3  12
TORSDOF 1
ENDMDL
MODEL 4
REMARK VINA RESULT:    -5.965      1.809      4.460
REMARK INTER + INTRA:          -6.139
REMARK INTER:                  -6.139
REMARK INTRA:                   0.000
REMARK UNBOUND:                 0.000
REMARK SMILES O=c1ccc2ccc(O)cc2o1
REMARK SMILES IDX 6 1 7 2 8 3 10 4 11 5 5 6 4 7 3 8 2 9 1 10 12 11 9 12
REMARK H PARENT 9 13
REMARK Flexibility Score: inf
ROOT
ATOM      1  C   UNL     1       1.721  45.081  10.878  1.00  0.00     0.016 A 
ATOM      2  C   UNL     1       2.616  44.403  11.713  1.00  0.00     0.047 A 
ATOM      3  C   UNL     1       3.994  44.622  11.599  1.00  0.00     0.119 A 
ATOM      4  C   UNL     1       4.482  45.527  10.644  1.00  0.00     0.094 A 
ATOM      5  C   UNL     1       3.595  46.209   9.805  1.00  0.00     0.142 A 
ATOM      6  C   UNL     1       2.205  45.986   9.923  1.00  0.00     0.018 A 
ATOM      7  C   UNL     1       1.343  46.682   9.071  1.00  0.00     0.019 A 
ATOM      8  C   UNL     1       1.875  47.571   8.138  1.00  0.00     0.094 A 
ATOM      9  C   UNL     1       3.263  47.743   8.078  1.00  0.00     0.336 A 
ATOM     10  O   UNL     1       3.761  48.541   7.242  1.00  0.00    -0.246 OA
ATOM     11  O   UNL     1       4.060  47.067   8.901  1.00  0.00    -0.423 OA
ENDROOT
BRANCH   3  12
ATOM     12  O   UNL     1       4.869  43.937  12.439  1.00  0.00    -0.508 OA
ATOM     13  H   UNL     1       4.698  43.859  13.435  1.00  0.00     0.293 HD
ENDBRANCH   3  12
TORSDOF 1
ENDMDL
MODEL 5
REMARK VINA RESULT:    -5.897      1.421      2.224
REMARK INTER + INTRA:          -6.070
REMARK INTER:                  -6.070
REMARK INTRA:                   0.000
REMARK UNBOUND:                 0.000
REMARK SMILES O=c1ccc2ccc(O)cc2o1
REMARK SMILES IDX 6 1 7 2 8 3 10 4 11 5 5 6 4 7 3 8 2 9 1 10 12 11 9 12
REMARK H PARENT 9 13
REMARK Flexibility Score: inf
ROOT
ATOM      1  C   UNL     1       3.116  47.576   8.464  1.00  0.00     0.016 A 
ATOM      2  C   UNL     1       4.393  48.084   8.209  1.00  0.00     0.047 A 
ATOM      3  C   UNL     1       5.492  47.644   8.958  1.00  0.00     0.119 A 
ATOM      4  C   UNL     1       5.312  46.687   9.968  1.00  0.00     0.094 A 
ATOM      5  C   UNL     1       4.038  46.173  10.230  1.00  0.00     0.142 A 
ATOM      6  C   UNL     1       2.931  46.620   9.472  1.00  0.00     0.018 A 
ATOM      7  C   UNL     1       1.671  46.088   9.757  1.00  0.00     0.019 A 
ATOM      8  C   UNL     1       1.540  45.140  10.770  1.00  0.00     0.094 A 
ATOM      9  C   UNL     1       2.681  44.743  11.480  1.00  0.00     0.336 A 
ATOM     10  O   UNL     1       2.583  43.889  12.398  1.00  0.00    -0.246 OA
ATOM     11  O   UNL     1       3.869  45.266  11.188  1.00  0.00    -0.423 OA
ENDROOT
BRANCH   3  12
ATOM     12  O   UNL     1       6.757  48.162   8.690  1.00  0.00    -0.508 OA
ATOM     13  H   UNL     1       6.909  49.157   8.572  1.00  0.00     0.293 HD
ENDBRANCH   3  12
TORSDOF 1
ENDMDL
MODEL 6
REMARK VINA RESULT:    -5.874      1.671      4.717
REMARK INTER + INTRA:          -6.046
REMARK INTER:                  -6.046
REMARK INTRA:                   0.000
REMARK UNBOUND:                 0.000
REMARK SMILES O=c1ccc2ccc(O)cc2o1
REMARK SMILES IDX 6 1 7 2 8 3 10 4 11 5 5 6 4 7 3 8 2 9 1 10 12 11 9 12
REMARK H PARENT 9 13
REMARK Flexibility Score: inf
ROOT
ATOM      1  C   UNL     1       1.507  46.016   9.786  1.00  0.00     0.016 A 
ATOM      2  C   UNL     1       1.122  45.060  10.731  1.00  0.00     0.047 A 
ATOM      3  C   UNL     1       2.075  44.471  11.570  1.00  0.00     0.119 A 
ATOM      4  C   UNL     1       3.425  44.840  11.463  1.00  0.00     0.094 A 
ATOM      5  C   UNL     1       3.819  45.795  10.520  1.00  0.00     0.142 A 
ATOM      6  C   UNL     1       2.853  46.388   9.676  1.00  0.00     0.018 A 
ATOM      7  C   UNL     1       3.278  47.338   8.743  1.00  0.00     0.019 A 
ATOM      8  C   UNL     1       4.629  47.673   8.673  1.00  0.00     0.094 A 
ATOM      9  C   UNL     1       5.530  47.046   9.542  1.00  0.00     0.336 A 
ATOM     10  O   UNL     1       6.754  47.335   9.494  1.00  0.00    -0.246 OA
ATOM     11  O   UNL     1       5.099  46.144  10.421  1.00  0.00    -0.423 OA
ENDROOT
BRANCH   3  12
ATOM     12  O   UNL     1       1.673  43.521  12.506  1.00  0.00    -0.508 OA
ATOM     13  H   UNL     1       0.888  43.686  13.126  1.00  0.00     0.293 HD
ENDBRANCH   3  12
TORSDOF 1
ENDMDL
MODEL 7
REMARK VINA RESULT:    -5.625      2.103      2.818
REMARK INTER + INTRA:          -5.789
REMARK INTER:                  -5.789
REMARK INTRA:                   0.000
REMARK UNBOUND:                 0.000
REMARK SMILES O=c1ccc2ccc(O)cc2o1
REMARK SMILES IDX 6 1 7 2 8 3 10 4 11 5 5 6 4 7 3 8 2 9 1 10 12 11 9 12
REMARK H PARENT 9 13
REMARK Flexibility Score: inf
ROOT
ATOM      1  C   UNL     1       4.010  46.189  10.442  1.00  0.00     0.016 A 
ATOM      2  C   UNL     1       5.246  46.714  10.050  1.00  0.00     0.047 A 
ATOM      3  C   UNL     1       5.336  47.548   8.929  1.00  0.00     0.119 A 
ATOM      4  C   UNL     1       4.182  47.861   8.195  1.00  0.00     0.094 A 
ATOM      5  C   UNL     1       2.942  47.340   8.579  1.00  0.00     0.142 A 
ATOM      6  C   UNL     1       2.855  46.499   9.712  1.00  0.00     0.018 A 
ATOM      7  C   UNL     1       1.603  45.993  10.071  1.00  0.00     0.019 A 
ATOM      8  C   UNL     1       0.484  46.331   9.311  1.00  0.00     0.094 A 
ATOM      9  C   UNL     1       0.645  47.171   8.202  1.00  0.00     0.336 A 
ATOM     10  O   UNL     1      -0.353  47.486   7.503  1.00  0.00    -0.246 OA
ATOM     11  O   UNL     1       1.850  47.638   7.882  1.00  0.00    -0.423 OA
ENDROOT
BRANCH   3  12
ATOM     12  O   UNL     1       6.575  48.062   8.554  1.00  0.00    -0.508 OA
ATOM     13  H   UNL     1       7.435  47.738   8.982  1.00  0.00     0.293 HD
ENDBRANCH   3  12
TORSDOF 1
ENDMDL
MODEL 8
REMARK VINA RESULT:    -5.566      2.397      4.067
REMARK INTER + INTRA:          -5.729
REMARK INTER:                  -5.729
REMARK INTRA:                   0.000
REMARK UNBOUND:                 0.000
REMARK SMILES O=c1ccc2ccc(O)cc2o1
REMARK SMILES IDX 6 1 7 2 8 3 10 4 11 5 5 6 4 7 3 8 2 9 1 10 12 11 9 12
REMARK H PARENT 9 13
REMARK Flexibility Score: inf
ROOT
ATOM      1  C   UNL     1       3.971  45.380  11.370  1.00  0.00     0.016 A 
ATOM      2  C   UNL     1       4.465  44.133  11.768  1.00  0.00     0.047 A 
ATOM      3  C   UNL     1       3.900  42.955  11.265  1.00  0.00     0.119 A 
ATOM      4  C   UNL     1       2.833  43.023  10.357  1.00  0.00     0.094 A 
ATOM      5  C   UNL     1       2.332  44.265   9.953  1.00  0.00     0.142 A 
ATOM      6  C   UNL     1       2.905  45.452  10.462  1.00  0.00     0.018 A 
ATOM      7  C   UNL     1       2.384  46.678  10.041  1.00  0.00     0.019 A 
ATOM      8  C   UNL     1       1.323  46.696   9.136  1.00  0.00     0.094 A 
ATOM      9  C   UNL     1       0.806  45.481   8.673  1.00  0.00     0.336 A 
ATOM     10  O   UNL     1      -0.152  45.477   7.856  1.00  0.00    -0.246 OA
ATOM     11  O   UNL     1       1.321  44.327   9.091  1.00  0.00    -0.423 OA
ENDROOT
BRANCH   3  12
ATOM     12  O   UNL     1       4.405  41.723  11.674  1.00  0.00    -0.508 OA
ATOM     13  H   UNL     1       3.892  40.862  11.520  1.00  0.00     0.293 HD
ENDBRANCH   3  12
TORSDOF 1
ENDMDL
