MODEL 1
REMARK VINA RESULT:    -3.967      0.000      0.000
REMARK INTER + INTRA:          -4.617
REMARK INTER:                  -4.547
REMARK INTRA:                  -0.070
REMARK UNBOUND:                -0.070
REMARK SMILES C=Cc1ccc(O)c(OC)c1
REMARK SMILES IDX 8 1 6 2 5 3 4 4 3 5 11 6 9 7 10 8 7 9 2 11 1 12
REMARK H PARENT 7 10
REMARK Flexibility Score: inf
ROOT
ATOM      1  C   UNL     1       8.209 -32.283  15.808  1.00  0.00     0.161 A 
ATOM      2  C   UNL     1       7.226 -32.458  14.819  1.00  0.00     0.157 A 
ATOM      3  C   UNL     1       7.589 -32.489  13.471  1.00  0.00     0.051 A 
ATOM      4  C   UNL     1       8.925 -32.353  13.093  1.00  0.00     0.012 A 
ATOM      5  C   UNL     1       9.928 -32.190  14.067  1.00  0.00    -0.022 A 
ATOM      6  C   UNL     1       9.558 -32.145  15.421  1.00  0.00     0.058 A 
ENDROOT
BRANCH   1   7
ATOM      7  O   UNL     1       7.815 -32.250  17.156  1.00  0.00    -0.493 OA
ATOM      8  C   UNL     1       8.679 -31.935  18.244  1.00  0.00     0.278 C 
ENDBRANCH   1   7
BRANCH   2   9
ATOM      9  O   UNL     1       5.880 -32.599  15.158  1.00  0.00    -0.504 OA
ATOM     10  H   UNL     1       5.134 -32.361  14.515  1.00  0.00     0.293 HD
ENDBRANCH   2   9
BRANCH   5  11
ATOM     11  C   UNL     1      11.363 -32.032  13.719  1.00  0.00     0.000 C 
ATOM     12  C   UNL     1      12.193 -31.182  14.326  1.00  0.00     0.009 C 
ENDBRANCH   5  11
TORSDOF 3
ENDMDL
MODEL 2
REMARK VINA RESULT:    -3.854      1.711      3.548
REMARK INTER + INTRA:          -4.487
REMARK INTER:                  -4.399
REMARK INTRA:                  -0.088
REMARK UNBOUND:                -0.070
REMARK SMILES C=Cc1ccc(O)c(OC)c1
REMARK SMILES IDX 8 1 6 2 5 3 4 4 3 5 11 6 9 7 10 8 7 9 2 11 1 12
REMARK H PARENT 7 10
REMARK Flexibility Score: inf
ROOT
ATOM      1  C   UNL     1       9.237 -31.879  15.795  1.00  0.00     0.161 A 
ATOM      2  C   UNL     1      10.231 -31.852  14.801  1.00  0.00     0.157 A 
ATOM      3  C   UNL     1       9.917 -32.213  13.489  1.00  0.00     0.051 A 
ATOM      4  C   UNL     1       8.618 -32.596  13.150  1.00  0.00     0.012 A 
ATOM      5  C   UNL     1       7.604 -32.617  14.126  1.00  0.00    -0.022 A 
ATOM      6  C   UNL     1       7.927 -32.267  15.447  1.00  0.00     0.058 A 
ENDROOT
BRANCH   1   7
ATOM      7  O   UNL     1       9.582 -31.516  17.108  1.00  0.00    -0.493 OA
ATOM      8  C   UNL     1       8.847 -31.890  18.269  1.00  0.00     0.278 C 
ENDBRANCH   1   7
BRANCH   2   9
ATOM      9  O   UNL     1      11.540 -31.474  15.101  1.00  0.00    -0.504 OA
ATOM     10  H   UNL     1      11.893 -31.455  16.050  1.00  0.00     0.293 HD
ENDBRANCH   2   9
BRANCH   5  11
ATOM     11  C   UNL     1       6.210 -33.024  13.821  1.00  0.00     0.000 C 
ATOM     12  C   UNL     1       5.875 -33.905  12.877  1.00  0.00     0.009 C 
ENDBRANCH   5  11
TORSDOF 3
ENDMDL
MODEL 3
REMARK VINA RESULT:    -3.558      2.308      3.906
REMARK INTER + INTRA:          -4.148
REMARK INTER:                  -4.069
REMARK INTRA:                  -0.079
REMARK UNBOUND:                -0.070
REMARK SMILES C=Cc1ccc(O)c(OC)c1
REMARK SMILES IDX 8 1 6 2 5 3 4 4 3 5 11 6 9 7 10 8 7 9 2 11 1 12
REMARK H PARENT 7 10
REMARK Flexibility Score: inf
ROOT
ATOM      1  C   UNL     1      10.001 -32.264  14.664  1.00  0.00     0.161 A 
ATOM      2  C   UNL     1       9.434 -33.448  14.161  1.00  0.00     0.157 A 
ATOM      3  C   UNL     1       8.491 -34.147  14.918  1.00  0.00     0.051 A 
ATOM      4  C   UNL     1       8.099 -33.678  16.172  1.00  0.00     0.012 A 
ATOM      5  C   UNL     1       8.643 -32.487  16.689  1.00  0.00    -0.022 A 
ATOM      6  C   UNL     1       9.602 -31.794  15.932  1.00  0.00     0.058 A 
ENDROOT
BRANCH   1   7
ATOM      7  O   UNL     1      10.951 -31.584  13.884  1.00  0.00    -0.493 OA
ATOM      8  C   UNL     1      12.221 -31.145  14.358  1.00  0.00     0.278 C 
ENDBRANCH   1   7
BRANCH   2   9
ATOM      9  O   UNL     1       9.800 -33.948  12.911  1.00  0.00    -0.504 OA
ATOM     10  H   UNL     1      10.156 -34.887  12.789  1.00  0.00     0.293 HD
ENDBRANCH   2   9
BRANCH   5  11
ATOM     11  C   UNL     1       8.267 -31.949  18.021  1.00  0.00     0.000 C 
ATOM     12  C   UNL     1       9.144 -31.568  18.951  1.00  0.00     0.009 C 
ENDBRANCH   5  11
TORSDOF 3
ENDMDL
MODEL 4
REMARK VINA RESULT:    -3.490      2.272      4.442
REMARK INTER + INTRA:          -4.070
REMARK INTER:                  -3.977
REMARK INTRA:                  -0.093
REMARK UNBOUND:                -0.070
REMARK SMILES C=Cc1ccc(O)c(OC)c1
REMARK SMILES IDX 8 1 6 2 5 3 4 4 3 5 11 6 9 7 10 8 7 9 2 11 1 12
REMARK H PARENT 7 10
REMARK Flexibility Score: inf
ROOT
ATOM      1  C   UNL     1       9.632 -32.328  14.076  1.00  0.00     0.161 A 
ATOM      2  C   UNL     1       9.777 -31.851  15.390  1.00  0.00     0.157 A 
ATOM      3  C   UNL     1       8.690 -31.880  16.267  1.00  0.00     0.051 A 
ATOM      4  C   UNL     1       7.457 -32.385  15.853  1.00  0.00     0.012 A 
ATOM      5  C   UNL     1       7.293 -32.880  14.545  1.00  0.00    -0.022 A 
ATOM      6  C   UNL     1       8.384 -32.836  13.661  1.00  0.00     0.058 A 
ENDROOT
BRANCH   1   7
ATOM      7  O   UNL     1      10.740 -32.281  13.213  1.00  0.00    -0.493 OA
ATOM      8  C   UNL     1      11.556 -33.401  12.885  1.00  0.00     0.278 C 
ENDBRANCH   1   7
BRANCH   2   9
ATOM      9  O   UNL     1      10.993 -31.340  15.842  1.00  0.00    -0.504 OA
ATOM     10  H   UNL     1      11.374 -31.575  16.751  1.00  0.00     0.293 HD
ENDBRANCH   2   9
BRANCH   5  11
ATOM     11  C   UNL     1       6.002 -33.420  14.050  1.00  0.00     0.000 C 
ATOM     12  C   UNL     1       5.875 -34.190  12.969  1.00  0.00     0.009 C 
ENDBRANCH   5  11
TORSDOF 3
ENDMDL
MODEL 5
REMARK VINA RESULT:    -3.368      2.246      3.630
REMARK INTER + INTRA:          -3.930
REMARK INTER:                  -3.857
REMARK INTRA:                  -0.072
REMARK UNBOUND:                -0.070
REMARK SMILES C=Cc1ccc(O)c(OC)c1
REMARK SMILES IDX 8 1 6 2 5 3 4 4 3 5 11 6 9 7 10 8 7 9 2 11 1 12
REMARK H PARENT 7 10
REMARK Flexibility Score: inf
ROOT
ATOM      1  C   UNL     1       9.245 -32.412  15.580  1.00  0.00     0.161 A 
ATOM      2  C   UNL     1      10.165 -32.201  14.539  1.00  0.00     0.157 A 
ATOM      3  C   UNL     1      10.191 -33.069  13.444  1.00  0.00     0.051 A 
ATOM      4  C   UNL     1       9.305 -34.144  13.369  1.00  0.00     0.012 A 
ATOM      5  C   UNL     1       8.365 -34.365  14.394  1.00  0.00    -0.022 A 
ATOM      6  C   UNL     1       8.352 -33.499  15.501  1.00  0.00     0.058 A 
ENDROOT
BRANCH   1   7
ATOM      7  O   UNL     1       9.245 -31.527  16.672  1.00  0.00    -0.493 OA
ATOM      8  C   UNL     1       8.872 -31.883  18.000  1.00  0.00     0.278 C 
ENDBRANCH   1   7
BRANCH   2   9
ATOM      9  O   UNL     1      11.067 -31.137  14.577  1.00  0.00    -0.504 OA
ATOM     10  H   UNL     1      10.791 -30.206  14.863  1.00  0.00     0.293 HD
ENDBRANCH   2   9
BRANCH   5  11
ATOM     11  C   UNL     1       7.406 -35.498  14.369  1.00  0.00     0.000 C 
ATOM     12  C   UNL     1       6.780 -35.975  15.445  1.00  0.00     0.009 C 
ENDBRANCH   5  11
TORSDOF 3
ENDMDL
MODEL 6
REMARK VINA RESULT:    -3.326      1.481      2.882
REMARK INTER + INTRA:          -3.882
REMARK INTER:                  -3.784
REMARK INTRA:                  -0.097
REMARK UNBOUND:                -0.070
REMARK SMILES C=Cc1ccc(O)c(OC)c1
REMARK SMILES IDX 8 1 6 2 5 3 4 4 3 5 11 6 9 7 10 8 7 9 2 11 1 12
REMARK H PARENT 7 10
REMARK Flexibility Score: inf
ROOT
ATOM      1  C   UNL     1       8.771 -32.223  16.027  1.00  0.00     0.161 A 
ATOM      2  C   UNL     1       8.992 -31.540  17.236  1.00  0.00     0.157 A 
ATOM      3  C   UNL     1      10.172 -30.817  17.423  1.00  0.00     0.051 A 
ATOM      4  C   UNL     1      11.137 -30.759  16.416  1.00  0.00     0.012 A 
ATOM      5  C   UNL     1      10.929 -31.423  15.192  1.00  0.00    -0.022 A 
ATOM      6  C   UNL     1       9.748 -32.161  15.013  1.00  0.00     0.058 A 
ENDROOT
BRANCH   1   7
ATOM      7  O   UNL     1       7.577 -32.947  15.867  1.00  0.00    -0.493 OA
ATOM      8  C   UNL     1       7.503 -34.288  15.393  1.00  0.00     0.278 C 
ENDBRANCH   1   7
BRANCH   2   9
ATOM      9  O   UNL     1       8.052 -31.574  18.266  1.00  0.00    -0.504 OA
ATOM     10  H   UNL     1       8.010 -30.860  18.982  1.00  0.00     0.293 HD
ENDBRANCH   2   9
BRANCH   5  11
ATOM     11  C   UNL     1      11.926 -31.400  14.092  1.00  0.00     0.000 C 
ATOM     12  C   UNL     1      13.204 -31.052  14.245  1.00  0.00     0.009 C 
ENDBRANCH   5  11
TORSDOF 3
ENDMDL
MODEL 7
REMARK VINA RESULT:    -3.234     17.854     18.723
REMARK INTER + INTRA:          -3.776
REMARK INTER:                  -3.691
REMARK INTRA:                  -0.085
REMARK UNBOUND:                -0.070
REMARK SMILES C=Cc1ccc(O)c(OC)c1
REMARK SMILES IDX 8 1 6 2 5 3 4 4 3 5 11 6 9 7 10 8 7 9 2 11 1 12
REMARK H PARENT 7 10
REMARK Flexibility Score: inf
ROOT
ATOM      1  C   UNL     1      15.399 -34.954  31.647  1.00  0.00     0.161 A 
ATOM      2  C   UNL     1      15.000 -33.657  32.014  1.00  0.00     0.157 A 
ATOM      3  C   UNL     1      13.820 -33.468  32.738  1.00  0.00     0.051 A 
ATOM      4  C   UNL     1      13.032 -34.558  33.108  1.00  0.00     0.012 A 
ATOM      5  C   UNL     1      13.420 -35.867  32.764  1.00  0.00    -0.022 A 
ATOM      6  C   UNL     1      14.599 -36.052  32.023  1.00  0.00     0.058 A 
ENDROOT
BRANCH   1   7
ATOM      7  O   UNL     1      16.587 -35.115  30.915  1.00  0.00    -0.493 OA
ATOM      8  C   UNL     1      16.936 -36.289  30.189  1.00  0.00     0.278 C 
ENDBRANCH   1   7
BRANCH   2   9
ATOM      9  O   UNL     1      15.761 -32.542  31.664  1.00  0.00    -0.504 OA
ATOM     10  H   UNL     1      16.477 -32.164  32.272  1.00  0.00     0.293 HD
ENDBRANCH   2   9
BRANCH   5  11
ATOM     11  C   UNL     1      12.615 -37.061  33.125  1.00  0.00     0.000 C 
ATOM     12  C   UNL     1      11.286 -37.125  33.032  1.00  0.00     0.009 C 
ENDBRANCH   5  11
TORSDOF 3
ENDMDL
