MODEL 1
REMARK VINA RESULT:    14.479      0.000      0.000
REMARK INTER + INTRA:          30.474
REMARK INTER:                  31.408
REMARK INTRA:                  -0.935
REMARK UNBOUND:                -0.935
REMARK SMILES CCCCCCCCCCCCCCCCCCCCCC(=O)[O-]
REMARK SMILES IDX 12 1 11 2 10 3 9 4 8 5 7 6 6 7 5 8 4 9 3 10 2 11 1 12 13 13
REMARK SMILES IDX 14 14 15 15 16 16 17 17 18 18 19 19 20 20 21 21 22 22 23 23
REMARK SMILES IDX 24 24
REMARK H PARENT
REMARK Flexibility Score: inf
ROOT
ATOM      1  C   UNL     1      99.417  99.041  10.405  1.00  0.00     0.000 C 
ENDROOT
BRANCH   1   2
ATOM      2  C   UNL     1      97.976  99.022  10.938  1.00  0.00     0.000 C 
BRANCH   2   3
ATOM      3  C   UNL     1      97.897  99.359  12.437  1.00  0.00     0.000 C 
BRANCH   3   4
ATOM      4  C   UNL     1      96.482  99.811  12.856  1.00  0.00    -0.000 C 
BRANCH   4   5
ATOM      5  C   UNL     1      95.885 100.893  11.940  1.00  0.00    -0.000 C 
BRANCH   5   6
ATOM      6  C   UNL     1      94.560 100.462  11.290  1.00  0.00    -0.000 C 
BRANCH   6   7
ATOM      7  C   UNL     1      94.388 101.005   9.860  1.00  0.00    -0.000 C 
BRANCH   7   8
ATOM      8  C   UNL     1      95.101 100.197   8.756  1.00  0.00    -0.000 C 
BRANCH   8   9
ATOM      9  C   UNL     1      94.452  98.845   8.407  1.00  0.00    -0.000 C 
BRANCH   9  10
ATOM     10  C   UNL     1      93.057  99.000   7.778  1.00  0.00    -0.000 C 
BRANCH  10  11
ATOM     11  C   UNL     1      93.078  99.865   6.508  1.00  0.00    -0.003 C 
ATOM     12  C   UNL     1      91.707 100.449   6.165  1.00  0.00     0.004 C 
ENDBRANCH  10  11
ENDBRANCH   9  10
ENDBRANCH   8   9
ENDBRANCH   7   8
ENDBRANCH   6   7
ENDBRANCH   5   6
ENDBRANCH   4   5
ENDBRANCH   3   4
ENDBRANCH   2   3
ENDBRANCH   1   2
BRANCH   1  13
ATOM     13  C   UNL     1     100.152 100.345  10.746  1.00  0.00     0.000 C 
BRANCH  13  14
ATOM     14  C   UNL     1     101.644 100.241  10.399  1.00  0.00     0.000 C 
BRANCH  14  15
ATOM     15  C   UNL     1     102.040  98.857   9.853  1.00  0.00     0.000 C 
BRANCH  15  16
ATOM     16  C   UNL     1     101.898  97.693  10.850  1.00  0.00     0.000 C 
BRANCH  16  17
ATOM     17  C   UNL     1     102.331  96.341  10.258  1.00  0.00     0.000 C 
BRANCH  17  18
ATOM     18  C   UNL     1     101.174  95.330  10.163  1.00  0.00     0.000 C 
BRANCH  18  19
ATOM     19  C   UNL     1      99.824  95.816  10.728  1.00  0.00     0.000 C 
BRANCH  19  20
ATOM     20  C   UNL     1      98.702  94.762  10.743  1.00  0.00     0.006 C 
BRANCH  20  21
ATOM     21  C   UNL     1      98.846  93.758  11.893  1.00  0.00     0.053 C 
BRANCH  21  22
ATOM     22  C   UNL     1      98.455  94.391  13.191  1.00  0.00     0.041 C 
ATOM     23  O   UNL     1      98.177  95.618  13.239  1.00  0.00    -0.550 OA
ATOM     24  O   UNL     1      98.441  93.635  14.357  1.00  0.00    -0.550 OA
ENDBRANCH  21  22
ENDBRANCH  20  21
ENDBRANCH  19  20
ENDBRANCH  18  19
ENDBRANCH  17  18
ENDBRANCH  16  17
ENDBRANCH  15  16
ENDBRANCH  14  15
ENDBRANCH  13  14
ENDBRANCH   1  13
TORSDOF 20
ENDMDL
MODEL 2
REMARK VINA RESULT:    14.859      0.932      1.408
REMARK INTER + INTRA:          31.298
REMARK INTER:                  32.405
REMARK INTRA:                  -1.108
REMARK UNBOUND:                -0.935
REMARK SMILES CCCCCCCCCCCCCCCCCCCCCC(=O)[O-]
REMARK SMILES IDX 12 1 11 2 10 3 9 4 8 5 7 6 6 7 5 8 4 9 3 10 2 11 1 12 13 13
REMARK SMILES IDX 14 14 15 15 16 16 17 17 18 18 19 19 20 20 21 21 22 22 23 23
REMARK SMILES IDX 24 24
REMARK H PARENT
REMARK Flexibility Score: inf
ROOT
ATOM      1  C   UNL     1      99.324 100.051  11.635  1.00  0.00     0.000 C 
ENDROOT
BRANCH   1   2
ATOM      2  C   UNL     1      97.968  99.327  11.579  1.00  0.00     0.000 C 
BRANCH   2   3
ATOM      3  C   UNL     1      97.189  99.433  12.900  1.00  0.00     0.000 C 
BRANCH   3   4
ATOM      4  C   UNL     1      95.768 100.000  12.692  1.00  0.00    -0.000 C 
BRANCH   4   5
ATOM      5  C   UNL     1      95.640 100.896  11.448  1.00  0.00    -0.000 C 
BRANCH   5   6
ATOM      6  C   UNL     1      94.734 100.288  10.365  1.00  0.00    -0.000 C 
BRANCH   6   7
ATOM      7  C   UNL     1      95.460 100.078   9.024  1.00  0.00    -0.000 C 
BRANCH   7   8
ATOM      8  C   UNL     1      94.918  98.927   8.151  1.00  0.00    -0.000 C 
BRANCH   8   9
ATOM      9  C   UNL     1      93.478  99.112   7.639  1.00  0.00    -0.000 C 
BRANCH   9  10
ATOM     10  C   UNL     1      93.424  99.676   6.209  1.00  0.00    -0.000 C 
BRANCH  10  11
ATOM     11  C   UNL     1      92.074 100.336   5.887  1.00  0.00    -0.003 C 
ATOM     12  C   UNL     1      90.963  99.910   6.846  1.00  0.00     0.004 C 
ENDBRANCH  10  11
ENDBRANCH   9  10
ENDBRANCH   8   9
ENDBRANCH   7   8
ENDBRANCH   6   7
ENDBRANCH   5   6
ENDBRANCH   4   5
ENDBRANCH   3   4
ENDBRANCH   2   3
ENDBRANCH   1   2
BRANCH   1  13
ATOM     13  C   UNL     1      99.855 100.409  10.239  1.00  0.00     0.000 C 
BRANCH  13  14
ATOM     14  C   UNL     1     101.295 100.937  10.320  1.00  0.00     0.000 C 
BRANCH  14  15
ATOM     15  C   UNL     1     102.353  99.831  10.151  1.00  0.00     0.000 C 
BRANCH  15  16
ATOM     16  C   UNL     1     101.812  98.475   9.661  1.00  0.00     0.000 C 
BRANCH  16  17
ATOM     17  C   UNL     1     101.694  97.436  10.788  1.00  0.00     0.000 C 
BRANCH  17  18
ATOM     18  C   UNL     1     102.254  96.057  10.393  1.00  0.00     0.000 C 
BRANCH  18  19
ATOM     19  C   UNL     1     101.207  95.037   9.899  1.00  0.00     0.000 C 
BRANCH  19  20
ATOM     20  C   UNL     1     100.704  94.046  10.964  1.00  0.00     0.006 C 
BRANCH  20  21
ATOM     21  C   UNL     1      99.174  94.013  11.068  1.00  0.00     0.053 C 
BRANCH  21  22
ATOM     22  C   UNL     1      98.664  95.276  11.686  1.00  0.00     0.041 C 
ATOM     23  O   UNL     1      98.620  96.339  11.011  1.00  0.00    -0.550 OA
ATOM     24  O   UNL     1      98.279  95.292  13.021  1.00  0.00    -0.550 OA
ENDBRANCH  21  22
ENDBRANCH  20  21
ENDBRANCH  19  20
ENDBRANCH  18  19
ENDBRANCH  17  18
ENDBRANCH  16  17
ENDBRANCH  15  16
ENDBRANCH  14  15
ENDBRANCH  13  14
ENDBRANCH   1  13
TORSDOF 20
ENDMDL
MODEL 3
REMARK VINA RESULT:    15.452      3.256      7.934
REMARK INTER + INTRA:          32.583
REMARK INTER:                  33.753
REMARK INTRA:                  -1.170
REMARK UNBOUND:                -0.935
REMARK SMILES CCCCCCCCCCCCCCCCCCCCCC(=O)[O-]
REMARK SMILES IDX 12 1 11 2 10 3 9 4 8 5 7 6 6 7 5 8 4 9 3 10 2 11 1 12 13 13
REMARK SMILES IDX 14 14 15 15 16 16 17 17 18 18 19 19 20 20 21 21 22 22 23 23
REMARK SMILES IDX 24 24
REMARK H PARENT
REMARK Flexibility Score: inf
ROOT
ATOM      1  C   UNL     1      98.721  99.518  10.859  1.00  0.00     0.000 C 
ENDROOT
BRANCH   1   2
ATOM      2  C   UNL     1      99.989 100.244  11.334  1.00  0.00     0.000 C 
BRANCH   2   3
ATOM      3  C   UNL     1     100.958 100.557  10.181  1.00  0.00     0.000 C 
BRANCH   3   4
ATOM      4  C   UNL     1     101.947  99.400   9.925  1.00  0.00    -0.000 C 
BRANCH   4   5
ATOM      5  C   UNL     1     101.380  98.015  10.279  1.00  0.00    -0.000 C 
BRANCH   5   6
ATOM      6  C   UNL     1     102.408  96.885  10.105  1.00  0.00    -0.000 C 
BRANCH   6   7
ATOM      7  C   UNL     1     101.805  95.486  10.320  1.00  0.00    -0.000 C 
BRANCH   7   8
ATOM      8  C   UNL     1     100.264  95.434  10.390  1.00  0.00    -0.000 C 
BRANCH   8   9
ATOM      9  C   UNL     1      99.675  94.126  10.948  1.00  0.00    -0.000 C 
BRANCH   9  10
ATOM     10  C   UNL     1      98.358  94.345  11.712  1.00  0.00    -0.000 C 
BRANCH  10  11
ATOM     11  C   UNL     1      98.571  95.051  13.061  1.00  0.00    -0.003 C 
ATOM     12  C   UNL     1      98.356  94.123  14.256  1.00  0.00     0.004 C 
ENDBRANCH  10  11
ENDBRANCH   9  10
ENDBRANCH   8   9
ENDBRANCH   7   8
ENDBRANCH   6   7
ENDBRANCH   5   6
ENDBRANCH   4   5
ENDBRANCH   3   4
ENDBRANCH   2   3
ENDBRANCH   1   2
BRANCH   1  13
ATOM     13  C   UNL     1      98.218  98.486  11.879  1.00  0.00     0.000 C 
BRANCH  13  14
ATOM     14  C   UNL     1      97.177  99.109  12.821  1.00  0.00     0.000 C 
BRANCH  14  15
ATOM     15  C   UNL     1      96.652 100.468  12.323  1.00  0.00     0.000 C 
BRANCH  15  16
ATOM     16  C   UNL     1      95.145 100.514  12.009  1.00  0.00     0.000 C 
BRANCH  16  17
ATOM     17  C   UNL     1      94.851 100.755  10.520  1.00  0.00     0.000 C 
BRANCH  17  18
ATOM     18  C   UNL     1      95.648  99.820   9.591  1.00  0.00     0.000 C 
BRANCH  18  19
ATOM     19  C   UNL     1      95.058  99.633   8.179  1.00  0.00     0.000 C 
BRANCH  19  20
ATOM     20  C   UNL     1      93.657  98.997   8.133  1.00  0.00     0.006 C 
BRANCH  20  21
ATOM     21  C   UNL     1      92.563  99.996   7.735  1.00  0.00     0.053 C 
BRANCH  21  22
ATOM     22  C   UNL     1      92.355  99.980   6.254  1.00  0.00     0.041 C 
ATOM     23  O   UNL     1      91.245 100.322   5.766  1.00  0.00    -0.550 OA
ATOM     24  O   UNL     1      93.371  99.545   5.413  1.00  0.00    -0.550 OA
ENDBRANCH  21  22
ENDBRANCH  20  21
ENDBRANCH  19  20
ENDBRANCH  18  19
ENDBRANCH  17  18
ENDBRANCH  16  17
ENDBRANCH  15  16
ENDBRANCH  14  15
ENDBRANCH  13  14
ENDBRANCH   1  13
TORSDOF 20
ENDMDL
MODEL 4
REMARK VINA RESULT:    15.891      3.200      7.915
REMARK INTER + INTRA:          33.535
REMARK INTER:                  35.091
REMARK INTRA:                  -1.556
REMARK UNBOUND:                -0.935
REMARK SMILES CCCCCCCCCCCCCCCCCCCCCC(=O)[O-]
REMARK SMILES IDX 12 1 11 2 10 3 9 4 8 5 7 6 6 7 5 8 4 9 3 10 2 11 1 12 13 13
REMARK SMILES IDX 14 14 15 15 16 16 17 17 18 18 19 19 20 20 21 21 22 22 23 23
REMARK SMILES IDX 24 24
REMARK H PARENT
REMARK Flexibility Score: inf
ROOT
ATOM      1  C   UNL     1      99.958 100.340  11.239  1.00  0.00     0.000 C 
ENDROOT
BRANCH   1   2
ATOM      2  C   UNL     1     100.876 100.751  10.077  1.00  0.00     0.000 C 
BRANCH   2   3
ATOM      3  C   UNL     1     102.013  99.742   9.838  1.00  0.00     0.000 C 
BRANCH   3   4
ATOM      4  C   UNL     1     101.611  98.309  10.247  1.00  0.00    -0.000 C 
BRANCH   4   5
ATOM      5  C   UNL     1     102.595  97.231   9.759  1.00  0.00    -0.000 C 
BRANCH   5   6
ATOM      6  C   UNL     1     102.379  95.871  10.443  1.00  0.00    -0.000 C 
BRANCH   6   7
ATOM      7  C   UNL     1     101.165  95.106   9.887  1.00  0.00    -0.000 C 
BRANCH   7   8
ATOM      8  C   UNL     1     100.204  94.529  10.948  1.00  0.00    -0.000 C 
BRANCH   8   9
ATOM      9  C   UNL     1      98.897  95.317  11.149  1.00  0.00    -0.000 C 
BRANCH   9  10
ATOM     10  C   UNL     1      98.551  95.525  12.633  1.00  0.00    -0.000 C 
BRANCH  10  11
ATOM     11  C   UNL     1      97.939  94.270  13.276  1.00  0.00    -0.003 C 
ATOM     12  C   UNL     1      98.663  93.846  14.554  1.00  0.00     0.004 C 
ENDBRANCH  10  11
ENDBRANCH   9  10
ENDBRANCH   8   9
ENDBRANCH   7   8
ENDBRANCH   6   7
ENDBRANCH   5   6
ENDBRANCH   4   5
ENDBRANCH   3   4
ENDBRANCH   2   3
ENDBRANCH   1   2
BRANCH   1  13
ATOM     13  C   UNL     1      98.691  99.618  10.758  1.00  0.00     0.000 C 
BRANCH  13  14
ATOM     14  C   UNL     1      97.948  98.970  11.936  1.00  0.00     0.000 C 
BRANCH  14  15
ATOM     15  C   UNL     1      97.073  99.967  12.718  1.00  0.00     0.000 C 
BRANCH  15  16
ATOM     16  C   UNL     1      95.588  99.995  12.312  1.00  0.00     0.000 C 
BRANCH  16  17
ATOM     17  C   UNL     1      95.259 101.125  11.323  1.00  0.00     0.000 C 
BRANCH  17  18
ATOM     18  C   UNL     1      94.543 100.623  10.056  1.00  0.00     0.000 C 
BRANCH  18  19
ATOM     19  C   UNL     1      95.451  99.938   9.013  1.00  0.00     0.000 C 
BRANCH  19  20
ATOM     20  C   UNL     1      94.710  99.227   7.866  1.00  0.00     0.006 C 
BRANCH  20  21
ATOM     21  C   UNL     1      93.189  99.413   7.936  1.00  0.00     0.053 C 
BRANCH  21  22
ATOM     22  C   UNL     1      92.628  99.647   6.569  1.00  0.00     0.041 C 
ATOM     23  O   UNL     1      92.943  98.885   5.616  1.00  0.00    -0.550 OA
ATOM     24  O   UNL     1      91.791 100.731   6.336  1.00  0.00    -0.550 OA
ENDBRANCH  21  22
ENDBRANCH  20  21
ENDBRANCH  19  20
ENDBRANCH  18  19
ENDBRANCH  17  18
ENDBRANCH  16  17
ENDBRANCH  15  16
ENDBRANCH  14  15
ENDBRANCH  13  14
ENDBRANCH   1  13
TORSDOF 20
ENDMDL
MODEL 5
REMARK VINA RESULT:    16.197      3.691      6.131
REMARK INTER + INTRA:          34.201
REMARK INTER:                  33.796
REMARK INTRA:                   0.405
REMARK UNBOUND:                -0.935
REMARK SMILES CCCCCCCCCCCCCCCCCCCCCC(=O)[O-]
REMARK SMILES IDX 12 1 11 2 10 3 9 4 8 5 7 6 6 7 5 8 4 9 3 10 2 11 1 12 13 13
REMARK SMILES IDX 14 14 15 15 16 16 17 17 18 18 19 19 20 20 21 21 22 22 23 23
REMARK SMILES IDX 24 24
REMARK H PARENT
REMARK Flexibility Score: inf
ROOT
ATOM      1  C   UNL     1     101.285  95.123   9.816  1.00  0.00     0.000 C 
ENDROOT
BRANCH   1   2
ATOM      2  C   UNL     1     102.423  95.977  10.398  1.00  0.00     0.000 C 
BRANCH   2   3
ATOM      3  C   UNL     1     101.923  97.315  10.970  1.00  0.00     0.000 C 
BRANCH   3   4
ATOM      4  C   UNL     1     101.625  98.345   9.860  1.00  0.00    -0.000 C 
BRANCH   4   5
ATOM      5  C   UNL     1     102.768  99.350   9.631  1.00  0.00    -0.000 C 
BRANCH   5   6
ATOM      6  C   UNL     1     102.336 100.808   9.860  1.00  0.00    -0.000 C 
BRANCH   6   7
ATOM      7  C   UNL     1     100.807 100.985   9.881  1.00  0.00    -0.000 C 
BRANCH   7   8
ATOM      8  C   UNL     1     100.071 100.245  11.018  1.00  0.00    -0.000 C 
BRANCH   8   9
ATOM      9  C   UNL     1      98.971  99.270  10.563  1.00  0.00    -0.000 C 
BRANCH   9  10
ATOM     10  C   UNL     1      98.265  98.579  11.742  1.00  0.00    -0.000 C 
BRANCH  10  11
ATOM     11  C   UNL     1      97.676  99.583  12.746  1.00  0.00    -0.003 C 
ATOM     12  C   UNL     1      96.653  98.949  13.688  1.00  0.00     0.004 C 
ENDBRANCH  10  11
ENDBRANCH   9  10
ENDBRANCH   8   9
ENDBRANCH   7   8
ENDBRANCH   6   7
ENDBRANCH   5   6
ENDBRANCH   4   5
ENDBRANCH   3   4
ENDBRANCH   2   3
ENDBRANCH   1   2
BRANCH   1  13
ATOM     13  C   UNL     1     100.514  94.356  10.900  1.00  0.00     0.000 C 
BRANCH  13  14
ATOM     14  C   UNL     1      99.001  94.570  10.753  1.00  0.00     0.000 C 
BRANCH  14  15
ATOM     15  C   UNL     1      98.480  95.765  11.572  1.00  0.00     0.000 C 
BRANCH  15  16
ATOM     16  C   UNL     1      98.035  95.433  13.008  1.00  0.00     0.000 C 
BRANCH  16  17
ATOM     17  C   UNL     1      98.463  94.025  13.457  1.00  0.00     0.000 C 
BRANCH  17  18
ATOM     18  C   UNL     1      98.928  93.979  14.924  1.00  0.00     0.000 C 
BRANCH  18  19
ATOM     19  C   UNL     1      99.412  95.323  15.506  1.00  0.00     0.000 C 
BRANCH  19  20
ATOM     20  C   UNL     1      99.967  95.254  16.940  1.00  0.00     0.006 C 
BRANCH  20  21
ATOM     21  C   UNL     1      99.126  96.057  17.941  1.00  0.00     0.053 C 
BRANCH  21  22
ATOM     22  C   UNL     1      99.512  97.501  17.908  1.00  0.00     0.041 C 
ATOM     23  O   UNL     1     100.721  97.832  17.777  1.00  0.00    -0.550 OA
ATOM     24  O   UNL     1      98.543  98.484  18.065  1.00  0.00    -0.550 OA
ENDBRANCH  21  22
ENDBRANCH  20  21
ENDBRANCH  19  20
ENDBRANCH  18  19
ENDBRANCH  17  18
ENDBRANCH  16  17
ENDBRANCH  15  16
ENDBRANCH  14  15
ENDBRANCH  13  14
ENDBRANCH   1  13
TORSDOF 20
ENDMDL
MODEL 6
REMARK VINA RESULT:    16.480      2.337      4.105
REMARK INTER + INTRA:          34.815
REMARK INTER:                  35.596
REMARK INTRA:                  -0.781
REMARK UNBOUND:                -0.935
REMARK SMILES CCCCCCCCCCCCCCCCCCCCCC(=O)[O-]
REMARK SMILES IDX 12 1 11 2 10 3 9 4 8 5 7 6 6 7 5 8 4 9 3 10 2 11 1 12 13 13
REMARK SMILES IDX 14 14 15 15 16 16 17 17 18 18 19 19 20 20 21 21 22 22 23 23
REMARK SMILES IDX 24 24
REMARK H PARENT
REMARK Flexibility Score: inf
ROOT
ATOM      1  C   UNL     1     101.302  97.488  10.869  1.00  0.00     0.000 C 
ENDROOT
BRANCH   1   2
ATOM      2  C   UNL     1     101.904  98.512   9.893  1.00  0.00     0.000 C 
BRANCH   2   3
ATOM      3  C   UNL     1     101.711  99.962  10.367  1.00  0.00     0.000 C 
BRANCH   3   4
ATOM      4  C   UNL     1     100.261 100.451  10.161  1.00  0.00    -0.000 C 
BRANCH   4   5
ATOM      5  C   UNL     1      99.225  99.672  10.990  1.00  0.00    -0.000 C 
BRANCH   5   6
ATOM      6  C   UNL     1      98.223  98.897  10.119  1.00  0.00    -0.000 C 
BRANCH   6   7
ATOM      7  C   UNL     1      97.058  99.771   9.621  1.00  0.00    -0.000 C 
BRANCH   7   8
ATOM      8  C   UNL     1      96.244  99.184   8.449  1.00  0.00    -0.000 C 
BRANCH   8   9
ATOM      9  C   UNL     1      94.764  99.602   8.401  1.00  0.00    -0.000 C 
BRANCH   9  10
ATOM     10  C   UNL     1      94.058  99.145   7.113  1.00  0.00    -0.000 C 
BRANCH  10  11
ATOM     11  C   UNL     1      92.533  99.324   7.183  1.00  0.00    -0.003 C 
ATOM     12  C   UNL     1      92.020 100.405   6.232  1.00  0.00     0.004 C 
ENDBRANCH  10  11
ENDBRANCH   9  10
ENDBRANCH   8   9
ENDBRANCH   7   8
ENDBRANCH   6   7
ENDBRANCH   5   6
ENDBRANCH   4   5
ENDBRANCH   3   4
ENDBRANCH   2   3
ENDBRANCH   1   2
BRANCH   1  13
ATOM     13  C   UNL     1     101.996  96.120  10.786  1.00  0.00     0.000 C 
BRANCH  13  14
ATOM     14  C   UNL     1     101.126  95.109  10.025  1.00  0.00     0.000 C 
BRANCH  14  15
ATOM     15  C   UNL     1     100.130  94.368  10.934  1.00  0.00     0.000 C 
BRANCH  15  16
ATOM     16  C   UNL     1      98.774  95.070  11.132  1.00  0.00     0.000 C 
BRANCH  16  17
ATOM     17  C   UNL     1      98.570  95.586  12.566  1.00  0.00     0.000 C 
BRANCH  17  18
ATOM     18  C   UNL     1      98.132  94.481  13.544  1.00  0.00     0.000 C 
BRANCH  18  19
ATOM     19  C   UNL     1      99.002  94.337  14.810  1.00  0.00     0.000 C 
BRANCH  19  20
ATOM     20  C   UNL     1      98.921  95.515  15.798  1.00  0.00     0.006 C 
BRANCH  20  21
ATOM     21  C   UNL     1     100.016  95.467  16.871  1.00  0.00     0.053 C 
BRANCH  21  22
ATOM     22  C   UNL     1     100.135  96.791  17.557  1.00  0.00     0.041 C 
ATOM     23  O   UNL     1     101.266  97.231  17.894  1.00  0.00    -0.550 OA
ATOM     24  O   UNL     1      98.993  97.521  17.862  1.00  0.00    -0.550 OA
ENDBRANCH  21  22
ENDBRANCH  20  21
ENDBRANCH  19  20
ENDBRANCH  18  19
ENDBRANCH  17  18
ENDBRANCH  16  17
ENDBRANCH  15  16
ENDBRANCH  14  15
ENDBRANCH  13  14
ENDBRANCH   1  13
TORSDOF 20
ENDMDL
MODEL 7
REMARK VINA RESULT:    16.662      8.890     12.254
REMARK INTER + INTRA:          35.208
REMARK INTER:                  35.881
REMARK INTRA:                  -0.673
REMARK UNBOUND:                -0.935
REMARK SMILES CCCCCCCCCCCCCCCCCCCCCC(=O)[O-]
REMARK SMILES IDX 12 1 11 2 10 3 9 4 8 5 7 6 6 7 5 8 4 9 3 10 2 11 1 12 13 13
REMARK SMILES IDX 14 14 15 15 16 16 17 17 18 18 19 19 20 20 21 21 22 22 23 23
REMARK SMILES IDX 24 24
REMARK H PARENT
REMARK Flexibility Score: inf
ROOT
ATOM      1  C   UNL     1      96.331  91.021  14.831  1.00  0.00     0.000 C 
ENDROOT
BRANCH   1   2
ATOM      2  C   UNL     1      96.798  92.482  14.936  1.00  0.00     0.000 C 
BRANCH   2   3
ATOM      3  C   UNL     1      98.094  92.745  14.151  1.00  0.00     0.000 C 
BRANCH   3   4
ATOM      4  C   UNL     1      98.593  94.196  14.325  1.00  0.00    -0.000 C 
BRANCH   4   5
ATOM      5  C   UNL     1      98.486  95.042  13.045  1.00  0.00    -0.000 C 
BRANCH   5   6
ATOM      6  C   UNL     1      98.528  94.195  11.763  1.00  0.00    -0.000 C 
BRANCH   6   7
ATOM      7  C   UNL     1      99.728  94.533  10.860  1.00  0.00    -0.000 C 
BRANCH   7   8
ATOM      8  C   UNL     1     100.052  96.035  10.726  1.00  0.00    -0.000 C 
BRANCH   8   9
ATOM      9  C   UNL     1     101.537  96.370  10.498  1.00  0.00    -0.000 C 
BRANCH   9  10
ATOM     10  C   UNL     1     101.881  97.825  10.863  1.00  0.00    -0.000 C 
BRANCH  10  11
ATOM     11  C   UNL     1     100.964  98.839  10.161  1.00  0.00    -0.003 C 
ATOM     12  C   UNL     1     101.402 100.287  10.383  1.00  0.00     0.004 C 
ENDBRANCH  10  11
ENDBRANCH   9  10
ENDBRANCH   8   9
ENDBRANCH   7   8
ENDBRANCH   6   7
ENDBRANCH   5   6
ENDBRANCH   4   5
ENDBRANCH   3   4
ENDBRANCH   2   3
ENDBRANCH   1   2
BRANCH   1  13
ATOM     13  C   UNL     1      94.829  90.864  15.107  1.00  0.00     0.000 C 
BRANCH  13  14
ATOM     14  C   UNL     1      94.485  89.408  15.455  1.00  0.00     0.000 C 
BRANCH  14  15
ATOM     15  C   UNL     1      92.977  89.178  15.660  1.00  0.00     0.000 C 
BRANCH  15  16
ATOM     16  C   UNL     1      92.563  87.714  15.897  1.00  0.00     0.000 C 
BRANCH  16  17
ATOM     17  C   UNL     1      91.193  87.583  16.583  1.00  0.00     0.000 C 
BRANCH  17  18
ATOM     18  C   UNL     1      90.805  86.122  16.874  1.00  0.00     0.000 C 
BRANCH  18  19
ATOM     19  C   UNL     1      90.596  85.778  18.364  1.00  0.00     0.000 C 
BRANCH  19  20
ATOM     20  C   UNL     1      90.459  84.278  18.677  1.00  0.00     0.006 C 
BRANCH  20  21
ATOM     21  C   UNL     1      89.378  83.986  19.726  1.00  0.00     0.053 C 
BRANCH  21  22
ATOM     22  C   UNL     1      88.742  82.657  19.466  1.00  0.00     0.041 C 
ATOM     23  O   UNL     1      89.456  81.657  19.190  1.00  0.00    -0.550 OA
ATOM     24  O   UNL     1      87.359  82.532  19.486  1.00  0.00    -0.550 OA
ENDBRANCH  21  22
ENDBRANCH  20  21
ENDBRANCH  19  20
ENDBRANCH  18  19
ENDBRANCH  17  18
ENDBRANCH  16  17
ENDBRANCH  15  16
ENDBRANCH  14  15
ENDBRANCH  13  14
ENDBRANCH   1  13
TORSDOF 20
ENDMDL
MODEL 8
REMARK VINA RESULT:    17.166     11.482     15.116
REMARK INTER + INTRA:          36.301
REMARK INTER:                  36.873
REMARK INTRA:                  -0.572
REMARK UNBOUND:                -0.935
REMARK SMILES CCCCCCCCCCCCCCCCCCCCCC(=O)[O-]
REMARK SMILES IDX 12 1 11 2 10 3 9 4 8 5 7 6 6 7 5 8 4 9 3 10 2 11 1 12 13 13
REMARK SMILES IDX 14 14 15 15 16 16 17 17 18 18 19 19 20 20 21 21 22 22 23 23
REMARK SMILES IDX 24 24
REMARK H PARENT
REMARK Flexibility Score: inf
ROOT
ATOM      1  C   UNL     1      92.924  88.037  16.085  1.00  0.00     0.000 C 
ENDROOT
BRANCH   1   2
ATOM      2  C   UNL     1      91.553  87.525  16.556  1.00  0.00     0.000 C 
BRANCH   2   3
ATOM      3  C   UNL     1      91.668  86.471  17.670  1.00  0.00     0.000 C 
BRANCH   3   4
ATOM      4  C   UNL     1      90.439  85.539  17.716  1.00  0.00    -0.000 C 
BRANCH   4   5
ATOM      5  C   UNL     1      90.251  84.833  19.070  1.00  0.00    -0.000 C 
BRANCH   5   6
ATOM      6  C   UNL     1      90.244  83.300  18.949  1.00  0.00    -0.000 C 
BRANCH   6   7
ATOM      7  C   UNL     1      89.159  82.634  19.813  1.00  0.00    -0.000 C 
BRANCH   7   8
ATOM      8  C   UNL     1      88.426  81.446  19.155  1.00  0.00    -0.000 C 
BRANCH   8   9
ATOM      9  C   UNL     1      87.048  81.111  19.753  1.00  0.00    -0.000 C 
BRANCH   9  10
ATOM     10  C   UNL     1      85.941  82.060  19.263  1.00  0.00    -0.000 C 
BRANCH  10  11
ATOM     11  C   UNL     1      84.543  81.626  19.732  1.00  0.00    -0.003 C 
ATOM     12  C   UNL     1      83.465  82.665  19.425  1.00  0.00     0.004 C 
ENDBRANCH  10  11
ENDBRANCH   9  10
ENDBRANCH   8   9
ENDBRANCH   7   8
ENDBRANCH   6   7
ENDBRANCH   5   6
ENDBRANCH   4   5
ENDBRANCH   3   4
ENDBRANCH   2   3
ENDBRANCH   1   2
BRANCH   1  13
ATOM     13  C   UNL     1      92.948  89.561  15.899  1.00  0.00     0.000 C 
BRANCH  13  14
ATOM     14  C   UNL     1      93.882  89.958  14.746  1.00  0.00     0.000 C 
BRANCH  14  15
ATOM     15  C   UNL     1      94.843  91.102  15.116  1.00  0.00     0.000 C 
BRANCH  15  16
ATOM     16  C   UNL     1      96.219  90.658  15.646  1.00  0.00     0.000 C 
BRANCH  16  17
ATOM     17  C   UNL     1      97.387  91.189  14.798  1.00  0.00     0.000 C 
BRANCH  17  18
ATOM     18  C   UNL     1      97.287  92.701  14.521  1.00  0.00     0.000 C 
BRANCH  18  19
ATOM     19  C   UNL     1      98.594  93.373  14.051  1.00  0.00     0.000 C 
BRANCH  19  20
ATOM     20  C   UNL     1      98.622  93.785  12.568  1.00  0.00     0.006 C 
BRANCH  20  21
ATOM     21  C   UNL     1      98.616  95.307  12.374  1.00  0.00     0.053 C 
BRANCH  21  22
ATOM     22  C   UNL     1      99.147  95.664  11.022  1.00  0.00     0.041 C 
ATOM     23  O   UNL     1      98.532  96.489  10.297  1.00  0.00    -0.550 OA
ATOM     24  O   UNL     1     100.300  95.053  10.544  1.00  0.00    -0.550 OA
ENDBRANCH  21  22
ENDBRANCH  20  21
ENDBRANCH  19  20
ENDBRANCH  18  19
ENDBRANCH  17  18
ENDBRANCH  16  17
ENDBRANCH  15  16
ENDBRANCH  14  15
ENDBRANCH  13  14
ENDBRANCH   1  13
TORSDOF 20
ENDMDL
