MODEL 1
REMARK VINA RESULT:    -2.921      0.000      0.000
REMARK INTER + INTRA:          -3.332
REMARK INTER:                  -3.263
REMARK INTRA:                  -0.069
REMARK UNBOUND:                -0.069
REMARK SMILES CCCC(=O)[O-]
REMARK SMILES IDX 3 1 4 2 5 3 6 4 2 5 1 6
REMARK H PARENT
REMARK Flexibility Score: inf
ROOT
ATOM      1  C   UNL     1      -0.561  -0.135  18.690  1.00  0.00     0.052 C 
ENDROOT
BRANCH   1   2
ATOM      2  C   UNL     1      -0.098   0.918  17.734  1.00  0.00     0.041 C 
ATOM      3  O   UNL     1       0.628   0.608  16.752  1.00  0.00    -0.550 OA
ATOM      4  O   UNL     1      -0.507   2.235  17.898  1.00  0.00    -0.550 OA
ENDBRANCH   1   2
BRANCH   1   5
ATOM      5  C   UNL     1      -0.225   0.263  20.129  1.00  0.00     0.003 C 
ATOM      6  C   UNL     1       1.283   0.374  20.332  1.00  0.00     0.004 C 
ENDBRANCH   1   5
TORSDOF 2
ENDMDL
MODEL 2
REMARK VINA RESULT:    -2.888      1.352      2.048
REMARK INTER + INTRA:          -3.295
REMARK INTER:                  -3.252
REMARK INTRA:                  -0.043
REMARK UNBOUND:                -0.069
REMARK SMILES CCCC(=O)[O-]
REMARK SMILES IDX 3 1 4 2 5 3 6 4 2 5 1 6
REMARK H PARENT
REMARK Flexibility Score: inf
ROOT
ATOM      1  C   UNL     1      -0.312   0.698  17.850  1.00  0.00     0.052 C 
ENDROOT
BRANCH   1   2
ATOM      2  C   UNL     1       1.137   1.037  17.701  1.00  0.00     0.041 C 
ATOM      3  O   UNL     1       1.599   2.087  18.221  1.00  0.00    -0.550 OA
ATOM      4  O   UNL     1       1.989   0.171  17.029  1.00  0.00    -0.550 OA
ENDBRANCH   1   2
BRANCH   1   5
ATOM      5  C   UNL     1      -0.508  -0.338  18.960  1.00  0.00     0.003 C 
ATOM      6  C   UNL     1      -0.671   0.335  20.319  1.00  0.00     0.004 C 
ENDBRANCH   1   5
TORSDOF 2
ENDMDL
MODEL 3
REMARK VINA RESULT:    -2.873      2.136      3.290
REMARK INTER + INTRA:          -3.278
REMARK INTER:                  -3.268
REMARK INTRA:                  -0.010
REMARK UNBOUND:                -0.069
REMARK SMILES CCCC(=O)[O-]
REMARK SMILES IDX 3 1 4 2 5 3 6 4 2 5 1 6
REMARK H PARENT
REMARK Flexibility Score: inf
ROOT
ATOM      1  C   UNL     1      -0.349  -0.139  18.582  1.00  0.00     0.052 C 
ENDROOT
BRANCH   1   2
ATOM      2  C   UNL     1      -0.057   0.285  19.986  1.00  0.00     0.041 C 
ATOM      3  O   UNL     1      -0.996   0.617  20.756  1.00  0.00    -0.550 OA
ATOM      4  O   UNL     1       1.248   0.267  20.460  1.00  0.00    -0.550 OA
ENDBRANCH   1   2
BRANCH   1   5
ATOM      5  C   UNL     1       0.100   0.938  17.592  1.00  0.00     0.003 C 
ATOM      6  C   UNL     1      -0.955   1.170  16.514  1.00  0.00     0.004 C 
ENDBRANCH   1   5
TORSDOF 2
ENDMDL
MODEL 4
REMARK VINA RESULT:    -2.854      9.426     10.229
REMARK INTER + INTRA:          -3.257
REMARK INTER:                  -3.231
REMARK INTRA:                  -0.026
REMARK UNBOUND:                -0.069
REMARK SMILES CCCC(=O)[O-]
REMARK SMILES IDX 3 1 4 2 5 3 6 4 2 5 1 6
REMARK H PARENT
REMARK Flexibility Score: inf
ROOT
ATOM      1  C   UNL     1      -3.989  -4.211  11.454  1.00  0.00     0.052 C 
ENDROOT
BRANCH   1   2
ATOM      2  C   UNL     1      -4.605  -4.581  10.143  1.00  0.00     0.041 C 
ATOM      3  O   UNL     1      -4.087  -4.187   9.065  1.00  0.00    -0.550 OA
ATOM      4  O   UNL     1      -5.724  -5.403  10.108  1.00  0.00    -0.550 OA
ENDBRANCH   1   2
BRANCH   1   5
ATOM      5  C   UNL     1      -2.928  -3.124  11.261  1.00  0.00     0.003 C 
ATOM      6  C   UNL     1      -1.685  -3.412  12.097  1.00  0.00     0.004 C 
ENDBRANCH   1   5
TORSDOF 2
ENDMDL
MODEL 5
REMARK VINA RESULT:    -2.847      7.757      8.509
REMARK INTER + INTRA:          -3.249
REMARK INTER:                  -3.202
REMARK INTRA:                  -0.047
REMARK UNBOUND:                -0.069
REMARK SMILES CCCC(=O)[O-]
REMARK SMILES IDX 3 1 4 2 5 3 6 4 2 5 1 6
REMARK H PARENT
REMARK Flexibility Score: inf
ROOT
ATOM      1  C   UNL     1      -7.046   2.885  16.535  1.00  0.00     0.052 C 
ENDROOT
BRANCH   1   2
ATOM      2  C   UNL     1      -7.865   4.079  16.160  1.00  0.00     0.041 C 
ATOM      3  O   UNL     1      -7.790   5.138  16.838  1.00  0.00    -0.550 OA
ATOM      4  O   UNL     1      -8.675   4.040  15.033  1.00  0.00    -0.550 OA
ENDBRANCH   1   2
BRANCH   1   5
ATOM      5  C   UNL     1      -5.610   3.039  16.028  1.00  0.00     0.003 C 
ATOM      6  C   UNL     1      -5.464   2.493  14.611  1.00  0.00     0.004 C 
ENDBRANCH   1   5
TORSDOF 2
ENDMDL
MODEL 6
REMARK VINA RESULT:    -2.810     10.450     11.333
REMARK INTER + INTRA:          -3.207
REMARK INTER:                  -3.183
REMARK INTRA:                  -0.024
REMARK UNBOUND:                -0.069
REMARK SMILES CCCC(=O)[O-]
REMARK SMILES IDX 3 1 4 2 5 3 6 4 2 5 1 6
REMARK H PARENT
REMARK Flexibility Score: inf
ROOT
ATOM      1  C   UNL     1      -3.820  -3.957   9.259  1.00  0.00     0.052 C 
ENDROOT
BRANCH   1   2
ATOM      2  C   UNL     1      -4.857  -4.749   9.990  1.00  0.00     0.041 C 
ATOM      3  O   UNL     1      -4.760  -4.926  11.233  1.00  0.00    -0.550 OA
ATOM      4  O   UNL     1      -5.957  -5.251   9.307  1.00  0.00    -0.550 OA
ENDBRANCH   1   2
BRANCH   1   5
ATOM      5  C   UNL     1      -3.718  -2.544   9.837  1.00  0.00     0.003 C 
ATOM      6  C   UNL     1      -4.292  -1.511   8.871  1.00  0.00     0.004 C 
ENDBRANCH   1   5
TORSDOF 2
ENDMDL
MODEL 7
REMARK VINA RESULT:    -2.794      7.149      8.021
REMARK INTER + INTRA:          -3.190
REMARK INTER:                  -3.146
REMARK INTRA:                  -0.043
REMARK UNBOUND:                -0.069
REMARK SMILES CCCC(=O)[O-]
REMARK SMILES IDX 3 1 4 2 5 3 6 4 2 5 1 6
REMARK H PARENT
REMARK Flexibility Score: inf
ROOT
ATOM      1  C   UNL     1      -7.071   2.914  16.460  1.00  0.00     0.052 C 
ENDROOT
BRANCH   1   2
ATOM      2  C   UNL     1      -5.628   3.037  16.085  1.00  0.00     0.041 C 
ATOM      3  O   UNL     1      -5.080   2.150  15.378  1.00  0.00    -0.550 OA
ATOM      4  O   UNL     1      -4.901   4.153  16.475  1.00  0.00    -0.550 OA
ENDBRANCH   1   2
BRANCH   1   5
ATOM      5  C   UNL     1      -7.825   4.201  16.117  1.00  0.00     0.003 C 
ATOM      6  C   UNL     1      -8.466   4.113  14.736  1.00  0.00     0.004 C 
ENDBRANCH   1   5
TORSDOF 2
ENDMDL
MODEL 8
REMARK VINA RESULT:    -2.750      9.624     10.526
REMARK INTER + INTRA:          -3.140
REMARK INTER:                  -3.097
REMARK INTRA:                  -0.043
REMARK UNBOUND:                -0.069
REMARK SMILES CCCC(=O)[O-]
REMARK SMILES IDX 3 1 4 2 5 3 6 4 2 5 1 6
REMARK H PARENT
REMARK Flexibility Score: inf
ROOT
ATOM      1  C   UNL     1      -3.992  -3.970  11.478  1.00  0.00     0.052 C 
ENDROOT
BRANCH   1   2
ATOM      2  C   UNL     1      -3.306  -3.366  10.294  1.00  0.00     0.041 C 
ATOM      3  O   UNL     1      -3.633  -2.220   9.888  1.00  0.00    -0.550 OA
ATOM      4  O   UNL     1      -2.272  -4.049   9.667  1.00  0.00    -0.550 OA
ENDBRANCH   1   2
BRANCH   1   5
ATOM      5  C   UNL     1      -4.690  -5.275  11.086  1.00  0.00     0.003 C 
ATOM      6  C   UNL     1      -5.608  -5.070   9.886  1.00  0.00     0.004 C 
ENDBRANCH   1   5
TORSDOF 2
ENDMDL
MODEL 9
REMARK VINA RESULT:    -2.749     12.557     13.780
REMARK INTER + INTRA:          -3.139
REMARK INTER:                  -3.091
REMARK INTRA:                  -0.048
REMARK UNBOUND:                -0.069
REMARK SMILES CCCC(=O)[O-]
REMARK SMILES IDX 3 1 4 2 5 3 6 4 2 5 1 6
REMARK H PARENT
REMARK Flexibility Score: inf
ROOT
ATOM      1  C   UNL     1      -4.434   6.795   7.035  1.00  0.00     0.052 C 
ENDROOT
BRANCH   1   2
ATOM      2  C   UNL     1      -3.304   6.330   7.897  1.00  0.00     0.041 C 
ATOM      3  O   UNL     1      -2.519   5.436   7.486  1.00  0.00    -0.550 OA
ATOM      4  O   UNL     1      -3.088   6.918   9.136  1.00  0.00    -0.550 OA
ENDBRANCH   1   2
BRANCH   1   5
ATOM      5  C   UNL     1      -4.029   6.767   5.559  1.00  0.00     0.003 C 
ATOM      6  C   UNL     1      -3.326   8.059   5.155  1.00  0.00     0.004 C 
ENDBRANCH   1   5
TORSDOF 2
ENDMDL
