MODEL 1
REMARK VINA RESULT:    -3.211      0.000      0.000
REMARK INTER + INTRA:          -4.301
REMARK INTER:                  -4.150
REMARK INTRA:                  -0.151
REMARK UNBOUND:                -0.151
REMARK SMILES CCCCCCC(=O)[O-]
REMARK SMILES IDX 5 1 6 2 7 3 8 4 9 5 4 6 3 7 2 8 1 9
REMARK H PARENT
REMARK Flexibility Score: inf
ROOT
ATOM      1  C   UNL     1       8.441 -19.788  14.071  1.00  0.00     0.006 C 
ENDROOT
BRANCH   1   2
ATOM      2  C   UNL     1       9.125 -19.558  12.717  1.00  0.00     0.053 C 
BRANCH   2   3
ATOM      3  C   UNL     1       8.139 -19.707  11.602  1.00  0.00     0.041 C 
ATOM      4  O   UNL     1       7.350 -18.766  11.324  1.00  0.00    -0.550 OA
ATOM      5  O   UNL     1       8.125 -20.866  10.836  1.00  0.00    -0.550 OA
ENDBRANCH   2   3
ENDBRANCH   1   2
BRANCH   1   6
ATOM      6  C   UNL     1       8.481 -21.259  14.511  1.00  0.00     0.000 C 
BRANCH   6   7
ATOM      7  C   UNL     1       7.180 -21.706  15.202  1.00  0.00    -0.000 C 
BRANCH   7   8
ATOM      8  C   UNL     1       7.246 -21.561  16.730  1.00  0.00    -0.003 C 
ATOM      9  C   UNL     1       5.863 -21.472  17.374  1.00  0.00     0.004 C 
ENDBRANCH   7   8
ENDBRANCH   6   7
ENDBRANCH   1   6
TORSDOF 5
ENDMDL
MODEL 2
REMARK VINA RESULT:    -3.103      1.172      1.382
REMARK INTER + INTRA:          -4.160
REMARK INTER:                  -3.994
REMARK INTRA:                  -0.167
REMARK UNBOUND:                -0.151
REMARK SMILES CCCCCCC(=O)[O-]
REMARK SMILES IDX 5 1 6 2 7 3 8 4 9 5 4 6 3 7 2 8 1 9
REMARK H PARENT
REMARK Flexibility Score: inf
ROOT
ATOM      1  C   UNL     1       6.909 -21.670  12.702  1.00  0.00     0.006 C 
ENDROOT
BRANCH   1   2
ATOM      2  C   UNL     1       8.285 -21.090  12.352  1.00  0.00     0.053 C 
BRANCH   2   3
ATOM      3  C   UNL     1       8.153 -20.024  11.310  1.00  0.00     0.041 C 
ATOM      4  O   UNL     1       7.653 -18.908  11.605  1.00  0.00    -0.550 OA
ATOM      5  O   UNL     1       8.630 -20.247  10.024  1.00  0.00    -0.550 OA
ENDBRANCH   2   3
ENDBRANCH   1   2
BRANCH   1   6
ATOM      6  C   UNL     1       6.804 -22.098  14.174  1.00  0.00     0.000 C 
BRANCH   6   7
ATOM      7  C   UNL     1       7.724 -21.277  15.095  1.00  0.00    -0.000 C 
BRANCH   7   8
ATOM      8  C   UNL     1       7.647 -21.731  16.561  1.00  0.00    -0.003 C 
ATOM      9  C   UNL     1       6.303 -21.401  17.210  1.00  0.00     0.004 C 
ENDBRANCH   7   8
ENDBRANCH   6   7
ENDBRANCH   1   6
TORSDOF 5
ENDMDL
MODEL 3
REMARK VINA RESULT:    -3.071     18.277     19.326
REMARK INTER + INTRA:          -4.120
REMARK INTER:                  -4.002
REMARK INTRA:                  -0.118
REMARK UNBOUND:                -0.151
REMARK SMILES CCCCCCC(=O)[O-]
REMARK SMILES IDX 5 1 6 2 7 3 8 4 9 5 4 6 3 7 2 8 1 9
REMARK H PARENT
REMARK Flexibility Score: inf
ROOT
ATOM      1  C   UNL     1      -9.923 -20.208  19.201  1.00  0.00     0.006 C 
ENDROOT
BRANCH   1   2
ATOM      2  C   UNL     1     -10.546 -19.604  20.466  1.00  0.00     0.053 C 
BRANCH   2   3
ATOM      3  C   UNL     1     -10.370 -18.119  20.476  1.00  0.00     0.041 C 
ATOM      4  O   UNL     1     -11.104 -17.389  19.759  1.00  0.00    -0.550 OA
ATOM      5  O   UNL     1      -9.429 -17.535  21.315  1.00  0.00    -0.550 OA
ENDBRANCH   2   3
ENDBRANCH   1   2
BRANCH   1   6
ATOM      6  C   UNL     1     -10.974 -20.574  18.141  1.00  0.00     0.000 C 
BRANCH   6   7
ATOM      7  C   UNL     1     -10.343 -21.013  16.808  1.00  0.00    -0.000 C 
BRANCH   7   8
ATOM      8  C   UNL     1     -10.766 -20.118  15.633  1.00  0.00    -0.003 C 
ATOM      9  C   UNL     1      -9.759 -20.136  14.485  1.00  0.00     0.004 C 
ENDBRANCH   7   8
ENDBRANCH   6   7
ENDBRANCH   1   6
TORSDOF 5
ENDMDL
MODEL 4
REMARK VINA RESULT:    -2.771     18.607     19.612
REMARK INTER + INTRA:          -3.732
REMARK INTER:                  -3.647
REMARK INTRA:                  -0.085
REMARK UNBOUND:                -0.151
REMARK SMILES CCCCCCC(=O)[O-]
REMARK SMILES IDX 5 1 6 2 7 3 8 4 9 5 4 6 3 7 2 8 1 9
REMARK H PARENT
REMARK Flexibility Score: inf
ROOT
ATOM      1  C   UNL     1     -10.085 -19.345  19.770  1.00  0.00     0.006 C 
ENDROOT
BRANCH   1   2
ATOM      2  C   UNL     1     -10.387 -18.224  20.772  1.00  0.00     0.053 C 
BRANCH   2   3
ATOM      3  C   UNL     1      -9.839 -18.569  22.121  1.00  0.00     0.041 C 
ATOM      4  O   UNL     1     -10.187 -19.634  22.693  1.00  0.00    -0.550 OA
ATOM      5  O   UNL     1      -8.903 -17.738  22.726  1.00  0.00    -0.550 OA
ENDBRANCH   2   3
ENDBRANCH   1   2
BRANCH   1   6
ATOM      6  C   UNL     1     -11.123 -19.421  18.639  1.00  0.00     0.000 C 
BRANCH   6   7
ATOM      7  C   UNL     1     -10.696 -20.371  17.506  1.00  0.00    -0.000 C 
BRANCH   7   8
ATOM      8  C   UNL     1     -10.870 -19.744  16.115  1.00  0.00    -0.003 C 
ATOM      9  C   UNL     1     -10.106 -20.499  15.028  1.00  0.00     0.004 C 
ENDBRANCH   7   8
ENDBRANCH   6   7
ENDBRANCH   1   6
TORSDOF 5
ENDMDL
MODEL 5
REMARK VINA RESULT:    -2.758     19.081     19.643
REMARK INTER + INTRA:          -3.716
REMARK INTER:                  -3.500
REMARK INTRA:                  -0.216
REMARK UNBOUND:                -0.151
REMARK SMILES CCCCCCC(=O)[O-]
REMARK SMILES IDX 5 1 6 2 7 3 8 4 9 5 4 6 3 7 2 8 1 9
REMARK H PARENT
REMARK Flexibility Score: inf
ROOT
ATOM      1  C   UNL     1      -9.600 -18.994  22.400  1.00  0.00     0.006 C 
ENDROOT
BRANCH   1   2
ATOM      2  C   UNL     1      -9.675 -17.880  21.349  1.00  0.00     0.053 C 
BRANCH   2   3
ATOM      3  C   UNL     1     -10.329 -18.383  20.101  1.00  0.00     0.041 C 
ATOM      4  O   UNL     1     -11.123 -17.646  19.460  1.00  0.00    -0.550 OA
ATOM      5  O   UNL     1     -10.023 -19.649  19.616  1.00  0.00    -0.550 OA
ENDBRANCH   2   3
ENDBRANCH   1   2
BRANCH   1   6
ATOM      6  C   UNL     1     -10.978 -19.585  22.734  1.00  0.00     0.000 C 
BRANCH   6   7
ATOM      7  C   UNL     1     -10.903 -21.065  23.150  1.00  0.00    -0.000 C 
BRANCH   7   8
ATOM      8  C   UNL     1      -9.705 -21.793  22.521  1.00  0.00    -0.003 C 
ATOM      9  C   UNL     1      -8.799 -22.446  23.563  1.00  0.00     0.004 C 
ENDBRANCH   7   8
ENDBRANCH   6   7
ENDBRANCH   1   6
TORSDOF 5
ENDMDL
MODEL 6
REMARK VINA RESULT:    -2.753      2.666      4.968
REMARK INTER + INTRA:          -3.709
REMARK INTER:                  -3.568
REMARK INTRA:                  -0.141
REMARK UNBOUND:                -0.151
REMARK SMILES CCCCCCC(=O)[O-]
REMARK SMILES IDX 5 1 6 2 7 3 8 4 9 5 4 6 3 7 2 8 1 9
REMARK H PARENT
REMARK Flexibility Score: inf
ROOT
ATOM      1  C   UNL     1       8.406 -19.745  14.112  1.00  0.00     0.006 C 
ENDROOT
BRANCH   1   2
ATOM      2  C   UNL     1       8.502 -21.219  14.525  1.00  0.00     0.053 C 
BRANCH   2   3
ATOM      3  C   UNL     1       7.295 -21.620  15.314  1.00  0.00     0.041 C 
ATOM      4  O   UNL     1       6.396 -22.322  14.782  1.00  0.00    -0.550 OA
ATOM      5  O   UNL     1       7.187 -21.261  16.652  1.00  0.00    -0.550 OA
ENDBRANCH   2   3
ENDBRANCH   1   2
BRANCH   1   6
ATOM      6  C   UNL     1       9.016 -19.478  12.727  1.00  0.00     0.000 C 
BRANCH   6   7
ATOM      7  C   UNL     1       7.995 -19.647  11.588  1.00  0.00    -0.000 C 
BRANCH   7   8
ATOM      8  C   UNL     1       8.316 -20.846  10.682  1.00  0.00    -0.003 C 
ATOM      9  C   UNL     1       8.439 -20.456   9.210  1.00  0.00     0.004 C 
ENDBRANCH   7   8
ENDBRANCH   6   7
ENDBRANCH   1   6
TORSDOF 5
ENDMDL
MODEL 7
REMARK VINA RESULT:    -2.753     19.287     19.882
REMARK INTER + INTRA:          -3.708
REMARK INTER:                  -3.352
REMARK INTRA:                  -0.356
REMARK UNBOUND:                -0.151
REMARK SMILES CCCCCCC(=O)[O-]
REMARK SMILES IDX 5 1 6 2 7 3 8 4 9 5 4 6 3 7 2 8 1 9
REMARK H PARENT
REMARK Flexibility Score: inf
ROOT
ATOM      1  C   UNL     1      -9.299 -18.745  22.398  1.00  0.00     0.006 C 
ENDROOT
BRANCH   1   2
ATOM      2  C   UNL     1     -10.315 -19.852  22.709  1.00  0.00     0.053 C 
BRANCH   2   3
ATOM      3  C   UNL     1      -9.671 -21.198  22.594  1.00  0.00     0.041 C 
ATOM      4  O   UNL     1      -8.667 -21.482  23.299  1.00  0.00    -0.550 OA
ATOM      5  O   UNL     1     -10.209 -22.157  21.745  1.00  0.00    -0.550 OA
ENDBRANCH   2   3
ENDBRANCH   1   2
BRANCH   1   6
ATOM      6  C   UNL     1      -9.732 -17.861  21.218  1.00  0.00     0.000 C 
BRANCH   6   7
ATOM      7  C   UNL     1     -11.125 -18.233  20.679  1.00  0.00    -0.000 C 
BRANCH   7   8
ATOM      8  C   UNL     1     -11.100 -18.604  19.188  1.00  0.00    -0.003 C 
ATOM      9  C   UNL     1     -10.542 -20.004  18.938  1.00  0.00     0.004 C 
ENDBRANCH   7   8
ENDBRANCH   6   7
ENDBRANCH   1   6
TORSDOF 5
ENDMDL
MODEL 8
REMARK VINA RESULT:    -2.710     17.729     18.776
REMARK INTER + INTRA:          -3.653
REMARK INTER:                  -3.445
REMARK INTRA:                  -0.208
REMARK UNBOUND:                -0.151
REMARK SMILES CCCCCCC(=O)[O-]
REMARK SMILES IDX 5 1 6 2 7 3 8 4 9 5 4 6 3 7 2 8 1 9
REMARK H PARENT
REMARK Flexibility Score: inf
ROOT
ATOM      1  C   UNL     1     -10.313 -20.313  19.961  1.00  0.00     0.006 C 
ENDROOT
BRANCH   1   2
ATOM      2  C   UNL     1     -10.581 -21.342  18.855  1.00  0.00     0.053 C 
BRANCH   2   3
ATOM      3  C   UNL     1      -9.506 -21.283  17.816  1.00  0.00     0.041 C 
ATOM      4  O   UNL     1      -8.325 -21.605  18.107  1.00  0.00    -0.550 OA
ATOM      5  O   UNL     1      -9.819 -20.920  16.512  1.00  0.00    -0.550 OA
ENDBRANCH   2   3
ENDBRANCH   1   2
BRANCH   1   6
ATOM      6  C   UNL     1     -10.763 -18.897  19.572  1.00  0.00     0.000 C 
BRANCH   6   7
ATOM      7  C   UNL     1     -10.353 -17.838  20.612  1.00  0.00    -0.000 C 
BRANCH   7   8
ATOM      8  C   UNL     1     -10.010 -18.456  21.976  1.00  0.00    -0.003 C 
ATOM      9  C   UNL     1      -8.949 -17.659  22.734  1.00  0.00     0.004 C 
ENDBRANCH   7   8
ENDBRANCH   6   7
ENDBRANCH   1   6
TORSDOF 5
ENDMDL
MODEL 9
REMARK VINA RESULT:    -0.931     19.030     19.745
REMARK INTER + INTRA:          -1.354
REMARK INTER:                  -0.966
REMARK INTRA:                  -0.388
REMARK UNBOUND:                -0.151
REMARK SMILES CCCCCCC(=O)[O-]
REMARK SMILES IDX 5 1 6 2 7 3 8 4 9 5 4 6 3 7 2 8 1 9
REMARK H PARENT
REMARK Flexibility Score: inf
ROOT
ATOM      1  C   UNL     1     -11.125 -18.293  20.309  1.00  0.00     0.006 C 
ENDROOT
BRANCH   1   2
ATOM      2  C   UNL     1      -9.726 -18.014  20.872  1.00  0.00     0.053 C 
BRANCH   2   3
ATOM      3  C   UNL     1      -9.738 -18.099  22.366  1.00  0.00     0.041 C 
ATOM      4  O   UNL     1      -8.870 -17.489  23.043  1.00  0.00    -0.550 OA
ATOM      5  O   UNL     1     -10.740 -18.812  23.014  1.00  0.00    -0.550 OA
ENDBRANCH   2   3
ENDBRANCH   1   2
BRANCH   1   6
ATOM      6  C   UNL     1     -11.095 -19.233  19.093  1.00  0.00     0.000 C 
BRANCH   6   7
ATOM      7  C   UNL     1     -10.023 -20.330  19.218  1.00  0.00    -0.000 C 
BRANCH   7   8
ATOM      8  C   UNL     1     -10.541 -21.579  19.947  1.00  0.00    -0.003 C 
ATOM      9  C   UNL     1      -9.865 -21.795  21.301  1.00  0.00     0.004 C 
ENDBRANCH   7   8
ENDBRANCH   6   7
ENDBRANCH   1   6
TORSDOF 5
ENDMDL
