MODEL 1
REMARK VINA RESULT:    -7.215      0.000      0.000
REMARK INTER + INTRA:          -7.845
REMARK INTER:                  -7.637
REMARK INTRA:                  -0.208
REMARK UNBOUND:                -0.208
REMARK SMILES CC1=CC[C@@]23[C@@H]([C@@H]12)[C@H](C(C)C)CC[C@@H]3C
REMARK SMILES IDX 15 1 14 2 13 3 12 4 8 5 6 6 5 7 7 8 2 9 3 10 4 11 1 12 9 13
REMARK SMILES IDX 10 14 11 15
REMARK H PARENT
REMARK Flexibility Score: inf
ROOT
ATOM      1  C   UNL     1       4.753  15.124   3.797  1.00  0.00     0.008 C 
ATOM      2  C   UNL     1       4.017  13.960   3.109  1.00  0.00    -0.007 C 
ATOM      3  C   UNL     1       3.894  12.762   4.072  1.00  0.00     0.004 C 
ATOM      4  C   UNL     1       2.760  12.947   5.080  1.00  0.00     0.004 C 
ATOM      5  C   UNL     1       1.385  12.944   4.380  1.00  0.00    -0.004 C 
ATOM      6  C   UNL     1       1.346  13.993   3.234  1.00  0.00     0.007 C 
ATOM      7  C   UNL     1       2.649  14.440   2.551  1.00  0.00    -0.013 C 
ATOM      8  C   UNL     1       1.756  13.397   1.881  1.00  0.00     0.025 C 
ATOM      9  C   UNL     1       1.208  14.088   0.680  1.00  0.00    -0.073 C 
ATOM     10  C   UNL     1       1.659  15.327   0.551  1.00  0.00    -0.027 C 
ATOM     11  C   UNL     1       2.592  15.691   1.653  1.00  0.00     0.035 C 
ATOM     12  C   UNL     1       0.242  13.456  -0.273  1.00  0.00     0.039 C 
ENDROOT
BRANCH   5  13
ATOM     13  C   UNL     1       0.204  13.194   5.372  1.00  0.00    -0.014 C 
ATOM     14  C   UNL     1       0.668  13.762   6.727  1.00  0.00     0.007 C 
ATOM     15  C   UNL     1      -0.582  11.895   5.631  1.00  0.00     0.007 C 
ENDBRANCH   5  13
TORSDOF 1
ENDMDL
MODEL 2
REMARK VINA RESULT:    -6.651      1.590      5.188
REMARK INTER + INTRA:          -7.248
REMARK INTER:                  -6.966
REMARK INTRA:                  -0.282
REMARK UNBOUND:                -0.208
REMARK SMILES CC1=CC[C@@]23[C@@H]([C@@H]12)[C@H](C(C)C)CC[C@@H]3C
REMARK SMILES IDX 15 1 14 2 13 3 12 4 8 5 6 6 5 7 7 8 2 9 3 10 4 11 1 12 9 13
REMARK SMILES IDX 10 14 11 15
REMARK H PARENT
REMARK Flexibility Score: inf
ROOT
ATOM      1  C   UNL     1      -1.840  14.966   2.850  1.00  0.00     0.008 C 
ATOM      2  C   UNL     1      -0.786  14.060   2.189  1.00  0.00    -0.007 C 
ATOM      3  C   UNL     1      -0.608  14.441   0.705  1.00  0.00     0.004 C 
ATOM      4  C   UNL     1       0.274  15.678   0.530  1.00  0.00     0.004 C 
ATOM      5  C   UNL     1       1.726  15.394   0.969  1.00  0.00    -0.004 C 
ATOM      6  C   UNL     1       1.765  14.829   2.417  1.00  0.00     0.007 C 
ATOM      7  C   UNL     1       0.542  14.098   2.994  1.00  0.00    -0.013 C 
ATOM      8  C   UNL     1       1.722  13.296   2.447  1.00  0.00     0.025 C 
ATOM      9  C   UNL     1       2.331  12.659   3.649  1.00  0.00    -0.073 C 
ATOM     10  C   UNL     1       1.681  12.947   4.767  1.00  0.00    -0.027 C 
ATOM     11  C   UNL     1       0.517  13.839   4.513  1.00  0.00     0.035 C 
ATOM     12  C   UNL     1       3.553  11.795   3.601  1.00  0.00     0.039 C 
ENDROOT
BRANCH   5  13
ATOM     13  C   UNL     1       2.643  16.655   0.863  1.00  0.00    -0.014 C 
ATOM     14  C   UNL     1       3.282  16.818  -0.529  1.00  0.00     0.007 C 
ATOM     15  C   UNL     1       3.767  16.608   1.914  1.00  0.00     0.007 C 
ENDBRANCH   5  13
TORSDOF 1
ENDMDL
MODEL 3
REMARK VINA RESULT:    -6.287      1.534      3.731
REMARK INTER + INTRA:          -6.863
REMARK INTER:                  -6.563
REMARK INTRA:                  -0.300
REMARK UNBOUND:                -0.208
REMARK SMILES CC1=CC[C@@]23[C@@H]([C@@H]12)[C@H](C(C)C)CC[C@@H]3C
REMARK SMILES IDX 15 1 14 2 13 3 12 4 8 5 6 6 5 7 7 8 2 9 3 10 4 11 1 12 9 13
REMARK SMILES IDX 10 14 11 15
REMARK H PARENT
REMARK Flexibility Score: inf
ROOT
ATOM      1  C   UNL     1      -0.709  13.831   0.145  1.00  0.00     0.008 C 
ATOM      2  C   UNL     1      -0.154  14.926   1.074  1.00  0.00    -0.007 C 
ATOM      3  C   UNL     1      -0.694  14.736   2.505  1.00  0.00     0.004 C 
ATOM      4  C   UNL     1       0.059  13.643   3.265  1.00  0.00     0.004 C 
ATOM      5  C   UNL     1       1.525  14.051   3.521  1.00  0.00    -0.004 C 
ATOM      6  C   UNL     1       2.227  14.452   2.194  1.00  0.00     0.007 C 
ATOM      7  C   UNL     1       1.397  14.960   1.004  1.00  0.00    -0.013 C 
ATOM      8  C   UNL     1       2.123  15.955   1.908  1.00  0.00     0.025 C 
ATOM      9  C   UNL     1       3.200  16.525   1.051  1.00  0.00    -0.073 C 
ATOM     10  C   UNL     1       3.187  16.036  -0.181  1.00  0.00    -0.027 C 
ATOM     11  C   UNL     1       2.093  15.044  -0.369  1.00  0.00     0.035 C 
ATOM     12  C   UNL     1       4.200  17.530   1.531  1.00  0.00     0.039 C 
ENDROOT
BRANCH   5  13
ATOM     13  C   UNL     1       2.343  12.931   4.241  1.00  0.00    -0.014 C 
ATOM     14  C   UNL     1       2.695  13.285   5.698  1.00  0.00     0.007 C 
ATOM     15  C   UNL     1       3.650  12.630   3.482  1.00  0.00     0.007 C 
ENDBRANCH   5  13
TORSDOF 1
ENDMDL
MODEL 4
REMARK VINA RESULT:    -6.228      0.906      1.223
REMARK INTER + INTRA:          -6.801
REMARK INTER:                  -6.469
REMARK INTRA:                  -0.332
REMARK UNBOUND:                -0.208
REMARK SMILES CC1=CC[C@@]23[C@@H]([C@@H]12)[C@H](C(C)C)CC[C@@H]3C
REMARK SMILES IDX 15 1 14 2 13 3 12 4 8 5 6 6 5 7 7 8 2 9 3 10 4 11 1 12 9 13
REMARK SMILES IDX 10 14 11 15
REMARK H PARENT
REMARK Flexibility Score: inf
ROOT
ATOM      1  C   UNL     1       4.092  16.262   2.988  1.00  0.00     0.008 C 
ATOM      2  C   UNL     1       3.753  14.870   2.427  1.00  0.00    -0.007 C 
ATOM      3  C   UNL     1       4.163  13.774   3.431  1.00  0.00     0.004 C 
ATOM      4  C   UNL     1       3.146  13.619   4.562  1.00  0.00     0.004 C 
ATOM      5  C   UNL     1       1.799  13.085   4.031  1.00  0.00    -0.004 C 
ATOM      6  C   UNL     1       1.273  13.973   2.868  1.00  0.00     0.007 C 
ATOM      7  C   UNL     1       2.255  14.799   2.022  1.00  0.00    -0.013 C 
ATOM      8  C   UNL     1       1.729  13.466   1.494  1.00  0.00     0.025 C 
ATOM      9  C   UNL     1       0.852  13.836   0.347  1.00  0.00    -0.073 C 
ATOM     10  C   UNL     1       0.817  15.143   0.130  1.00  0.00    -0.027 C 
ATOM     11  C   UNL     1       1.665  15.886   1.102  1.00  0.00     0.035 C 
ATOM     12  C   UNL     1       0.082  12.842  -0.465  1.00  0.00     0.039 C 
ENDROOT
BRANCH   5  13
ATOM     13  C   UNL     1       0.714  12.974   5.150  1.00  0.00    -0.014 C 
ATOM     14  C   UNL     1      -0.582  13.733   4.809  1.00  0.00     0.007 C 
ATOM     15  C   UNL     1       1.251  13.503   6.493  1.00  0.00     0.007 C 
ENDBRANCH   5  13
TORSDOF 1
ENDMDL
MODEL 5
REMARK VINA RESULT:    -6.186      1.224      4.406
REMARK INTER + INTRA:          -6.756
REMARK INTER:                  -6.428
REMARK INTRA:                  -0.328
REMARK UNBOUND:                -0.208
REMARK SMILES CC1=CC[C@@]23[C@@H]([C@@H]12)[C@H](C(C)C)CC[C@@H]3C
REMARK SMILES IDX 15 1 14 2 13 3 12 4 8 5 6 6 5 7 7 8 2 9 3 10 4 11 1 12 9 13
REMARK SMILES IDX 10 14 11 15
REMARK H PARENT
REMARK Flexibility Score: inf
ROOT
ATOM      1  C   UNL     1       3.492  11.669   3.820  1.00  0.00     0.008 C 
ATOM      2  C   UNL     1       2.894  12.975   4.372  1.00  0.00    -0.007 C 
ATOM      3  C   UNL     1       3.510  14.191   3.651  1.00  0.00     0.004 C 
ATOM      4  C   UNL     1       2.880  14.426   2.277  1.00  0.00     0.004 C 
ATOM      5  C   UNL     1       1.399  14.841   2.407  1.00  0.00    -0.004 C 
ATOM      6  C   UNL     1       0.610  13.809   3.260  1.00  0.00     0.007 C 
ATOM      7  C   UNL     1       1.344  12.937   4.292  1.00  0.00    -0.013 C 
ATOM      8  C   UNL     1       0.582  14.181   4.748  1.00  0.00     0.025 C 
ATOM      9  C   UNL     1      -0.574  13.649   5.524  1.00  0.00    -0.073 C 
ATOM     10  C   UNL     1      -0.576  12.326   5.599  1.00  0.00    -0.027 C 
ATOM     11  C   UNL     1       0.583  11.731   4.878  1.00  0.00     0.035 C 
ATOM     12  C   UNL     1      -1.628  14.514   6.142  1.00  0.00     0.039 C 
ENDROOT
BRANCH   5  13
ATOM     13  C   UNL     1       0.705  15.028   1.019  1.00  0.00    -0.014 C 
ATOM     14  C   UNL     1      -0.788  15.387   1.138  1.00  0.00     0.007 C 
ATOM     15  C   UNL     1       0.834  13.755   0.162  1.00  0.00     0.007 C 
ENDBRANCH   5  13
TORSDOF 1
ENDMDL
MODEL 6
REMARK VINA RESULT:    -5.908      1.139      4.752
REMARK INTER + INTRA:          -6.462
REMARK INTER:                  -6.252
REMARK INTRA:                  -0.210
REMARK UNBOUND:                -0.208
REMARK SMILES CC1=CC[C@@]23[C@@H]([C@@H]12)[C@H](C(C)C)CC[C@@H]3C
REMARK SMILES IDX 15 1 14 2 13 3 12 4 8 5 6 6 5 7 7 8 2 9 3 10 4 11 1 12 9 13
REMARK SMILES IDX 10 14 11 15
REMARK H PARENT
REMARK Flexibility Score: inf
ROOT
ATOM      1  C   UNL     1       3.504  16.349   0.842  1.00  0.00     0.008 C 
ATOM      2  C   UNL     1       2.186  16.077   1.590  1.00  0.00    -0.007 C 
ATOM      3  C   UNL     1       0.981  16.435   0.699  1.00  0.00     0.004 C 
ATOM      4  C   UNL     1       0.679  15.342  -0.328  1.00  0.00     0.004 C 
ATOM      5  C   UNL     1       0.201  14.046   0.361  1.00  0.00    -0.004 C 
ATOM      6  C   UNL     1       1.219  13.589   1.444  1.00  0.00     0.007 C 
ATOM      7  C   UNL     1       2.151  14.614   2.109  1.00  0.00    -0.013 C 
ATOM      8  C   UNL     1       0.887  14.151   2.832  1.00  0.00     0.025 C 
ATOM      9  C   UNL     1       1.386  13.352   3.987  1.00  0.00    -0.073 C 
ATOM     10  C   UNL     1       2.709  13.308   4.046  1.00  0.00    -0.027 C 
ATOM     11  C   UNL     1       3.336  14.071   2.933  1.00  0.00     0.035 C 
ATOM     12  C   UNL     1       0.490  12.661   4.967  1.00  0.00     0.039 C 
ENDROOT
BRANCH   5  13
ATOM     13  C   UNL     1      -0.056  12.886  -0.654  1.00  0.00    -0.014 C 
ATOM     14  C   UNL     1       0.616  13.121  -2.019  1.00  0.00     0.007 C 
ATOM     15  C   UNL     1      -1.565  12.679  -0.882  1.00  0.00     0.007 C 
ENDBRANCH   5  13
TORSDOF 1
ENDMDL
MODEL 7
REMARK VINA RESULT:    -5.875      1.238      1.518
REMARK INTER + INTRA:          -6.427
REMARK INTER:                  -6.180
REMARK INTRA:                  -0.247
REMARK UNBOUND:                -0.208
REMARK SMILES CC1=CC[C@@]23[C@@H]([C@@H]12)[C@H](C(C)C)CC[C@@H]3C
REMARK SMILES IDX 15 1 14 2 13 3 12 4 8 5 6 6 5 7 7 8 2 9 3 10 4 11 1 12 9 13
REMARK SMILES IDX 10 14 11 15
REMARK H PARENT
REMARK Flexibility Score: inf
ROOT
ATOM      1  C   UNL     1       4.076  14.127   4.433  1.00  0.00     0.008 C 
ATOM      2  C   UNL     1       3.072  13.288   3.623  1.00  0.00    -0.007 C 
ATOM      3  C   UNL     1       2.363  12.271   4.539  1.00  0.00     0.004 C 
ATOM      4  C   UNL     1       1.241  12.915   5.355  1.00  0.00     0.004 C 
ATOM      5  C   UNL     1       0.090  13.389   4.443  1.00  0.00    -0.004 C 
ATOM      6  C   UNL     1       0.624  14.319   3.318  1.00  0.00     0.007 C 
ATOM      7  C   UNL     1       2.087  14.214   2.858  1.00  0.00    -0.013 C 
ATOM      8  C   UNL     1       0.981  13.547   2.041  1.00  0.00     0.025 C 
ATOM      9  C   UNL     1       0.924  14.332   0.776  1.00  0.00    -0.073 C 
ATOM     10  C   UNL     1       1.821  15.306   0.736  1.00  0.00    -0.027 C 
ATOM     11  C   UNL     1       2.642  15.350   1.977  1.00  0.00     0.035 C 
ATOM     12  C   UNL     1      -0.051  14.059  -0.327  1.00  0.00     0.039 C 
ENDROOT
BRANCH   5  13
ATOM     13  C   UNL     1      -1.048  14.109   5.236  1.00  0.00    -0.014 C 
ATOM     14  C   UNL     1      -1.805  13.167   6.189  1.00  0.00     0.007 C 
ATOM     15  C   UNL     1      -2.065  14.754   4.276  1.00  0.00     0.007 C 
ENDBRANCH   5  13
TORSDOF 1
ENDMDL
MODEL 8
REMARK VINA RESULT:    -5.553      2.735      5.632
REMARK INTER + INTRA:          -6.086
REMARK INTER:                  -5.801
REMARK INTRA:                  -0.285
REMARK UNBOUND:                -0.208
REMARK SMILES CC1=CC[C@@]23[C@@H]([C@@H]12)[C@H](C(C)C)CC[C@@H]3C
REMARK SMILES IDX 15 1 14 2 13 3 12 4 8 5 6 6 5 7 7 8 2 9 3 10 4 11 1 12 9 13
REMARK SMILES IDX 10 14 11 15
REMARK H PARENT
REMARK Flexibility Score: inf
ROOT
ATOM      1  C   UNL     1      -0.876  11.500   6.857  1.00  0.00     0.008 C 
ATOM      2  C   UNL     1      -0.677  13.023   6.770  1.00  0.00    -0.007 C 
ATOM      3  C   UNL     1       0.740  13.350   6.260  1.00  0.00     0.004 C 
ATOM      4  C   UNL     1       0.854  13.200   4.742  1.00  0.00     0.004 C 
ATOM      5  C   UNL     1      -0.005  14.254   4.012  1.00  0.00    -0.004 C 
ATOM      6  C   UNL     1      -1.477  14.208   4.511  1.00  0.00     0.007 C 
ATOM      7  C   UNL     1      -1.801  13.667   5.913  1.00  0.00    -0.013 C 
ATOM      8  C   UNL     1      -1.730  15.175   5.674  1.00  0.00     0.025 C 
ATOM      9  C   UNL     1      -3.136  15.645   5.827  1.00  0.00    -0.073 C 
ATOM     10  C   UNL     1      -3.974  14.665   6.133  1.00  0.00    -0.027 C 
ATOM     11  C   UNL     1      -3.275  13.355   6.235  1.00  0.00     0.035 C 
ATOM     12  C   UNL     1      -3.560  17.069   5.643  1.00  0.00     0.039 C 
ENDROOT
BRANCH   5  13
ATOM     13  C   UNL     1       0.036  14.091   2.458  1.00  0.00    -0.014 C 
ATOM     14  C   UNL     1       1.171  14.898   1.800  1.00  0.00     0.007 C 
ATOM     15  C   UNL     1      -1.300  14.521   1.823  1.00  0.00     0.007 C 
ENDBRANCH   5  13
TORSDOF 1
ENDMDL
