MODEL 1
REMARK VINA RESULT:    -3.339      0.000      0.000
REMARK INTER + INTRA:          -4.658
REMARK INTER:                  -4.314
REMARK INTRA:                  -0.344
REMARK UNBOUND:                -0.344
REMARK SMILES CCCCCCC(=O)[O-]
REMARK SMILES IDX 5 1 6 2 7 3 8 4 9 5 4 6 3 7 2 8 1 9
REMARK H PARENT
REMARK Flexibility Score: inf
ROOT
ATOM      1  C   UNL     1      -7.466   3.815  51.225  1.00  0.00     0.006 C 
ENDROOT
BRANCH   1   2
ATOM      2  C   UNL     1      -7.548   5.338  51.387  1.00  0.00     0.053 C 
BRANCH   2   3
ATOM      3  C   UNL     1      -8.945   5.750  51.730  1.00  0.00     0.041 C 
ATOM      4  O   UNL     1      -9.279   5.918  52.933  1.00  0.00    -0.550 OA
ATOM      5  O   UNL     1      -9.866   5.997  50.720  1.00  0.00    -0.550 OA
ENDBRANCH   2   3
ENDBRANCH   1   2
BRANCH   1   6
ATOM      6  C   UNL     1      -7.055   3.104  52.524  1.00  0.00     0.000 C 
BRANCH   6   7
ATOM      7  C   UNL     1      -5.809   3.727  53.171  1.00  0.00    -0.000 C 
BRANCH   7   8
ATOM      8  C   UNL     1      -5.916   3.707  54.700  1.00  0.00    -0.003 C 
ATOM      9  C   UNL     1      -6.669   4.930  55.216  1.00  0.00     0.004 C 
ENDBRANCH   7   8
ENDBRANCH   6   7
ENDBRANCH   1   6
TORSDOF 5
ENDMDL
MODEL 2
REMARK VINA RESULT:    -3.185      9.197     10.702
REMARK INTER + INTRA:          -4.459
REMARK INTER:                  -4.216
REMARK INTRA:                  -0.243
REMARK UNBOUND:                -0.344
REMARK SMILES CCCCCCC(=O)[O-]
REMARK SMILES IDX 5 1 6 2 7 3 8 4 9 5 4 6 3 7 2 8 1 9
REMARK H PARENT
REMARK Flexibility Score: inf
ROOT
ATOM      1  C   UNL     1       2.073   0.929  55.711  1.00  0.00     0.006 C 
ENDROOT
BRANCH   1   2
ATOM      2  C   UNL     1       0.990   1.791  56.372  1.00  0.00     0.053 C 
BRANCH   2   3
ATOM      3  C   UNL     1      -0.264   0.998  56.559  1.00  0.00     0.041 C 
ATOM      4  O   UNL     1      -1.297   1.547  57.026  1.00  0.00    -0.550 OA
ATOM      5  O   UNL     1      -0.308  -0.335  56.173  1.00  0.00    -0.550 OA
ENDBRANCH   2   3
ENDBRANCH   1   2
BRANCH   1   6
ATOM      6  C   UNL     1       2.337   1.328  54.250  1.00  0.00     0.000 C 
BRANCH   6   7
ATOM      7  C   UNL     1       2.993   0.201  53.439  1.00  0.00    -0.000 C 
BRANCH   7   8
ATOM      8  C   UNL     1       2.130  -1.066  53.462  1.00  0.00    -0.003 C 
ATOM      9  C   UNL     1       2.929  -2.268  53.957  1.00  0.00     0.004 C 
ENDBRANCH   7   8
ENDBRANCH   6   7
ENDBRANCH   1   6
TORSDOF 5
ENDMDL
MODEL 3
REMARK VINA RESULT:    -3.175      1.807      3.896
REMARK INTER + INTRA:          -4.447
REMARK INTER:                  -4.116
REMARK INTRA:                  -0.330
REMARK UNBOUND:                -0.344
REMARK SMILES CCCCCCC(=O)[O-]
REMARK SMILES IDX 5 1 6 2 7 3 8 4 9 5 4 6 3 7 2 8 1 9
REMARK H PARENT
REMARK Flexibility Score: inf
ROOT
ATOM      1  C   UNL     1      -5.988   3.832  53.150  1.00  0.00     0.006 C 
ENDROOT
BRANCH   1   2
ATOM      2  C   UNL     1      -5.962   3.804  54.683  1.00  0.00     0.053 C 
BRANCH   2   3
ATOM      3  C   UNL     1      -6.593   5.042  55.238  1.00  0.00     0.041 C 
ATOM      4  O   UNL     1      -7.598   5.548  54.674  1.00  0.00    -0.550 OA
ATOM      5  O   UNL     1      -6.101   5.610  56.406  1.00  0.00    -0.550 OA
ENDBRANCH   2   3
ENDBRANCH   1   2
BRANCH   1   6
ATOM      6  C   UNL     1      -6.948   2.789  52.555  1.00  0.00     0.000 C 
BRANCH   6   7
ATOM      7  C   UNL     1      -7.712   3.319  51.332  1.00  0.00    -0.000 C 
BRANCH   7   8
ATOM      8  C   UNL     1      -7.438   4.812  51.117  1.00  0.00    -0.003 C 
ATOM      9  C   UNL     1      -8.714   5.634  51.262  1.00  0.00     0.004 C 
ENDBRANCH   7   8
ENDBRANCH   6   7
ENDBRANCH   1   6
TORSDOF 5
ENDMDL
MODEL 4
REMARK VINA RESULT:    -3.139      1.533      2.211
REMARK INTER + INTRA:          -4.401
REMARK INTER:                  -4.166
REMARK INTRA:                  -0.235
REMARK UNBOUND:                -0.344
REMARK SMILES CCCCCCC(=O)[O-]
REMARK SMILES IDX 5 1 6 2 7 3 8 4 9 5 4 6 3 7 2 8 1 9
REMARK H PARENT
REMARK Flexibility Score: inf
ROOT
ATOM      1  C   UNL     1      -6.602   3.780  52.996  1.00  0.00     0.006 C 
ENDROOT
BRANCH   1   2
ATOM      2  C   UNL     1      -7.675   4.860  52.813  1.00  0.00     0.053 C 
BRANCH   2   3
ATOM      3  C   UNL     1      -7.806   5.225  51.368  1.00  0.00     0.041 C 
ATOM      4  O   UNL     1      -8.851   5.787  50.947  1.00  0.00    -0.550 OA
ATOM      5  O   UNL     1      -6.753   4.989  50.493  1.00  0.00    -0.550 OA
ENDBRANCH   2   3
ENDBRANCH   1   2
BRANCH   1   6
ATOM      6  C   UNL     1      -5.754   3.996  54.259  1.00  0.00     0.000 C 
BRANCH   6   7
ATOM      7  C   UNL     1      -6.609   4.152  55.526  1.00  0.00    -0.000 C 
BRANCH   7   8
ATOM      8  C   UNL     1      -6.292   5.470  56.243  1.00  0.00    -0.003 C 
ATOM      9  C   UNL     1      -7.440   6.464  56.105  1.00  0.00     0.004 C 
ENDBRANCH   7   8
ENDBRANCH   6   7
ENDBRANCH   1   6
TORSDOF 5
ENDMDL
MODEL 5
REMARK VINA RESULT:    -3.134     10.262     11.607
REMARK INTER + INTRA:          -4.394
REMARK INTER:                  -4.210
REMARK INTRA:                  -0.184
REMARK UNBOUND:                -0.344
REMARK SMILES CCCCCCC(=O)[O-]
REMARK SMILES IDX 5 1 6 2 7 3 8 4 9 5 4 6 3 7 2 8 1 9
REMARK H PARENT
REMARK Flexibility Score: inf
ROOT
ATOM      1  C   UNL     1       3.033  -1.874  53.908  1.00  0.00     0.006 C 
ENDROOT
BRANCH   1   2
ATOM      2  C   UNL     1       2.741  -0.527  53.236  1.00  0.00     0.053 C 
BRANCH   2   3
ATOM      3  C   UNL     1       2.767   0.575  54.247  1.00  0.00     0.041 C 
ATOM      4  O   UNL     1       2.417   1.741  53.924  1.00  0.00    -0.550 OA
ATOM      5  O   UNL     1       3.132   0.306  55.560  1.00  0.00    -0.550 OA
ENDBRANCH   2   3
ENDBRANCH   1   2
BRANCH   1   6
ATOM      6  C   UNL     1       1.834  -2.834  53.855  1.00  0.00     0.000 C 
BRANCH   6   7
ATOM      7  C   UNL     1       0.554  -2.154  53.347  1.00  0.00    -0.000 C 
BRANCH   7   8
ATOM      8  C   UNL     1      -0.260  -3.107  52.463  1.00  0.00    -0.003 C 
ATOM      9  C   UNL     1      -1.327  -2.354  51.676  1.00  0.00     0.004 C 
ENDBRANCH   7   8
ENDBRANCH   6   7
ENDBRANCH   1   6
TORSDOF 5
ENDMDL
MODEL 6
REMARK VINA RESULT:    -3.129      1.500      1.886
REMARK INTER + INTRA:          -4.387
REMARK INTER:                  -4.040
REMARK INTRA:                  -0.347
REMARK UNBOUND:                -0.344
REMARK SMILES CCCCCCC(=O)[O-]
REMARK SMILES IDX 5 1 6 2 7 3 8 4 9 5 4 6 3 7 2 8 1 9
REMARK H PARENT
REMARK Flexibility Score: inf
ROOT
ATOM      1  C   UNL     1      -8.129   5.751  51.804  1.00  0.00     0.006 C 
ENDROOT
BRANCH   1   2
ATOM      2  C   UNL     1      -9.440   5.696  51.010  1.00  0.00     0.053 C 
BRANCH   2   3
ATOM      3  C   UNL     1     -10.171   4.423  51.299  1.00  0.00     0.041 C 
ATOM      4  O   UNL     1     -10.548   4.160  52.472  1.00  0.00    -0.550 OA
ATOM      5  O   UNL     1     -10.479   3.548  50.266  1.00  0.00    -0.550 OA
ENDBRANCH   2   3
ENDBRANCH   1   2
BRANCH   1   6
ATOM      6  C   UNL     1      -7.117   4.688  51.348  1.00  0.00     0.000 C 
BRANCH   6   7
ATOM      7  C   UNL     1      -6.659   3.777  52.497  1.00  0.00    -0.000 C 
BRANCH   7   8
ATOM      8  C   UNL     1      -7.080   4.352  53.855  1.00  0.00    -0.003 C 
ATOM      9  C   UNL     1      -5.968   4.200  54.888  1.00  0.00     0.004 C 
ENDBRANCH   7   8
ENDBRANCH   6   7
ENDBRANCH   1   6
TORSDOF 5
ENDMDL
MODEL 7
REMARK VINA RESULT:    -3.106      9.864     10.877
REMARK INTER + INTRA:          -4.357
REMARK INTER:                  -4.167
REMARK INTRA:                  -0.190
REMARK UNBOUND:                -0.344
REMARK SMILES CCCCCCC(=O)[O-]
REMARK SMILES IDX 5 1 6 2 7 3 8 4 9 5 4 6 3 7 2 8 1 9
REMARK H PARENT
REMARK Flexibility Score: inf
ROOT
ATOM      1  C   UNL     1       1.209   1.958  56.162  1.00  0.00     0.006 C 
ENDROOT
BRANCH   1   2
ATOM      2  C   UNL     1       2.103   0.854  55.585  1.00  0.00     0.053 C 
BRANCH   2   3
ATOM      3  C   UNL     1       2.443   1.151  54.159  1.00  0.00     0.041 C 
ATOM      4  O   UNL     1       2.208   2.289  53.675  1.00  0.00    -0.550 OA
ATOM      5  O   UNL     1       3.065   0.186  53.377  1.00  0.00    -0.550 OA
ENDBRANCH   2   3
ENDBRANCH   1   2
BRANCH   1   6
ATOM      6  C   UNL     1       0.043   1.402  56.994  1.00  0.00     0.000 C 
BRANCH   6   7
ATOM      7  C   UNL     1       0.428   1.152  58.460  1.00  0.00    -0.000 C 
BRANCH   7   8
ATOM      8  C   UNL     1       0.911   2.444  59.128  1.00  0.00    -0.003 C 
ATOM      9  C   UNL     1       1.824   2.145  60.313  1.00  0.00     0.004 C 
ENDBRANCH   7   8
ENDBRANCH   6   7
ENDBRANCH   1   6
TORSDOF 5
ENDMDL
MODEL 8
REMARK VINA RESULT:    -3.043     10.956     12.159
REMARK INTER + INTRA:          -4.276
REMARK INTER:                  -4.063
REMARK INTRA:                  -0.213
REMARK UNBOUND:                -0.344
REMARK SMILES CCCCCCC(=O)[O-]
REMARK SMILES IDX 5 1 6 2 7 3 8 4 9 5 4 6 3 7 2 8 1 9
REMARK H PARENT
REMARK Flexibility Score: inf
ROOT
ATOM      1  C   UNL     1       2.081  -0.892  53.209  1.00  0.00     0.006 C 
ENDROOT
BRANCH   1   2
ATOM      2  C   UNL     1       3.091   0.143  53.720  1.00  0.00     0.053 C 
BRANCH   2   3
ATOM      3  C   UNL     1       2.379   1.305  54.337  1.00  0.00     0.041 C 
ATOM      4  O   UNL     1       2.207   2.365  53.680  1.00  0.00    -0.550 OA
ATOM      5  O   UNL     1       1.862   1.201  55.622  1.00  0.00    -0.550 OA
ENDBRANCH   2   3
ENDBRANCH   1   2
BRANCH   1   6
ATOM      6  C   UNL     1       2.296  -2.283  53.825  1.00  0.00     0.000 C 
BRANCH   6   7
ATOM      7  C   UNL     1       3.590  -2.372  54.649  1.00  0.00    -0.000 C 
BRANCH   7   8
ATOM      8  C   UNL     1       3.998  -3.832  54.875  1.00  0.00    -0.003 C 
ATOM      9  C   UNL     1       2.782  -4.708  55.161  1.00  0.00     0.004 C 
ENDBRANCH   7   8
ENDBRANCH   6   7
ENDBRANCH   1   6
TORSDOF 5
ENDMDL
MODEL 9
REMARK VINA RESULT:    -3.032     10.294     11.455
REMARK INTER + INTRA:          -4.263
REMARK INTER:                  -3.927
REMARK INTRA:                  -0.335
REMARK UNBOUND:                -0.344
REMARK SMILES CCCCCCC(=O)[O-]
REMARK SMILES IDX 5 1 6 2 7 3 8 4 9 5 4 6 3 7 2 8 1 9
REMARK H PARENT
REMARK Flexibility Score: inf
ROOT
ATOM      1  C   UNL     1       3.186   0.312  54.282  1.00  0.00     0.006 C 
ENDROOT
BRANCH   1   2
ATOM      2  C   UNL     1       2.011   1.234  54.629  1.00  0.00     0.053 C 
BRANCH   2   3
ATOM      3  C   UNL     1       1.426   0.855  55.953  1.00  0.00     0.041 C 
ATOM      4  O   UNL     1       0.261   1.223  56.260  1.00  0.00    -0.550 OA
ATOM      5  O   UNL     1       2.147   0.053  56.828  1.00  0.00    -0.550 OA
ENDBRANCH   2   3
ENDBRANCH   1   2
BRANCH   1   6
ATOM      6  C   UNL     1       2.781  -0.835  53.344  1.00  0.00     0.000 C 
BRANCH   6   7
ATOM      7  C   UNL     1       2.955  -2.218  53.991  1.00  0.00    -0.000 C 
BRANCH   7   8
ATOM      8  C   UNL     1       1.669  -3.044  53.874  1.00  0.00    -0.003 C 
ATOM      9  C   UNL     1       0.542  -2.227  53.250  1.00  0.00     0.004 C 
ENDBRANCH   7   8
ENDBRANCH   6   7
ENDBRANCH   1   6
TORSDOF 5
ENDMDL
