MODEL 1
REMARK VINA RESULT:    -3.594      0.000      0.000
REMARK INTER + INTRA:          -5.823
REMARK INTER:                  -5.275
REMARK INTRA:                  -0.547
REMARK UNBOUND:                -0.547
REMARK SMILES C=C1C=C[C@@H](C(C)C)CCC(C)=CCC1
REMARK SMILES IDX 3 1 4 2 5 3 9 4 10 5 11 6 12 7 13 8 6 10 7 11 8 12 2 13 1 14
REMARK SMILES IDX 15 15 14 16
REMARK H PARENT
REMARK Flexibility Score: 70.00
ROOT
ATOM      1  C   UNL     1     137.643 140.668 133.953  1.00  0.00    -0.001 C 
ATOM      2  C   UNL     1     137.602 141.964 133.588  1.00  0.00    -0.023 C 
ENDROOT
BRANCH   2   3
ATOM      3  C   UNL     1     138.721 142.770 132.939  1.00  0.00     0.014 C 
BRANCH   3   4
ATOM      4  C   UNL     1     139.175 143.938 133.871  1.00  0.00     0.012 C 
BRANCH   4   5
ATOM      5  C   UNL     1     139.289 143.626 135.384  1.00  0.00     0.031 C 
BRANCH   5   6
ATOM      6  C   UNL     1     140.623 143.080 135.880  1.00  0.00    -0.077 C 
ATOM      7  C   UNL     1     141.734 144.049 136.200  1.00  0.00     0.039 C 
ATOM      8  C   UNL     1     140.850 141.772 136.144  1.00  0.00    -0.028 CG0
ATOM      9  G   UNL     1     139.875 140.648 135.917  1.00  0.00     0.000 G0
ENDBRANCH   5   6
ENDBRANCH   4   5
ENDBRANCH   3   4
BRANCH   3  10
ATOM     10  C   UNL     1     138.271 143.224 131.508  1.00  0.00    -0.010 C 
ATOM     11  C   UNL     1     138.419 142.121 130.453  1.00  0.00     0.008 C 
ATOM     12  C   UNL     1     138.939 144.520 131.014  1.00  0.00     0.008 C 
ENDBRANCH   3  10
ENDBRANCH   2   3
BRANCH   1  13
ATOM     13  C   UNL     1     138.790 139.735 133.823  1.00  0.00    -0.055 C 
ATOM     14  C   UNL     1     138.713 138.762 132.910  1.00  0.00     0.012 C 
BRANCH  13  15
ATOM     15  C   UNL     1     140.091 139.947 134.560  1.00  0.00     0.039 C 
BRANCH  15  16
ATOM     16  C   UNL     1     139.887 140.625 135.934  1.00  0.00     0.032 CG0
ATOM     17  G   UNL     1     140.850 141.764 136.132  1.00  0.00     0.000 G0
ENDBRANCH  15  16
ENDBRANCH  13  15
ENDBRANCH   1  13
TORSDOF 1
ENDMDL
MODEL 2
REMARK VINA RESULT:    -3.577      2.419      4.489
REMARK INTER + INTRA:          -5.798
REMARK INTER:                  -5.238
REMARK INTRA:                  -0.559
REMARK UNBOUND:                -0.547
REMARK SMILES C=C1C=C[C@@H](C(C)C)CCC(C)=CCC1
REMARK SMILES IDX 3 1 4 2 5 3 9 4 10 5 11 6 12 7 13 8 6 10 7 11 8 12 2 13 1 14
REMARK SMILES IDX 15 15 14 16
REMARK H PARENT
REMARK Flexibility Score: 70.00
ROOT
ATOM      1  C   UNL     1     141.209 137.579 134.850  1.00  0.00    -0.001 C 
ATOM      2  C   UNL     1     140.598 137.457 133.656  1.00  0.00    -0.023 C 
ENDROOT
BRANCH   2   3
ATOM      3  C   UNL     1     140.511 138.509 132.558  1.00  0.00     0.014 C 
BRANCH   3   4
ATOM      4  C   UNL     1     139.024 138.892 132.274  1.00  0.00     0.012 C 
BRANCH   4   5
ATOM      5  C   UNL     1     138.107 139.109 133.503  1.00  0.00     0.031 C 
BRANCH   5   6
ATOM      6  C   UNL     1     138.177 140.471 134.187  1.00  0.00    -0.077 C 
ATOM      7  C   UNL     1     137.372 141.614 133.618  1.00  0.00     0.039 C 
ATOM      8  C   UNL     1     138.848 140.702 135.339  1.00  0.00    -0.028 CG0
ATOM      9  G   UNL     1     139.692 139.700 136.079  1.00  0.00     0.000 G0
ENDBRANCH   5   6
ENDBRANCH   4   5
ENDBRANCH   3   4
BRANCH   3  10
ATOM     10  C   UNL     1     141.301 138.013 131.299  1.00  0.00    -0.010 C 
ATOM     11  C   UNL     1     142.809 137.891 131.544  1.00  0.00     0.008 C 
ATOM     12  C   UNL     1     141.039 138.832 130.021  1.00  0.00     0.008 C 
ENDBRANCH   3  10
ENDBRANCH   2   3
BRANCH   1  13
ATOM     13  C   UNL     1     141.921 138.771 135.375  1.00  0.00    -0.055 C 
ATOM     14  C   UNL     1     143.249 138.830 135.230  1.00  0.00     0.012 C 
BRANCH  13  15
ATOM     15  C   UNL     1     141.188 139.979 135.909  1.00  0.00     0.039 C 
BRANCH  15  16
ATOM     16  C   UNL     1     139.678 139.714 136.103  1.00  0.00     0.032 CG0
ATOM     17  G   UNL     1     138.844 140.718 135.353  1.00  0.00     0.000 G0
ENDBRANCH  15  16
ENDBRANCH  13  15
ENDBRANCH   1  13
TORSDOF 1
ENDMDL
MODEL 3
REMARK VINA RESULT:    -3.572      2.774      4.117
REMARK INTER + INTRA:          -5.791
REMARK INTER:                  -5.236
REMARK INTRA:                  -0.555
REMARK UNBOUND:                -0.547
REMARK SMILES C=C1C=C[C@@H](C(C)C)CCC(C)=CCC1
REMARK SMILES IDX 3 1 4 2 5 3 9 4 10 5 11 6 12 7 13 8 6 10 7 11 8 12 2 13 1 14
REMARK SMILES IDX 15 15 14 16
REMARK H PARENT
REMARK Flexibility Score: 70.00
ROOT
ATOM      1  C   UNL     1     141.349 144.799 135.026  1.00  0.00    -0.001 C 
ATOM      2  C   UNL     1     141.706 144.859 133.729  1.00  0.00    -0.023 C 
ENDROOT
BRANCH   2   3
ATOM      3  C   UNL     1     141.563 143.757 132.687  1.00  0.00     0.014 C 
BRANCH   3   4
ATOM      4  C   UNL     1     142.964 143.278 132.191  1.00  0.00     0.012 C 
BRANCH   4   5
ATOM      5  C   UNL     1     144.067 143.101 133.264  1.00  0.00     0.031 C 
BRANCH   5   6
ATOM      6  C   UNL     1     144.067 141.793 134.048  1.00  0.00    -0.077 C 
ATOM      7  C   UNL     1     144.628 140.553 133.397  1.00  0.00     0.039 C 
ATOM      8  C   UNL     1     143.677 141.689 135.340  1.00  0.00    -0.028 CG0
ATOM      9  G   UNL     1     143.108 142.803 136.178  1.00  0.00     0.000 G0
ENDBRANCH   5   6
ENDBRANCH   4   5
ENDBRANCH   3   4
BRANCH   3  10
ATOM     10  C   UNL     1     140.606 144.243 131.545  1.00  0.00    -0.010 C 
ATOM     11  C   UNL     1     139.123 144.143 131.919  1.00  0.00     0.008 C 
ATOM     12  C   UNL     1     140.852 143.572 130.181  1.00  0.00     0.008 C 
ENDBRANCH   3  10
ENDBRANCH   2   3
BRANCH   1  13
ATOM     13  C   UNL     1     140.751 143.644 135.740  1.00  0.00    -0.055 C 
ATOM     14  C   UNL     1     139.436 143.435 135.616  1.00  0.00     0.012 C 
BRANCH  13  15
ATOM     15  C   UNL     1     141.592 142.613 136.454  1.00  0.00     0.039 C 
BRANCH  15  16
ATOM     16  C   UNL     1     143.104 142.800 136.191  1.00  0.00     0.032 CG0
ATOM     17  G   UNL     1     143.656 141.686 135.344  1.00  0.00     0.000 G0
ENDBRANCH  15  16
ENDBRANCH  13  15
ENDBRANCH   1  13
TORSDOF 1
ENDMDL
MODEL 4
REMARK VINA RESULT:    -3.514      1.741      4.062
REMARK INTER + INTRA:          -5.706
REMARK INTER:                  -5.212
REMARK INTRA:                  -0.494
REMARK UNBOUND:                -0.547
REMARK SMILES C=C1C=C[C@@H](C(C)C)CCC(C)=CCC1
REMARK SMILES IDX 3 1 4 2 5 3 9 4 10 5 11 6 12 7 13 8 6 10 7 11 8 12 2 13 1 14
REMARK SMILES IDX 15 15 14 16
REMARK H PARENT
REMARK Flexibility Score: 70.00
ROOT
ATOM      1  C   UNL     1     138.745 139.211 136.770  1.00  0.00    -0.001 C 
ATOM      2  C   UNL     1     139.056 138.767 135.538  1.00  0.00    -0.023 C 
ENDROOT
BRANCH   2   3
ATOM      3  C   UNL     1     139.109 139.586 134.254  1.00  0.00     0.014 C 
BRANCH   3   4
ATOM      4  C   UNL     1     137.673 139.996 133.799  1.00  0.00     0.012 C 
BRANCH   4   5
ATOM      5  C   UNL     1     137.355 141.511 133.756  1.00  0.00     0.031 C 
BRANCH   5   6
ATOM      6  C   UNL     1     138.543 142.468 133.715  1.00  0.00    -0.077 C 
ATOM      7  C   UNL     1     139.168 142.796 132.381  1.00  0.00     0.039 C 
ATOM      8  C   UNL     1     139.021 143.121 134.799  1.00  0.00    -0.028 CG0
ATOM      9  G   UNL     1     138.530 142.956 136.212  1.00  0.00     0.000 G0
ENDBRANCH   5   6
ENDBRANCH   4   5
ENDBRANCH   3   4
BRANCH   3  10
ATOM     10  C   UNL     1     139.930 138.805 133.172  1.00  0.00    -0.010 C 
ATOM     11  C   UNL     1     139.142 138.560 131.880  1.00  0.00     0.008 C 
ATOM     12  C   UNL     1     140.545 137.484 133.673  1.00  0.00     0.008 C 
ENDBRANCH   3  10
ENDBRANCH   2   3
BRANCH   1  13
ATOM     13  C   UNL     1     138.365 140.592 137.157  1.00  0.00    -0.055 C 
ATOM     14  C   UNL     1     137.247 140.766 137.869  1.00  0.00     0.012 C 
BRANCH  13  15
ATOM     15  C   UNL     1     139.275 141.775 136.924  1.00  0.00     0.039 C 
BRANCH  15  16
ATOM     16  C   UNL     1     138.551 142.947 136.224  1.00  0.00     0.032 CG0
ATOM     17  G   UNL     1     139.016 143.109 134.802  1.00  0.00     0.000 G0
ENDBRANCH  15  16
ENDBRANCH  13  15
ENDBRANCH   1  13
TORSDOF 1
ENDMDL
MODEL 5
REMARK VINA RESULT:    -3.504      3.429      5.456
REMARK INTER + INTRA:          -5.690
REMARK INTER:                  -5.303
REMARK INTRA:                  -0.387
REMARK UNBOUND:                -0.547
REMARK SMILES C=C1C=C[C@@H](C(C)C)CCC(C)=CCC1
REMARK SMILES IDX 3 1 4 2 5 3 9 4 10 5 11 6 12 7 13 8 6 10 7 11 8 12 2 13 1 14
REMARK SMILES IDX 15 15 14 16
REMARK H PARENT
REMARK Flexibility Score: 70.00
ROOT
ATOM      1  C   UNL     1     142.703 138.531 136.061  1.00  0.00    -0.001 C 
ATOM      2  C   UNL     1     143.239 138.771 134.850  1.00  0.00    -0.023 C 
ENDROOT
BRANCH   2   3
ATOM      3  C   UNL     1     142.494 138.913 133.529  1.00  0.00     0.014 C 
BRANCH   3   4
ATOM      4  C   UNL     1     141.960 137.528 133.041  1.00  0.00     0.012 C 
BRANCH   4   5
ATOM      5  C   UNL     1     140.434 137.286 133.150  1.00  0.00     0.031 C 
BRANCH   5   6
ATOM      6  C   UNL     1     139.525 138.496 132.957  1.00  0.00    -0.077 C 
ATOM      7  C   UNL     1     139.254 138.989 131.557  1.00  0.00     0.039 C 
ATOM      8  C   UNL     1     138.863 139.108 133.966  1.00  0.00    -0.028 CG0
ATOM      9  G   UNL     1     138.974 138.763 135.427  1.00  0.00     0.000 G0
ENDBRANCH   5   6
ENDBRANCH   4   5
ENDBRANCH   3   4
BRANCH   3  10
ATOM     10  C   UNL     1     143.408 139.652 132.493  1.00  0.00    -0.010 C 
ATOM     11  C   UNL     1     143.985 138.717 131.424  1.00  0.00     0.008 C 
ATOM     12  C   UNL     1     144.536 140.489 133.125  1.00  0.00     0.008 C 
ENDBRANCH   3  10
ENDBRANCH   2   3
BRANCH   1  13
ATOM     13  C   UNL     1     141.268 138.334 136.384  1.00  0.00    -0.055 C 
ATOM     14  C   UNL     1     140.922 137.259 137.100  1.00  0.00     0.012 C 
BRANCH  13  15
ATOM     15  C   UNL     1     140.221 139.379 136.081  1.00  0.00     0.039 C 
BRANCH  15  16
ATOM     16  C   UNL     1     138.954 138.774 135.435  1.00  0.00     0.032 CG0
ATOM     17  G   UNL     1     138.867 139.114 133.972  1.00  0.00     0.000 G0
ENDBRANCH  15  16
ENDBRANCH  13  15
ENDBRANCH   1  13
TORSDOF 1
ENDMDL
MODEL 6
REMARK VINA RESULT:    -3.488      2.981      4.408
REMARK INTER + INTRA:          -5.666
REMARK INTER:                  -5.107
REMARK INTRA:                  -0.560
REMARK UNBOUND:                -0.547
REMARK SMILES C=C1C=C[C@@H](C(C)C)CCC(C)=CCC1
REMARK SMILES IDX 3 1 4 2 5 3 9 4 10 5 11 6 12 7 13 8 6 10 7 11 8 12 2 13 1 14
REMARK SMILES IDX 15 15 14 16
REMARK H PARENT
REMARK Flexibility Score: 70.00
ROOT
ATOM      1  C   UNL     1     141.038 144.745 134.550  1.00  0.00    -0.001 C 
ATOM      2  C   UNL     1     141.887 144.765 133.506  1.00  0.00    -0.023 C 
ENDROOT
BRANCH   2   3
ATOM      3  C   UNL     1     142.742 143.612 132.995  1.00  0.00     0.014 C 
BRANCH   3   4
ATOM      4  C   UNL     1     143.881 143.275 134.008  1.00  0.00     0.012 C 
BRANCH   4   5
ATOM      5  C   UNL     1     143.894 141.844 134.601  1.00  0.00     0.031 C 
BRANCH   5   6
ATOM      6  C   UNL     1     143.044 140.794 133.893  1.00  0.00    -0.077 C 
ATOM      7  C   UNL     1     143.647 140.018 132.748  1.00  0.00     0.039 C 
ATOM      8  C   UNL     1     141.798 140.442 134.288  1.00  0.00    -0.028 CG0
ATOM      9  G   UNL     1     141.023 141.072 135.414  1.00  0.00     0.000 G0
ENDBRANCH   5   6
ENDBRANCH   4   5
ENDBRANCH   3   4
BRANCH   3  10
ATOM     10  C   UNL     1     143.243 143.938 131.546  1.00  0.00    -0.010 C 
ATOM     11  C   UNL     1     142.401 143.268 130.454  1.00  0.00     0.008 C 
ATOM     12  C   UNL     1     144.738 143.651 131.311  1.00  0.00     0.008 C 
ENDBRANCH   3  10
ENDBRANCH   2   3
BRANCH   1  13
ATOM     13  C   UNL     1     140.751 143.601 135.451  1.00  0.00    -0.055 C 
ATOM     14  C   UNL     1     140.857 143.792 136.770  1.00  0.00     0.012 C 
BRANCH  13  15
ATOM     15  C   UNL     1     140.189 142.294 134.944  1.00  0.00     0.039 C 
BRANCH  15  16
ATOM     16  C   UNL     1     141.007 141.074 135.424  1.00  0.00     0.032 CG0
ATOM     17  G   UNL     1     141.787 140.457 134.294  1.00  0.00     0.000 G0
ENDBRANCH  15  16
ENDBRANCH  13  15
ENDBRANCH   1  13
TORSDOF 1
ENDMDL
MODEL 7
REMARK VINA RESULT:    -3.449      1.781      3.602
REMARK INTER + INTRA:          -5.609
REMARK INTER:                  -5.225
REMARK INTRA:                  -0.384
REMARK UNBOUND:                -0.547
REMARK SMILES C=C1C=C[C@@H](C(C)C)CCC(C)=CCC1
REMARK SMILES IDX 3 1 4 2 5 3 9 4 10 5 11 6 12 7 13 8 6 10 7 11 8 12 2 13 1 14
REMARK SMILES IDX 15 15 14 16
REMARK H PARENT
REMARK Flexibility Score: 70.00
ROOT
ATOM      1  C   UNL     1     140.903 137.234 134.044  1.00  0.00    -0.001 C 
ATOM      2  C   UNL     1     140.149 137.617 132.996  1.00  0.00    -0.023 C 
ENDROOT
BRANCH   2   3
ATOM      3  C   UNL     1     139.368 138.917 132.853  1.00  0.00     0.014 C 
BRANCH   3   4
ATOM      4  C   UNL     1     138.331 139.070 134.011  1.00  0.00     0.012 C 
BRANCH   4   5
ATOM      5  C   UNL     1     138.261 140.448 134.713  1.00  0.00     0.031 C 
BRANCH   5   6
ATOM      6  C   UNL     1     139.372 141.445 134.397  1.00  0.00    -0.077 C 
ATOM      7  C   UNL     1     139.090 142.568 133.430  1.00  0.00     0.039 C 
ATOM      8  C   UNL     1     140.582 141.442 135.004  1.00  0.00    -0.028 CG0
ATOM      9  G   UNL     1     141.058 140.427 136.008  1.00  0.00     0.000 G0
ENDBRANCH   5   6
ENDBRANCH   4   5
ENDBRANCH   3   4
BRANCH   3  10
ATOM     10  C   UNL     1     138.746 138.995 131.416  1.00  0.00    -0.010 C 
ATOM     11  C   UNL     1     139.103 140.290 130.677  1.00  0.00     0.008 C 
ATOM     12  C   UNL     1     137.225 138.762 131.369  1.00  0.00     0.008 C 
ENDBRANCH   3  10
ENDBRANCH   2   3
BRANCH   1  13
ATOM     13  C   UNL     1     141.131 137.982 135.305  1.00  0.00    -0.055 C 
ATOM     14  C   UNL     1     140.789 137.399 136.458  1.00  0.00     0.012 C 
BRANCH  13  15
ATOM     15  C   UNL     1     141.881 139.293 135.342  1.00  0.00     0.039 C 
BRANCH  15  16
ATOM     16  C   UNL     1     141.065 140.420 136.014  1.00  0.00     0.032 CG0
ATOM     17  G   UNL     1     140.575 141.421 135.002  1.00  0.00     0.000 G0
ENDBRANCH  15  16
ENDBRANCH  13  15
ENDBRANCH   1  13
TORSDOF 1
ENDMDL
MODEL 8
REMARK VINA RESULT:    -3.448      2.342      4.781
REMARK INTER + INTRA:          -5.608
REMARK INTER:                  -5.228
REMARK INTRA:                  -0.380
REMARK UNBOUND:                -0.547
REMARK SMILES C=C1C=C[C@@H](C(C)C)CCC(C)=CCC1
REMARK SMILES IDX 3 1 4 2 5 3 9 4 10 5 11 6 12 7 13 8 6 10 7 11 8 12 2 13 1 14
REMARK SMILES IDX 15 15 14 16
REMARK H PARENT
REMARK Flexibility Score: 70.00
ROOT
ATOM      1  C   UNL     1     137.710 141.971 133.129  1.00  0.00    -0.001 C 
ATOM      2  C   UNL     1     137.421 141.127 134.137  1.00  0.00    -0.023 C 
ENDROOT
BRANCH   2   3
ATOM      3  C   UNL     1     138.332 140.733 135.293  1.00  0.00     0.014 C 
BRANCH   3   4
ATOM      4  C   UNL     1     138.709 139.220 135.210  1.00  0.00     0.012 C 
BRANCH   4   5
ATOM      5  C   UNL     1     139.077 138.663 133.813  1.00  0.00     0.031 C 
BRANCH   5   6
ATOM      6  C   UNL     1     140.550 138.700 133.417  1.00  0.00    -0.077 C 
ATOM      7  C   UNL     1     141.465 137.608 133.913  1.00  0.00     0.039 C 
ATOM      8  C   UNL     1     141.078 139.609 132.565  1.00  0.00    -0.028 CG0
ATOM      9  G   UNL     1     140.339 140.763 131.943  1.00  0.00     0.000 G0
ENDBRANCH   5   6
ENDBRANCH   4   5
ENDBRANCH   3   4
BRANCH   3  10
ATOM     10  C   UNL     1     137.667 141.159 136.647  1.00  0.00    -0.010 C 
ATOM     11  C   UNL     1     137.933 142.624 137.013  1.00  0.00     0.008 C 
ATOM     12  C   UNL     1     138.013 140.247 137.839  1.00  0.00     0.008 C 
ENDBRANCH   3  10
ENDBRANCH   2   3
BRANCH   1  13
ATOM     13  C   UNL     1     138.985 142.696 132.903  1.00  0.00    -0.055 C 
ATOM     14  C   UNL     1     138.954 144.032 132.856  1.00  0.00     0.012 C 
BRANCH  13  15
ATOM     15  C   UNL     1     140.322 141.994 132.892  1.00  0.00     0.039 C 
BRANCH  15  16
ATOM     16  C   UNL     1     140.337 140.768 131.951  1.00  0.00     0.032 CG0
ATOM     17  G   UNL     1     141.084 139.615 132.564  1.00  0.00     0.000 G0
ENDBRANCH  15  16
ENDBRANCH  13  15
ENDBRANCH   1  13
TORSDOF 1
ENDMDL
MODEL 9
REMARK VINA RESULT:    -3.363      2.185      4.015
REMARK INTER + INTRA:          -5.483
REMARK INTER:                  -5.033
REMARK INTRA:                  -0.450
REMARK UNBOUND:                -0.547
REMARK SMILES C=C1C=C[C@@H](C(C)C)CCC(C)=CCC1
REMARK SMILES IDX 3 1 4 2 5 3 9 4 10 5 11 6 12 7 13 8 6 10 7 11 8 12 2 13 1 14
REMARK SMILES IDX 15 15 14 16
REMARK H PARENT
REMARK Flexibility Score: 70.00
ROOT
ATOM      1  C   UNL     1     139.565 143.624 136.656  1.00  0.00    -0.001 C 
ATOM      2  C   UNL     1     139.086 143.294 135.442  1.00  0.00    -0.023 C 
ENDROOT
BRANCH   2   3
ATOM      3  C   UNL     1     139.892 143.063 134.170  1.00  0.00     0.014 C 
BRANCH   3   4
ATOM      4  C   UNL     1     140.342 144.421 133.544  1.00  0.00     0.012 C 
BRANCH   4   5
ATOM      5  C   UNL     1     141.851 144.764 133.618  1.00  0.00     0.031 C 
BRANCH   5   6
ATOM      6  C   UNL     1     142.830 143.596 133.549  1.00  0.00    -0.077 C 
ATOM      7  C   UNL     1     143.183 143.020 132.200  1.00  0.00     0.039 C 
ATOM      8  C   UNL     1     143.483 143.096 134.624  1.00  0.00    -0.028 CG0
ATOM      9  G   UNL     1     143.294 143.538 136.050  1.00  0.00     0.000 G0
ENDBRANCH   5   6
ENDBRANCH   4   5
ENDBRANCH   3   4
BRANCH   3  10
ATOM     10  C   UNL     1     139.076 142.144 133.197  1.00  0.00    -0.010 C 
ATOM     11  C   UNL     1     139.184 142.575 131.730  1.00  0.00     0.008 C 
ATOM     12  C   UNL     1     137.597 141.962 133.586  1.00  0.00     0.008 C 
ENDBRANCH   3  10
ENDBRANCH   2   3
BRANCH   1  13
ATOM     13  C   UNL     1     140.983 143.854 137.030  1.00  0.00    -0.055 C 
ATOM     14  C   UNL     1     141.270 144.902 137.809  1.00  0.00     0.012 C 
BRANCH  13  15
ATOM     15  C   UNL     1     142.075 142.864 136.703  1.00  0.00     0.039 C 
BRANCH  15  16
ATOM     16  C   UNL     1     143.307 143.536 136.056  1.00  0.00     0.032 CG0
ATOM     17  G   UNL     1     143.487 143.093 134.629  1.00  0.00     0.000 G0
ENDBRANCH  15  16
ENDBRANCH  13  15
ENDBRANCH   1  13
TORSDOF 1
ENDMDL
