MODEL 1
REMARK VINA RESULT:    -3.138      0.000      0.000
REMARK INTER + INTRA:          -5.742
REMARK INTER:                  -4.789
REMARK INTRA:                  -0.953
REMARK UNBOUND:                -0.953
REMARK SMILES CCCCCCCCCC=CC(=O)[O-]
REMARK SMILES IDX 7 1 8 2 9 3 10 4 11 5 12 6 13 7 14 8 6 9 5 10 4 11 3 12 2 13
REMARK SMILES IDX 1 14
REMARK H PARENT
REMARK Flexibility Score: inf
ROOT
ATOM      1  C   UNL     1       9.272  -3.622  -2.609  1.00  0.00     0.000 C 
ENDROOT
BRANCH   1   2
ATOM      2  C   UNL     1       9.304  -4.736  -1.547  1.00  0.00     0.004 C 
BRANCH   2   3
ATOM      3  C   UNL     1      10.728  -5.264  -1.311  1.00  0.00     0.027 C 
BRANCH   3   4
ATOM      4  C   UNL     1      11.671  -4.183  -0.849  1.00  0.00    -0.025 C 
ATOM      5  C   UNL     1      12.738  -3.725  -1.524  1.00  0.00     0.020 C 
BRANCH   5   6
ATOM      6  C   UNL     1      13.177  -4.144  -2.871  1.00  0.00     0.064 C 
ATOM      7  O   UNL     1      13.771  -5.235  -3.072  1.00  0.00    -0.545 OA
ATOM      8  O   UNL     1      12.902  -3.318  -3.953  1.00  0.00    -0.545 OA
ENDBRANCH   5   6
ENDBRANCH   3   4
ENDBRANCH   2   3
ENDBRANCH   1   2
BRANCH   1   9
ATOM      9  C   UNL     1       7.906  -2.923  -2.688  1.00  0.00     0.000 C 
BRANCH   9  10
ATOM     10  C   UNL     1       6.767  -3.784  -2.113  1.00  0.00     0.000 C 
BRANCH  10  11
ATOM     11  C   UNL     1       5.742  -4.197  -3.181  1.00  0.00    -0.000 C 
BRANCH  11  12
ATOM     12  C   UNL     1       6.333  -5.150  -4.230  1.00  0.00    -0.000 C 
BRANCH  12  13
ATOM     13  C   UNL     1       6.364  -4.490  -5.614  1.00  0.00    -0.003 C 
ATOM     14  C   UNL     1       7.796  -4.321  -6.113  1.00  0.00     0.004 C 
ENDBRANCH  12  13
ENDBRANCH  11  12
ENDBRANCH  10  11
ENDBRANCH   9  10
ENDBRANCH   1   9
TORSDOF 9
ENDMDL
MODEL 2
REMARK VINA RESULT:    -3.131      1.702      3.201
REMARK INTER + INTRA:          -5.731
REMARK INTER:                  -4.881
REMARK INTRA:                  -0.850
REMARK UNBOUND:                -0.953
REMARK SMILES CCCCCCCCCC=CC(=O)[O-]
REMARK SMILES IDX 7 1 8 2 9 3 10 4 11 5 12 6 13 7 14 8 6 9 5 10 4 11 3 12 2 13
REMARK SMILES IDX 1 14
REMARK H PARENT
REMARK Flexibility Score: inf
ROOT
ATOM      1  C   UNL     1       9.270  -4.415  -2.338  1.00  0.00     0.000 C 
ENDROOT
BRANCH   1   2
ATOM      2  C   UNL     1       9.648  -5.203  -1.071  1.00  0.00     0.004 C 
BRANCH   2   3
ATOM      3  C   UNL     1      11.136  -5.583  -1.051  1.00  0.00     0.027 C 
BRANCH   3   4
ATOM      4  C   UNL     1      12.017  -4.426  -0.656  1.00  0.00    -0.025 C 
ATOM      5  C   UNL     1      12.909  -3.806  -1.447  1.00  0.00     0.020 C 
BRANCH   5   6
ATOM      6  C   UNL     1      13.172  -4.092  -2.873  1.00  0.00     0.064 C 
ATOM      7  O   UNL     1      12.853  -3.287  -3.786  1.00  0.00    -0.545 OA
ATOM      8  O   UNL     1      13.816  -5.274  -3.213  1.00  0.00    -0.545 OA
ENDBRANCH   5   6
ENDBRANCH   3   4
ENDBRANCH   2   3
ENDBRANCH   1   2
BRANCH   1   9
ATOM      9  C   UNL     1       8.026  -4.983  -3.037  1.00  0.00     0.000 C 
BRANCH   9  10
ATOM     10  C   UNL     1       6.862  -5.232  -2.061  1.00  0.00     0.000 C 
BRANCH  10  11
ATOM     11  C   UNL     1       6.162  -3.933  -1.633  1.00  0.00    -0.000 C 
BRANCH  11  12
ATOM     12  C   UNL     1       5.637  -3.992  -0.190  1.00  0.00    -0.000 C 
BRANCH  12  13
ATOM     13  C   UNL     1       6.030  -5.313   0.482  1.00  0.00    -0.003 C 
ATOM     14  C   UNL     1       6.580  -5.075   1.886  1.00  0.00     0.004 C 
ENDBRANCH  12  13
ENDBRANCH  11  12
ENDBRANCH  10  11
ENDBRANCH   9  10
ENDBRANCH   1   9
TORSDOF 9
ENDMDL
MODEL 3
REMARK VINA RESULT:    -3.117     11.511     14.420
REMARK INTER + INTRA:          -5.711
REMARK INTER:                  -4.580
REMARK INTRA:                  -1.130
REMARK UNBOUND:                -0.953
REMARK SMILES CCCCCCCCCC=CC(=O)[O-]
REMARK SMILES IDX 7 1 8 2 9 3 10 4 11 5 12 6 13 7 14 8 6 9 5 10 4 11 3 12 2 13
REMARK SMILES IDX 1 14
REMARK H PARENT
REMARK Flexibility Score: inf
ROOT
ATOM      1  C   UNL     1      16.583   1.455   8.889  1.00  0.00     0.000 C 
ENDROOT
BRANCH   1   2
ATOM      2  C   UNL     1      16.339   0.020   8.386  1.00  0.00     0.004 C 
BRANCH   2   3
ATOM      3  C   UNL     1      15.901  -0.007   6.914  1.00  0.00     0.027 C 
BRANCH   3   4
ATOM      4  C   UNL     1      16.653  -1.037   6.111  1.00  0.00    -0.025 C 
ATOM      5  C   UNL     1      16.344  -2.340   6.013  1.00  0.00     0.020 C 
BRANCH   5   6
ATOM      6  C   UNL     1      15.183  -3.022   6.622  1.00  0.00     0.064 C 
ATOM      7  O   UNL     1      14.117  -3.225   5.985  1.00  0.00    -0.545 OA
ATOM      8  O   UNL     1      15.282  -3.474   7.931  1.00  0.00    -0.545 OA
ENDBRANCH   5   6
ENDBRANCH   3   4
ENDBRANCH   2   3
ENDBRANCH   1   2
BRANCH   1   9
ATOM      9  C   UNL     1      16.257   2.515   7.826  1.00  0.00     0.000 C 
BRANCH   9  10
ATOM     10  C   UNL     1      17.427   3.487   7.582  1.00  0.00     0.000 C 
BRANCH  10  11
ATOM     11  C   UNL     1      18.774   2.917   8.054  1.00  0.00    -0.000 C 
BRANCH  11  12
ATOM     12  C   UNL     1      19.936   3.304   7.127  1.00  0.00    -0.000 C 
BRANCH  12  13
ATOM     13  C   UNL     1      20.443   2.085   6.346  1.00  0.00    -0.003 C 
ATOM     14  C   UNL     1      19.759   0.804   6.819  1.00  0.00     0.004 C 
ENDBRANCH  12  13
ENDBRANCH  11  12
ENDBRANCH  10  11
ENDBRANCH   9  10
ENDBRANCH   1   9
TORSDOF 9
ENDMDL
MODEL 4
REMARK VINA RESULT:    -3.100      0.945      2.264
REMARK INTER + INTRA:          -5.684
REMARK INTER:                  -4.698
REMARK INTRA:                  -0.986
REMARK UNBOUND:                -0.953
REMARK SMILES CCCCCCCCCC=CC(=O)[O-]
REMARK SMILES IDX 7 1 8 2 9 3 10 4 11 5 12 6 13 7 14 8 6 9 5 10 4 11 3 12 2 13
REMARK SMILES IDX 1 14
REMARK H PARENT
REMARK Flexibility Score: inf
ROOT
ATOM      1  C   UNL     1       9.300  -4.314  -3.694  1.00  0.00     0.000 C 
ENDROOT
BRANCH   1   2
ATOM      2  C   UNL     1       9.407  -4.121  -2.171  1.00  0.00     0.004 C 
BRANCH   2   3
ATOM      3  C   UNL     1      10.542  -4.959  -1.563  1.00  0.00     0.027 C 
BRANCH   3   4
ATOM      4  C   UNL     1      11.621  -4.104  -0.949  1.00  0.00    -0.025 C 
ATOM      5  C   UNL     1      12.783  -3.763  -1.529  1.00  0.00     0.020 C 
BRANCH   5   6
ATOM      6  C   UNL     1      13.222  -4.107  -2.898  1.00  0.00     0.064 C 
ATOM      7  O   UNL     1      13.787  -5.200  -3.164  1.00  0.00    -0.545 OA
ATOM      8  O   UNL     1      12.980  -3.207  -3.927  1.00  0.00    -0.545 OA
ENDBRANCH   5   6
ENDBRANCH   3   4
ENDBRANCH   2   3
ENDBRANCH   1   2
BRANCH   1   9
ATOM      9  C   UNL     1       8.141  -5.240  -4.091  1.00  0.00     0.000 C 
BRANCH   9  10
ATOM     10  C   UNL     1       7.222  -4.613  -5.156  1.00  0.00     0.000 C 
BRANCH  10  11
ATOM     11  C   UNL     1       6.043  -3.845  -4.539  1.00  0.00    -0.000 C 
BRANCH  11  12
ATOM     12  C   UNL     1       5.611  -4.416  -3.180  1.00  0.00    -0.000 C 
BRANCH  12  13
ATOM     13  C   UNL     1       5.713  -3.351  -2.081  1.00  0.00    -0.003 C 
ATOM     14  C   UNL     1       5.867  -3.993  -0.705  1.00  0.00     0.004 C 
ENDBRANCH  12  13
ENDBRANCH  11  12
ENDBRANCH  10  11
ENDBRANCH   9  10
ENDBRANCH   1   9
TORSDOF 9
ENDMDL
MODEL 5
REMARK VINA RESULT:    -3.019     10.334     11.862
REMARK INTER + INTRA:          -5.560
REMARK INTER:                  -3.887
REMARK INTRA:                  -1.674
REMARK UNBOUND:                -0.953
REMARK SMILES CCCCCCCCCC=CC(=O)[O-]
REMARK SMILES IDX 7 1 8 2 9 3 10 4 11 5 12 6 13 7 14 8 6 9 5 10 4 11 3 12 2 13
REMARK SMILES IDX 1 14
REMARK H PARENT
REMARK Flexibility Score: inf
ROOT
ATOM      1  C   UNL     1      10.479   6.079  -9.637  1.00  0.00     0.000 C 
ENDROOT
BRANCH   1   2
ATOM      2  C   UNL     1       9.514   5.659 -10.761  1.00  0.00     0.004 C 
BRANCH   2   3
ATOM      3  C   UNL     1       8.966   4.240 -10.548  1.00  0.00     0.027 C 
BRANCH   3   4
ATOM      4  C   UNL     1       7.917   4.186  -9.467  1.00  0.00    -0.025 C 
ATOM      5  C   UNL     1       8.004   3.498  -8.317  1.00  0.00     0.020 C 
BRANCH   5   6
ATOM      6  C   UNL     1       9.157   2.699  -7.850  1.00  0.00     0.064 C 
ATOM      7  O   UNL     1       9.356   1.520  -8.244  1.00  0.00    -0.545 OA
ATOM      8  O   UNL     1      10.061   3.276  -6.970  1.00  0.00    -0.545 OA
ENDBRANCH   5   6
ENDBRANCH   3   4
ENDBRANCH   2   3
ENDBRANCH   1   2
BRANCH   1   9
ATOM      9  C   UNL     1       9.994   7.323  -8.878  1.00  0.00     0.000 C 
BRANCH   9  10
ATOM     10  C   UNL     1       9.402   6.981  -7.498  1.00  0.00     0.000 C 
BRANCH  10  11
ATOM     11  C   UNL     1       7.940   7.431  -7.355  1.00  0.00    -0.000 C 
BRANCH  11  12
ATOM     12  C   UNL     1       7.397   8.090  -8.632  1.00  0.00    -0.000 C 
BRANCH  12  13
ATOM     13  C   UNL     1       6.141   7.365  -9.131  1.00  0.00    -0.003 C 
ATOM     14  C   UNL     1       5.463   6.595  -8.001  1.00  0.00     0.004 C 
ENDBRANCH  12  13
ENDBRANCH  11  12
ENDBRANCH  10  11
ENDBRANCH   9  10
ENDBRANCH   1   9
TORSDOF 9
ENDMDL
MODEL 6
REMARK VINA RESULT:    -3.002     13.356     15.378
REMARK INTER + INTRA:          -5.534
REMARK INTER:                  -3.913
REMARK INTRA:                  -1.621
REMARK UNBOUND:                -0.953
REMARK SMILES CCCCCCCCCC=CC(=O)[O-]
REMARK SMILES IDX 7 1 8 2 9 3 10 4 11 5 12 6 13 7 14 8 6 9 5 10 4 11 3 12 2 13
REMARK SMILES IDX 1 14
REMARK H PARENT
REMARK Flexibility Score: inf
ROOT
ATOM      1  C   UNL     1      16.561   1.341   9.025  1.00  0.00     0.000 C 
ENDROOT
BRANCH   1   2
ATOM      2  C   UNL     1      16.338   2.438   7.969  1.00  0.00     0.004 C 
BRANCH   2   3
ATOM      3  C   UNL     1      17.581   3.322   7.786  1.00  0.00     0.027 C 
BRANCH   3   4
ATOM      4  C   UNL     1      18.721   2.898   8.676  1.00  0.00    -0.025 C 
ATOM      5  C   UNL     1      20.023   2.901   8.346  1.00  0.00     0.020 C 
BRANCH   5   6
ATOM      6  C   UNL     1      20.610   3.366   7.071  1.00  0.00     0.064 C 
ATOM      7  O   UNL     1      20.782   4.587   6.820  1.00  0.00    -0.545 OA
ATOM      8  O   UNL     1      21.008   2.424   6.133  1.00  0.00    -0.545 OA
ENDBRANCH   5   6
ENDBRANCH   3   4
ENDBRANCH   2   3
ENDBRANCH   1   2
BRANCH   1   9
ATOM      9  C   UNL     1      16.215  -0.061   8.502  1.00  0.00     0.000 C 
BRANCH   9  10
ATOM     10  C   UNL     1      16.291  -0.154   6.966  1.00  0.00     0.000 C 
BRANCH  10  11
ATOM     11  C   UNL     1      17.482  -0.996   6.484  1.00  0.00    -0.000 C 
BRANCH  11  12
ATOM     12  C   UNL     1      18.806  -0.218   6.513  1.00  0.00    -0.000 C 
BRANCH  12  13
ATOM     13  C   UNL     1      19.896  -1.016   7.240  1.00  0.00    -0.003 C 
ATOM     14  C   UNL     1      19.809  -0.819   8.751  1.00  0.00     0.004 C 
ENDBRANCH  12  13
ENDBRANCH  11  12
ENDBRANCH  10  11
ENDBRANCH   9  10
ENDBRANCH   1   9
TORSDOF 9
ENDMDL
MODEL 7
REMARK VINA RESULT:    -2.992      9.866     11.654
REMARK INTER + INTRA:          -5.520
REMARK INTER:                  -4.055
REMARK INTRA:                  -1.464
REMARK UNBOUND:                -0.953
REMARK SMILES CCCCCCCCCC=CC(=O)[O-]
REMARK SMILES IDX 7 1 8 2 9 3 10 4 11 5 12 6 13 7 14 8 6 9 5 10 4 11 3 12 2 13
REMARK SMILES IDX 1 14
REMARK H PARENT
REMARK Flexibility Score: inf
ROOT
ATOM      1  C   UNL     1       6.011   3.075  -7.506  1.00  0.00     0.000 C 
ENDROOT
BRANCH   1   2
ATOM      2  C   UNL     1       5.422   4.018  -6.441  1.00  0.00     0.004 C 
BRANCH   2   3
ATOM      3  C   UNL     1       6.483   4.966  -5.862  1.00  0.00     0.027 C 
BRANCH   3   4
ATOM      4  C   UNL     1       6.218   6.407  -6.216  1.00  0.00    -0.025 C 
ATOM      5  C   UNL     1       5.738   7.348  -5.386  1.00  0.00     0.020 C 
BRANCH   5   6
ATOM      6  C   UNL     1       5.422   7.183  -3.952  1.00  0.00     0.064 C 
ATOM      7  O   UNL     1       6.143   7.680  -3.047  1.00  0.00    -0.545 OA
ATOM      8  O   UNL     1       4.280   6.481  -3.592  1.00  0.00    -0.545 OA
ENDBRANCH   5   6
ENDBRANCH   3   4
ENDBRANCH   2   3
ENDBRANCH   1   2
BRANCH   1   9
ATOM      9  C   UNL     1       5.905   3.651  -8.926  1.00  0.00     0.000 C 
BRANCH   9  10
ATOM     10  C   UNL     1       7.282   3.859  -9.583  1.00  0.00     0.000 C 
BRANCH  10  11
ATOM     11  C   UNL     1       7.842   5.270  -9.344  1.00  0.00    -0.000 C 
BRANCH  11  12
ATOM     12  C   UNL     1       9.122   5.262  -8.495  1.00  0.00    -0.000 C 
BRANCH  12  13
ATOM     13  C   UNL     1       9.597   3.828  -8.234  1.00  0.00    -0.003 C 
ATOM     14  C   UNL     1       9.832   3.586  -6.745  1.00  0.00     0.004 C 
ENDBRANCH  12  13
ENDBRANCH  11  12
ENDBRANCH  10  11
ENDBRANCH   9  10
ENDBRANCH   1   9
TORSDOF 9
ENDMDL
MODEL 8
REMARK VINA RESULT:    -2.950     10.446     11.883
REMARK INTER + INTRA:          -5.455
REMARK INTER:                  -3.897
REMARK INTRA:                  -1.557
REMARK UNBOUND:                -0.953
REMARK SMILES CCCCCCCCCC=CC(=O)[O-]
REMARK SMILES IDX 7 1 8 2 9 3 10 4 11 5 12 6 13 7 14 8 6 9 5 10 4 11 3 12 2 13
REMARK SMILES IDX 1 14
REMARK H PARENT
REMARK Flexibility Score: inf
ROOT
ATOM      1  C   UNL     1       6.721   6.790  -6.214  1.00  0.00     0.000 C 
ENDROOT
BRANCH   1   2
ATOM      2  C   UNL     1       6.029   6.076  -7.389  1.00  0.00     0.004 C 
BRANCH   2   3
ATOM      3  C   UNL     1       6.823   4.850  -7.865  1.00  0.00     0.027 C 
BRANCH   3   4
ATOM      4  C   UNL     1       8.099   4.656  -7.086  1.00  0.00    -0.025 C 
ATOM      5  C   UNL     1       9.057   3.753  -7.354  1.00  0.00     0.020 C 
BRANCH   5   6
ATOM      6  C   UNL     1       9.087   2.806  -8.488  1.00  0.00     0.064 C 
ATOM      7  O   UNL     1       9.145   3.195  -9.683  1.00  0.00    -0.545 OA
ATOM      8  O   UNL     1       9.076   1.443  -8.223  1.00  0.00    -0.545 OA
ENDBRANCH   5   6
ENDBRANCH   3   4
ENDBRANCH   2   3
ENDBRANCH   1   2
BRANCH   1   9
ATOM      9  C   UNL     1       6.983   8.276  -6.498  1.00  0.00     0.000 C 
BRANCH   9  10
ATOM     10  C   UNL     1       8.485   8.607  -6.574  1.00  0.00     0.000 C 
BRANCH  10  11
ATOM     11  C   UNL     1       9.043   8.490  -8.001  1.00  0.00    -0.000 C 
BRANCH  11  12
ATOM     12  C   UNL     1      10.350   7.685  -8.060  1.00  0.00    -0.000 C 
BRANCH  12  13
ATOM     13  C   UNL     1      10.333   6.697  -9.233  1.00  0.00    -0.003 C 
ATOM     14  C   UNL     1       9.098   6.900 -10.107  1.00  0.00     0.004 C 
ENDBRANCH  12  13
ENDBRANCH  11  12
ENDBRANCH  10  11
ENDBRANCH   9  10
ENDBRANCH   1   9
TORSDOF 9
ENDMDL
MODEL 9
REMARK VINA RESULT:    -2.913     10.932     12.552
REMARK INTER + INTRA:          -5.399
REMARK INTER:                  -3.773
REMARK INTRA:                  -1.625
REMARK UNBOUND:                -0.953
REMARK SMILES CCCCCCCCCC=CC(=O)[O-]
REMARK SMILES IDX 7 1 8 2 9 3 10 4 11 5 12 6 13 7 14 8 6 9 5 10 4 11 3 12 2 13
REMARK SMILES IDX 1 14
REMARK H PARENT
REMARK Flexibility Score: inf
ROOT
ATOM      1  C   UNL     1       9.820   7.498  -9.248  1.00  0.00     0.000 C 
ENDROOT
BRANCH   1   2
ATOM      2  C   UNL     1      10.076   7.767  -7.754  1.00  0.00     0.004 C 
BRANCH   2   3
ATOM      3  C   UNL     1       8.771   8.010  -6.981  1.00  0.00     0.027 C 
BRANCH   3   4
ATOM      4  C   UNL     1       7.557   7.557  -7.750  1.00  0.00    -0.025 C 
ATOM      5  C   UNL     1       6.378   7.192  -7.220  1.00  0.00     0.020 C 
BRANCH   5   6
ATOM      6  C   UNL     1       6.010   7.208  -5.789  1.00  0.00     0.064 C 
ATOM      7  O   UNL     1       6.210   6.220  -5.035  1.00  0.00    -0.545 OA
ATOM      8  O   UNL     1       5.449   8.360  -5.253  1.00  0.00    -0.545 OA
ENDBRANCH   5   6
ENDBRANCH   3   4
ENDBRANCH   2   3
ENDBRANCH   1   2
BRANCH   1   9
ATOM      9  C   UNL     1      10.339   6.123  -9.696  1.00  0.00     0.000 C 
BRANCH   9  10
ATOM     10  C   UNL     1       9.222   5.227 -10.263  1.00  0.00     0.000 C 
BRANCH  10  11
ATOM     11  C   UNL     1       8.992   3.965  -9.416  1.00  0.00    -0.000 C 
BRANCH  11  12
ATOM     12  C   UNL     1       9.629   4.065  -8.022  1.00  0.00    -0.000 C 
BRANCH  12  13
ATOM     13  C   UNL     1       8.556   4.049  -6.927  1.00  0.00    -0.003 C 
ATOM     14  C   UNL     1       7.205   3.607  -7.485  1.00  0.00     0.004 C 
ENDBRANCH  12  13
ENDBRANCH  11  12
ENDBRANCH  10  11
ENDBRANCH   9  10
ENDBRANCH   1   9
TORSDOF 9
ENDMDL
