MODEL 1
REMARK VINA RESULT:    -4.640      0.000      0.000
REMARK INTER + INTRA:         -11.760
REMARK INTER:                  -8.980
REMARK INTRA:                  -2.780
REMARK UNBOUND:                -2.780
REMARK SMILES CCCCCCCCCCCCCCCCCC(=O)[O-]
REMARK SMILES IDX 10 1 11 2 12 3 13 4 14 5 15 6 16 7 17 8 18 9 19 10 20 11
REMARK SMILES IDX 9 12 8 13 7 14 6 15 5 16 4 17 3 18 2 19 1 20
REMARK H PARENT
REMARK Flexibility Score: inf
ROOT
ATOM      1  C   UNL     1      14.993 -29.340  22.654  1.00  0.00     0.000 C 
ENDROOT
BRANCH   1   2
ATOM      2  C   UNL     1      13.702 -29.732  23.394  1.00  0.00     0.000 C 
BRANCH   2   3
ATOM      3  C   UNL     1      13.191 -31.127  23.007  1.00  0.00     0.000 C 
BRANCH   3   4
ATOM      4  C   UNL     1      12.396 -31.075  21.693  1.00  0.00     0.000 C 
BRANCH   4   5
ATOM      5  C   UNL     1      13.112 -31.792  20.537  1.00  0.00     0.000 C 
BRANCH   5   6
ATOM      6  C   UNL     1      14.055 -32.905  21.026  1.00  0.00     0.000 C 
BRANCH   6   7
ATOM      7  C   UNL     1      14.625 -33.751  19.873  1.00  0.00     0.006 C 
BRANCH   7   8
ATOM      8  C   UNL     1      15.296 -35.061  20.318  1.00  0.00     0.053 C 
BRANCH   8   9
ATOM      9  C   UNL     1      16.461 -35.419  19.447  1.00  0.00     0.041 C 
ATOM     10  O   UNL     1      16.815 -36.621  19.322  1.00  0.00    -0.550 OA
ATOM     11  O   UNL     1      17.176 -34.419  18.798  1.00  0.00    -0.550 OA
ENDBRANCH   8   9
ENDBRANCH   7   8
ENDBRANCH   6   7
ENDBRANCH   5   6
ENDBRANCH   4   5
ENDBRANCH   3   4
ENDBRANCH   2   3
ENDBRANCH   1   2
BRANCH   1  12
ATOM     12  C   UNL     1      16.096 -30.419  22.654  1.00  0.00     0.000 C 
BRANCH  12  13
ATOM     13  C   UNL     1      17.162 -30.267  21.551  1.00  0.00    -0.000 C 
BRANCH  13  14
ATOM     14  C   UNL     1      17.515 -31.564  20.801  1.00  0.00    -0.000 C 
BRANCH  14  15
ATOM     15  C   UNL     1      18.975 -31.999  21.022  1.00  0.00    -0.000 C 
BRANCH  15  16
ATOM     16  C   UNL     1      19.172 -32.779  22.334  1.00  0.00    -0.000 C 
BRANCH  16  17
ATOM     17  C   UNL     1      18.865 -34.286  22.251  1.00  0.00    -0.000 C 
BRANCH  17  18
ATOM     18  C   UNL     1      17.543 -34.693  22.936  1.00  0.00    -0.000 C 
BRANCH  18  19
ATOM     19  C   UNL     1      17.105 -33.679  24.003  1.00  0.00    -0.003 C 
ATOM     20  C   UNL     1      15.608 -33.785  24.282  1.00  0.00     0.004 C 
ENDBRANCH  18  19
ENDBRANCH  17  18
ENDBRANCH  16  17
ENDBRANCH  15  16
ENDBRANCH  14  15
ENDBRANCH  13  14
ENDBRANCH  12  13
ENDBRANCH   1  12
TORSDOF 16
ENDMDL
MODEL 2
REMARK VINA RESULT:    -4.545      2.388      5.120
REMARK INTER + INTRA:         -11.577
REMARK INTER:                  -8.603
REMARK INTRA:                  -2.973
REMARK UNBOUND:                -2.780
REMARK SMILES CCCCCCCCCCCCCCCCCC(=O)[O-]
REMARK SMILES IDX 10 1 11 2 12 3 13 4 14 5 15 6 16 7 17 8 18 9 19 10 20 11
REMARK SMILES IDX 9 12 8 13 7 14 6 15 5 16 4 17 3 18 2 19 1 20
REMARK H PARENT
REMARK Flexibility Score: inf
ROOT
ATOM      1  C   UNL     1      14.615 -33.570  20.941  1.00  0.00     0.000 C 
ENDROOT
BRANCH   1   2
ATOM      2  C   UNL     1      15.110 -34.673  19.989  1.00  0.00     0.000 C 
BRANCH   2   3
ATOM      3  C   UNL     1      16.352 -34.258  19.188  1.00  0.00     0.000 C 
BRANCH   3   4
ATOM      4  C   UNL     1      17.472 -35.300  19.333  1.00  0.00     0.000 C 
BRANCH   4   5
ATOM      5  C   UNL     1      16.969 -36.638  19.902  1.00  0.00     0.000 C 
BRANCH   5   6
ATOM      6  C   UNL     1      17.761 -37.086  21.142  1.00  0.00     0.000 C 
BRANCH   6   7
ATOM      7  C   UNL     1      17.879 -35.977  22.205  1.00  0.00     0.006 C 
BRANCH   7   8
ATOM      8  C   UNL     1      18.788 -36.331  23.394  1.00  0.00     0.053 C 
BRANCH   8   9
ATOM      9  C   UNL     1      18.144 -36.011  24.708  1.00  0.00     0.041 C 
ATOM     10  O   UNL     1      18.741 -36.265  25.786  1.00  0.00    -0.550 OA
ATOM     11  O   UNL     1      16.868 -35.461  24.740  1.00  0.00    -0.550 OA
ENDBRANCH   8   9
ENDBRANCH   7   8
ENDBRANCH   6   7
ENDBRANCH   5   6
ENDBRANCH   4   5
ENDBRANCH   3   4
ENDBRANCH   2   3
ENDBRANCH   1   2
BRANCH   1  12
ATOM     12  C   UNL     1      14.980 -33.778  22.425  1.00  0.00     0.000 C 
BRANCH  12  13
ATOM     13  C   UNL     1      14.386 -32.741  23.399  1.00  0.00    -0.000 C 
BRANCH  13  14
ATOM     14  C   UNL     1      13.667 -31.555  22.730  1.00  0.00    -0.000 C 
BRANCH  14  15
ATOM     15  C   UNL     1      14.440 -30.232  22.878  1.00  0.00    -0.000 C 
BRANCH  15  16
ATOM     16  C   UNL     1      15.391 -29.963  21.698  1.00  0.00    -0.000 C 
BRANCH  16  17
ATOM     17  C   UNL     1      16.877 -30.257  21.978  1.00  0.00    -0.000 C 
BRANCH  17  18
ATOM     18  C   UNL     1      17.541 -31.171  20.927  1.00  0.00    -0.000 C 
BRANCH  18  19
ATOM     19  C   UNL     1      18.321 -32.327  21.570  1.00  0.00    -0.003 C 
ATOM     20  C   UNL     1      18.210 -32.286  23.092  1.00  0.00     0.004 C 
ENDBRANCH  18  19
ENDBRANCH  17  18
ENDBRANCH  16  17
ENDBRANCH  15  16
ENDBRANCH  14  15
ENDBRANCH  13  14
ENDBRANCH  12  13
ENDBRANCH   1  12
TORSDOF 16
ENDMDL
MODEL 3
REMARK VINA RESULT:    -4.541      2.284      5.130
REMARK INTER + INTRA:         -11.569
REMARK INTER:                  -8.977
REMARK INTRA:                  -2.592
REMARK UNBOUND:                -2.780
REMARK SMILES CCCCCCCCCCCCCCCCCC(=O)[O-]
REMARK SMILES IDX 10 1 11 2 12 3 13 4 14 5 15 6 16 7 17 8 18 9 19 10 20 11
REMARK SMILES IDX 9 12 8 13 7 14 6 15 5 16 4 17 3 18 2 19 1 20
REMARK H PARENT
REMARK Flexibility Score: inf
ROOT
ATOM      1  C   UNL     1      18.793 -32.518  20.675  1.00  0.00     0.000 C 
ENDROOT
BRANCH   1   2
ATOM      2  C   UNL     1      18.503 -33.969  20.254  1.00  0.00     0.000 C 
BRANCH   2   3
ATOM      3  C   UNL     1      17.392 -34.074  19.198  1.00  0.00     0.000 C 
BRANCH   3   4
ATOM      4  C   UNL     1      16.201 -34.883  19.733  1.00  0.00     0.000 C 
BRANCH   4   5
ATOM      5  C   UNL     1      14.913 -34.049  19.831  1.00  0.00     0.000 C 
BRANCH   5   6
ATOM      6  C   UNL     1      14.659 -33.521  21.254  1.00  0.00     0.000 C 
BRANCH   6   7
ATOM      7  C   UNL     1      15.470 -34.279  22.322  1.00  0.00     0.006 C 
BRANCH   7   8
ATOM      8  C   UNL     1      15.564 -33.558  23.677  1.00  0.00     0.053 C 
BRANCH   8   9
ATOM      9  C   UNL     1      16.592 -34.180  24.573  1.00  0.00     0.041 C 
ATOM     10  O   UNL     1      16.738 -35.430  24.600  1.00  0.00    -0.550 OA
ATOM     11  O   UNL     1      17.367 -33.377  25.402  1.00  0.00    -0.550 OA
ENDBRANCH   8   9
ENDBRANCH   7   8
ENDBRANCH   6   7
ENDBRANCH   5   6
ENDBRANCH   4   5
ENDBRANCH   3   4
ENDBRANCH   2   3
ENDBRANCH   1   2
BRANCH   1  12
ATOM     12  C   UNL     1      18.631 -32.233  22.182  1.00  0.00     0.000 C 
BRANCH  12  13
ATOM     13  C   UNL     1      17.845 -30.953  22.527  1.00  0.00    -0.000 C 
BRANCH  13  14
ATOM     14  C   UNL     1      16.789 -30.535  21.486  1.00  0.00    -0.000 C 
BRANCH  14  15
ATOM     15  C   UNL     1      15.599 -29.788  22.115  1.00  0.00    -0.000 C 
BRANCH  15  16
ATOM     16  C   UNL     1      14.276 -30.045  21.372  1.00  0.00    -0.000 C 
BRANCH  16  17
ATOM     17  C   UNL     1      13.104 -30.497  22.263  1.00  0.00    -0.000 C 
BRANCH  17  18
ATOM     18  C   UNL     1      13.249 -30.083  23.743  1.00  0.00    -0.000 C 
BRANCH  18  19
ATOM     19  C   UNL     1      12.354 -28.887  24.103  1.00  0.00    -0.003 C 
ATOM     20  C   UNL     1      13.170 -27.602  24.209  1.00  0.00     0.004 C 
ENDBRANCH  18  19
ENDBRANCH  17  18
ENDBRANCH  16  17
ENDBRANCH  15  16
ENDBRANCH  14  15
ENDBRANCH  13  14
ENDBRANCH  12  13
ENDBRANCH   1  12
TORSDOF 16
ENDMDL
MODEL 4
REMARK VINA RESULT:    -4.481      3.332      5.172
REMARK INTER + INTRA:         -11.452
REMARK INTER:                  -9.001
REMARK INTRA:                  -2.451
REMARK UNBOUND:                -2.780
REMARK SMILES CCCCCCCCCCCCCCCCCC(=O)[O-]
REMARK SMILES IDX 10 1 11 2 12 3 13 4 14 5 15 6 16 7 17 8 18 9 19 10 20 11
REMARK SMILES IDX 9 12 8 13 7 14 6 15 5 16 4 17 3 18 2 19 1 20
REMARK H PARENT
REMARK Flexibility Score: inf
ROOT
ATOM      1  C   UNL     1      16.743 -35.328  19.373  1.00  0.00     0.000 C 
ENDROOT
BRANCH   1   2
ATOM      2  C   UNL     1      15.563 -35.275  20.358  1.00  0.00     0.000 C 
BRANCH   2   3
ATOM      3  C   UNL     1      14.700 -34.016  20.188  1.00  0.00     0.000 C 
BRANCH   3   4
ATOM      4  C   UNL     1      14.632 -33.216  21.498  1.00  0.00     0.000 C 
BRANCH   4   5
ATOM      5  C   UNL     1      14.511 -31.701  21.263  1.00  0.00     0.000 C 
BRANCH   5   6
ATOM      6  C   UNL     1      13.076 -31.272  20.911  1.00  0.00     0.000 C 
BRANCH   6   7
ATOM      7  C   UNL     1      12.284 -30.781  22.138  1.00  0.00     0.006 C 
BRANCH   7   8
ATOM      8  C   UNL     1      13.140 -30.080  23.207  1.00  0.00     0.053 C 
BRANCH   8   9
ATOM      9  C   UNL     1      12.543 -28.774  23.634  1.00  0.00     0.041 C 
ATOM     10  O   UNL     1      11.294 -28.637  23.698  1.00  0.00    -0.550 OA
ATOM     11  O   UNL     1      13.370 -27.697  23.929  1.00  0.00    -0.550 OA
ENDBRANCH   8   9
ENDBRANCH   7   8
ENDBRANCH   6   7
ENDBRANCH   5   6
ENDBRANCH   4   5
ENDBRANCH   3   4
ENDBRANCH   2   3
ENDBRANCH   1   2
BRANCH   1  12
ATOM     12  C   UNL     1      17.506 -33.999  19.198  1.00  0.00     0.000 C 
BRANCH  12  13
ATOM     13  C   UNL     1      18.330 -33.549  20.420  1.00  0.00    -0.000 C 
BRANCH  13  14
ATOM     14  C   UNL     1      18.365 -32.028  20.658  1.00  0.00    -0.000 C 
BRANCH  14  15
ATOM     15  C   UNL     1      18.729 -31.663  22.109  1.00  0.00    -0.000 C 
BRANCH  15  16
ATOM     16  C   UNL     1      17.536 -31.091  22.895  1.00  0.00    -0.000 C 
BRANCH  16  17
ATOM     17  C   UNL     1      17.258 -31.773  24.248  1.00  0.00    -0.000 C 
BRANCH  17  18
ATOM     18  C   UNL     1      17.893 -33.173  24.384  1.00  0.00    -0.000 C 
BRANCH  18  19
ATOM     19  C   UNL     1      16.903 -34.296  24.042  1.00  0.00    -0.003 C 
ATOM     20  C   UNL     1      17.622 -35.499  23.437  1.00  0.00     0.004 C 
ENDBRANCH  18  19
ENDBRANCH  17  18
ENDBRANCH  16  17
ENDBRANCH  15  16
ENDBRANCH  14  15
ENDBRANCH  13  14
ENDBRANCH  12  13
ENDBRANCH   1  12
TORSDOF 16
ENDMDL
MODEL 5
REMARK VINA RESULT:    -4.470      4.307      7.160
REMARK INTER + INTRA:         -11.430
REMARK INTER:                  -9.594
REMARK INTRA:                  -1.836
REMARK UNBOUND:                -2.780
REMARK SMILES CCCCCCCCCCCCCCCCCC(=O)[O-]
REMARK SMILES IDX 10 1 11 2 12 3 13 4 14 5 15 6 16 7 17 8 18 9 19 10 20 11
REMARK SMILES IDX 9 12 8 13 7 14 6 15 5 16 4 17 3 18 2 19 1 20
REMARK H PARENT
REMARK Flexibility Score: inf
ROOT
ATOM      1  C   UNL     1      17.172 -30.659  22.124  1.00  0.00     0.000 C 
ENDROOT
BRANCH   1   2
ATOM      2  C   UNL     1      17.949 -31.247  20.933  1.00  0.00     0.000 C 
BRANCH   2   3
ATOM      3  C   UNL     1      19.366 -31.702  21.311  1.00  0.00     0.000 C 
BRANCH   3   4
ATOM      4  C   UNL     1      20.420 -30.730  20.759  1.00  0.00     0.000 C 
BRANCH   4   5
ATOM      5  C   UNL     1      20.535 -29.443  21.591  1.00  0.00     0.000 C 
BRANCH   5   6
ATOM      6  C   UNL     1      19.929 -28.222  20.877  1.00  0.00     0.000 C 
BRANCH   6   7
ATOM      7  C   UNL     1      20.583 -26.896  21.306  1.00  0.00     0.006 C 
BRANCH   7   8
ATOM      8  C   UNL     1      20.920 -25.948  20.143  1.00  0.00     0.053 C 
BRANCH   8   9
ATOM      9  C   UNL     1      22.397 -25.757  19.984  1.00  0.00     0.041 C 
ATOM     10  O   UNL     1      22.908 -24.615  20.121  1.00  0.00    -0.550 OA
ATOM     11  O   UNL     1      23.205 -26.839  19.654  1.00  0.00    -0.550 OA
ENDBRANCH   8   9
ENDBRANCH   7   8
ENDBRANCH   6   7
ENDBRANCH   5   6
ENDBRANCH   4   5
ENDBRANCH   3   4
ENDBRANCH   2   3
ENDBRANCH   1   2
BRANCH   1  12
ATOM     12  C   UNL     1      16.272 -29.455  21.783  1.00  0.00     0.000 C 
BRANCH  12  13
ATOM     13  C   UNL     1      14.775 -29.781  21.610  1.00  0.00    -0.000 C 
BRANCH  13  14
ATOM     14  C   UNL     1      13.872 -29.333  22.774  1.00  0.00    -0.000 C 
BRANCH  14  15
ATOM     15  C   UNL     1      13.531 -30.484  23.738  1.00  0.00    -0.000 C 
BRANCH  15  16
ATOM     16  C   UNL     1      13.540 -31.860  23.049  1.00  0.00    -0.000 C 
BRANCH  16  17
ATOM     17  C   UNL     1      14.504 -32.893  23.666  1.00  0.00    -0.000 C 
BRANCH  17  18
ATOM     18  C   UNL     1      15.205 -33.792  22.626  1.00  0.00    -0.000 C 
BRANCH  18  19
ATOM     19  C   UNL     1      14.643 -33.591  21.210  1.00  0.00    -0.003 C 
ATOM     20  C   UNL     1      15.225 -34.612  20.237  1.00  0.00     0.004 C 
ENDBRANCH  18  19
ENDBRANCH  17  18
ENDBRANCH  16  17
ENDBRANCH  15  16
ENDBRANCH  14  15
ENDBRANCH  13  14
ENDBRANCH  12  13
ENDBRANCH   1  12
TORSDOF 16
ENDMDL
MODEL 6
REMARK VINA RESULT:    -4.463      3.042      5.601
REMARK INTER + INTRA:         -11.417
REMARK INTER:                  -8.590
REMARK INTRA:                  -2.826
REMARK UNBOUND:                -2.780
REMARK SMILES CCCCCCCCCCCCCCCCCC(=O)[O-]
REMARK SMILES IDX 10 1 11 2 12 3 13 4 14 5 15 6 16 7 17 8 18 9 19 10 20 11
REMARK SMILES IDX 9 12 8 13 7 14 6 15 5 16 4 17 3 18 2 19 1 20
REMARK H PARENT
REMARK Flexibility Score: inf
ROOT
ATOM      1  C   UNL     1      18.003 -34.143  19.508  1.00  0.00     0.000 C 
ENDROOT
BRANCH   1   2
ATOM      2  C   UNL     1      18.714 -34.004  20.866  1.00  0.00     0.000 C 
BRANCH   2   3
ATOM      3  C   UNL     1      18.783 -32.551  21.358  1.00  0.00     0.000 C 
BRANCH   3   4
ATOM      4  C   UNL     1      17.623 -31.722  20.786  1.00  0.00     0.000 C 
BRANCH   4   5
ATOM      5  C   UNL     1      17.584 -30.290  21.345  1.00  0.00     0.000 C 
BRANCH   5   6
ATOM      6  C   UNL     1      16.512 -30.111  22.434  1.00  0.00     0.000 C 
BRANCH   6   7
ATOM      7  C   UNL     1      15.106 -29.879  21.851  1.00  0.00     0.006 C 
BRANCH   7   8
ATOM      8  C   UNL     1      13.956 -30.323  22.772  1.00  0.00     0.053 C 
BRANCH   8   9
ATOM      9  C   UNL     1      12.959 -29.226  22.992  1.00  0.00     0.041 C 
ATOM     10  O   UNL     1      11.746 -29.405  22.707  1.00  0.00    -0.550 OA
ATOM     11  O   UNL     1      13.378 -27.995  23.482  1.00  0.00    -0.550 OA
ENDBRANCH   8   9
ENDBRANCH   7   8
ENDBRANCH   6   7
ENDBRANCH   5   6
ENDBRANCH   4   5
ENDBRANCH   3   4
ENDBRANCH   2   3
ENDBRANCH   1   2
BRANCH   1  12
ATOM     12  C   UNL     1      17.231 -35.464  19.310  1.00  0.00     0.000 C 
BRANCH  12  13
ATOM     13  C   UNL     1      15.826 -35.504  19.943  1.00  0.00    -0.000 C 
BRANCH  13  14
ATOM     14  C   UNL     1      15.016 -34.201  19.816  1.00  0.00    -0.000 C 
BRANCH  14  15
ATOM     15  C   UNL     1      14.648 -33.596  21.182  1.00  0.00    -0.000 C 
BRANCH  15  16
ATOM     16  C   UNL     1      15.354 -34.299  22.355  1.00  0.00    -0.000 C 
BRANCH  16  17
ATOM     17  C   UNL     1      15.674 -33.395  23.561  1.00  0.00    -0.000 C 
BRANCH  17  18
ATOM     18  C   UNL     1      16.497 -34.094  24.664  1.00  0.00    -0.000 C 
BRANCH  18  19
ATOM     19  C   UNL     1      17.694 -33.247  25.122  1.00  0.00    -0.003 C 
ATOM     20  C   UNL     1      19.014 -33.945  24.807  1.00  0.00     0.004 C 
ENDBRANCH  18  19
ENDBRANCH  17  18
ENDBRANCH  16  17
ENDBRANCH  15  16
ENDBRANCH  14  15
ENDBRANCH  13  14
ENDBRANCH  12  13
ENDBRANCH   1  12
TORSDOF 16
ENDMDL
MODEL 7
REMARK VINA RESULT:    -4.423      1.422      4.821
REMARK INTER + INTRA:         -11.341
REMARK INTER:                  -9.030
REMARK INTRA:                  -2.310
REMARK UNBOUND:                -2.780
REMARK SMILES CCCCCCCCCCCCCCCCCC(=O)[O-]
REMARK SMILES IDX 10 1 11 2 12 3 13 4 14 5 15 6 16 7 17 8 18 9 19 10 20 11
REMARK SMILES IDX 9 12 8 13 7 14 6 15 5 16 4 17 3 18 2 19 1 20
REMARK H PARENT
REMARK Flexibility Score: inf
ROOT
ATOM      1  C   UNL     1      16.450 -32.376  23.936  1.00  0.00     0.000 C 
ENDROOT
BRANCH   1   2
ATOM      2  C   UNL     1      17.323 -31.130  23.704  1.00  0.00     0.000 C 
BRANCH   2   3
ATOM      3  C   UNL     1      16.833 -30.267  22.532  1.00  0.00     0.000 C 
BRANCH   3   4
ATOM      4  C   UNL     1      17.794 -30.367  21.337  1.00  0.00     0.000 C 
BRANCH   4   5
ATOM      5  C   UNL     1      17.603 -31.661  20.528  1.00  0.00     0.000 C 
BRANCH   5   6
ATOM      6  C   UNL     1      18.660 -32.727  20.863  1.00  0.00     0.000 C 
BRANCH   6   7
ATOM      7  C   UNL     1      18.360 -34.088  20.208  1.00  0.00     0.006 C 
BRANCH   7   8
ATOM      8  C   UNL     1      17.797 -35.146  21.172  1.00  0.00     0.053 C 
BRANCH   8   9
ATOM      9  C   UNL     1      16.978 -36.177  20.456  1.00  0.00     0.041 C 
ATOM     10  O   UNL     1      17.361 -37.376  20.417  1.00  0.00    -0.550 OA
ATOM     11  O   UNL     1      15.808 -35.806  19.804  1.00  0.00    -0.550 OA
ENDBRANCH   8   9
ENDBRANCH   7   8
ENDBRANCH   6   7
ENDBRANCH   5   6
ENDBRANCH   4   5
ENDBRANCH   3   4
ENDBRANCH   2   3
ENDBRANCH   1   2
BRANCH   1  12
ATOM     12  C   UNL     1      15.024 -32.289  23.355  1.00  0.00     0.000 C 
BRANCH  12  13
ATOM     13  C   UNL     1      14.643 -33.420  22.380  1.00  0.00    -0.000 C 
BRANCH  13  14
ATOM     14  C   UNL     1      14.233 -32.956  20.971  1.00  0.00    -0.000 C 
BRANCH  14  15
ATOM     15  C   UNL     1      13.901 -31.454  20.913  1.00  0.00    -0.000 C 
BRANCH  15  16
ATOM     16  C   UNL     1      12.391 -31.174  21.009  1.00  0.00    -0.000 C 
BRANCH  16  17
ATOM     17  C   UNL     1      11.873 -30.862  22.426  1.00  0.00    -0.000 C 
BRANCH  17  18
ATOM     18  C   UNL     1      11.763 -29.354  22.733  1.00  0.00    -0.000 C 
BRANCH  18  19
ATOM     19  C   UNL     1      12.517 -28.964  24.014  1.00  0.00    -0.003 C 
ATOM     20  C   UNL     1      13.190 -27.603  23.863  1.00  0.00     0.004 C 
ENDBRANCH  18  19
ENDBRANCH  17  18
ENDBRANCH  16  17
ENDBRANCH  15  16
ENDBRANCH  14  15
ENDBRANCH  13  14
ENDBRANCH  12  13
ENDBRANCH   1  12
TORSDOF 16
ENDMDL
MODEL 8
REMARK VINA RESULT:    -4.413      3.224      4.931
REMARK INTER + INTRA:         -11.321
REMARK INTER:                  -8.680
REMARK INTRA:                  -2.640
REMARK UNBOUND:                -2.780
REMARK SMILES CCCCCCCCCCCCCCCCCC(=O)[O-]
REMARK SMILES IDX 10 1 11 2 12 3 13 4 14 5 15 6 16 7 17 8 18 9 19 10 20 11
REMARK SMILES IDX 9 12 8 13 7 14 6 15 5 16 4 17 3 18 2 19 1 20
REMARK H PARENT
REMARK Flexibility Score: inf
ROOT
ATOM      1  C   UNL     1      18.099 -33.643  20.633  1.00  0.00     0.000 C 
ENDROOT
BRANCH   1   2
ATOM      2  C   UNL     1      16.644 -33.688  20.136  1.00  0.00     0.000 C 
BRANCH   2   3
ATOM      3  C   UNL     1      15.703 -34.420  21.105  1.00  0.00     0.000 C 
BRANCH   3   4
ATOM      4  C   UNL     1      14.628 -33.468  21.650  1.00  0.00     0.000 C 
BRANCH   4   5
ATOM      5  C   UNL     1      13.892 -32.703  20.537  1.00  0.00     0.000 C 
BRANCH   5   6
ATOM      6  C   UNL     1      13.256 -31.396  21.042  1.00  0.00     0.000 C 
BRANCH   6   7
ATOM      7  C   UNL     1      13.182 -31.325  22.578  1.00  0.00     0.006 C 
BRANCH   7   8
ATOM      8  C   UNL     1      13.651 -29.988  23.176  1.00  0.00     0.053 C 
BRANCH   8   9
ATOM      9  C   UNL     1      12.499 -29.127  23.596  1.00  0.00     0.041 C 
ATOM     10  O   UNL     1      12.573 -28.435  24.645  1.00  0.00    -0.550 OA
ATOM     11  O   UNL     1      11.330 -29.115  22.844  1.00  0.00    -0.550 OA
ENDBRANCH   8   9
ENDBRANCH   7   8
ENDBRANCH   6   7
ENDBRANCH   5   6
ENDBRANCH   4   5
ENDBRANCH   3   4
ENDBRANCH   2   3
ENDBRANCH   1   2
BRANCH   1  12
ATOM     12  C   UNL     1      18.661 -32.227  20.874  1.00  0.00     0.000 C 
BRANCH  12  13
ATOM     13  C   UNL     1      17.626 -31.088  20.792  1.00  0.00    -0.000 C 
BRANCH  13  14
ATOM     14  C   UNL     1      16.996 -30.680  22.136  1.00  0.00    -0.000 C 
BRANCH  14  15
ATOM     15  C   UNL     1      17.732 -31.286  23.345  1.00  0.00    -0.000 C 
BRANCH  15  16
ATOM     16  C   UNL     1      16.831 -32.201  24.193  1.00  0.00    -0.000 C 
BRANCH  16  17
ATOM     17  C   UNL     1      17.536 -33.428  24.802  1.00  0.00    -0.000 C 
BRANCH  17  18
ATOM     18  C   UNL     1      16.934 -34.778  24.359  1.00  0.00    -0.000 C 
BRANCH  18  19
ATOM     19  C   UNL     1      17.920 -35.942  24.541  1.00  0.00    -0.003 C 
ATOM     20  C   UNL     1      17.998 -36.373  26.003  1.00  0.00     0.004 C 
ENDBRANCH  18  19
ENDBRANCH  17  18
ENDBRANCH  16  17
ENDBRANCH  15  16
ENDBRANCH  14  15
ENDBRANCH  13  14
ENDBRANCH  12  13
ENDBRANCH   1  12
TORSDOF 16
ENDMDL
MODEL 9
REMARK VINA RESULT:    -4.372      1.905      4.941
REMARK INTER + INTRA:         -11.240
REMARK INTER:                  -8.270
REMARK INTRA:                  -2.970
REMARK UNBOUND:                -2.780
REMARK SMILES CCCCCCCCCCCCCCCCCC(=O)[O-]
REMARK SMILES IDX 10 1 11 2 12 3 13 4 14 5 15 6 16 7 17 8 18 9 19 10 20 11
REMARK SMILES IDX 9 12 8 13 7 14 6 15 5 16 4 17 3 18 2 19 1 20
REMARK H PARENT
REMARK Flexibility Score: inf
ROOT
ATOM      1  C   UNL     1      18.640 -32.074  20.903  1.00  0.00     0.000 C 
ENDROOT
BRANCH   1   2
ATOM      2  C   UNL     1      17.436 -31.140  21.116  1.00  0.00     0.000 C 
BRANCH   2   3
ATOM      3  C   UNL     1      17.360 -30.580  22.544  1.00  0.00     0.000 C 
BRANCH   3   4
ATOM      4  C   UNL     1      17.036 -31.691  23.553  1.00  0.00     0.000 C 
BRANCH   4   5
ATOM      5  C   UNL     1      18.121 -31.848  24.632  1.00  0.00     0.000 C 
BRANCH   5   6
ATOM      6  C   UNL     1      18.007 -33.180  25.393  1.00  0.00     0.000 C 
BRANCH   6   7
ATOM      7  C   UNL     1      17.237 -34.254  24.601  1.00  0.00     0.006 C 
BRANCH   7   8
ATOM      8  C   UNL     1      17.904 -35.639  24.596  1.00  0.00     0.053 C 
BRANCH   8   9
ATOM      9  C   UNL     1      18.751 -35.849  23.378  1.00  0.00     0.041 C 
ATOM     10  O   UNL     1      18.420 -36.703  22.514  1.00  0.00    -0.550 OA
ATOM     11  O   UNL     1      19.924 -35.123  23.214  1.00  0.00    -0.550 OA
ENDBRANCH   8   9
ENDBRANCH   7   8
ENDBRANCH   6   7
ENDBRANCH   5   6
ENDBRANCH   4   5
ENDBRANCH   3   4
ENDBRANCH   2   3
ENDBRANCH   1   2
BRANCH   1  12
ATOM     12  C   UNL     1      18.280 -33.514  20.484  1.00  0.00     0.000 C 
BRANCH  12  13
ATOM     13  C   UNL     1      16.799 -33.742  20.121  1.00  0.00    -0.000 C 
BRANCH  13  14
ATOM     14  C   UNL     1      16.014 -34.624  21.109  1.00  0.00    -0.000 C 
BRANCH  14  15
ATOM     15  C   UNL     1      14.842 -33.877  21.770  1.00  0.00    -0.000 C 
BRANCH  15  16
ATOM     16  C   UNL     1      14.120 -32.924  20.801  1.00  0.00    -0.000 C 
BRANCH  16  17
ATOM     17  C   UNL     1      13.577 -31.631  21.439  1.00  0.00    -0.000 C 
BRANCH  17  18
ATOM     18  C   UNL     1      13.597 -31.641  22.982  1.00  0.00    -0.000 C 
BRANCH  18  19
ATOM     19  C   UNL     1      13.174 -30.289  23.578  1.00  0.00    -0.003 C 
ATOM     20  C   UNL     1      14.022 -29.151  23.018  1.00  0.00     0.004 C 
ENDBRANCH  18  19
ENDBRANCH  17  18
ENDBRANCH  16  17
ENDBRANCH  15  16
ENDBRANCH  14  15
ENDBRANCH  13  14
ENDBRANCH  12  13
ENDBRANCH   1  12
TORSDOF 16
ENDMDL
