MODEL 1
REMARK VINA RESULT:    -3.540      0.000      0.000
REMARK INTER + INTRA:          -4.266
REMARK INTER:                  -4.161
REMARK INTRA:                  -0.105
REMARK UNBOUND:                -0.105
REMARK SMILES CCCCC(=O)[O-]
REMARK SMILES IDX 4 1 5 2 6 3 7 4 3 5 2 6 1 7
REMARK H PARENT
REMARK Flexibility Score: inf
ROOT
ATOM      1  C   UNL     1      87.596  76.124  69.827  1.00  0.00     0.053 C 
ENDROOT
BRANCH   1   2
ATOM      2  C   UNL     1      87.690  76.510  71.271  1.00  0.00     0.041 C 
ATOM      3  O   UNL     1      87.847  77.716  71.595  1.00  0.00    -0.550 OA
ATOM      4  O   UNL     1      87.637  75.533  72.259  1.00  0.00    -0.550 OA
ENDBRANCH   1   2
BRANCH   1   5
ATOM      5  C   UNL     1      88.898  76.422  69.072  1.00  0.00     0.006 C 
BRANCH   5   6
ATOM      6  C   UNL     1      90.127  75.829  69.777  1.00  0.00    -0.003 C 
ATOM      7  C   UNL     1      91.128  76.919  70.146  1.00  0.00     0.004 C 
ENDBRANCH   5   6
ENDBRANCH   1   5
TORSDOF 3
ENDMDL
MODEL 2
REMARK VINA RESULT:    -3.533      2.479      3.095
REMARK INTER + INTRA:          -4.258
REMARK INTER:                  -4.158
REMARK INTRA:                  -0.100
REMARK UNBOUND:                -0.105
REMARK SMILES CCCCC(=O)[O-]
REMARK SMILES IDX 4 1 5 2 6 3 7 4 3 5 2 6 1 7
REMARK H PARENT
REMARK Flexibility Score: inf
ROOT
ATOM      1  C   UNL     1      89.041  74.050  69.486  1.00  0.00     0.053 C 
ENDROOT
BRANCH   1   2
ATOM      2  C   UNL     1      89.999  73.613  70.552  1.00  0.00     0.041 C 
ATOM      3  O   UNL     1      89.580  73.346  71.708  1.00  0.00    -0.550 OA
ATOM      4  O   UNL     1      91.359  73.533  70.276  1.00  0.00    -0.550 OA
ENDBRANCH   1   2
BRANCH   1   5
ATOM      5  C   UNL     1      89.431  75.409  68.892  1.00  0.00     0.006 C 
BRANCH   5   6
ATOM      6  C   UNL     1      89.450  76.522  69.951  1.00  0.00    -0.003 C 
ATOM      7  C   UNL     1      90.863  77.057  70.161  1.00  0.00     0.004 C 
ENDBRANCH   5   6
ENDBRANCH   1   5
TORSDOF 3
ENDMDL
MODEL 3
REMARK VINA RESULT:    -3.526      1.566      1.925
REMARK INTER + INTRA:          -4.250
REMARK INTER:                  -4.126
REMARK INTRA:                  -0.124
REMARK UNBOUND:                -0.105
REMARK SMILES CCCCC(=O)[O-]
REMARK SMILES IDX 4 1 5 2 6 3 7 4 3 5 2 6 1 7
REMARK H PARENT
REMARK Flexibility Score: inf
ROOT
ATOM      1  C   UNL     1      88.135  76.146  69.268  1.00  0.00     0.053 C 
ENDROOT
BRANCH   1   2
ATOM      2  C   UNL     1      88.197  76.551  70.709  1.00  0.00     0.041 C 
ATOM      3  O   UNL     1      87.160  76.518  71.421  1.00  0.00    -0.550 OA
ATOM      4  O   UNL     1      89.394  76.996  71.257  1.00  0.00    -0.550 OA
ENDBRANCH   1   2
BRANCH   1   5
ATOM      5  C   UNL     1      89.320  75.255  68.875  1.00  0.00     0.006 C 
BRANCH   5   6
ATOM      6  C   UNL     1      89.310  73.912  69.623  1.00  0.00    -0.003 C 
ATOM      7  C   UNL     1      90.604  73.709  70.404  1.00  0.00     0.004 C 
ENDBRANCH   5   6
ENDBRANCH   1   5
TORSDOF 3
ENDMDL
MODEL 4
REMARK VINA RESULT:    -3.525      2.107      3.237
REMARK INTER + INTRA:          -4.249
REMARK INTER:                  -4.164
REMARK INTRA:                  -0.085
REMARK UNBOUND:                -0.105
REMARK SMILES CCCCC(=O)[O-]
REMARK SMILES IDX 4 1 5 2 6 3 7 4 3 5 2 6 1 7
REMARK H PARENT
REMARK Flexibility Score: inf
ROOT
ATOM      1  C   UNL     1      89.185  76.292  68.953  1.00  0.00     0.053 C 
ENDROOT
BRANCH   1   2
ATOM      2  C   UNL     1      90.434  76.051  69.744  1.00  0.00     0.041 C 
ATOM      3  O   UNL     1      91.203  77.009  70.020  1.00  0.00    -0.550 OA
ATOM      4  O   UNL     1      90.766  74.764  70.148  1.00  0.00    -0.550 OA
ENDBRANCH   1   2
BRANCH   1   5
ATOM      5  C   UNL     1      87.924  76.023  69.783  1.00  0.00     0.006 C 
BRANCH   5   6
ATOM      6  C   UNL     1      87.874  76.880  71.057  1.00  0.00    -0.003 C 
ATOM      7  C   UNL     1      86.998  76.229  72.123  1.00  0.00     0.004 C 
ENDBRANCH   5   6
ENDBRANCH   1   5
TORSDOF 3
ENDMDL
MODEL 5
REMARK VINA RESULT:    -3.513      2.261      2.869
REMARK INTER + INTRA:          -4.234
REMARK INTER:                  -4.116
REMARK INTRA:                  -0.119
REMARK UNBOUND:                -0.105
REMARK SMILES CCCCC(=O)[O-]
REMARK SMILES IDX 4 1 5 2 6 3 7 4 3 5 2 6 1 7
REMARK H PARENT
REMARK Flexibility Score: inf
ROOT
ATOM      1  C   UNL     1      89.654  75.564  68.875  1.00  0.00     0.053 C 
ENDROOT
BRANCH   1   2
ATOM      2  C   UNL     1      89.922  76.586  69.937  1.00  0.00     0.041 C 
ATOM      3  O   UNL     1      91.063  77.105  70.042  1.00  0.00    -0.550 OA
ATOM      4  O   UNL     1      88.919  76.940  70.832  1.00  0.00    -0.550 OA
ENDBRANCH   1   2
BRANCH   1   5
ATOM      5  C   UNL     1      89.207  74.224  69.474  1.00  0.00     0.006 C 
BRANCH   5   6
ATOM      6  C   UNL     1      90.306  73.573  70.327  1.00  0.00    -0.003 C 
ATOM      7  C   UNL     1      89.883  73.479  71.789  1.00  0.00     0.004 C 
ENDBRANCH   5   6
ENDBRANCH   1   5
TORSDOF 3
ENDMDL
MODEL 6
REMARK VINA RESULT:    -3.450      2.235      3.296
REMARK INTER + INTRA:          -4.161
REMARK INTER:                  -4.026
REMARK INTRA:                  -0.135
REMARK UNBOUND:                -0.105
REMARK SMILES CCCCC(=O)[O-]
REMARK SMILES IDX 4 1 5 2 6 3 7 4 3 5 2 6 1 7
REMARK H PARENT
REMARK Flexibility Score: inf
ROOT
ATOM      1  C   UNL     1      88.900  75.134  69.139  1.00  0.00     0.053 C 
ENDROOT
BRANCH   1   2
ATOM      2  C   UNL     1      90.263  75.316  69.732  1.00  0.00     0.041 C 
ATOM      3  O   UNL     1      90.858  74.342  70.263  1.00  0.00    -0.550 OA
ATOM      4  O   UNL     1      90.863  76.570  69.728  1.00  0.00    -0.550 OA
ENDBRANCH   1   2
BRANCH   1   5
ATOM      5  C   UNL     1      87.956  76.282  69.517  1.00  0.00     0.006 C 
BRANCH   5   6
ATOM      6  C   UNL     1      87.547  76.234  70.998  1.00  0.00    -0.003 C 
ATOM      7  C   UNL     1      87.950  77.515  71.721  1.00  0.00     0.004 C 
ENDBRANCH   5   6
ENDBRANCH   1   5
TORSDOF 3
ENDMDL
MODEL 7
REMARK VINA RESULT:    -3.423      0.849      1.468
REMARK INTER + INTRA:          -4.129
REMARK INTER:                  -4.033
REMARK INTRA:                  -0.096
REMARK UNBOUND:                -0.105
REMARK SMILES CCCCC(=O)[O-]
REMARK SMILES IDX 4 1 5 2 6 3 7 4 3 5 2 6 1 7
REMARK H PARENT
REMARK Flexibility Score: inf
ROOT
ATOM      1  C   UNL     1      88.165  75.725  71.093  1.00  0.00     0.053 C 
ENDROOT
BRANCH   1   2
ATOM      2  C   UNL     1      87.412  76.742  71.894  1.00  0.00     0.041 C 
ATOM      3  O   UNL     1      86.408  76.399  72.570  1.00  0.00    -0.550 OA
ATOM      4  O   UNL     1      87.800  78.077  71.867  1.00  0.00    -0.550 OA
ENDBRANCH   1   2
BRANCH   1   5
ATOM      5  C   UNL     1      88.432  76.210  69.662  1.00  0.00     0.006 C 
BRANCH   5   6
ATOM      6  C   UNL     1      89.888  75.977  69.232  1.00  0.00    -0.003 C 
ATOM      7  C   UNL     1      90.852  76.778  70.101  1.00  0.00     0.004 C 
ENDBRANCH   5   6
ENDBRANCH   1   5
TORSDOF 3
ENDMDL
MODEL 8
REMARK VINA RESULT:    -3.376      2.353      3.269
REMARK INTER + INTRA:          -4.073
REMARK INTER:                  -3.971
REMARK INTRA:                  -0.102
REMARK UNBOUND:                -0.105
REMARK SMILES CCCCC(=O)[O-]
REMARK SMILES IDX 4 1 5 2 6 3 7 4 3 5 2 6 1 7
REMARK H PARENT
REMARK Flexibility Score: inf
ROOT
ATOM      1  C   UNL     1      90.177  73.644  70.703  1.00  0.00     0.053 C 
ENDROOT
BRANCH   1   2
ATOM      2  C   UNL     1      89.581  73.619  72.077  1.00  0.00     0.041 C 
ATOM      3  O   UNL     1      90.273  73.249  73.061  1.00  0.00    -0.550 OA
ATOM      4  O   UNL     1      88.251  73.975  72.266  1.00  0.00    -0.550 OA
ENDBRANCH   1   2
BRANCH   1   5
ATOM      5  C   UNL     1      89.112  73.876  69.624  1.00  0.00     0.006 C 
BRANCH   5   6
ATOM      6  C   UNL     1      89.322  75.200  68.875  1.00  0.00    -0.003 C 
ATOM      7  C   UNL     1      88.298  76.245  69.306  1.00  0.00     0.004 C 
ENDBRANCH   5   6
ENDBRANCH   1   5
TORSDOF 3
ENDMDL
MODEL 9
REMARK VINA RESULT:    -3.164      2.285      3.191
REMARK INTER + INTRA:          -3.824
REMARK INTER:                  -3.697
REMARK INTRA:                  -0.127
REMARK UNBOUND:                -0.105
REMARK SMILES CCCCC(=O)[O-]
REMARK SMILES IDX 4 1 5 2 6 3 7 4 3 5 2 6 1 7
REMARK H PARENT
REMARK Flexibility Score: inf
ROOT
ATOM      1  C   UNL     1      87.141  76.217  72.022  1.00  0.00     0.053 C 
ENDROOT
BRANCH   1   2
ATOM      2  C   UNL     1      87.893  76.471  70.752  1.00  0.00     0.041 C 
ATOM      3  O   UNL     1      87.366  76.207  69.640  1.00  0.00    -0.550 OA
ATOM      4  O   UNL     1      89.190  76.970  70.798  1.00  0.00    -0.550 OA
ENDBRANCH   1   2
BRANCH   1   5
ATOM      5  C   UNL     1      88.021  75.538  73.079  1.00  0.00     0.006 C 
BRANCH   5   6
ATOM      6  C   UNL     1      88.157  74.027  72.838  1.00  0.00    -0.003 C 
ATOM      7  C   UNL     1      89.607  73.644  72.560  1.00  0.00     0.004 C 
ENDBRANCH   5   6
ENDBRANCH   1   5
TORSDOF 3
ENDMDL
