MODEL 1
REMARK VINA RESULT:    -5.821      0.000      0.000
REMARK INTER + INTRA:          -7.734
REMARK INTER:                  -7.012
REMARK INTRA:                  -0.722
REMARK UNBOUND:                -0.722
REMARK SMILES O=c1ccn([C@H]2O[C@H](CO)[C@H](O)[C@@H]2O)c(=O)[nH]1
REMARK SMILES IDX 6 1 13 2 11 3 8 4 7 5 5 6 3 7 4 8 2 9 17 10 1 11 15 12 16 14
REMARK SMILES IDX 14 15 12 17 9 19 10 20
REMARK H PARENT 17 13 14 16 12 18 10 21
REMARK Flexibility Score: inf
ROOT
ATOM      1  C   UNL     1      18.281  40.773  32.038  1.00  0.00     0.255 C 
ATOM      2  C   UNL     1      17.020  41.635  31.918  1.00  0.00     0.196 C 
ATOM      3  C   UNL     1      16.880  42.208  33.309  1.00  0.00     0.179 C 
ATOM      4  C   UNL     1      18.348  42.285  33.755  1.00  0.00     0.178 C 
ATOM      5  O   UNL     1      19.093  41.292  33.074  1.00  0.00    -0.347 OA
ENDROOT
BRANCH   1   6
ATOM      6  N   UNL     1      19.020  40.723  30.759  1.00  0.00    -0.271 N 
ATOM      7  C   UNL     1      20.776  41.598  29.377  1.00  0.00     0.090 A 
ATOM      8  C   UNL     1      20.036  41.616  30.556  1.00  0.00     0.099 A 
ATOM      9  C   UNL     1      20.469  40.644  28.413  1.00  0.00     0.253 A 
ATOM     10  N   UNL     1      19.468  39.753  28.638  1.00  0.00    -0.274 N 
ATOM     11  O   UNL     1      21.121  40.603  27.336  1.00  0.00    -0.269 OA
ATOM     12  C   UNL     1      18.751  39.778  29.797  1.00  0.00     0.330 A 
ATOM     13  H   UNL     1      19.249  39.033  27.912  1.00  0.00     0.175 HD
ATOM     14  O   UNL     1      17.844  38.919  29.972  1.00  0.00    -0.248 OA
ENDBRANCH   1   6
BRANCH   2  15
ATOM     15  O   UNL     1      15.882  40.926  31.484  1.00  0.00    -0.386 OA
ATOM     16  H   UNL     1      15.451  40.498  32.266  1.00  0.00     0.211 HD
ENDBRANCH   2  15
BRANCH   3  17
ATOM     17  O   UNL     1      16.093  41.394  34.150  1.00  0.00    -0.387 OA
ATOM     18  H   UNL     1      15.745  41.952  34.893  1.00  0.00     0.211 HD
ENDBRANCH   3  17
BRANCH   4  19
ATOM     19  C   UNL     1      18.548  42.158  35.273  1.00  0.00     0.191 C 
BRANCH  19  20
ATOM     20  O   UNL     1      18.523  40.809  35.656  1.00  0.00    -0.394 OA
ATOM     21  H   UNL     1      18.803  40.777  36.607  1.00  0.00     0.210 HD
ENDBRANCH  19  20
ENDBRANCH   4  19
TORSDOF 5
ENDMDL
MODEL 2
REMARK VINA RESULT:    -5.228      2.125      5.444
REMARK INTER + INTRA:          -7.019
REMARK INTER:                  -6.436
REMARK INTRA:                  -0.583
REMARK UNBOUND:                -0.722
REMARK SMILES O=c1ccn([C@H]2O[C@H](CO)[C@H](O)[C@@H]2O)c(=O)[nH]1
REMARK SMILES IDX 6 1 13 2 11 3 8 4 7 5 5 6 3 7 4 8 2 9 17 10 1 11 15 12 16 14
REMARK SMILES IDX 14 15 12 17 9 19 10 20
REMARK H PARENT 17 13 14 16 12 18 10 21
REMARK Flexibility Score: inf
ROOT
ATOM      1  C   UNL     1      18.539  41.096  31.409  1.00  0.00     0.255 C 
ATOM      2  C   UNL     1      18.443  39.582  31.621  1.00  0.00     0.196 C 
ATOM      3  C   UNL     1      19.179  39.035  30.419  1.00  0.00     0.179 C 
ATOM      4  C   UNL     1      20.206  40.147  30.160  1.00  0.00     0.178 C 
ATOM      5  O   UNL     1      19.687  41.378  30.630  1.00  0.00    -0.347 OA
ENDROOT
BRANCH   1   6
ATOM      6  N   UNL     1      18.583  41.817  32.698  1.00  0.00    -0.271 N 
ATOM      7  C   UNL     1      19.132  41.796  35.034  1.00  0.00     0.090 A 
ATOM      8  C   UNL     1      19.051  41.156  33.801  1.00  0.00     0.099 A 
ATOM      9  C   UNL     1      18.737  43.127  35.121  1.00  0.00     0.253 A 
ATOM     10  N   UNL     1      18.292  43.773  34.013  1.00  0.00    -0.274 N 
ATOM     11  O   UNL     1      18.798  43.732  36.225  1.00  0.00    -0.269 OA
ATOM     12  C   UNL     1      18.219  43.138  32.809  1.00  0.00     0.330 A 
ATOM     13  H   UNL     1      18.005  44.776  34.084  1.00  0.00     0.175 HD
ATOM     14  O   UNL     1      17.817  43.783  31.802  1.00  0.00    -0.248 OA
ENDBRANCH   1   6
BRANCH   2  15
ATOM     15  O   UNL     1      17.123  39.105  31.738  1.00  0.00    -0.386 OA
ATOM     16  H   UNL     1      16.862  38.665  30.890  1.00  0.00     0.211 HD
ENDBRANCH   2  15
BRANCH   3  17
ATOM     17  O   UNL     1      18.324  38.810  29.321  1.00  0.00    -0.387 OA
ATOM     18  H   UNL     1      18.878  38.720  28.503  1.00  0.00     0.211 HD
ENDBRANCH   3  17
BRANCH   4  19
ATOM     19  C   UNL     1      20.633  40.273  28.689  1.00  0.00     0.191 C 
BRANCH  19  20
ATOM     20  O   UNL     1      19.630  40.911  27.945  1.00  0.00    -0.394 OA
ATOM     21  H   UNL     1      19.090  40.194  27.521  1.00  0.00     0.210 HD
ENDBRANCH  19  20
ENDBRANCH   4  19
TORSDOF 5
ENDMDL
MODEL 3
REMARK VINA RESULT:    -5.110      3.310      5.373
REMARK INTER + INTRA:          -6.877
REMARK INTER:                  -6.169
REMARK INTRA:                  -0.708
REMARK UNBOUND:                -0.722
REMARK SMILES O=c1ccn([C@H]2O[C@H](CO)[C@H](O)[C@@H]2O)c(=O)[nH]1
REMARK SMILES IDX 6 1 13 2 11 3 8 4 7 5 5 6 3 7 4 8 2 9 17 10 1 11 15 12 16 14
REMARK SMILES IDX 14 15 12 17 9 19 10 20
REMARK H PARENT 17 13 14 16 12 18 10 21
REMARK Flexibility Score: inf
ROOT
ATOM      1  C   UNL     1      17.230  42.723  32.036  1.00  0.00     0.255 C 
ATOM      2  C   UNL     1      16.905  41.810  33.222  1.00  0.00     0.196 C 
ATOM      3  C   UNL     1      17.657  40.545  32.879  1.00  0.00     0.179 C 
ATOM      4  C   UNL     1      18.848  41.105  32.087  1.00  0.00     0.178 C 
ATOM      5  O   UNL     1      18.468  42.325  31.478  1.00  0.00    -0.347 OA
ENDROOT
BRANCH   1   6
ATOM      6  N   UNL     1      17.263  44.142  32.445  1.00  0.00    -0.271 N 
ATOM      7  C   UNL     1      18.546  46.017  33.217  1.00  0.00     0.090 A 
ATOM      8  C   UNL     1      18.457  44.680  32.842  1.00  0.00     0.099 A 
ATOM      9  C   UNL     1      17.398  46.801  33.169  1.00  0.00     0.253 A 
ATOM     10  N   UNL     1      16.224  46.256  32.755  1.00  0.00    -0.274 N 
ATOM     11  O   UNL     1      17.448  48.014  33.504  1.00  0.00    -0.269 OA
ATOM     12  C   UNL     1      16.148  44.945  32.387  1.00  0.00     0.330 A 
ATOM     13  H   UNL     1      15.367  46.853  32.713  1.00  0.00     0.175 HD
ATOM     14  O   UNL     1      15.042  44.486  31.991  1.00  0.00    -0.248 OA
ENDBRANCH   1   6
BRANCH   2  15
ATOM     15  O   UNL     1      15.525  41.608  33.426  1.00  0.00    -0.386 OA
ATOM     16  H   UNL     1      15.040  42.440  33.194  1.00  0.00     0.211 HD
ENDBRANCH   2  15
BRANCH   3  17
ATOM     17  O   UNL     1      16.875  39.641  32.130  1.00  0.00    -0.387 OA
ATOM     18  H   UNL     1      16.606  38.891  32.721  1.00  0.00     0.211 HD
ENDBRANCH   3  17
BRANCH   4  19
ATOM     19  C   UNL     1      19.412  40.135  31.038  1.00  0.00     0.191 C 
BRANCH  19  20
ATOM     20  O   UNL     1      18.667  40.214  29.853  1.00  0.00    -0.394 OA
ATOM     21  H   UNL     1      18.333  39.299  29.664  1.00  0.00     0.210 HD
ENDBRANCH  19  20
ENDBRANCH   4  19
TORSDOF 5
ENDMDL
MODEL 4
REMARK VINA RESULT:    -5.102      2.626      5.727
REMARK INTER + INTRA:          -6.868
REMARK INTER:                  -6.251
REMARK INTRA:                  -0.617
REMARK UNBOUND:                -0.722
REMARK SMILES O=c1ccn([C@H]2O[C@H](CO)[C@H](O)[C@@H]2O)c(=O)[nH]1
REMARK SMILES IDX 6 1 13 2 11 3 8 4 7 5 5 6 3 7 4 8 2 9 17 10 1 11 15 12 16 14
REMARK SMILES IDX 14 15 12 17 9 19 10 20
REMARK H PARENT 17 13 14 16 12 18 10 21
REMARK Flexibility Score: inf
ROOT
ATOM      1  C   UNL     1      18.037  42.208  32.996  1.00  0.00     0.255 C 
ATOM      2  C   UNL     1      16.954  41.168  33.303  1.00  0.00     0.196 C 
ATOM      3  C   UNL     1      17.264  40.070  32.313  1.00  0.00     0.179 C 
ATOM      4  C   UNL     1      18.787  40.209  32.171  1.00  0.00     0.178 C 
ATOM      5  O   UNL     1      19.157  41.550  32.434  1.00  0.00    -0.347 OA
ENDROOT
BRANCH   1   6
ATOM      6  N   UNL     1      18.417  42.961  34.209  1.00  0.00    -0.271 N 
ATOM      7  C   UNL     1      18.913  42.940  36.556  1.00  0.00     0.090 A 
ATOM      8  C   UNL     1      18.538  42.280  35.390  1.00  0.00     0.099 A 
ATOM      9  C   UNL     1      19.174  44.304  36.496  1.00  0.00     0.253 A 
ATOM     10  N   UNL     1      19.067  44.961  35.312  1.00  0.00    -0.274 N 
ATOM     11  O   UNL     1      19.515  44.928  37.537  1.00  0.00    -0.269 OA
ATOM     12  C   UNL     1      18.701  44.306  34.175  1.00  0.00     0.330 A 
ATOM     13  H   UNL     1      19.273  45.986  35.273  1.00  0.00     0.175 HD
ATOM     14  O   UNL     1      18.633  44.952  33.093  1.00  0.00    -0.248 OA
ENDBRANCH   1   6
BRANCH   2  15
ATOM     15  O   UNL     1      15.640  41.666  33.200  1.00  0.00    -0.386 OA
ATOM     16  H   UNL     1      15.136  41.114  32.549  1.00  0.00     0.211 HD
ENDBRANCH   2  15
BRANCH   3  17
ATOM     17  O   UNL     1      16.580  40.238  31.091  1.00  0.00    -0.387 OA
ATOM     18  H   UNL     1      15.611  40.328  31.282  1.00  0.00     0.211 HD
ENDBRANCH   3  17
BRANCH   4  19
ATOM     19  C   UNL     1      19.331  39.762  30.805  1.00  0.00     0.191 C 
BRANCH  19  20
ATOM     20  O   UNL     1      19.058  40.733  29.831  1.00  0.00    -0.394 OA
ATOM     21  H   UNL     1      18.143  41.072  30.015  1.00  0.00     0.210 HD
ENDBRANCH  19  20
ENDBRANCH   4  19
TORSDOF 5
ENDMDL
MODEL 5
REMARK VINA RESULT:    -5.086      2.337      5.710
REMARK INTER + INTRA:          -6.849
REMARK INTER:                  -6.466
REMARK INTRA:                  -0.382
REMARK UNBOUND:                -0.722
REMARK SMILES O=c1ccn([C@H]2O[C@H](CO)[C@H](O)[C@@H]2O)c(=O)[nH]1
REMARK SMILES IDX 6 1 13 2 11 3 8 4 7 5 5 6 3 7 4 8 2 9 17 10 1 11 15 12 16 14
REMARK SMILES IDX 14 15 12 17 9 19 10 20
REMARK H PARENT 17 13 14 16 12 18 10 21
REMARK Flexibility Score: inf
ROOT
ATOM      1  C   UNL     1      20.202  39.752  30.335  1.00  0.00     0.255 C 
ATOM      2  C   UNL     1      19.677  39.523  28.915  1.00  0.00     0.196 C 
ATOM      3  C   UNL     1      20.540  38.383  28.426  1.00  0.00     0.179 C 
ATOM      4  C   UNL     1      20.823  37.633  29.736  1.00  0.00     0.178 C 
ATOM      5  O   UNL     1      20.764  38.546  30.817  1.00  0.00    -0.347 OA
ENDROOT
BRANCH   1   6
ATOM      6  N   UNL     1      19.129  40.232  31.232  1.00  0.00    -0.271 N 
ATOM      7  C   UNL     1      16.784  40.390  31.713  1.00  0.00     0.090 A 
ATOM      8  C   UNL     1      17.829  39.977  30.892  1.00  0.00     0.099 A 
ATOM      9  C   UNL     1      17.088  41.058  32.894  1.00  0.00     0.253 A 
ATOM     10  N   UNL     1      18.385  41.288  33.226  1.00  0.00    -0.274 N 
ATOM     11  O   UNL     1      16.163  41.445  33.657  1.00  0.00    -0.269 OA
ATOM     12  C   UNL     1      19.402  40.878  32.416  1.00  0.00     0.330 A 
ATOM     13  H   UNL     1      18.607  41.783  34.119  1.00  0.00     0.175 HD
ATOM     14  O   UNL     1      20.592  41.095  32.773  1.00  0.00    -0.248 OA
ENDBRANCH   1   6
BRANCH   2  15
ATOM     15  O   UNL     1      19.734  40.666  28.093  1.00  0.00    -0.386 OA
ATOM     16  H   UNL     1      20.678  40.956  28.009  1.00  0.00     0.211 HD
ENDBRANCH   2  15
BRANCH   3  17
ATOM     17  O   UNL     1      21.713  38.833  27.786  1.00  0.00    -0.387 OA
ATOM     18  H   UNL     1      22.442  38.876  28.458  1.00  0.00     0.211 HD
ENDBRANCH   3  17
BRANCH   4  19
ATOM     19  C   UNL     1      22.160  36.876  29.746  1.00  0.00     0.191 C 
BRANCH  19  20
ATOM     20  O   UNL     1      23.073  37.515  30.597  1.00  0.00    -0.394 OA
ATOM     21  H   UNL     1      22.554  37.850  31.374  1.00  0.00     0.210 HD
ENDBRANCH  19  20
ENDBRANCH   4  19
TORSDOF 5
ENDMDL
MODEL 6
REMARK VINA RESULT:    -4.998     13.865     15.127
REMARK INTER + INTRA:          -6.743
REMARK INTER:                  -6.019
REMARK INTRA:                  -0.724
REMARK UNBOUND:                -0.722
REMARK SMILES O=c1ccn([C@H]2O[C@H](CO)[C@H](O)[C@@H]2O)c(=O)[nH]1
REMARK SMILES IDX 6 1 13 2 11 3 8 4 7 5 5 6 3 7 4 8 2 9 17 10 1 11 15 12 16 14
REMARK SMILES IDX 14 15 12 17 9 19 10 20
REMARK H PARENT 17 13 14 16 12 18 10 21
REMARK Flexibility Score: inf
ROOT
ATOM      1  C   UNL     1       6.066  45.254  38.695  1.00  0.00     0.255 C 
ATOM      2  C   UNL     1       4.918  46.220  38.389  1.00  0.00     0.196 C 
ATOM      3  C   UNL     1       5.596  47.569  38.462  1.00  0.00     0.179 C 
ATOM      4  C   UNL     1       7.021  47.218  38.010  1.00  0.00     0.178 C 
ATOM      5  O   UNL     1       7.289  45.864  38.328  1.00  0.00    -0.347 OA
ENDROOT
BRANCH   1   6
ATOM      6  N   UNL     1       5.885  43.966  37.993  1.00  0.00    -0.271 N 
ATOM      7  C   UNL     1       6.391  42.580  36.101  1.00  0.00     0.090 A 
ATOM      8  C   UNL     1       6.514  43.782  36.792  1.00  0.00     0.099 A 
ATOM      9  C   UNL     1       5.626  41.564  36.662  1.00  0.00     0.253 A 
ATOM     10  N   UNL     1       5.023  41.756  37.864  1.00  0.00    -0.274 N 
ATOM     11  O   UNL     1       5.497  40.465  36.058  1.00  0.00    -0.269 OA
ATOM     12  C   UNL     1       5.151  42.936  38.534  1.00  0.00     0.330 A 
ATOM     13  H   UNL     1       4.456  40.985  38.283  1.00  0.00     0.175 HD
ATOM     14  O   UNL     1       4.590  43.065  39.656  1.00  0.00    -0.248 OA
ENDBRANCH   1   6
BRANCH   2  15
ATOM     15  O   UNL     1       3.818  46.094  39.260  1.00  0.00    -0.386 OA
ATOM     16  H   UNL     1       3.561  45.139  39.319  1.00  0.00     0.211 HD
ENDBRANCH   2  15
BRANCH   3  17
ATOM     17  O   UNL     1       5.552  48.124  39.758  1.00  0.00    -0.387 OA
ATOM     18  H   UNL     1       6.222  47.659  40.323  1.00  0.00     0.211 HD
ENDBRANCH   3  17
BRANCH   4  19
ATOM     19  C   UNL     1       8.106  48.132  38.599  1.00  0.00     0.191 C 
BRANCH  19  20
ATOM     20  O   UNL     1       8.383  47.767  39.924  1.00  0.00    -0.394 OA
ATOM     21  H   UNL     1       7.511  47.724  40.396  1.00  0.00     0.210 HD
ENDBRANCH  19  20
ENDBRANCH   4  19
TORSDOF 5
ENDMDL
MODEL 7
REMARK VINA RESULT:    -4.963     11.553     13.898
REMARK INTER + INTRA:          -6.700
REMARK INTER:                  -5.998
REMARK INTRA:                  -0.702
REMARK UNBOUND:                -0.722
REMARK SMILES O=c1ccn([C@H]2O[C@H](CO)[C@H](O)[C@@H]2O)c(=O)[nH]1
REMARK SMILES IDX 6 1 13 2 11 3 8 4 7 5 5 6 3 7 4 8 2 9 17 10 1 11 15 12 16 14
REMARK SMILES IDX 14 15 12 17 9 19 10 20
REMARK H PARENT 17 13 14 16 12 18 10 21
REMARK Flexibility Score: inf
ROOT
ATOM      1  C   UNL     1       6.871  40.675  36.393  1.00  0.00     0.255 C 
ATOM      2  C   UNL     1       8.362  40.332  36.311  1.00  0.00     0.196 C 
ATOM      3  C   UNL     1       8.529  39.935  34.863  1.00  0.00     0.179 C 
ATOM      4  C   UNL     1       7.459  40.804  34.185  1.00  0.00     0.178 C 
ATOM      5  O   UNL     1       6.421  41.071  35.111  1.00  0.00    -0.347 OA
ENDROOT
BRANCH   1   6
ATOM      6  N   UNL     1       6.618  41.733  37.393  1.00  0.00    -0.271 N 
ATOM      7  C   UNL     1       6.162  44.043  37.855  1.00  0.00     0.090 A 
ATOM      8  C   UNL     1       6.424  43.014  36.955  1.00  0.00     0.099 A 
ATOM      9  C   UNL     1       6.090  43.740  39.211  1.00  0.00     0.253 A 
ATOM     10  N   UNL     1       6.268  42.459  39.627  1.00  0.00    -0.274 N 
ATOM     11  O   UNL     1       5.855  44.651  40.049  1.00  0.00    -0.269 OA
ATOM     12  C   UNL     1       6.521  41.459  38.738  1.00  0.00     0.330 A 
ATOM     13  H   UNL     1       6.203  42.238  40.647  1.00  0.00     0.175 HD
ATOM     14  O   UNL     1       6.660  40.281  39.167  1.00  0.00    -0.248 OA
ENDBRANCH   1   6
BRANCH   2  15
ATOM     15  O   UNL     1       8.769  39.335  37.220  1.00  0.00    -0.386 OA
ATOM     16  H   UNL     1       8.532  38.446  36.851  1.00  0.00     0.211 HD
ENDBRANCH   2  15
BRANCH   3  17
ATOM     17  O   UNL     1       8.328  38.555  34.656  1.00  0.00    -0.387 OA
ATOM     18  H   UNL     1       7.746  38.437  33.861  1.00  0.00     0.211 HD
ENDBRANCH   3  17
BRANCH   4  19
ATOM     19  C   UNL     1       6.884  40.195  32.897  1.00  0.00     0.191 C 
BRANCH  19  20
ATOM     20  O   UNL     1       5.935  39.211  33.206  1.00  0.00    -0.394 OA
ATOM     21  H   UNL     1       5.602  39.412  34.119  1.00  0.00     0.210 HD
ENDBRANCH  19  20
ENDBRANCH   4  19
TORSDOF 5
ENDMDL
MODEL 8
REMARK VINA RESULT:    -4.958      2.795      5.345
REMARK INTER + INTRA:          -6.695
REMARK INTER:                  -6.072
REMARK INTRA:                  -0.623
REMARK UNBOUND:                -0.722
REMARK SMILES O=c1ccn([C@H]2O[C@H](CO)[C@H](O)[C@@H]2O)c(=O)[nH]1
REMARK SMILES IDX 6 1 13 2 11 3 8 4 7 5 5 6 3 7 4 8 2 9 17 10 1 11 15 12 16 14
REMARK SMILES IDX 14 15 12 17 9 19 10 20
REMARK H PARENT 17 13 14 16 12 18 10 21
REMARK Flexibility Score: inf
ROOT
ATOM      1  C   UNL     1      17.885  42.232  32.235  1.00  0.00     0.255 C 
ATOM      2  C   UNL     1      17.092  41.142  32.963  1.00  0.00     0.196 C 
ATOM      3  C   UNL     1      17.522  39.886  32.241  1.00  0.00     0.179 C 
ATOM      4  C   UNL     1      18.954  40.251  31.824  1.00  0.00     0.178 C 
ATOM      5  O   UNL     1      19.053  41.656  31.681  1.00  0.00    -0.347 OA
ENDROOT
BRANCH   1   6
ATOM      6  N   UNL     1      18.224  43.347  33.145  1.00  0.00    -0.271 N 
ATOM      7  C   UNL     1      19.137  44.068  35.243  1.00  0.00     0.090 A 
ATOM      8  C   UNL     1      18.781  43.053  34.359  1.00  0.00     0.099 A 
ATOM      9  C   UNL     1      18.925  45.389  34.862  1.00  0.00     0.253 A 
ATOM     10  N   UNL     1      18.388  45.663  33.645  1.00  0.00    -0.274 N 
ATOM     11  O   UNL     1      19.237  46.328  35.642  1.00  0.00    -0.269 OA
ATOM     12  C   UNL     1      18.045  44.662  32.786  1.00  0.00     0.330 A 
ATOM     13  H   UNL     1      18.240  46.658  33.362  1.00  0.00     0.175 HD
ATOM     14  O   UNL     1      17.567  44.964  31.658  1.00  0.00    -0.248 OA
ENDBRANCH   1   6
BRANCH   2  15
ATOM     15  O   UNL     1      15.698  41.349  32.955  1.00  0.00    -0.386 OA
ATOM     16  H   UNL     1      15.254  40.538  32.597  1.00  0.00     0.211 HD
ENDBRANCH   2  15
BRANCH   3  17
ATOM     17  O   UNL     1      16.689  39.585  31.144  1.00  0.00    -0.387 OA
ATOM     18  H   UNL     1      16.875  38.654  30.854  1.00  0.00     0.211 HD
ENDBRANCH   3  17
BRANCH   4  19
ATOM     19  C   UNL     1      19.429  39.548  30.543  1.00  0.00     0.191 C 
BRANCH  19  20
ATOM     20  O   UNL     1      18.927  40.207  29.412  1.00  0.00    -0.394 OA
ATOM     21  H   UNL     1      18.903  39.538  28.679  1.00  0.00     0.210 HD
ENDBRANCH  19  20
ENDBRANCH   4  19
TORSDOF 5
ENDMDL
MODEL 9
REMARK VINA RESULT:    -4.898     12.469     13.273
REMARK INTER + INTRA:          -6.623
REMARK INTER:                  -6.007
REMARK INTRA:                  -0.616
REMARK UNBOUND:                -0.722
REMARK SMILES O=c1ccn([C@H]2O[C@H](CO)[C@H](O)[C@@H]2O)c(=O)[nH]1
REMARK SMILES IDX 6 1 13 2 11 3 8 4 7 5 5 6 3 7 4 8 2 9 17 10 1 11 15 12 16 14
REMARK SMILES IDX 14 15 12 17 9 19 10 20
REMARK H PARENT 17 13 14 16 12 18 10 21
REMARK Flexibility Score: inf
ROOT
ATOM      1  C   UNL     1       6.987  40.919  24.512  1.00  0.00     0.255 C 
ATOM      2  C   UNL     1       6.108  42.174  24.500  1.00  0.00     0.196 C 
ATOM      3  C   UNL     1       5.868  42.421  25.971  1.00  0.00     0.179 C 
ATOM      4  C   UNL     1       7.163  41.869  26.586  1.00  0.00     0.178 C 
ATOM      5  O   UNL     1       7.689  40.863  25.740  1.00  0.00    -0.347 OA
ENDROOT
BRANCH   1   6
ATOM      6  N   UNL     1       7.921  40.908  23.367  1.00  0.00    -0.271 N 
ATOM      7  C   UNL     1       9.275  42.148  21.821  1.00  0.00     0.090 A 
ATOM      8  C   UNL     1       8.378  42.105  22.884  1.00  0.00     0.099 A 
ATOM      9  C   UNL     1       9.708  40.949  21.265  1.00  0.00     0.253 A 
ATOM     10  N   UNL     1       9.259  39.770  21.768  1.00  0.00    -0.274 N 
ATOM     11  O   UNL     1      10.519  40.957  20.301  1.00  0.00    -0.269 OA
ATOM     12  C   UNL     1       8.382  39.738  22.811  1.00  0.00     0.330 A 
ATOM     13  H   UNL     1       9.595  38.872  21.350  1.00  0.00     0.175 HD
ATOM     14  O   UNL     1       8.006  38.620  23.259  1.00  0.00    -0.248 OA
ENDBRANCH   1   6
BRANCH   2  15
ATOM     15  O   UNL     1       4.922  42.032  23.752  1.00  0.00    -0.386 OA
ATOM     16  H   UNL     1       4.308  41.420  24.232  1.00  0.00     0.211 HD
ENDBRANCH   2  15
BRANCH   3  17
ATOM     17  O   UNL     1       4.713  41.766  26.446  1.00  0.00    -0.387 OA
ATOM     18  H   UNL     1       4.994  41.006  27.018  1.00  0.00     0.211 HD
ENDBRANCH   3  17
BRANCH   4  19
ATOM     19  C   UNL     1       6.997  41.333  28.016  1.00  0.00     0.191 C 
BRANCH  19  20
ATOM     20  O   UNL     1       6.576  39.996  27.988  1.00  0.00    -0.394 OA
ATOM     21  H   UNL     1       7.396  39.438  28.002  1.00  0.00     0.210 HD
ENDBRANCH  19  20
ENDBRANCH   4  19
TORSDOF 5
ENDMDL
