MODEL 1
REMARK VINA RESULT:    38.411      0.000      0.000
REMARK INTER + INTRA:          47.044
REMARK INTER:                  47.393
REMARK INTRA:                  -0.349
REMARK UNBOUND:                -0.349
REMARK SMILES O=c1c(O)c(-c2cc(O)c(O)c(O)c2)oc2cc(O)cc(O)c12
REMARK SMILES IDX 5 1 3 2 2 3 1 4 23 5 21 6 20 7 18 8 17 9 16 10 15 11 6 12
REMARK SMILES IDX 7 13 8 14 14 15 10 16 12 17 9 18 11 20 13 22 4 24 22 26
REMARK SMILES IDX 19 28
REMARK H PARENT 9 19 11 21 13 23 4 25 22 27 19 29
REMARK Flexibility Score: inf
ROOT
ATOM      1  C   UNL     1      13.983  50.460  23.552  1.00  0.00     0.180 A 
ATOM      2  C   UNL     1      14.974  49.772  24.274  1.00  0.00     0.208 A 
ATOM      3  C   UNL     1      16.051  50.494  24.811  1.00  0.00     0.238 A 
ATOM      4  O   UNL     1      16.963  49.864  25.409  1.00  0.00    -0.285 OA
ATOM      5  C   UNL     1      16.117  51.897  24.633  1.00  0.00     0.111 A 
ATOM      6  C   UNL     1      17.143  52.734  25.167  1.00  0.00     0.134 A 
ATOM      7  C   UNL     1      17.179  54.090  24.818  1.00  0.00     0.093 A 
ATOM      8  C   UNL     1      16.190  54.652  24.009  1.00  0.00     0.123 A 
ATOM      9  C   UNL     1      15.152  53.855  23.531  1.00  0.00     0.094 A 
ATOM     10  C   UNL     1      15.109  52.492  23.832  1.00  0.00     0.146 A 
ATOM     11  O   UNL     1      14.107  51.766  23.347  1.00  0.00    -0.452 OA
ENDROOT
BRANCH   1  12
ATOM     12  C   UNL     1      12.804  49.772  22.979  1.00  0.00     0.029 A 
ATOM     13  C   UNL     1      11.688  49.455  23.768  1.00  0.00     0.062 A 
ATOM     14  C   UNL     1      10.573  48.827  23.206  1.00  0.00     0.162 A 
ATOM     15  C   UNL     1      12.775  49.480  21.608  1.00  0.00     0.062 A 
ATOM     16  C   UNL     1      10.553  48.512  21.835  1.00  0.00     0.200 A 
ATOM     17  C   UNL     1      11.668  48.849  21.029  1.00  0.00     0.162 A 
BRANCH  14  18
ATOM     18  O   UNL     1       9.488  48.525  24.030  1.00  0.00    -0.504 OA
ATOM     19  H   UNL     1       8.953  49.242  24.503  1.00  0.00     0.293 HD
ENDBRANCH  14  18
BRANCH  16  20
ATOM     20  O   UNL     1       9.423  47.876  21.314  1.00  0.00    -0.502 OA
ATOM     21  H   UNL     1       9.294  46.875  21.294  1.00  0.00     0.293 HD
ENDBRANCH  16  20
BRANCH  17  22
ATOM     22  O   UNL     1      11.718  48.581  19.659  1.00  0.00    -0.504 OA
ATOM     23  H   UNL     1      11.513  49.260  18.941  1.00  0.00     0.293 HD
ENDBRANCH  17  22
ENDBRANCH   1  12
BRANCH   2  24
ATOM     24  O   UNL     1      14.900  48.384  24.420  1.00  0.00    -0.502 OA
ATOM     25  H   UNL     1      14.019  47.884  24.429  1.00  0.00     0.293 HD
ENDBRANCH   2  24
BRANCH   6  26
ATOM     26  O   UNL     1      18.125  52.293  26.059  1.00  0.00    -0.507 OA
ATOM     27  H   UNL     1      18.228  51.340  26.375  1.00  0.00     0.293 HD
ENDBRANCH   6  26
BRANCH   8  28
ATOM     28  O   UNL     1      16.224  56.005  23.679  1.00  0.00    -0.508 OA
ATOM     29  H   UNL     1      15.816  56.708  24.284  1.00  0.00     0.293 HD
ENDBRANCH   8  28
TORSDOF 7
ENDMDL
MODEL 2
REMARK VINA RESULT:    38.836      2.132      6.960
REMARK INTER + INTRA:          47.568
REMARK INTER:                  47.750
REMARK INTRA:                  -0.182
REMARK UNBOUND:                -0.349
REMARK SMILES O=c1c(O)c(-c2cc(O)c(O)c(O)c2)oc2cc(O)cc(O)c12
REMARK SMILES IDX 5 1 3 2 2 3 1 4 23 5 21 6 20 7 18 8 17 9 16 10 15 11 6 12
REMARK SMILES IDX 7 13 8 14 14 15 10 16 12 17 9 18 11 20 13 22 4 24 22 26
REMARK SMILES IDX 19 28
REMARK H PARENT 9 19 11 21 13 23 4 25 22 27 19 29
REMARK Flexibility Score: inf
ROOT
ATOM      1  C   UNL     1      15.846  53.380  23.394  1.00  0.00     0.180 A 
ATOM      2  C   UNL     1      16.779  52.827  24.288  1.00  0.00     0.208 A 
ATOM      3  C   UNL     1      16.508  51.578  24.869  1.00  0.00     0.238 A 
ATOM      4  O   UNL     1      17.321  51.113  25.710  1.00  0.00    -0.285 OA
ATOM      5  C   UNL     1      15.315  50.891  24.538  1.00  0.00     0.111 A 
ATOM      6  C   UNL     1      14.957  49.602  25.036  1.00  0.00     0.134 A 
ATOM      7  C   UNL     1      13.693  49.075  24.744  1.00  0.00     0.093 A 
ATOM      8  C   UNL     1      12.801  49.762  23.918  1.00  0.00     0.123 A 
ATOM      9  C   UNL     1      13.164  50.993  23.379  1.00  0.00     0.094 A 
ATOM     10  C   UNL     1      14.404  51.561  23.681  1.00  0.00     0.146 A 
ATOM     11  O   UNL     1      14.707  52.742  23.154  1.00  0.00    -0.452 OA
ENDROOT
BRANCH   1  12
ATOM     12  C   UNL     1      16.073  54.680  22.722  1.00  0.00     0.029 A 
ATOM     13  C   UNL     1      16.187  54.770  21.326  1.00  0.00     0.062 A 
ATOM     14  C   UNL     1      16.378  56.007  20.705  1.00  0.00     0.162 A 
ATOM     15  C   UNL     1      16.119  55.854  23.487  1.00  0.00     0.062 A 
ATOM     16  C   UNL     1      16.449  57.183  21.475  1.00  0.00     0.200 A 
ATOM     17  C   UNL     1      16.312  57.101  22.882  1.00  0.00     0.162 A 
BRANCH  14  18
ATOM     18  O   UNL     1      16.493  56.049  19.315  1.00  0.00    -0.504 OA
ATOM     19  H   UNL     1      16.405  56.910  18.790  1.00  0.00     0.293 HD
ENDBRANCH  14  18
BRANCH  16  20
ATOM     20  O   UNL     1      16.649  58.399  20.816  1.00  0.00    -0.502 OA
ATOM     21  H   UNL     1      17.043  59.221  21.248  1.00  0.00     0.293 HD
ENDBRANCH  16  20
BRANCH  17  22
ATOM     22  O   UNL     1      16.358  58.223  23.712  1.00  0.00    -0.504 OA
ATOM     23  H   UNL     1      17.008  58.987  23.597  1.00  0.00     0.293 HD
ENDBRANCH  17  22
ENDBRANCH   1  12
BRANCH   2  24
ATOM     24  O   UNL     1      17.940  53.532  24.617  1.00  0.00    -0.502 OA
ATOM     25  H   UNL     1      18.703  53.112  25.134  1.00  0.00     0.293 HD
ENDBRANCH   2  24
BRANCH   6  26
ATOM     26  O   UNL     1      15.810  48.794  25.794  1.00  0.00    -0.507 OA
ATOM     27  H   UNL     1      16.204  47.920  25.478  1.00  0.00     0.293 HD
ENDBRANCH   6  26
BRANCH   8  28
ATOM     28  O   UNL     1      11.550  49.223  23.619  1.00  0.00    -0.508 OA
ATOM     29  H   UNL     1      10.830  49.133  24.325  1.00  0.00     0.293 HD
ENDBRANCH   8  28
TORSDOF 7
ENDMDL
MODEL 3
REMARK VINA RESULT:    38.972      2.105      6.797
REMARK INTER + INTRA:          47.736
REMARK INTER:                  47.935
REMARK INTRA:                  -0.199
REMARK UNBOUND:                -0.349
REMARK SMILES O=c1c(O)c(-c2cc(O)c(O)c(O)c2)oc2cc(O)cc(O)c12
REMARK SMILES IDX 5 1 3 2 2 3 1 4 23 5 21 6 20 7 18 8 17 9 16 10 15 11 6 12
REMARK SMILES IDX 7 13 8 14 14 15 10 16 12 17 9 18 11 20 13 22 4 24 22 26
REMARK SMILES IDX 19 28
REMARK H PARENT 9 19 11 21 13 23 4 25 22 27 19 29
REMARK Flexibility Score: inf
ROOT
ATOM      1  C   UNL     1      15.715  53.383  23.388  1.00  0.00     0.180 A 
ATOM      2  C   UNL     1      16.652  52.775  24.241  1.00  0.00     0.208 A 
ATOM      3  C   UNL     1      16.363  51.512  24.781  1.00  0.00     0.238 A 
ATOM      4  O   UNL     1      17.182  50.998  25.588  1.00  0.00    -0.285 OA
ATOM      5  C   UNL     1      15.148  50.865  24.450  1.00  0.00     0.111 A 
ATOM      6  C   UNL     1      14.770  49.567  24.907  1.00  0.00     0.134 A 
ATOM      7  C   UNL     1      13.489  49.080  24.622  1.00  0.00     0.093 A 
ATOM      8  C   UNL     1      12.596  49.817  23.840  1.00  0.00     0.123 A 
ATOM      9  C   UNL     1      12.978  51.059  23.339  1.00  0.00     0.094 A 
ATOM     10  C   UNL     1      14.236  51.587  23.637  1.00  0.00     0.146 A 
ATOM     11  O   UNL     1      14.556  52.780  23.148  1.00  0.00    -0.452 OA
ENDROOT
BRANCH   1  12
ATOM     12  C   UNL     1      15.959  54.701  22.760  1.00  0.00     0.029 A 
ATOM     13  C   UNL     1      16.063  55.869  23.531  1.00  0.00     0.062 A 
ATOM     14  C   UNL     1      16.317  57.103  22.925  1.00  0.00     0.162 A 
ATOM     15  C   UNL     1      16.146  54.781  21.373  1.00  0.00     0.062 A 
ATOM     16  C   UNL     1      16.481  57.187  21.530  1.00  0.00     0.200 A 
ATOM     17  C   UNL     1      16.399  56.008  20.749  1.00  0.00     0.162 A 
BRANCH  14  18
ATOM     18  O   UNL     1      16.407  58.238  23.730  1.00  0.00    -0.504 OA
ATOM     19  H   UNL     1      15.840  58.360  24.560  1.00  0.00     0.293 HD
ENDBRANCH  14  18
BRANCH  16  20
ATOM     20  O   UNL     1      16.725  58.440  20.963  1.00  0.00    -0.502 OA
ATOM     21  H   UNL     1      16.894  59.281  21.495  1.00  0.00     0.293 HD
ENDBRANCH  16  20
BRANCH  17  22
ATOM     22  O   UNL     1      16.563  56.009  19.362  1.00  0.00    -0.504 OA
ATOM     23  H   UNL     1      16.882  55.213  18.829  1.00  0.00     0.293 HD
ENDBRANCH  17  22
ENDBRANCH   1  12
BRANCH   2  24
ATOM     24  O   UNL     1      17.835  53.441  24.572  1.00  0.00    -0.502 OA
ATOM     25  H   UNL     1      18.389  53.939  23.886  1.00  0.00     0.293 HD
ENDBRANCH   2  24
BRANCH   6  26
ATOM     26  O   UNL     1      15.619  48.712  25.617  1.00  0.00    -0.507 OA
ATOM     27  H   UNL     1      16.180  48.987  26.409  1.00  0.00     0.293 HD
ENDBRANCH   6  26
BRANCH   8  28
ATOM     28  O   UNL     1      11.328  49.318  23.548  1.00  0.00    -0.508 OA
ATOM     29  H   UNL     1      10.530  49.931  23.443  1.00  0.00     0.293 HD
ENDBRANCH   8  28
TORSDOF 7
ENDMDL
MODEL 4
REMARK VINA RESULT:    39.175      4.258      6.406
REMARK INTER + INTRA:          47.987
REMARK INTER:                  48.197
REMARK INTRA:                  -0.210
REMARK UNBOUND:                -0.349
REMARK SMILES O=c1c(O)c(-c2cc(O)c(O)c(O)c2)oc2cc(O)cc(O)c12
REMARK SMILES IDX 5 1 3 2 2 3 1 4 23 5 21 6 20 7 18 8 17 9 16 10 15 11 6 12
REMARK SMILES IDX 7 13 8 14 14 15 10 16 12 17 9 18 11 20 13 22 4 24 22 26
REMARK SMILES IDX 19 28
REMARK H PARENT 9 19 11 21 13 23 4 25 22 27 19 29
REMARK Flexibility Score: inf
ROOT
ATOM      1  C   UNL     1      16.352  52.801  23.997  1.00  0.00     0.180 A 
ATOM      2  C   UNL     1      16.562  51.734  23.106  1.00  0.00     0.208 A 
ATOM      3  C   UNL     1      17.016  50.504  23.610  1.00  0.00     0.238 A 
ATOM      4  O   UNL     1      17.254  49.570  22.801  1.00  0.00    -0.285 OA
ATOM      5  C   UNL     1      17.239  50.353  25.000  1.00  0.00     0.111 A 
ATOM      6  C   UNL     1      17.661  49.141  25.626  1.00  0.00     0.134 A 
ATOM      7  C   UNL     1      17.977  49.141  26.990  1.00  0.00     0.093 A 
ATOM      8  C   UNL     1      17.823  50.293  27.764  1.00  0.00     0.123 A 
ATOM      9  C   UNL     1      17.355  51.465  27.175  1.00  0.00     0.094 A 
ATOM     10  C   UNL     1      17.067  51.506  25.809  1.00  0.00     0.146 A 
ATOM     11  O   UNL     1      16.633  52.647  25.285  1.00  0.00    -0.452 OA
ENDROOT
BRANCH   1  12
ATOM     12  C   UNL     1      15.850  54.118  23.544  1.00  0.00     0.029 A 
ATOM     13  C   UNL     1      16.616  54.942  22.705  1.00  0.00     0.062 A 
ATOM     14  C   UNL     1      16.118  56.173  22.267  1.00  0.00     0.162 A 
ATOM     15  C   UNL     1      14.562  54.530  23.913  1.00  0.00     0.062 A 
ATOM     16  C   UNL     1      14.835  56.597  22.657  1.00  0.00     0.200 A 
ATOM     17  C   UNL     1      14.049  55.760  23.486  1.00  0.00     0.162 A 
BRANCH  14  18
ATOM     18  O   UNL     1      16.917  56.961  21.439  1.00  0.00    -0.504 OA
ATOM     19  H   UNL     1      16.718  57.939  21.266  1.00  0.00     0.293 HD
ENDBRANCH  14  18
BRANCH  16  20
ATOM     20  O   UNL     1      14.379  57.838  22.205  1.00  0.00    -0.502 OA
ATOM     21  H   UNL     1      14.964  58.652  22.095  1.00  0.00     0.293 HD
ENDBRANCH  16  20
BRANCH  17  22
ATOM     22  O   UNL     1      12.762  56.106  23.904  1.00  0.00    -0.504 OA
ATOM     23  H   UNL     1      12.551  56.533  24.794  1.00  0.00     0.293 HD
ENDBRANCH  17  22
ENDBRANCH   1  12
BRANCH   2  24
ATOM     24  O   UNL     1      16.355  51.912  21.736  1.00  0.00    -0.502 OA
ATOM     25  H   UNL     1      17.118  51.945  21.070  1.00  0.00     0.293 HD
ENDBRANCH   2  24
BRANCH   6  26
ATOM     26  O   UNL     1      17.760  47.914  24.963  1.00  0.00    -0.507 OA
ATOM     27  H   UNL     1      18.398  47.174  25.215  1.00  0.00     0.293 HD
ENDBRANCH   6  26
BRANCH   8  28
ATOM     28  O   UNL     1      18.124  50.281  29.125  1.00  0.00    -0.508 OA
ATOM     29  H   UNL     1      19.069  50.426  29.459  1.00  0.00     0.293 HD
ENDBRANCH   8  28
TORSDOF 7
ENDMDL
MODEL 5
REMARK VINA RESULT:    40.050      3.604      8.510
REMARK INTER + INTRA:          49.067
REMARK INTER:                  48.975
REMARK INTRA:                   0.091
REMARK UNBOUND:                -0.349
REMARK SMILES O=c1c(O)c(-c2cc(O)c(O)c(O)c2)oc2cc(O)cc(O)c12
REMARK SMILES IDX 5 1 3 2 2 3 1 4 23 5 21 6 20 7 18 8 17 9 16 10 15 11 6 12
REMARK SMILES IDX 7 13 8 14 14 15 10 16 12 17 9 18 11 20 13 22 4 24 22 26
REMARK SMILES IDX 19 28
REMARK H PARENT 9 19 11 21 13 23 4 25 22 27 19 29
REMARK Flexibility Score: inf
ROOT
ATOM      1  C   UNL     1      16.252  55.310  25.388  1.00  0.00     0.180 A 
ATOM      2  C   UNL     1      15.504  55.048  24.227  1.00  0.00     0.208 A 
ATOM      3  C   UNL     1      15.341  53.718  23.808  1.00  0.00     0.238 A 
ATOM      4  O   UNL     1      14.717  53.494  22.738  1.00  0.00    -0.285 OA
ATOM      5  C   UNL     1      15.915  52.666  24.563  1.00  0.00     0.111 A 
ATOM      6  C   UNL     1      15.780  51.279  24.253  1.00  0.00     0.134 A 
ATOM      7  C   UNL     1      16.498  50.333  24.994  1.00  0.00     0.093 A 
ATOM      8  C   UNL     1      17.295  50.718  26.074  1.00  0.00     0.123 A 
ATOM      9  C   UNL     1      17.385  52.064  26.421  1.00  0.00     0.094 A 
ATOM     10  C   UNL     1      16.710  53.035  25.678  1.00  0.00     0.146 A 
ATOM     11  O   UNL     1      16.832  54.308  26.037  1.00  0.00    -0.452 OA
ENDROOT
BRANCH   1  12
ATOM     12  C   UNL     1      16.446  56.683  25.907  1.00  0.00     0.029 A 
ATOM     13  C   UNL     1      16.351  56.966  27.278  1.00  0.00     0.062 A 
ATOM     14  C   UNL     1      16.560  58.263  27.754  1.00  0.00     0.162 A 
ATOM     15  C   UNL     1      16.788  57.715  25.020  1.00  0.00     0.062 A 
ATOM     16  C   UNL     1      16.880  59.303  26.862  1.00  0.00     0.200 A 
ATOM     17  C   UNL     1      16.999  59.019  25.480  1.00  0.00     0.162 A 
BRANCH  14  18
ATOM     18  O   UNL     1      16.449  58.499  29.125  1.00  0.00    -0.504 OA
ATOM     19  H   UNL     1      15.618  58.904  29.539  1.00  0.00     0.293 HD
ENDBRANCH  14  18
BRANCH  16  20
ATOM     20  O   UNL     1      17.072  60.587  27.378  1.00  0.00    -0.502 OA
ATOM     21  H   UNL     1      16.443  61.361  27.225  1.00  0.00     0.293 HD
ENDBRANCH  16  20
BRANCH  17  22
ATOM     22  O   UNL     1      17.326  59.994  24.534  1.00  0.00    -0.504 OA
ATOM     23  H   UNL     1      18.267  60.300  24.338  1.00  0.00     0.293 HD
ENDBRANCH  17  22
ENDBRANCH   1  12
BRANCH   2  24
ATOM     24  O   UNL     1      14.964  56.102  23.486  1.00  0.00    -0.502 OA
ATOM     25  H   UNL     1      14.718  56.991  23.904  1.00  0.00     0.293 HD
ENDBRANCH   2  24
BRANCH   6  26
ATOM     26  O   UNL     1      14.939  50.781  23.253  1.00  0.00    -0.507 OA
ATOM     27  H   UNL     1      13.979  51.061  23.117  1.00  0.00     0.293 HD
ENDBRANCH   6  26
BRANCH   8  28
ATOM     28  O   UNL     1      17.994  49.769  26.816  1.00  0.00    -0.508 OA
ATOM     29  H   UNL     1      19.001  49.811  26.916  1.00  0.00     0.293 HD
ENDBRANCH   8  28
TORSDOF 7
ENDMDL
MODEL 6
REMARK VINA RESULT:    40.197      4.024      8.107
REMARK INTER + INTRA:          49.247
REMARK INTER:                  49.329
REMARK INTRA:                  -0.082
REMARK UNBOUND:                -0.349
REMARK SMILES O=c1c(O)c(-c2cc(O)c(O)c(O)c2)oc2cc(O)cc(O)c12
REMARK SMILES IDX 5 1 3 2 2 3 1 4 23 5 21 6 20 7 18 8 17 9 16 10 15 11 6 12
REMARK SMILES IDX 7 13 8 14 14 15 10 16 12 17 9 18 11 20 13 22 4 24 22 26
REMARK SMILES IDX 19 28
REMARK H PARENT 9 19 11 21 13 23 4 25 22 27 19 29
REMARK Flexibility Score: inf
ROOT
ATOM      1  C   UNL     1      16.265  54.262  26.019  1.00  0.00     0.180 A 
ATOM      2  C   UNL     1      15.975  54.177  24.646  1.00  0.00     0.208 A 
ATOM      3  C   UNL     1      16.124  52.944  23.993  1.00  0.00     0.238 A 
ATOM      4  O   UNL     1      15.915  52.888  22.753  1.00  0.00    -0.285 OA
ATOM      5  C   UNL     1      16.548  51.807  24.723  1.00  0.00     0.111 A 
ATOM      6  C   UNL     1      16.695  50.499  24.171  1.00  0.00     0.134 A 
ATOM      7  C   UNL     1      17.246  49.477  24.955  1.00  0.00     0.093 A 
ATOM      8  C   UNL     1      17.592  49.700  26.289  1.00  0.00     0.123 A 
ATOM      9  C   UNL     1      17.396  50.958  26.853  1.00  0.00     0.094 A 
ATOM     10  C   UNL     1      16.884  52.007  26.087  1.00  0.00     0.146 A 
ATOM     11  O   UNL     1      16.723  53.194  26.661  1.00  0.00    -0.452 OA
ENDROOT
BRANCH   1  12
ATOM     12  C   UNL     1      16.107  55.521  26.783  1.00  0.00     0.029 A 
ATOM     13  C   UNL     1      14.905  56.246  26.754  1.00  0.00     0.062 A 
ATOM     14  C   UNL     1      14.764  57.420  27.499  1.00  0.00     0.162 A 
ATOM     15  C   UNL     1      17.156  55.971  27.597  1.00  0.00     0.062 A 
ATOM     16  C   UNL     1      15.825  57.885  28.297  1.00  0.00     0.200 A 
ATOM     17  C   UNL     1      17.032  57.146  28.347  1.00  0.00     0.162 A 
BRANCH  14  18
ATOM     18  O   UNL     1      13.554  58.112  27.435  1.00  0.00    -0.504 OA
ATOM     19  H   UNL     1      13.221  58.541  26.581  1.00  0.00     0.293 HD
ENDBRANCH  14  18
BRANCH  16  20
ATOM     20  O   UNL     1      15.646  59.068  29.019  1.00  0.00    -0.502 OA
ATOM     21  H   UNL     1      14.795  59.609  29.020  1.00  0.00     0.293 HD
ENDBRANCH  16  20
BRANCH  17  22
ATOM     22  O   UNL     1      18.125  57.536  29.125  1.00  0.00    -0.504 OA
ATOM     23  H   UNL     1      18.101  58.285  29.800  1.00  0.00     0.293 HD
ENDBRANCH  17  22
ENDBRANCH   1  12
BRANCH   2  24
ATOM     24  O   UNL     1      15.578  55.317  23.941  1.00  0.00    -0.502 OA
ATOM     25  H   UNL     1      15.342  55.293  22.957  1.00  0.00     0.293 HD
ENDBRANCH   2  24
BRANCH   6  26
ATOM     26  O   UNL     1      16.295  50.147  22.879  1.00  0.00    -0.507 OA
ATOM     27  H   UNL     1      16.660  49.364  22.357  1.00  0.00     0.293 HD
ENDBRANCH   6  26
BRANCH   8  28
ATOM     28  O   UNL     1      18.125  48.673  27.066  1.00  0.00    -0.508 OA
ATOM     29  H   UNL     1      17.532  48.063  27.615  1.00  0.00     0.293 HD
ENDBRANCH   8  28
TORSDOF 7
ENDMDL
