MODEL 1
REMARK VINA RESULT:    -6.300      0.000      0.000
REMARK INTER + INTRA:          -7.101
REMARK INTER:                  -7.037
REMARK INTRA:                  -0.065
REMARK UNBOUND:                -0.065
REMARK SMILES COc1cc2ccc(=O)oc2c(O)c1O
REMARK SMILES IDX 3 1 14 2 12 3 11 4 5 5 4 6 6 7 7 8 8 9 9 10 10 11 2 12 1 13
REMARK SMILES IDX 15 14 13 16
REMARK H PARENT 15 15 13 17
REMARK Flexibility Score: inf
ROOT
ATOM      1  C   UNL     1     -31.002  -3.071 -18.695  1.00  0.00     0.165 A 
ATOM      2  C   UNL     1     -31.283  -2.634 -20.004  1.00  0.00     0.204 A 
ATOM      3  C   UNL     1     -32.602  -2.656 -20.492  1.00  0.00     0.205 A 
ATOM      4  C   UNL     1     -33.642  -3.113 -19.676  1.00  0.00     0.184 A 
ATOM      5  C   UNL     1     -33.366  -3.552 -18.364  1.00  0.00     0.025 A 
ATOM      6  C   UNL     1     -32.053  -3.530 -17.878  1.00  0.00     0.062 A 
ATOM      7  C   UNL     1     -34.429  -4.003 -17.574  1.00  0.00     0.020 A 
ATOM      8  C   UNL     1     -35.721  -4.007 -18.098  1.00  0.00     0.094 A 
ATOM      9  C   UNL     1     -35.920  -3.558 -19.408  1.00  0.00     0.336 A 
ATOM     10  O   UNL     1     -37.078  -3.553 -19.901  1.00  0.00    -0.246 OA
ATOM     11  O   UNL     1     -34.891  -3.134 -20.137  1.00  0.00    -0.419 OA
ENDROOT
BRANCH   1  12
ATOM     12  O   UNL     1     -29.674  -3.036 -18.241  1.00  0.00    -0.493 OA
ATOM     13  C   UNL     1     -28.910  -4.183 -17.884  1.00  0.00     0.278 C 
ENDBRANCH   1  12
BRANCH   2  14
ATOM     14  O   UNL     1     -30.257  -2.174 -20.832  1.00  0.00    -0.502 OA
ATOM     15  H   UNL     1     -30.349  -1.339 -21.400  1.00  0.00     0.293 HD
ENDBRANCH   2  14
BRANCH   3  16
ATOM     16  O   UNL     1     -32.894  -2.226 -21.788  1.00  0.00    -0.502 OA
ATOM     17  H   UNL     1     -33.784  -1.808 -22.030  1.00  0.00     0.293 HD
ENDBRANCH   3  16
TORSDOF 3
ENDMDL
MODEL 2
REMARK VINA RESULT:    -5.736      2.038      2.993
REMARK INTER + INTRA:          -6.472
REMARK INTER:                  -6.417
REMARK INTRA:                  -0.055
REMARK UNBOUND:                -0.065
REMARK SMILES COc1cc2ccc(=O)oc2c(O)c1O
REMARK SMILES IDX 3 1 14 2 12 3 11 4 5 5 4 6 6 7 7 8 8 9 9 10 10 11 2 12 1 13
REMARK SMILES IDX 15 14 13 16
REMARK H PARENT 15 15 13 17
REMARK Flexibility Score: inf
ROOT
ATOM      1  C   UNL     1     -33.089  -3.514 -19.219  1.00  0.00     0.165 A 
ATOM      2  C   UNL     1     -33.746  -4.304 -20.183  1.00  0.00     0.204 A 
ATOM      3  C   UNL     1     -34.929  -4.989 -19.853  1.00  0.00     0.205 A 
ATOM      4  C   UNL     1     -35.459  -4.887 -18.562  1.00  0.00     0.184 A 
ATOM      5  C   UNL     1     -34.806  -4.096 -17.593  1.00  0.00     0.025 A 
ATOM      6  C   UNL     1     -33.628  -3.415 -17.922  1.00  0.00     0.062 A 
ATOM      7  C   UNL     1     -35.362  -4.015 -16.312  1.00  0.00     0.020 A 
ATOM      8  C   UNL     1     -36.537  -4.711 -16.029  1.00  0.00     0.094 A 
ATOM      9  C   UNL     1     -37.130  -5.475 -17.039  1.00  0.00     0.336 A 
ATOM     10  O   UNL     1     -38.191  -6.110 -16.805  1.00  0.00    -0.246 OA
ATOM     11  O   UNL     1     -36.580  -5.534 -18.249  1.00  0.00    -0.419 OA
ENDROOT
BRANCH   1  12
ATOM     12  O   UNL     1     -31.910  -2.845 -19.584  1.00  0.00    -0.493 OA
ATOM     13  C   UNL     1     -30.731  -2.790 -18.787  1.00  0.00     0.278 C 
ENDBRANCH   1  12
BRANCH   2  14
ATOM     14  O   UNL     1     -33.231  -4.417 -21.476  1.00  0.00    -0.502 OA
ATOM     15  H   UNL     1     -33.165  -3.626 -22.106  1.00  0.00     0.293 HD
ENDBRANCH   2  14
BRANCH   3  16
ATOM     16  O   UNL     1     -35.590  -5.776 -20.798  1.00  0.00    -0.502 OA
ATOM     17  H   UNL     1     -35.108  -6.194 -21.584  1.00  0.00     0.293 HD
ENDBRANCH   3  16
TORSDOF 3
ENDMDL
MODEL 3
REMARK VINA RESULT:    -5.593      5.265      7.287
REMARK INTER + INTRA:          -6.312
REMARK INTER:                  -6.247
REMARK INTRA:                  -0.065
REMARK UNBOUND:                -0.065
REMARK SMILES COc1cc2ccc(=O)oc2c(O)c1O
REMARK SMILES IDX 3 1 14 2 12 3 11 4 5 5 4 6 6 7 7 8 8 9 9 10 10 11 2 12 1 13
REMARK SMILES IDX 15 14 13 16
REMARK H PARENT 15 15 13 17
REMARK Flexibility Score: inf
ROOT
ATOM      1  C   UNL     1     -36.560  -3.890 -15.221  1.00  0.00     0.165 A 
ATOM      2  C   UNL     1     -36.043  -5.003 -15.913  1.00  0.00     0.204 A 
ATOM      3  C   UNL     1     -36.596  -6.281 -15.716  1.00  0.00     0.205 A 
ATOM      4  C   UNL     1     -37.666  -6.451 -14.831  1.00  0.00     0.184 A 
ATOM      5  C   UNL     1     -38.189  -5.340 -14.136  1.00  0.00     0.025 A 
ATOM      6  C   UNL     1     -37.638  -4.068 -14.332  1.00  0.00     0.062 A 
ATOM      7  C   UNL     1     -39.259  -5.544 -13.259  1.00  0.00     0.020 A 
ATOM      8  C   UNL     1     -39.776  -6.829 -13.095  1.00  0.00     0.094 A 
ATOM      9  C   UNL     1     -39.208  -7.883 -13.817  1.00  0.00     0.336 A 
ATOM     10  O   UNL     1     -39.660  -9.051 -13.684  1.00  0.00    -0.246 OA
ATOM     11  O   UNL     1     -38.191  -7.661 -14.645  1.00  0.00    -0.419 OA
ENDROOT
BRANCH   1  12
ATOM     12  O   UNL     1     -35.983  -2.629 -15.442  1.00  0.00    -0.493 OA
ATOM     13  C   UNL     1     -36.464  -1.672 -16.381  1.00  0.00     0.278 C 
ENDBRANCH   1  12
BRANCH   2  14
ATOM     14  O   UNL     1     -34.975  -4.851 -16.800  1.00  0.00    -0.502 OA
ATOM     15  H   UNL     1     -34.044  -5.192 -16.593  1.00  0.00     0.293 HD
ENDBRANCH   2  14
BRANCH   3  16
ATOM     16  O   UNL     1     -36.093  -7.392 -16.394  1.00  0.00    -0.502 OA
ATOM     17  H   UNL     1     -36.587  -7.825 -17.165  1.00  0.00     0.293 HD
ENDBRANCH   3  16
TORSDOF 3
ENDMDL
MODEL 4
REMARK VINA RESULT:    -5.570      5.730      7.591
REMARK INTER + INTRA:          -6.286
REMARK INTER:                  -6.218
REMARK INTRA:                  -0.069
REMARK UNBOUND:                -0.065
REMARK SMILES COc1cc2ccc(=O)oc2c(O)c1O
REMARK SMILES IDX 3 1 14 2 12 3 11 4 5 5 4 6 6 7 7 8 8 9 9 10 10 11 2 12 1 13
REMARK SMILES IDX 15 14 13 16
REMARK H PARENT 15 15 13 17
REMARK Flexibility Score: inf
ROOT
ATOM      1  C   UNL     1     -36.675  -7.842 -14.727  1.00  0.00     0.165 A 
ATOM      2  C   UNL     1     -38.027  -7.638 -14.383  1.00  0.00     0.204 A 
ATOM      3  C   UNL     1     -38.819  -6.740 -15.121  1.00  0.00     0.205 A 
ATOM      4  C   UNL     1     -38.266  -6.044 -16.201  1.00  0.00     0.184 A 
ATOM      5  C   UNL     1     -36.913  -6.244 -16.550  1.00  0.00     0.025 A 
ATOM      6  C   UNL     1     -36.125  -7.138 -15.816  1.00  0.00     0.062 A 
ATOM      7  C   UNL     1     -36.391  -5.533 -17.635  1.00  0.00     0.020 A 
ATOM      8  C   UNL     1     -37.213  -4.653 -18.338  1.00  0.00     0.094 A 
ATOM      9  C   UNL     1     -38.545  -4.504 -17.936  1.00  0.00     0.336 A 
ATOM     10  O   UNL     1     -39.304  -3.715 -18.557  1.00  0.00    -0.246 OA
ATOM     11  O   UNL     1     -39.015  -5.193 -16.900  1.00  0.00    -0.419 OA
ENDROOT
BRANCH   1  12
ATOM     12  O   UNL     1     -35.915  -8.746 -13.969  1.00  0.00    -0.493 OA
ATOM     13  C   UNL     1     -34.910  -8.371 -13.032  1.00  0.00     0.278 C 
ENDBRANCH   1  12
BRANCH   2  14
ATOM     14  O   UNL     1     -38.595  -8.324 -13.308  1.00  0.00    -0.502 OA
ATOM     15  H   UNL     1     -38.708  -7.903 -12.394  1.00  0.00     0.293 HD
ENDBRANCH   2  14
BRANCH   3  16
ATOM     16  O   UNL     1     -40.159  -6.528 -14.791  1.00  0.00    -0.502 OA
ATOM     17  H   UNL     1     -40.839  -7.278 -14.785  1.00  0.00     0.293 HD
ENDBRANCH   3  16
TORSDOF 3
ENDMDL
MODEL 5
REMARK VINA RESULT:    -5.522      6.611      9.129
REMARK INTER + INTRA:          -6.232
REMARK INTER:                  -6.179
REMARK INTRA:                  -0.053
REMARK UNBOUND:                -0.065
REMARK SMILES COc1cc2ccc(=O)oc2c(O)c1O
REMARK SMILES IDX 3 1 14 2 12 3 11 4 5 5 4 6 6 7 7 8 8 9 9 10 10 11 2 12 1 13
REMARK SMILES IDX 15 14 13 16
REMARK H PARENT 15 15 13 17
REMARK Flexibility Score: inf
ROOT
ATOM      1  C   UNL     1     -37.484  -6.687 -15.429  1.00  0.00     0.165 A 
ATOM      2  C   UNL     1     -38.540  -7.604 -15.250  1.00  0.00     0.204 A 
ATOM      3  C   UNL     1     -39.428  -7.460 -14.169  1.00  0.00     0.205 A 
ATOM      4  C   UNL     1     -39.267  -6.403 -13.266  1.00  0.00     0.184 A 
ATOM      5  C   UNL     1     -38.212  -5.482 -13.442  1.00  0.00     0.025 A 
ATOM      6  C   UNL     1     -37.328  -5.625 -14.518  1.00  0.00     0.062 A 
ATOM      7  C   UNL     1     -38.079  -4.437 -12.522  1.00  0.00     0.020 A 
ATOM      8  C   UNL     1     -38.983  -4.332 -11.466  1.00  0.00     0.094 A 
ATOM      9  C   UNL     1     -40.004  -5.282 -11.354  1.00  0.00     0.336 A 
ATOM     10  O   UNL     1     -40.831  -5.206 -10.408  1.00  0.00    -0.246 OA
ATOM     11  O   UNL     1     -40.108  -6.266 -12.243  1.00  0.00    -0.419 OA
ENDROOT
BRANCH   1  12
ATOM     12  O   UNL     1     -36.617  -6.862 -16.519  1.00  0.00    -0.493 OA
ATOM     13  C   UNL     1     -36.055  -5.800 -17.284  1.00  0.00     0.278 C 
ENDBRANCH   1  12
BRANCH   2  14
ATOM     14  O   UNL     1     -38.716  -8.664 -16.141  1.00  0.00    -0.502 OA
ATOM     15  H   UNL     1     -39.310  -8.594 -16.958  1.00  0.00     0.293 HD
ENDBRANCH   2  14
BRANCH   3  16
ATOM     16  O   UNL     1     -40.477  -8.361 -13.978  1.00  0.00    -0.502 OA
ATOM     17  H   UNL     1     -40.516  -8.984 -13.181  1.00  0.00     0.293 HD
ENDBRANCH   3  16
TORSDOF 3
ENDMDL
MODEL 6
REMARK VINA RESULT:    -5.454      4.669      6.516
REMARK INTER + INTRA:          -6.157
REMARK INTER:                  -6.108
REMARK INTRA:                  -0.049
REMARK UNBOUND:                -0.065
REMARK SMILES COc1cc2ccc(=O)oc2c(O)c1O
REMARK SMILES IDX 3 1 14 2 12 3 11 4 5 5 4 6 6 7 7 8 8 9 9 10 10 11 2 12 1 13
REMARK SMILES IDX 15 14 13 16
REMARK H PARENT 15 15 13 17
REMARK Flexibility Score: inf
ROOT
ATOM      1  C   UNL     1     -36.670  -2.961 -14.889  1.00  0.00     0.165 A 
ATOM      2  C   UNL     1     -35.859  -3.264 -16.001  1.00  0.00     0.204 A 
ATOM      3  C   UNL     1     -35.661  -4.601 -16.391  1.00  0.00     0.205 A 
ATOM      4  C   UNL     1     -36.270  -5.637 -15.674  1.00  0.00     0.184 A 
ATOM      5  C   UNL     1     -37.083  -5.339 -14.561  1.00  0.00     0.025 A 
ATOM      6  C   UNL     1     -37.281  -4.008 -14.172  1.00  0.00     0.062 A 
ATOM      7  C   UNL     1     -37.677  -6.397 -13.866  1.00  0.00     0.020 A 
ATOM      8  C   UNL     1     -37.453  -7.707 -14.288  1.00  0.00     0.094 A 
ATOM      9  C   UNL     1     -36.635  -7.928 -15.401  1.00  0.00     0.336 A 
ATOM     10  O   UNL     1     -36.419  -9.102 -15.799  1.00  0.00    -0.246 OA
ATOM     11  O   UNL     1     -36.082  -6.902 -16.044  1.00  0.00    -0.419 OA
ENDROOT
BRANCH   1  12
ATOM     12  O   UNL     1     -36.846  -1.616 -14.529  1.00  0.00    -0.493 OA
ATOM     13  C   UNL     1     -37.637  -1.169 -13.432  1.00  0.00     0.278 C 
ENDBRANCH   1  12
BRANCH   2  14
ATOM     14  O   UNL     1     -35.244  -2.243 -16.728  1.00  0.00    -0.502 OA
ATOM     15  H   UNL     1     -34.238  -2.124 -16.752  1.00  0.00     0.293 HD
ENDBRANCH   2  14
BRANCH   3  16
ATOM     16  O   UNL     1     -34.859  -4.915 -17.490  1.00  0.00    -0.502 OA
ATOM     17  H   UNL     1     -35.248  -5.236 -18.369  1.00  0.00     0.293 HD
ENDBRANCH   3  16
TORSDOF 3
ENDMDL
MODEL 7
REMARK VINA RESULT:    -5.403      5.685      7.680
REMARK INTER + INTRA:          -6.099
REMARK INTER:                  -6.031
REMARK INTRA:                  -0.068
REMARK UNBOUND:                -0.065
REMARK SMILES COc1cc2ccc(=O)oc2c(O)c1O
REMARK SMILES IDX 3 1 14 2 12 3 11 4 5 5 4 6 6 7 7 8 8 9 9 10 10 11 2 12 1 13
REMARK SMILES IDX 15 14 13 16
REMARK H PARENT 15 15 13 17
REMARK Flexibility Score: inf
ROOT
ATOM      1  C   UNL     1     -37.820  -7.531 -14.311  1.00  0.00     0.165 A 
ATOM      2  C   UNL     1     -36.963  -7.593 -15.428  1.00  0.00     0.204 A 
ATOM      3  C   UNL     1     -36.421  -6.415 -15.972  1.00  0.00     0.205 A 
ATOM      4  C   UNL     1     -36.731  -5.174 -15.405  1.00  0.00     0.184 A 
ATOM      5  C   UNL     1     -37.589  -5.106 -14.287  1.00  0.00     0.025 A 
ATOM      6  C   UNL     1     -38.129  -6.279 -13.744  1.00  0.00     0.062 A 
ATOM      7  C   UNL     1     -37.879  -3.850 -13.744  1.00  0.00     0.020 A 
ATOM      8  C   UNL     1     -37.319  -2.709 -14.316  1.00  0.00     0.094 A 
ATOM      9  C   UNL     1     -36.477  -2.852 -15.424  1.00  0.00     0.336 A 
ATOM     10  O   UNL     1     -35.961  -1.835 -15.956  1.00  0.00    -0.246 OA
ATOM     11  O   UNL     1     -36.218  -4.059 -15.921  1.00  0.00    -0.419 OA
ENDROOT
BRANCH   1  12
ATOM     12  O   UNL     1     -38.343  -8.726 -13.794  1.00  0.00    -0.493 OA
ATOM     13  C   UNL     1     -39.707  -9.124 -13.897  1.00  0.00     0.278 C 
ENDBRANCH   1  12
BRANCH   2  14
ATOM     14  O   UNL     1     -36.642  -8.822 -16.006  1.00  0.00    -0.502 OA
ATOM     15  H   UNL     1     -35.927  -9.432 -15.626  1.00  0.00     0.293 HD
ENDBRANCH   2  14
BRANCH   3  16
ATOM     16  O   UNL     1     -35.571  -6.462 -17.079  1.00  0.00    -0.502 OA
ATOM     17  H   UNL     1     -34.976  -7.259 -17.270  1.00  0.00     0.293 HD
ENDBRANCH   3  16
TORSDOF 3
ENDMDL
MODEL 8
REMARK VINA RESULT:    -5.361      6.600      7.926
REMARK INTER + INTRA:          -6.052
REMARK INTER:                  -5.983
REMARK INTRA:                  -0.069
REMARK UNBOUND:                -0.065
REMARK SMILES COc1cc2ccc(=O)oc2c(O)c1O
REMARK SMILES IDX 3 1 14 2 12 3 11 4 5 5 4 6 6 7 7 8 8 9 9 10 10 11 2 12 1 13
REMARK SMILES IDX 15 14 13 16
REMARK H PARENT 15 15 13 17
REMARK Flexibility Score: inf
ROOT
ATOM      1  C   UNL     1     -38.524  -4.975 -16.582  1.00  0.00     0.165 A 
ATOM      2  C   UNL     1     -38.050  -4.204 -15.502  1.00  0.00     0.204 A 
ATOM      3  C   UNL     1     -37.194  -4.777 -14.544  1.00  0.00     0.205 A 
ATOM      4  C   UNL     1     -36.810  -6.117 -14.661  1.00  0.00     0.184 A 
ATOM      5  C   UNL     1     -37.281  -6.893 -15.741  1.00  0.00     0.025 A 
ATOM      6  C   UNL     1     -38.133  -6.323 -16.695  1.00  0.00     0.062 A 
ATOM      7  C   UNL     1     -36.878  -8.229 -15.830  1.00  0.00     0.020 A 
ATOM      8  C   UNL     1     -36.028  -8.755 -14.857  1.00  0.00     0.094 A 
ATOM      9  C   UNL     1     -35.601  -7.928 -13.814  1.00  0.00     0.336 A 
ATOM     10  O   UNL     1     -34.833  -8.383 -12.926  1.00  0.00    -0.246 OA
ATOM     11  O   UNL     1     -35.999  -6.660 -13.754  1.00  0.00    -0.419 OA
ENDROOT
BRANCH   1  12
ATOM     12  O   UNL     1     -39.377  -4.370 -17.519  1.00  0.00    -0.493 OA
ATOM     13  C   UNL     1     -38.961  -3.867 -18.785  1.00  0.00     0.278 C 
ENDBRANCH   1  12
BRANCH   2  14
ATOM     14  O   UNL     1     -38.424  -2.866 -15.369  1.00  0.00    -0.502 OA
ATOM     15  H   UNL     1     -39.265  -2.492 -15.793  1.00  0.00     0.293 HD
ENDBRANCH   2  14
BRANCH   3  16
ATOM     16  O   UNL     1     -36.718  -4.026 -13.468  1.00  0.00    -0.502 OA
ATOM     17  H   UNL     1     -36.287  -4.456 -12.658  1.00  0.00     0.293 HD
ENDBRANCH   3  16
TORSDOF 3
ENDMDL
MODEL 9
REMARK VINA RESULT:    -5.315      4.900      6.922
REMARK INTER + INTRA:          -6.001
REMARK INTER:                  -5.935
REMARK INTRA:                  -0.066
REMARK UNBOUND:                -0.065
REMARK SMILES COc1cc2ccc(=O)oc2c(O)c1O
REMARK SMILES IDX 3 1 14 2 12 3 11 4 5 5 4 6 6 7 7 8 8 9 9 10 10 11 2 12 1 13
REMARK SMILES IDX 15 14 13 16
REMARK H PARENT 15 15 13 17
REMARK Flexibility Score: inf
ROOT
ATOM      1  C   UNL     1     -35.659  -4.856 -16.490  1.00  0.00     0.165 A 
ATOM      2  C   UNL     1     -36.263  -4.110 -15.458  1.00  0.00     0.204 A 
ATOM      3  C   UNL     1     -37.222  -4.706 -14.620  1.00  0.00     0.205 A 
ATOM      4  C   UNL     1     -37.581  -6.045 -14.808  1.00  0.00     0.184 A 
ATOM      5  C   UNL     1     -36.979  -6.797 -15.839  1.00  0.00     0.025 A 
ATOM      6  C   UNL     1     -36.024  -6.204 -16.674  1.00  0.00     0.062 A 
ATOM      7  C   UNL     1     -37.360  -8.133 -16.001  1.00  0.00     0.020 A 
ATOM      8  C   UNL     1     -38.315  -8.682 -15.146  1.00  0.00     0.094 A 
ATOM      9  C   UNL     1     -38.869  -7.877 -14.146  1.00  0.00     0.336 A 
ATOM     10  O   UNL     1     -39.733  -8.354 -13.364  1.00  0.00    -0.246 OA
ATOM     11  O   UNL     1     -38.489  -6.609 -14.015  1.00  0.00    -0.419 OA
ENDROOT
BRANCH   1  12
ATOM     12  O   UNL     1     -34.705  -4.229 -17.308  1.00  0.00    -0.493 OA
ATOM     13  C   UNL     1     -34.990  -3.627 -18.566  1.00  0.00     0.278 C 
ENDBRANCH   1  12
BRANCH   2  14
ATOM     14  O   UNL     1     -35.917  -2.773 -15.256  1.00  0.00    -0.502 OA
ATOM     15  H   UNL     1     -34.955  -2.471 -15.148  1.00  0.00     0.293 HD
ENDBRANCH   2  14
BRANCH   3  16
ATOM     16  O   UNL     1     -37.829  -3.978 -13.595  1.00  0.00    -0.502 OA
ATOM     17  H   UNL     1     -37.317  -3.663 -12.780  1.00  0.00     0.293 HD
ENDBRANCH   3  16
TORSDOF 3
ENDMDL
