MODEL 1
REMARK VINA RESULT:    -5.417      0.000      0.000
REMARK INTER + INTRA:         -11.247
REMARK INTER:                  -9.534
REMARK INTRA:                  -1.713
REMARK UNBOUND:                -1.713
REMARK SMILES CCCCCCCCCCCCCCC(=O)[O-]
REMARK SMILES IDX 9 1 10 2 11 3 12 4 13 5 14 6 15 7 16 8 17 9 8 10 7 11 6 12
REMARK SMILES IDX 5 13 4 14 3 15 2 16 1 17
REMARK H PARENT
REMARK Flexibility Score: inf
ROOT
ATOM      1  C   UNL     1      49.943  49.192  23.077  1.00  0.00     0.000 C 
ENDROOT
BRANCH   1   2
ATOM      2  C   UNL     1      50.160  49.872  21.713  1.00  0.00     0.000 C 
BRANCH   2   3
ATOM      3  C   UNL     1      51.285  50.922  21.670  1.00  0.00     0.000 C 
BRANCH   3   4
ATOM      4  C   UNL     1      50.766  52.350  21.431  1.00  0.00     0.000 C 
BRANCH   4   5
ATOM      5  C   UNL     1      51.857  53.421  21.625  1.00  0.00     0.006 C 
BRANCH   5   6
ATOM      6  C   UNL     1      53.127  52.913  22.327  1.00  0.00     0.053 C 
BRANCH   6   7
ATOM      7  C   UNL     1      53.300  53.520  23.686  1.00  0.00     0.041 C 
ATOM      8  O   UNL     1      53.008  54.730  23.881  1.00  0.00    -0.550 OA
ATOM      9  O   UNL     1      53.752  52.741  24.744  1.00  0.00    -0.550 OA
ENDBRANCH   6   7
ENDBRANCH   5   6
ENDBRANCH   4   5
ENDBRANCH   3   4
ENDBRANCH   2   3
ENDBRANCH   1   2
BRANCH   1  10
ATOM     10  C   UNL     1      48.753  49.779  23.857  1.00  0.00     0.000 C 
BRANCH  10  11
ATOM     11  C   UNL     1      47.878  50.699  22.990  1.00  0.00    -0.000 C 
BRANCH  11  12
ATOM     12  C   UNL     1      46.573  51.113  23.692  1.00  0.00    -0.000 C 
BRANCH  12  13
ATOM     13  C   UNL     1      46.622  50.900  25.216  1.00  0.00    -0.000 C 
BRANCH  13  14
ATOM     14  C   UNL     1      46.290  52.148  26.056  1.00  0.00    -0.000 C 
BRANCH  14  15
ATOM     15  C   UNL     1      47.260  53.331  25.878  1.00  0.00    -0.000 C 
BRANCH  15  16
ATOM     16  C   UNL     1      48.740  52.964  26.116  1.00  0.00    -0.003 C 
ATOM     17  C   UNL     1      49.639  53.336  24.937  1.00  0.00     0.004 C 
ENDBRANCH  15  16
ENDBRANCH  14  15
ENDBRANCH  13  14
ENDBRANCH  12  13
ENDBRANCH  11  12
ENDBRANCH  10  11
ENDBRANCH   1  10
TORSDOF 13
ENDMDL
MODEL 2
REMARK VINA RESULT:    -5.380      2.623      5.044
REMARK INTER + INTRA:         -11.181
REMARK INTER:                  -9.708
REMARK INTRA:                  -1.473
REMARK UNBOUND:                -1.713
REMARK SMILES CCCCCCCCCCCCCCC(=O)[O-]
REMARK SMILES IDX 9 1 10 2 11 3 12 4 13 5 14 6 15 7 16 8 17 9 8 10 7 11 6 12
REMARK SMILES IDX 5 13 4 14 3 15 2 16 1 17
REMARK H PARENT
REMARK Flexibility Score: inf
ROOT
ATOM      1  C   UNL     1      52.258  53.815  20.958  1.00  0.00     0.000 C 
ENDROOT
BRANCH   1   2
ATOM      2  C   UNL     1      52.367  52.286  21.103  1.00  0.00     0.000 C 
BRANCH   2   3
ATOM      3  C   UNL     1      51.027  51.526  21.110  1.00  0.00     0.000 C 
BRANCH   3   4
ATOM      4  C   UNL     1      51.063  50.253  21.971  1.00  0.00     0.000 C 
BRANCH   4   5
ATOM      5  C   UNL     1      49.676  49.601  22.128  1.00  0.00     0.006 C 
BRANCH   5   6
ATOM      6  C   UNL     1      49.225  49.410  23.586  1.00  0.00     0.053 C 
BRANCH   6   7
ATOM      7  C   UNL     1      49.510  48.028  24.086  1.00  0.00     0.041 C 
ATOM      8  O   UNL     1      48.595  47.344  24.617  1.00  0.00    -0.550 OA
ATOM      9  O   UNL     1      50.779  47.480  23.936  1.00  0.00    -0.550 OA
ENDBRANCH   6   7
ENDBRANCH   5   6
ENDBRANCH   4   5
ENDBRANCH   3   4
ENDBRANCH   2   3
ENDBRANCH   1   2
BRANCH   1  10
ATOM     10  C   UNL     1      52.599  54.566  22.257  1.00  0.00     0.000 C 
BRANCH  10  11
ATOM     11  C   UNL     1      53.312  53.670  23.284  1.00  0.00    -0.000 C 
BRANCH  11  12
ATOM     12  C   UNL     1      52.400  53.266  24.455  1.00  0.00    -0.000 C 
BRANCH  12  13
ATOM     13  C   UNL     1      51.041  53.990  24.431  1.00  0.00    -0.000 C 
BRANCH  13  14
ATOM     14  C   UNL     1      49.814  53.064  24.327  1.00  0.00    -0.000 C 
BRANCH  14  15
ATOM     15  C   UNL     1      49.046  52.847  25.644  1.00  0.00    -0.000 C 
BRANCH  15  16
ATOM     16  C   UNL     1      47.558  52.491  25.446  1.00  0.00    -0.003 C 
ATOM     17  C   UNL     1      46.615  53.568  25.984  1.00  0.00     0.004 C 
ENDBRANCH  15  16
ENDBRANCH  14  15
ENDBRANCH  13  14
ENDBRANCH  12  13
ENDBRANCH  11  12
ENDBRANCH  10  11
ENDBRANCH   1  10
TORSDOF 13
ENDMDL
MODEL 3
REMARK VINA RESULT:    -5.320      2.653      5.993
REMARK INTER + INTRA:         -11.076
REMARK INTER:                  -9.485
REMARK INTRA:                  -1.591
REMARK UNBOUND:                -1.713
REMARK SMILES CCCCCCCCCCCCCCC(=O)[O-]
REMARK SMILES IDX 9 1 10 2 11 3 12 4 13 5 14 6 15 7 16 8 17 9 8 10 7 11 6 12
REMARK SMILES IDX 5 13 4 14 3 15 2 16 1 17
REMARK H PARENT
REMARK Flexibility Score: inf
ROOT
ATOM      1  C   UNL     1      49.274  53.199  25.347  1.00  0.00     0.000 C 
ENDROOT
BRANCH   1   2
ATOM      2  C   UNL     1      48.140  52.171  25.173  1.00  0.00     0.000 C 
BRANCH   2   3
ATOM      3  C   UNL     1      47.564  52.057  23.749  1.00  0.00     0.000 C 
BRANCH   3   4
ATOM      4  C   UNL     1      47.647  50.631  23.180  1.00  0.00     0.000 C 
BRANCH   4   5
ATOM      5  C   UNL     1      48.413  49.664  24.103  1.00  0.00     0.006 C 
BRANCH   5   6
ATOM      6  C   UNL     1      49.657  49.028  23.463  1.00  0.00     0.053 C 
BRANCH   6   7
ATOM      7  C   UNL     1      50.030  47.736  24.123  1.00  0.00     0.041 C 
ATOM      8  O   UNL     1      51.178  47.246  23.955  1.00  0.00    -0.550 OA
ATOM      9  O   UNL     1      49.121  47.089  24.951  1.00  0.00    -0.550 OA
ENDBRANCH   6   7
ENDBRANCH   5   6
ENDBRANCH   4   5
ENDBRANCH   3   4
ENDBRANCH   2   3
ENDBRANCH   1   2
BRANCH   1  10
ATOM     10  C   UNL     1      50.232  53.242  24.144  1.00  0.00     0.000 C 
BRANCH  10  11
ATOM     11  C   UNL     1      51.556  53.953  24.472  1.00  0.00    -0.000 C 
BRANCH  11  12
ATOM     12  C   UNL     1      52.602  53.808  23.353  1.00  0.00    -0.000 C 
BRANCH  12  13
ATOM     13  C   UNL     1      52.120  54.382  22.008  1.00  0.00    -0.000 C 
BRANCH  13  14
ATOM     14  C   UNL     1      52.261  53.426  20.808  1.00  0.00    -0.000 C 
BRANCH  14  15
ATOM     15  C   UNL     1      52.808  52.027  21.148  1.00  0.00    -0.000 C 
BRANCH  15  16
ATOM     16  C   UNL     1      51.727  50.925  21.174  1.00  0.00    -0.003 C 
ATOM     17  C   UNL     1      50.329  51.461  20.864  1.00  0.00     0.004 C 
ENDBRANCH  15  16
ENDBRANCH  14  15
ENDBRANCH  13  14
ENDBRANCH  12  13
ENDBRANCH  11  12
ENDBRANCH  10  11
ENDBRANCH   1  10
TORSDOF 13
ENDMDL
MODEL 4
REMARK VINA RESULT:    -5.284      2.819      5.792
REMARK INTER + INTRA:         -11.012
REMARK INTER:                  -9.617
REMARK INTRA:                  -1.395
REMARK UNBOUND:                -1.713
REMARK SMILES CCCCCCCCCCCCCCC(=O)[O-]
REMARK SMILES IDX 9 1 10 2 11 3 12 4 13 5 14 6 15 7 16 8 17 9 8 10 7 11 6 12
REMARK SMILES IDX 5 13 4 14 3 15 2 16 1 17
REMARK H PARENT
REMARK Flexibility Score: inf
ROOT
ATOM      1  C   UNL     1      53.305  53.333  23.091  1.00  0.00     0.000 C 
ENDROOT
BRANCH   1   2
ATOM      2  C   UNL     1      52.405  53.041  24.306  1.00  0.00     0.000 C 
BRANCH   2   3
ATOM      3  C   UNL     1      51.217  54.003  24.494  1.00  0.00     0.000 C 
BRANCH   3   4
ATOM      4  C   UNL     1      49.859  53.345  24.199  1.00  0.00     0.000 C 
BRANCH   4   5
ATOM      5  C   UNL     1      49.106  52.933  25.478  1.00  0.00     0.006 C 
BRANCH   5   6
ATOM      6  C   UNL     1      47.824  52.124  25.227  1.00  0.00     0.053 C 
BRANCH   6   7
ATOM      7  C   UNL     1      46.660  52.658  26.005  1.00  0.00     0.041 C 
ATOM      8  O   UNL     1      46.370  53.882  25.952  1.00  0.00    -0.550 OA
ATOM      9  O   UNL     1      45.876  51.797  26.763  1.00  0.00    -0.550 OA
ENDBRANCH   6   7
ENDBRANCH   5   6
ENDBRANCH   4   5
ENDBRANCH   3   4
ENDBRANCH   2   3
ENDBRANCH   1   2
BRANCH   1  10
ATOM     10  C   UNL     1      52.569  54.082  21.966  1.00  0.00     0.000 C 
BRANCH  10  11
ATOM     11  C   UNL     1      52.258  53.177  20.762  1.00  0.00    -0.000 C 
BRANCH  11  12
ATOM     12  C   UNL     1      52.214  51.686  21.136  1.00  0.00    -0.000 C 
BRANCH  12  13
ATOM     13  C   UNL     1      50.785  51.181  21.411  1.00  0.00    -0.000 C 
BRANCH  13  14
ATOM     14  C   UNL     1      50.705  49.807  22.103  1.00  0.00    -0.000 C 
BRANCH  14  15
ATOM     15  C   UNL     1      49.459  49.591  22.983  1.00  0.00    -0.000 C 
BRANCH  15  16
ATOM     16  C   UNL     1      49.572  48.383  23.937  1.00  0.00    -0.003 C 
ATOM     17  C   UNL     1      50.905  47.647  23.803  1.00  0.00     0.004 C 
ENDBRANCH  15  16
ENDBRANCH  14  15
ENDBRANCH  13  14
ENDBRANCH  12  13
ENDBRANCH  11  12
ENDBRANCH  10  11
ENDBRANCH   1  10
TORSDOF 13
ENDMDL
MODEL 5
REMARK VINA RESULT:    -5.244      2.385      5.767
REMARK INTER + INTRA:         -10.942
REMARK INTER:                  -9.126
REMARK INTRA:                  -1.816
REMARK UNBOUND:                -1.713
REMARK SMILES CCCCCCCCCCCCCCC(=O)[O-]
REMARK SMILES IDX 9 1 10 2 11 3 12 4 13 5 14 6 15 7 16 8 17 9 8 10 7 11 6 12
REMARK SMILES IDX 5 13 4 14 3 15 2 16 1 17
REMARK H PARENT
REMARK Flexibility Score: inf
ROOT
ATOM      1  C   UNL     1      48.930  52.938  26.111  1.00  0.00     0.000 C 
ENDROOT
BRANCH   1   2
ATOM      2  C   UNL     1      47.421  53.239  26.046  1.00  0.00     0.000 C 
BRANCH   2   3
ATOM      3  C   UNL     1      46.542  52.090  25.519  1.00  0.00     0.000 C 
BRANCH   3   4
ATOM      4  C   UNL     1      46.409  52.089  23.986  1.00  0.00     0.000 C 
BRANCH   4   5
ATOM      5  C   UNL     1      47.044  50.845  23.335  1.00  0.00     0.006 C 
BRANCH   5   6
ATOM      6  C   UNL     1      47.680  49.862  24.330  1.00  0.00     0.053 C 
BRANCH   6   7
ATOM      7  C   UNL     1      48.822  49.106  23.722  1.00  0.00     0.041 C 
ATOM      8  O   UNL     1      49.347  48.144  24.342  1.00  0.00    -0.550 OA
ATOM      9  O   UNL     1      49.284  49.443  22.456  1.00  0.00    -0.550 OA
ENDBRANCH   6   7
ENDBRANCH   5   6
ENDBRANCH   4   5
ENDBRANCH   3   4
ENDBRANCH   2   3
ENDBRANCH   1   2
BRANCH   1  10
ATOM     10  C   UNL     1      49.718  53.573  24.952  1.00  0.00     0.000 C 
BRANCH  10  11
ATOM     11  C   UNL     1      50.172  52.536  23.911  1.00  0.00    -0.000 C 
BRANCH  11  12
ATOM     12  C   UNL     1      49.975  53.021  22.465  1.00  0.00    -0.000 C 
BRANCH  12  13
ATOM     13  C   UNL     1      50.933  52.341  21.470  1.00  0.00    -0.000 C 
BRANCH  13  14
ATOM     14  C   UNL     1      52.295  53.041  21.299  1.00  0.00    -0.000 C 
BRANCH  14  15
ATOM     15  C   UNL     1      52.374  54.465  21.881  1.00  0.00    -0.000 C 
BRANCH  15  16
ATOM     16  C   UNL     1      53.147  54.551  23.214  1.00  0.00    -0.003 C 
ATOM     17  C   UNL     1      53.909  53.266  23.539  1.00  0.00     0.004 C 
ENDBRANCH  15  16
ENDBRANCH  14  15
ENDBRANCH  13  14
ENDBRANCH  12  13
ENDBRANCH  11  12
ENDBRANCH  10  11
ENDBRANCH   1  10
TORSDOF 13
ENDMDL
MODEL 6
REMARK VINA RESULT:    -5.230      2.546      4.433
REMARK INTER + INTRA:         -10.918
REMARK INTER:                  -9.430
REMARK INTRA:                  -1.487
REMARK UNBOUND:                -1.713
REMARK SMILES CCCCCCCCCCCCCCC(=O)[O-]
REMARK SMILES IDX 9 1 10 2 11 3 12 4 13 5 14 6 15 7 16 8 17 9 8 10 7 11 6 12
REMARK SMILES IDX 5 13 4 14 3 15 2 16 1 17
REMARK H PARENT
REMARK Flexibility Score: inf
ROOT
ATOM      1  C   UNL     1      53.414  52.896  22.608  1.00  0.00     0.000 C 
ENDROOT
BRANCH   1   2
ATOM      2  C   UNL     1      52.906  52.189  21.338  1.00  0.00     0.000 C 
BRANCH   2   3
ATOM      3  C   UNL     1      51.391  52.299  21.081  1.00  0.00     0.000 C 
BRANCH   3   4
ATOM      4  C   UNL     1      50.731  50.941  20.790  1.00  0.00     0.000 C 
BRANCH   4   5
ATOM      5  C   UNL     1      50.932  49.924  21.930  1.00  0.00     0.006 C 
BRANCH   5   6
ATOM      6  C   UNL     1      49.628  49.421  22.569  1.00  0.00     0.053 C 
BRANCH   6   7
ATOM      7  C   UNL     1      49.879  48.370  23.607  1.00  0.00     0.041 C 
ATOM      8  O   UNL     1      51.039  47.908  23.773  1.00  0.00    -0.550 OA
ATOM      9  O   UNL     1      48.839  47.924  24.412  1.00  0.00    -0.550 OA
ENDBRANCH   6   7
ENDBRANCH   5   6
ENDBRANCH   4   5
ENDBRANCH   3   4
ENDBRANCH   2   3
ENDBRANCH   1   2
BRANCH   1  10
ATOM     10  C   UNL     1      52.498  52.674  23.824  1.00  0.00     0.000 C 
BRANCH  10  11
ATOM     11  C   UNL     1      51.988  53.995  24.425  1.00  0.00    -0.000 C 
BRANCH  11  12
ATOM     12  C   UNL     1      50.457  54.024  24.581  1.00  0.00    -0.000 C 
BRANCH  12  13
ATOM     13  C   UNL     1      49.779  52.745  24.058  1.00  0.00    -0.000 C 
BRANCH  13  14
ATOM     14  C   UNL     1      48.669  52.181  24.966  1.00  0.00    -0.000 C 
BRANCH  14  15
ATOM     15  C   UNL     1      48.344  53.036  26.206  1.00  0.00    -0.000 C 
BRANCH  15  16
ATOM     16  C   UNL     1      46.832  53.239  26.442  1.00  0.00    -0.003 C 
ATOM     17  C   UNL     1      46.004  53.044  25.173  1.00  0.00     0.004 C 
ENDBRANCH  15  16
ENDBRANCH  14  15
ENDBRANCH  13  14
ENDBRANCH  12  13
ENDBRANCH  11  12
ENDBRANCH  10  11
ENDBRANCH   1  10
TORSDOF 13
ENDMDL
MODEL 7
REMARK VINA RESULT:    -5.156      0.909      3.172
REMARK INTER + INTRA:         -10.788
REMARK INTER:                  -9.079
REMARK INTRA:                  -1.708
REMARK UNBOUND:                -1.713
REMARK SMILES CCCCCCCCCCCCCCC(=O)[O-]
REMARK SMILES IDX 9 1 10 2 11 3 12 4 13 5 14 6 15 7 16 8 17 9 8 10 7 11 6 12
REMARK SMILES IDX 5 13 4 14 3 15 2 16 1 17
REMARK H PARENT
REMARK Flexibility Score: inf
ROOT
ATOM      1  C   UNL     1      49.600  53.646  24.989  1.00  0.00     0.000 C 
ENDROOT
BRANCH   1   2
ATOM      2  C   UNL     1      50.096  52.650  23.925  1.00  0.00     0.000 C 
BRANCH   2   3
ATOM      3  C   UNL     1      49.919  53.103  22.464  1.00  0.00     0.000 C 
BRANCH   3   4
ATOM      4  C   UNL     1      50.730  52.255  21.469  1.00  0.00     0.000 C 
BRANCH   4   5
ATOM      5  C   UNL     1      52.069  52.911  21.081  1.00  0.00     0.006 C 
BRANCH   5   6
ATOM      6  C   UNL     1      53.264  52.475  21.943  1.00  0.00     0.053 C 
BRANCH   6   7
ATOM      7  C   UNL     1      53.487  53.397  23.103  1.00  0.00     0.041 C 
ATOM      8  O   UNL     1      54.155  53.013  24.099  1.00  0.00    -0.550 OA
ATOM      9  O   UNL     1      52.985  54.692  23.069  1.00  0.00    -0.550 OA
ENDBRANCH   6   7
ENDBRANCH   5   6
ENDBRANCH   4   5
ENDBRANCH   3   4
ENDBRANCH   2   3
ENDBRANCH   1   2
BRANCH   1  10
ATOM     10  C   UNL     1      48.883  52.959  26.165  1.00  0.00     0.000 C 
BRANCH  10  11
ATOM     11  C   UNL     1      47.360  53.166  26.126  1.00  0.00    -0.000 C 
BRANCH  11  12
ATOM     12  C   UNL     1      46.603  51.918  25.638  1.00  0.00    -0.000 C 
BRANCH  12  13
ATOM     13  C   UNL     1      46.329  51.941  24.123  1.00  0.00    -0.000 C 
BRANCH  13  14
ATOM     14  C   UNL     1      47.066  50.855  23.314  1.00  0.00    -0.000 C 
BRANCH  14  15
ATOM     15  C   UNL     1      47.804  49.800  24.160  1.00  0.00    -0.000 C 
BRANCH  15  16
ATOM     16  C   UNL     1      49.056  49.216  23.472  1.00  0.00    -0.003 C 
ATOM     17  C   UNL     1      49.571  47.951  24.158  1.00  0.00     0.004 C 
ENDBRANCH  15  16
ENDBRANCH  14  15
ENDBRANCH  13  14
ENDBRANCH  12  13
ENDBRANCH  11  12
ENDBRANCH  10  11
ENDBRANCH   1  10
TORSDOF 13
ENDMDL
MODEL 8
REMARK VINA RESULT:    -5.156      2.429      5.505
REMARK INTER + INTRA:         -10.787
REMARK INTER:                  -9.539
REMARK INTRA:                  -1.249
REMARK UNBOUND:                -1.713
REMARK SMILES CCCCCCCCCCCCCCC(=O)[O-]
REMARK SMILES IDX 9 1 10 2 11 3 12 4 13 5 14 6 15 7 16 8 17 9 8 10 7 11 6 12
REMARK SMILES IDX 5 13 4 14 3 15 2 16 1 17
REMARK H PARENT
REMARK Flexibility Score: inf
ROOT
ATOM      1  C   UNL     1      50.079  49.331  22.724  1.00  0.00     0.000 C 
ENDROOT
BRANCH   1   2
ATOM      2  C   UNL     1      48.859  49.318  23.663  1.00  0.00     0.000 C 
BRANCH   2   3
ATOM      3  C   UNL     1      48.312  50.704  24.055  1.00  0.00     0.000 C 
BRANCH   3   4
ATOM      4  C   UNL     1      46.936  51.004  23.437  1.00  0.00     0.000 C 
BRANCH   4   5
ATOM      5  C   UNL     1      45.987  51.721  24.416  1.00  0.00     0.006 C 
BRANCH   5   6
ATOM      6  C   UNL     1      46.479  51.745  25.873  1.00  0.00     0.053 C 
BRANCH   6   7
ATOM      7  C   UNL     1      46.945  53.108  26.286  1.00  0.00     0.041 C 
ATOM      8  O   UNL     1      46.257  54.125  26.006  1.00  0.00    -0.550 OA
ATOM      9  O   UNL     1      48.122  53.251  27.010  1.00  0.00    -0.550 OA
ENDBRANCH   6   7
ENDBRANCH   5   6
ENDBRANCH   4   5
ENDBRANCH   3   4
ENDBRANCH   2   3
ENDBRANCH   1   2
BRANCH   1  10
ATOM     10  C   UNL     1      50.662  50.740  22.518  1.00  0.00     0.000 C 
BRANCH  10  11
ATOM     11  C   UNL     1      51.292  50.918  21.127  1.00  0.00    -0.000 C 
BRANCH  11  12
ATOM     12  C   UNL     1      52.521  51.844  21.146  1.00  0.00    -0.000 C 
BRANCH  12  13
ATOM     13  C   UNL     1      52.190  53.285  20.715  1.00  0.00    -0.000 C 
BRANCH  13  14
ATOM     14  C   UNL     1      52.200  54.321  21.856  1.00  0.00    -0.000 C 
BRANCH  14  15
ATOM     15  C   UNL     1      52.943  53.880  23.131  1.00  0.00    -0.000 C 
BRANCH  15  16
ATOM     16  C   UNL     1      52.180  54.192  24.436  1.00  0.00    -0.003 C 
ATOM     17  C   UNL     1      50.724  53.730  24.394  1.00  0.00     0.004 C 
ENDBRANCH  15  16
ENDBRANCH  14  15
ENDBRANCH  13  14
ENDBRANCH  12  13
ENDBRANCH  11  12
ENDBRANCH  10  11
ENDBRANCH   1  10
TORSDOF 13
ENDMDL
MODEL 9
REMARK VINA RESULT:    -5.037      1.092      4.046
REMARK INTER + INTRA:         -10.577
REMARK INTER:                  -8.934
REMARK INTRA:                  -1.642
REMARK UNBOUND:                -1.713
REMARK SMILES CCCCCCCCCCCCCCC(=O)[O-]
REMARK SMILES IDX 9 1 10 2 11 3 12 4 13 5 14 6 15 7 16 8 17 9 8 10 7 11 6 12
REMARK SMILES IDX 5 13 4 14 3 15 2 16 1 17
REMARK H PARENT
REMARK Flexibility Score: inf
ROOT
ATOM      1  C   UNL     1      46.448  52.374  25.895  1.00  0.00     0.000 C 
ENDROOT
BRANCH   1   2
ATOM      2  C   UNL     1      47.557  53.333  26.364  1.00  0.00     0.000 C 
BRANCH   2   3
ATOM      3  C   UNL     1      48.991  52.922  25.980  1.00  0.00     0.000 C 
BRANCH   3   4
ATOM      4  C   UNL     1      49.502  53.635  24.717  1.00  0.00     0.000 C 
BRANCH   4   5
ATOM      5  C   UNL     1      50.930  53.206  24.327  1.00  0.00     0.006 C 
BRANCH   5   6
ATOM      6  C   UNL     1      51.995  54.297  24.519  1.00  0.00     0.053 C 
BRANCH   6   7
ATOM      7  C   UNL     1      53.066  54.227  23.474  1.00  0.00     0.041 C 
ATOM      8  O   UNL     1      52.977  54.922  22.427  1.00  0.00    -0.550 OA
ATOM      9  O   UNL     1      54.180  53.420  23.671  1.00  0.00    -0.550 OA
ENDBRANCH   6   7
ENDBRANCH   5   6
ENDBRANCH   4   5
ENDBRANCH   3   4
ENDBRANCH   2   3
ENDBRANCH   1   2
BRANCH   1  10
ATOM     10  C   UNL     1      46.137  52.505  24.394  1.00  0.00     0.000 C 
BRANCH  10  11
ATOM     11  C   UNL     1      46.548  51.256  23.597  1.00  0.00    -0.000 C 
BRANCH  11  12
ATOM     12  C   UNL     1      47.234  50.192  24.473  1.00  0.00    -0.000 C 
BRANCH  12  13
ATOM     13  C   UNL     1      48.553  49.679  23.865  1.00  0.00    -0.000 C 
BRANCH  13  14
ATOM     14  C   UNL     1      49.070  50.489  22.661  1.00  0.00    -0.000 C 
BRANCH  14  15
ATOM     15  C   UNL     1      50.333  49.921  21.987  1.00  0.00    -0.000 C 
BRANCH  15  16
ATOM     16  C   UNL     1      50.842  50.769  20.802  1.00  0.00    -0.003 C 
ATOM     17  C   UNL     1      52.081  51.593  21.153  1.00  0.00     0.004 C 
ENDBRANCH  15  16
ENDBRANCH  14  15
ENDBRANCH  13  14
ENDBRANCH  12  13
ENDBRANCH  11  12
ENDBRANCH  10  11
ENDBRANCH   1  10
TORSDOF 13
ENDMDL
