MODEL 1
REMARK VINA RESULT:    -4.821      0.000      0.000
REMARK INTER + INTRA:          -6.627
REMARK INTER:                  -6.512
REMARK INTRA:                  -0.115
REMARK UNBOUND:                -0.115
REMARK SMILES CCCCCCCC(=O)[O-]
REMARK SMILES IDX 5 1 6 2 7 3 8 4 9 5 10 6 4 7 3 8 2 9 1 10
REMARK H PARENT
REMARK Flexibility Score: inf
ROOT
ATOM      1  C   UNL     1      14.599   2.625  15.069  1.00  0.00     0.000 C 
ENDROOT
BRANCH   1   2
ATOM      2  C   UNL     1      13.162   2.581  15.602  1.00  0.00     0.006 C 
BRANCH   2   3
ATOM      3  C   UNL     1      13.007   3.470  16.839  1.00  0.00     0.053 C 
BRANCH   3   4
ATOM      4  C   UNL     1      13.437   2.736  18.070  1.00  0.00     0.041 C 
ATOM      5  O   UNL     1      13.474   1.477  18.077  1.00  0.00    -0.550 OA
ATOM      6  O   UNL     1      13.845   3.442  19.194  1.00  0.00    -0.550 OA
ENDBRANCH   3   4
ENDBRANCH   2   3
ENDBRANCH   1   2
BRANCH   1   7
ATOM      7  C   UNL     1      14.712   1.893  13.727  1.00  0.00     0.000 C 
BRANCH   7   8
ATOM      8  C   UNL     1      15.415   2.769  12.680  1.00  0.00    -0.000 C 
BRANCH   8   9
ATOM      9  C   UNL     1      15.807   1.983  11.419  1.00  0.00    -0.003 C 
ATOM     10  C   UNL     1      17.303   2.061  11.116  1.00  0.00     0.004 C 
ENDBRANCH   8   9
ENDBRANCH   7   8
ENDBRANCH   1   7
TORSDOF 6
ENDMDL
MODEL 2
REMARK VINA RESULT:    -4.809      1.238      1.789
REMARK INTER + INTRA:          -6.612
REMARK INTER:                  -6.386
REMARK INTRA:                  -0.226
REMARK UNBOUND:                -0.115
REMARK SMILES CCCCCCCC(=O)[O-]
REMARK SMILES IDX 5 1 6 2 7 3 8 4 9 5 10 6 4 7 3 8 2 9 1 10
REMARK H PARENT
REMARK Flexibility Score: inf
ROOT
ATOM      1  C   UNL     1      15.278   2.959  13.479  1.00  0.00     0.000 C 
ENDROOT
BRANCH   1   2
ATOM      2  C   UNL     1      14.939   2.467  14.891  1.00  0.00     0.006 C 
BRANCH   2   3
ATOM      3  C   UNL     1      13.455   2.675  15.204  1.00  0.00     0.053 C 
BRANCH   3   4
ATOM      4  C   UNL     1      13.249   2.852  16.675  1.00  0.00     0.041 C 
ATOM      5  O   UNL     1      13.457   1.893  17.465  1.00  0.00    -0.550 OA
ATOM      6  O   UNL     1      12.875   4.091  17.181  1.00  0.00    -0.550 OA
ENDBRANCH   3   4
ENDBRANCH   2   3
ENDBRANCH   1   2
BRANCH   1   7
ATOM      7  C   UNL     1      15.307   1.794  12.482  1.00  0.00     0.000 C 
BRANCH   7   8
ATOM      8  C   UNL     1      16.271   2.087  11.323  1.00  0.00    -0.000 C 
BRANCH   8   9
ATOM      9  C   UNL     1      17.354   1.008  11.169  1.00  0.00    -0.003 C 
ATOM     10  C   UNL     1      17.509   0.142  12.419  1.00  0.00     0.004 C 
ENDBRANCH   8   9
ENDBRANCH   7   8
ENDBRANCH   1   7
TORSDOF 6
ENDMDL
MODEL 3
REMARK VINA RESULT:    -4.792     16.176     18.158
REMARK INTER + INTRA:          -6.587
REMARK INTER:                  -6.159
REMARK INTRA:                  -0.428
REMARK UNBOUND:                -0.115
REMARK SMILES CCCCCCCC(=O)[O-]
REMARK SMILES IDX 5 1 6 2 7 3 8 4 9 5 10 6 4 7 3 8 2 9 1 10
REMARK H PARENT
REMARK Flexibility Score: inf
ROOT
ATOM      1  C   UNL     1      29.950  -3.010   6.347  1.00  0.00     0.000 C 
ENDROOT
BRANCH   1   2
ATOM      2  C   UNL     1      31.306  -2.310   6.495  1.00  0.00     0.006 C 
BRANCH   2   3
ATOM      3  C   UNL     1      31.780  -2.332   7.951  1.00  0.00     0.053 C 
BRANCH   3   4
ATOM      4  C   UNL     1      31.554  -1.001   8.595  1.00  0.00     0.041 C 
ATOM      5  O   UNL     1      31.515   0.045   7.894  1.00  0.00    -0.550 OA
ATOM      6  O   UNL     1      31.336  -0.920   9.965  1.00  0.00    -0.550 OA
ENDBRANCH   3   4
ENDBRANCH   2   3
ENDBRANCH   1   2
BRANCH   1   7
ATOM      7  C   UNL     1      28.925  -2.089   5.673  1.00  0.00     0.000 C 
BRANCH   7   8
ATOM      8  C   UNL     1      27.549  -2.217   6.342  1.00  0.00    -0.000 C 
BRANCH   8   9
ATOM      9  C   UNL     1      27.007  -0.868   6.840  1.00  0.00    -0.003 C 
ATOM     10  C   UNL     1      27.964  -0.166   7.804  1.00  0.00     0.004 C 
ENDBRANCH   8   9
ENDBRANCH   7   8
ENDBRANCH   1   7
TORSDOF 6
ENDMDL
MODEL 4
REMARK VINA RESULT:    -4.789      3.147      5.888
REMARK INTER + INTRA:          -6.584
REMARK INTER:                  -6.372
REMARK INTRA:                  -0.212
REMARK UNBOUND:                -0.115
REMARK SMILES CCCCCCCC(=O)[O-]
REMARK SMILES IDX 5 1 6 2 7 3 8 4 9 5 10 6 4 7 3 8 2 9 1 10
REMARK H PARENT
REMARK Flexibility Score: inf
ROOT
ATOM      1  C   UNL     1      13.427   2.687  15.060  1.00  0.00     0.000 C 
ENDROOT
BRANCH   1   2
ATOM      2  C   UNL     1      14.859   2.373  14.608  1.00  0.00     0.006 C 
BRANCH   2   3
ATOM      3  C   UNL     1      15.145   2.979  13.231  1.00  0.00     0.053 C 
BRANCH   3   4
ATOM      4  C   UNL     1      15.899   2.008  12.379  1.00  0.00     0.041 C 
ATOM      5  O   UNL     1      16.556   1.074  12.910  1.00  0.00    -0.550 OA
ATOM      6  O   UNL     1      15.836   2.103  10.994  1.00  0.00    -0.550 OA
ENDBRANCH   3   4
ENDBRANCH   2   3
ENDBRANCH   1   2
BRANCH   1   7
ATOM      7  C   UNL     1      13.259   2.443  16.565  1.00  0.00     0.000 C 
BRANCH   7   8
ATOM      8  C   UNL     1      12.965   3.756  17.305  1.00  0.00    -0.000 C 
BRANCH   8   9
ATOM      9  C   UNL     1      13.463   3.739  18.758  1.00  0.00    -0.003 C 
ATOM     10  C   UNL     1      14.184   2.441  19.121  1.00  0.00     0.004 C 
ENDBRANCH   8   9
ENDBRANCH   7   8
ENDBRANCH   1   7
TORSDOF 6
ENDMDL
MODEL 5
REMARK VINA RESULT:    -4.760     16.273     18.210
REMARK INTER + INTRA:          -6.545
REMARK INTER:                  -6.145
REMARK INTRA:                  -0.400
REMARK UNBOUND:                -0.115
REMARK SMILES CCCCCCCC(=O)[O-]
REMARK SMILES IDX 5 1 6 2 7 3 8 4 9 5 10 6 4 7 3 8 2 9 1 10
REMARK H PARENT
REMARK Flexibility Score: inf
ROOT
ATOM      1  C   UNL     1      29.188  -1.964   5.835  1.00  0.00     0.000 C 
ENDROOT
BRANCH   1   2
ATOM      2  C   UNL     1      30.128  -2.978   6.498  1.00  0.00     0.006 C 
BRANCH   2   3
ATOM      3  C   UNL     1      31.543  -2.408   6.634  1.00  0.00     0.053 C 
BRANCH   3   4
ATOM      4  C   UNL     1      31.867  -2.147   8.071  1.00  0.00     0.041 C 
ATOM      5  O   UNL     1      31.296  -1.211   8.690  1.00  0.00    -0.550 OA
ATOM      6  O   UNL     1      32.764  -2.969   8.741  1.00  0.00    -0.550 OA
ENDBRANCH   3   4
ENDBRANCH   2   3
ENDBRANCH   1   2
BRANCH   1   7
ATOM      7  C   UNL     1      27.726  -2.248   6.200  1.00  0.00     0.000 C 
BRANCH   7   8
ATOM      8  C   UNL     1      27.138  -1.107   7.043  1.00  0.00    -0.000 C 
BRANCH   8   9
ATOM      9  C   UNL     1      28.157   0.011   7.314  1.00  0.00    -0.003 C 
ATOM     10  C   UNL     1      28.239   0.390   8.793  1.00  0.00     0.004 C 
ENDBRANCH   8   9
ENDBRANCH   7   8
ENDBRANCH   1   7
TORSDOF 6
ENDMDL
MODEL 6
REMARK VINA RESULT:    -4.759      1.989      2.627
REMARK INTER + INTRA:          -6.544
REMARK INTER:                  -6.140
REMARK INTRA:                  -0.403
REMARK UNBOUND:                -0.115
REMARK SMILES CCCCCCCC(=O)[O-]
REMARK SMILES IDX 5 1 6 2 7 3 8 4 9 5 10 6 4 7 3 8 2 9 1 10
REMARK H PARENT
REMARK Flexibility Score: inf
ROOT
ATOM      1  C   UNL     1      15.450   3.059  13.198  1.00  0.00     0.000 C 
ENDROOT
BRANCH   1   2
ATOM      2  C   UNL     1      14.805   2.387  14.416  1.00  0.00     0.006 C 
BRANCH   2   3
ATOM      3  C   UNL     1      15.863   1.721  15.300  1.00  0.00     0.053 C 
BRANCH   3   4
ATOM      4  C   UNL     1      15.841   2.309  16.676  1.00  0.00     0.041 C 
ATOM      5  O   UNL     1      15.374   3.463  16.865  1.00  0.00    -0.550 OA
ATOM      6  O   UNL     1      16.292   1.563  17.758  1.00  0.00    -0.550 OA
ENDBRANCH   3   4
ENDBRANCH   2   3
ENDBRANCH   1   2
BRANCH   1   7
ATOM      7  C   UNL     1      15.481   2.106  11.996  1.00  0.00     0.000 C 
BRANCH   7   8
ATOM      8  C   UNL     1      16.847   2.150  11.296  1.00  0.00    -0.000 C 
BRANCH   8   9
ATOM      9  C   UNL     1      17.498   0.762  11.184  1.00  0.00    -0.003 C 
ATOM     10  C   UNL     1      17.823   0.151  12.547  1.00  0.00     0.004 C 
ENDBRANCH   8   9
ENDBRANCH   7   8
ENDBRANCH   1   7
TORSDOF 6
ENDMDL
MODEL 7
REMARK VINA RESULT:    -4.740      2.958      5.455
REMARK INTER + INTRA:          -6.517
REMARK INTER:                  -6.030
REMARK INTRA:                  -0.488
REMARK UNBOUND:                -0.115
REMARK SMILES CCCCCCCC(=O)[O-]
REMARK SMILES IDX 5 1 6 2 7 3 8 4 9 5 10 6 4 7 3 8 2 9 1 10
REMARK H PARENT
REMARK Flexibility Score: inf
ROOT
ATOM      1  C   UNL     1      12.879   3.660  16.938  1.00  0.00     0.000 C 
ENDROOT
BRANCH   1   2
ATOM      2  C   UNL     1      13.093   2.744  15.727  1.00  0.00     0.006 C 
BRANCH   2   3
ATOM      3  C   UNL     1      14.578   2.647  15.367  1.00  0.00     0.053 C 
BRANCH   3   4
ATOM      4  C   UNL     1      14.747   2.439  13.895  1.00  0.00     0.041 C 
ATOM      5  O   UNL     1      15.162   3.378  13.166  1.00  0.00    -0.550 OA
ATOM      6  O   UNL     1      14.494   1.193  13.335  1.00  0.00    -0.550 OA
ENDBRANCH   3   4
ENDBRANCH   2   3
ENDBRANCH   1   2
BRANCH   1   7
ATOM      7  C   UNL     1      14.144   3.733  17.803  1.00  0.00     0.000 C 
BRANCH   7   8
ATOM      8  C   UNL     1      13.961   2.948  19.110  1.00  0.00    -0.000 C 
BRANCH   8   9
ATOM      9  C   UNL     1      14.722   1.613  19.108  1.00  0.00    -0.003 C 
ATOM     10  C   UNL     1      13.863   0.443  18.625  1.00  0.00     0.004 C 
ENDBRANCH   8   9
ENDBRANCH   7   8
ENDBRANCH   1   7
TORSDOF 6
ENDMDL
MODEL 8
REMARK VINA RESULT:    -4.728      4.566      6.375
REMARK INTER + INTRA:          -6.501
REMARK INTER:                  -6.178
REMARK INTRA:                  -0.323
REMARK UNBOUND:                -0.115
REMARK SMILES CCCCCCCC(=O)[O-]
REMARK SMILES IDX 5 1 6 2 7 3 8 4 9 5 10 6 4 7 3 8 2 9 1 10
REMARK H PARENT
REMARK Flexibility Score: inf
ROOT
ATOM      1  C   UNL     1      15.504   0.369  20.355  1.00  0.00     0.000 C 
ENDROOT
BRANCH   1   2
ATOM      2  C   UNL     1      16.634  -0.021  19.395  1.00  0.00     0.006 C 
BRANCH   2   3
ATOM      3  C   UNL     1      16.599  -1.519  19.085  1.00  0.00     0.053 C 
BRANCH   3   4
ATOM      4  C   UNL     1      16.559  -1.748  17.607  1.00  0.00     0.041 C 
ATOM      5  O   UNL     1      15.776  -1.078  16.883  1.00  0.00    -0.550 OA
ATOM      6  O   UNL     1      17.422  -2.666  17.022  1.00  0.00    -0.550 OA
ENDBRANCH   3   4
ENDBRANCH   2   3
ENDBRANCH   1   2
BRANCH   1   7
ATOM      7  C   UNL     1      14.739   1.594  19.838  1.00  0.00     0.000 C 
BRANCH   7   8
ATOM      8  C   UNL     1      13.768   1.200  18.715  1.00  0.00    -0.000 C 
BRANCH   8   9
ATOM      9  C   UNL     1      13.490   2.357  17.742  1.00  0.00    -0.003 C 
ATOM     10  C   UNL     1      13.131   3.659  18.458  1.00  0.00     0.004 C 
ENDBRANCH   8   9
ENDBRANCH   7   8
ENDBRANCH   1   7
TORSDOF 6
ENDMDL
MODEL 9
REMARK VINA RESULT:    -4.727     15.858     17.060
REMARK INTER + INTRA:          -6.500
REMARK INTER:                  -5.997
REMARK INTRA:                  -0.504
REMARK UNBOUND:                -0.115
REMARK SMILES CCCCCCCC(=O)[O-]
REMARK SMILES IDX 5 1 6 2 7 3 8 4 9 5 10 6 4 7 3 8 2 9 1 10
REMARK H PARENT
REMARK Flexibility Score: inf
ROOT
ATOM      1  C   UNL     1      27.260  -1.059   7.613  1.00  0.00     0.000 C 
ENDROOT
BRANCH   1   2
ATOM      2  C   UNL     1      28.191   0.159   7.572  1.00  0.00     0.006 C 
BRANCH   2   3
ATOM      3  C   UNL     1      28.581   0.599   8.986  1.00  0.00     0.053 C 
BRANCH   3   4
ATOM      4  C   UNL     1      30.045   0.390   9.214  1.00  0.00     0.041 C 
ATOM      5  O   UNL     1      30.441  -0.353  10.151  1.00  0.00    -0.550 OA
ATOM      6  O   UNL     1      30.972   0.977   8.362  1.00  0.00    -0.550 OA
ENDBRANCH   3   4
ENDBRANCH   2   3
ENDBRANCH   1   2
BRANCH   1   7
ATOM      7  C   UNL     1      27.383  -1.890   6.330  1.00  0.00     0.000 C 
BRANCH   7   8
ATOM      8  C   UNL     1      28.801  -1.792   5.746  1.00  0.00    -0.000 C 
BRANCH   8   9
ATOM      9  C   UNL     1      29.686  -2.984   6.144  1.00  0.00    -0.003 C 
ATOM     10  C   UNL     1      30.773  -2.603   7.149  1.00  0.00     0.004 C 
ENDBRANCH   8   9
ENDBRANCH   7   8
ENDBRANCH   1   7
TORSDOF 6
ENDMDL
