MODEL 1
REMARK VINA RESULT:    -2.659      0.000      0.000
REMARK INTER + INTRA:          -7.312
REMARK INTER:                  -6.079
REMARK INTRA:                  -1.233
REMARK UNBOUND:                -1.233
REMARK SMILES CCCCCCCCCCCCCCCCCCCCCCCC(=O)[O-]
REMARK SMILES IDX 13 1 14 2 15 3 16 4 17 5 18 6 19 7 20 8 21 9 22 10 23 11
REMARK SMILES IDX 24 12 25 13 26 14 12 15 11 16 10 17 9 18 8 19 7 20 6 21 5 22
REMARK SMILES IDX 4 23 3 24 2 25 1 26
REMARK H PARENT
REMARK Flexibility Score: inf
ROOT
ATOM      1  C   UNL     1     120.686  69.205   0.442  1.00  0.00     0.000 C 
ENDROOT
BRANCH   1   2
ATOM      2  C   UNL     1     121.359  70.592   0.430  1.00  0.00     0.000 C 
BRANCH   2   3
ATOM      3  C   UNL     1     120.414  71.783   0.686  1.00  0.00     0.000 C 
BRANCH   3   4
ATOM      4  C   UNL     1     121.106  73.158   0.746  1.00  0.00     0.000 C 
BRANCH   4   5
ATOM      5  C   UNL     1     120.485  74.158   1.743  1.00  0.00     0.000 C 
BRANCH   5   6
ATOM      6  C   UNL     1     119.901  73.530   3.021  1.00  0.00     0.000 C 
BRANCH   6   7
ATOM      7  C   UNL     1     120.833  72.479   3.649  1.00  0.00     0.000 C 
BRANCH   7   8
ATOM      8  C   UNL     1     120.064  71.412   4.445  1.00  0.00     0.000 C 
BRANCH   8   9
ATOM      9  C   UNL     1     120.958  70.658   5.445  1.00  0.00     0.000 C 
BRANCH   9  10
ATOM     10  C   UNL     1     120.592  70.943   6.913  1.00  0.00     0.006 C 
BRANCH  10  11
ATOM     11  C   UNL     1     120.262  72.419   7.198  1.00  0.00     0.053 C 
BRANCH  11  12
ATOM     12  C   UNL     1     120.397  72.773   8.647  1.00  0.00     0.041 C 
ATOM     13  O   UNL     1     120.655  73.957   8.990  1.00  0.00    -0.550 OA
ATOM     14  O   UNL     1     120.208  71.802   9.622  1.00  0.00    -0.550 OA
ENDBRANCH  11  12
ENDBRANCH  10  11
ENDBRANCH   9  10
ENDBRANCH   8   9
ENDBRANCH   7   8
ENDBRANCH   6   7
ENDBRANCH   5   6
ENDBRANCH   4   5
ENDBRANCH   3   4
ENDBRANCH   2   3
ENDBRANCH   1   2
BRANCH   1  15
ATOM     15  C   UNL     1     119.875  68.859  -0.820  1.00  0.00     0.000 C 
BRANCH  15  16
ATOM     16  C   UNL     1     120.757  68.672  -2.067  1.00  0.00     0.000 C 
BRANCH  16  17
ATOM     17  C   UNL     1     120.846  69.944  -2.924  1.00  0.00     0.000 C 
BRANCH  17  18
ATOM     18  C   UNL     1     119.877  69.929  -4.116  1.00  0.00    -0.000 C 
BRANCH  18  19
ATOM     19  C   UNL     1     119.903  68.571  -4.828  1.00  0.00    -0.000 C 
BRANCH  19  20
ATOM     20  C   UNL     1     120.870  68.594  -6.021  1.00  0.00    -0.000 C 
BRANCH  20  21
ATOM     21  C   UNL     1     120.169  68.940  -7.345  1.00  0.00    -0.000 C 
BRANCH  21  22
ATOM     22  C   UNL     1     120.618  68.040  -8.505  1.00  0.00    -0.000 C 
BRANCH  22  23
ATOM     23  C   UNL     1     120.148  66.594  -8.293  1.00  0.00    -0.000 C 
BRANCH  23  24
ATOM     24  C   UNL     1     121.231  65.554  -8.633  1.00  0.00    -0.000 C 
BRANCH  24  25
ATOM     25  C   UNL     1     121.526  64.538  -7.515  1.00  0.00    -0.003 C 
ATOM     26  C   UNL     1     120.593  64.682  -6.314  1.00  0.00     0.004 C 
ENDBRANCH  24  25
ENDBRANCH  23  24
ENDBRANCH  22  23
ENDBRANCH  21  22
ENDBRANCH  20  21
ENDBRANCH  19  20
ENDBRANCH  18  19
ENDBRANCH  17  18
ENDBRANCH  16  17
ENDBRANCH  15  16
ENDBRANCH   1  15
TORSDOF 22
ENDMDL
MODEL 2
REMARK VINA RESULT:    -2.418      1.508      2.991
REMARK INTER + INTRA:          -6.762
REMARK INTER:                  -6.455
REMARK INTRA:                  -0.307
REMARK UNBOUND:                -1.233
REMARK SMILES CCCCCCCCCCCCCCCCCCCCCCCC(=O)[O-]
REMARK SMILES IDX 13 1 14 2 15 3 16 4 17 5 18 6 19 7 20 8 21 9 22 10 23 11
REMARK SMILES IDX 24 12 25 13 26 14 12 15 11 16 10 17 9 18 8 19 7 20 6 21 5 22
REMARK SMILES IDX 4 23 3 24 2 25 1 26
REMARK H PARENT
REMARK Flexibility Score: inf
ROOT
ATOM      1  C   UNL     1     120.927  70.543  -0.355  1.00  0.00     0.000 C 
ENDROOT
BRANCH   1   2
ATOM      2  C   UNL     1     120.271  70.830   1.011  1.00  0.00     0.000 C 
BRANCH   2   3
ATOM      3  C   UNL     1     121.113  71.685   1.977  1.00  0.00     0.000 C 
BRANCH   3   4
ATOM      4  C   UNL     1     120.326  72.773   2.734  1.00  0.00     0.000 C 
BRANCH   4   5
ATOM      5  C   UNL     1     120.284  72.600   4.266  1.00  0.00     0.000 C 
BRANCH   5   6
ATOM      6  C   UNL     1     121.128  71.438   4.817  1.00  0.00     0.000 C 
BRANCH   6   7
ATOM      7  C   UNL     1     121.312  71.505   6.343  1.00  0.00     0.000 C 
BRANCH   7   8
ATOM      8  C   UNL     1     120.390  70.527   7.090  1.00  0.00     0.000 C 
BRANCH   8   9
ATOM      9  C   UNL     1     120.824  70.299   8.549  1.00  0.00     0.000 C 
BRANCH   9  10
ATOM     10  C   UNL     1     119.886  70.971   9.568  1.00  0.00     0.006 C 
BRANCH  10  11
ATOM     11  C   UNL     1     120.526  72.154  10.318  1.00  0.00     0.053 C 
BRANCH  11  12
ATOM     12  C   UNL     1     120.485  73.428   9.531  1.00  0.00     0.041 C 
ATOM     13  O   UNL     1     120.868  73.447   8.331  1.00  0.00    -0.550 OA
ATOM     14  O   UNL     1     119.996  74.591  10.113  1.00  0.00    -0.550 OA
ENDBRANCH  11  12
ENDBRANCH  10  11
ENDBRANCH   9  10
ENDBRANCH   8   9
ENDBRANCH   7   8
ENDBRANCH   6   7
ENDBRANCH   5   6
ENDBRANCH   4   5
ENDBRANCH   3   4
ENDBRANCH   2   3
ENDBRANCH   1   2
BRANCH   1  15
ATOM     15  C   UNL     1     120.530  69.206  -1.006  1.00  0.00     0.000 C 
BRANCH  15  16
ATOM     16  C   UNL     1     120.782  67.995  -0.090  1.00  0.00     0.000 C 
BRANCH  16  17
ATOM     17  C   UNL     1     120.839  66.670  -0.866  1.00  0.00     0.000 C 
BRANCH  17  18
ATOM     18  C   UNL     1     119.962  66.680  -2.128  1.00  0.00    -0.000 C 
BRANCH  18  19
ATOM     19  C   UNL     1     120.525  65.735  -3.195  1.00  0.00    -0.000 C 
BRANCH  19  20
ATOM     20  C   UNL     1     119.927  66.044  -4.575  1.00  0.00    -0.000 C 
BRANCH  20  21
ATOM     21  C   UNL     1     120.395  65.060  -5.659  1.00  0.00    -0.000 C 
BRANCH  21  22
ATOM     22  C   UNL     1     121.138  65.754  -6.809  1.00  0.00    -0.000 C 
BRANCH  22  23
ATOM     23  C   UNL     1     120.256  66.825  -7.466  1.00  0.00    -0.000 C 
BRANCH  23  24
ATOM     24  C   UNL     1     120.788  68.254  -7.254  1.00  0.00    -0.000 C 
BRANCH  24  25
ATOM     25  C   UNL     1     120.073  69.054  -6.150  1.00  0.00    -0.003 C 
ATOM     26  C   UNL     1     120.444  70.536  -6.148  1.00  0.00     0.004 C 
ENDBRANCH  24  25
ENDBRANCH  23  24
ENDBRANCH  22  23
ENDBRANCH  21  22
ENDBRANCH  20  21
ENDBRANCH  19  20
ENDBRANCH  18  19
ENDBRANCH  17  18
ENDBRANCH  16  17
ENDBRANCH  15  16
ENDBRANCH   1  15
TORSDOF 22
ENDMDL
MODEL 3
REMARK VINA RESULT:    -2.406      1.054      2.312
REMARK INTER + INTRA:          -6.734
REMARK INTER:                  -8.140
REMARK INTRA:                   1.405
REMARK UNBOUND:                -1.233
REMARK SMILES CCCCCCCCCCCCCCCCCCCCCCCC(=O)[O-]
REMARK SMILES IDX 13 1 14 2 15 3 16 4 17 5 18 6 19 7 20 8 21 9 22 10 23 11
REMARK SMILES IDX 24 12 25 13 26 14 12 15 11 16 10 17 9 18 8 19 7 20 6 21 5 22
REMARK SMILES IDX 4 23 3 24 2 25 1 26
REMARK H PARENT
REMARK Flexibility Score: inf
ROOT
ATOM      1  C   UNL     1     121.202  68.869  -0.457  1.00  0.00     0.000 C 
ENDROOT
BRANCH   1   2
ATOM      2  C   UNL     1     119.875  69.530  -0.031  1.00  0.00     0.000 C 
BRANCH   2   3
ATOM      3  C   UNL     1     119.911  70.254   1.329  1.00  0.00     0.000 C 
BRANCH   3   4
ATOM      4  C   UNL     1     121.065  71.263   1.496  1.00  0.00     0.000 C 
BRANCH   4   5
ATOM      5  C   UNL     1     120.759  72.691   0.999  1.00  0.00     0.000 C 
BRANCH   5   6
ATOM      6  C   UNL     1     120.597  73.748   2.105  1.00  0.00     0.000 C 
BRANCH   6   7
ATOM      7  C   UNL     1     120.446  73.128   3.506  1.00  0.00     0.000 C 
BRANCH   7   8
ATOM      8  C   UNL     1     121.175  71.781   3.634  1.00  0.00     0.000 C 
BRANCH   8   9
ATOM      9  C   UNL     1     120.701  70.962   4.847  1.00  0.00     0.000 C 
BRANCH   9  10
ATOM     10  C   UNL     1     120.342  71.837   6.061  1.00  0.00     0.006 C 
BRANCH  10  11
ATOM     11  C   UNL     1     120.714  71.207   7.416  1.00  0.00     0.053 C 
BRANCH  11  12
ATOM     12  C   UNL     1     120.701  72.199   8.538  1.00  0.00     0.041 C 
ATOM     13  O   UNL     1     120.626  71.806   9.733  1.00  0.00    -0.550 OA
ATOM     14  O   UNL     1     120.801  73.558   8.269  1.00  0.00    -0.550 OA
ENDBRANCH  11  12
ENDBRANCH  10  11
ENDBRANCH   9  10
ENDBRANCH   8   9
ENDBRANCH   7   8
ENDBRANCH   6   7
ENDBRANCH   5   6
ENDBRANCH   4   5
ENDBRANCH   3   4
ENDBRANCH   2   3
ENDBRANCH   1   2
BRANCH   1  15
ATOM     15  C   UNL     1     121.057  67.643  -1.376  1.00  0.00     0.000 C 
BRANCH  15  16
ATOM     16  C   UNL     1     119.878  67.764  -2.357  1.00  0.00     0.000 C 
BRANCH  16  17
ATOM     17  C   UNL     1     120.314  68.264  -3.744  1.00  0.00     0.000 C 
BRANCH  17  18
ATOM     18  C   UNL     1     120.177  67.190  -4.835  1.00  0.00    -0.000 C 
BRANCH  18  19
ATOM     19  C   UNL     1     120.129  65.787  -4.221  1.00  0.00    -0.000 C 
BRANCH  19  20
ATOM     20  C   UNL     1     120.287  64.707  -5.302  1.00  0.00    -0.000 C 
BRANCH  20  21
ATOM     21  C   UNL     1     119.957  65.226  -6.710  1.00  0.00    -0.000 C 
BRANCH  21  22
ATOM     22  C   UNL     1     120.941  64.718  -7.774  1.00  0.00    -0.000 C 
BRANCH  22  23
ATOM     23  C   UNL     1     120.870  65.580  -9.043  1.00  0.00    -0.000 C 
BRANCH  23  24
ATOM     24  C   UNL     1     121.382  67.015  -8.823  1.00  0.00    -0.000 C 
BRANCH  24  25
ATOM     25  C   UNL     1     120.283  68.090  -8.750  1.00  0.00    -0.003 C 
ATOM     26  C   UNL     1     120.292  68.868  -7.435  1.00  0.00     0.004 C 
ENDBRANCH  24  25
ENDBRANCH  23  24
ENDBRANCH  22  23
ENDBRANCH  21  22
ENDBRANCH  20  21
ENDBRANCH  19  20
ENDBRANCH  18  19
ENDBRANCH  17  18
ENDBRANCH  16  17
ENDBRANCH  15  16
ENDBRANCH   1  15
TORSDOF 22
ENDMDL
MODEL 4
REMARK VINA RESULT:    -2.268      1.572      2.628
REMARK INTER + INTRA:          -6.418
REMARK INTER:                  -6.167
REMARK INTRA:                  -0.250
REMARK UNBOUND:                -1.233
REMARK SMILES CCCCCCCCCCCCCCCCCCCCCCCC(=O)[O-]
REMARK SMILES IDX 13 1 14 2 15 3 16 4 17 5 18 6 19 7 20 8 21 9 22 10 23 11
REMARK SMILES IDX 24 12 25 13 26 14 12 15 11 16 10 17 9 18 8 19 7 20 6 21 5 22
REMARK SMILES IDX 4 23 3 24 2 25 1 26
REMARK H PARENT
REMARK Flexibility Score: inf
ROOT
ATOM      1  C   UNL     1     121.217  70.489  -0.025  1.00  0.00     0.000 C 
ENDROOT
BRANCH   1   2
ATOM      2  C   UNL     1     120.255  70.866   1.119  1.00  0.00     0.000 C 
BRANCH   2   3
ATOM      3  C   UNL     1     120.924  71.487   2.361  1.00  0.00     0.000 C 
BRANCH   3   4
ATOM      4  C   UNL     1     120.114  72.609   3.040  1.00  0.00     0.000 C 
BRANCH   4   5
ATOM      5  C   UNL     1     120.107  72.565   4.582  1.00  0.00     0.000 C 
BRANCH   5   6
ATOM      6  C   UNL     1     120.816  71.351   5.206  1.00  0.00     0.000 C 
BRANCH   6   7
ATOM      7  C   UNL     1     121.058  71.512   6.717  1.00  0.00     0.000 C 
BRANCH   7   8
ATOM      8  C   UNL     1     120.232  70.521   7.553  1.00  0.00     0.000 C 
BRANCH   8   9
ATOM      9  C   UNL     1     120.742  70.397   9.000  1.00  0.00     0.000 C 
BRANCH   9  10
ATOM     10  C   UNL     1     119.875  71.168  10.012  1.00  0.00     0.006 C 
BRANCH  10  11
ATOM     11  C   UNL     1     120.569  72.403  10.613  1.00  0.00     0.053 C 
BRANCH  11  12
ATOM     12  C   UNL     1     120.311  73.652   9.827  1.00  0.00     0.041 C 
ATOM     13  O   UNL     1     120.273  74.770  10.405  1.00  0.00    -0.550 OA
ATOM     14  O   UNL     1     120.140  73.586   8.451  1.00  0.00    -0.550 OA
ENDBRANCH  11  12
ENDBRANCH  10  11
ENDBRANCH   9  10
ENDBRANCH   8   9
ENDBRANCH   7   8
ENDBRANCH   6   7
ENDBRANCH   5   6
ENDBRANCH   4   5
ENDBRANCH   3   4
ENDBRANCH   2   3
ENDBRANCH   1   2
BRANCH   1  15
ATOM     15  C   UNL     1     120.818  69.241  -0.833  1.00  0.00     0.000 C 
BRANCH  15  16
ATOM     16  C   UNL     1     121.166  67.925  -0.116  1.00  0.00     0.000 C 
BRANCH  16  17
ATOM     17  C   UNL     1     120.957  66.693  -1.010  1.00  0.00     0.000 C 
BRANCH  17  18
ATOM     18  C   UNL     1     120.144  67.005  -2.276  1.00  0.00    -0.000 C 
BRANCH  18  19
ATOM     19  C   UNL     1     120.150  65.814  -3.240  1.00  0.00    -0.000 C 
BRANCH  19  20
ATOM     20  C   UNL     1     119.875  66.270  -4.681  1.00  0.00    -0.000 C 
BRANCH  20  21
ATOM     21  C   UNL     1     121.136  66.249  -5.559  1.00  0.00    -0.000 C 
BRANCH  21  22
ATOM     22  C   UNL     1     121.210  67.447  -6.517  1.00  0.00    -0.000 C 
BRANCH  22  23
ATOM     23  C   UNL     1     120.559  67.113  -7.866  1.00  0.00    -0.000 C 
BRANCH  23  24
ATOM     24  C   UNL     1     121.452  66.239  -8.765  1.00  0.00    -0.000 C 
BRANCH  24  25
ATOM     25  C   UNL     1     121.414  64.733  -8.447  1.00  0.00    -0.003 C 
ATOM     26  C   UNL     1     122.670  63.993  -8.903  1.00  0.00     0.004 C 
ENDBRANCH  24  25
ENDBRANCH  23  24
ENDBRANCH  22  23
ENDBRANCH  21  22
ENDBRANCH  20  21
ENDBRANCH  19  20
ENDBRANCH  18  19
ENDBRANCH  17  18
ENDBRANCH  16  17
ENDBRANCH  15  16
ENDBRANCH   1  15
TORSDOF 22
ENDMDL
MODEL 5
REMARK VINA RESULT:    -1.341      5.214     12.246
REMARK INTER + INTRA:          -4.299
REMARK INTER:                  -3.495
REMARK INTRA:                  -0.803
REMARK UNBOUND:                -1.233
REMARK SMILES CCCCCCCCCCCCCCCCCCCCCCCC(=O)[O-]
REMARK SMILES IDX 13 1 14 2 15 3 16 4 17 5 18 6 19 7 20 8 21 9 22 10 23 11
REMARK SMILES IDX 24 12 25 13 26 14 12 15 11 16 10 17 9 18 8 19 7 20 6 21 5 22
REMARK SMILES IDX 4 23 3 24 2 25 1 26
REMARK H PARENT
REMARK Flexibility Score: inf
ROOT
ATOM      1  C   UNL     1     122.358  67.259  -0.870  1.00  0.00     0.000 C 
ENDROOT
BRANCH   1   2
ATOM      2  C   UNL     1     121.259  66.234  -1.215  1.00  0.00     0.000 C 
BRANCH   2   3
ATOM      3  C   UNL     1     120.100  66.778  -2.074  1.00  0.00     0.000 C 
BRANCH   3   4
ATOM      4  C   UNL     1     120.130  66.344  -3.552  1.00  0.00     0.000 C 
BRANCH   4   5
ATOM      5  C   UNL     1     119.889  67.479  -4.570  1.00  0.00     0.000 C 
BRANCH   5   6
ATOM      6  C   UNL     1     120.373  68.870  -4.125  1.00  0.00     0.000 C 
BRANCH   6   7
ATOM      7  C   UNL     1     120.203  69.939  -5.219  1.00  0.00     0.000 C 
BRANCH   7   8
ATOM      8  C   UNL     1     120.869  69.535  -6.544  1.00  0.00     0.000 C 
BRANCH   8   9
ATOM      9  C   UNL     1     120.006  68.566  -7.372  1.00  0.00     0.000 C 
BRANCH   9  10
ATOM     10  C   UNL     1     120.640  68.202  -8.727  1.00  0.00     0.006 C 
BRANCH  10  11
ATOM     11  C   UNL     1     121.702  67.091  -8.640  1.00  0.00     0.053 C 
BRANCH  11  12
ATOM     12  C   UNL     1     121.294  65.970  -7.734  1.00  0.00     0.041 C 
ATOM     13  O   UNL     1     121.828  65.844  -6.600  1.00  0.00    -0.550 OA
ATOM     14  O   UNL     1     120.304  65.081  -8.129  1.00  0.00    -0.550 OA
ENDBRANCH  11  12
ENDBRANCH  10  11
ENDBRANCH   9  10
ENDBRANCH   8   9
ENDBRANCH   7   8
ENDBRANCH   6   7
ENDBRANCH   5   6
ENDBRANCH   4   5
ENDBRANCH   3   4
ENDBRANCH   2   3
ENDBRANCH   1   2
BRANCH   1  15
ATOM     15  C   UNL     1     121.984  68.730  -1.121  1.00  0.00     0.000 C 
BRANCH  15  16
ATOM     16  C   UNL     1     120.961  69.270  -0.105  1.00  0.00     0.000 C 
BRANCH  16  17
ATOM     17  C   UNL     1     120.758  70.789  -0.223  1.00  0.00     0.000 C 
BRANCH  17  18
ATOM     18  C   UNL     1     121.244  71.553   1.018  1.00  0.00    -0.000 C 
BRANCH  18  19
ATOM     19  C   UNL     1     120.168  72.521   1.523  1.00  0.00    -0.000 C 
BRANCH  19  20
ATOM     20  C   UNL     1     119.876  72.291   3.014  1.00  0.00    -0.000 C 
BRANCH  20  21
ATOM     21  C   UNL     1     121.139  71.948   3.819  1.00  0.00    -0.000 C 
BRANCH  21  22
ATOM     22  C   UNL     1     120.823  71.243   5.146  1.00  0.00    -0.000 C 
BRANCH  22  23
ATOM     23  C   UNL     1     120.222  72.226   6.161  1.00  0.00    -0.000 C 
BRANCH  23  24
ATOM     24  C   UNL     1     119.875  71.563   7.506  1.00  0.00    -0.000 C 
BRANCH  24  25
ATOM     25  C   UNL     1     120.406  72.302   8.748  1.00  0.00    -0.003 C 
ATOM     26  C   UNL     1     120.008  71.630  10.060  1.00  0.00     0.004 C 
ENDBRANCH  24  25
ENDBRANCH  23  24
ENDBRANCH  22  23
ENDBRANCH  21  22
ENDBRANCH  20  21
ENDBRANCH  19  20
ENDBRANCH  18  19
ENDBRANCH  17  18
ENDBRANCH  16  17
ENDBRANCH  15  16
ENDBRANCH   1  15
TORSDOF 22
ENDMDL
MODEL 6
REMARK VINA RESULT:    -0.891      5.511     12.927
REMARK INTER + INTRA:          -3.271
REMARK INTER:                  -5.500
REMARK INTRA:                   2.229
REMARK UNBOUND:                -1.233
REMARK SMILES CCCCCCCCCCCCCCCCCCCCCCCC(=O)[O-]
REMARK SMILES IDX 13 1 14 2 15 3 16 4 17 5 18 6 19 7 20 8 21 9 22 10 23 11
REMARK SMILES IDX 24 12 25 13 26 14 12 15 11 16 10 17 9 18 8 19 7 20 6 21 5 22
REMARK SMILES IDX 4 23 3 24 2 25 1 26
REMARK H PARENT
REMARK Flexibility Score: inf
ROOT
ATOM      1  C   UNL     1     121.070  71.697   0.586  1.00  0.00     0.000 C 
ENDROOT
BRANCH   1   2
ATOM      2  C   UNL     1     120.293  70.507   1.184  1.00  0.00     0.000 C 
BRANCH   2   3
ATOM      3  C   UNL     1     120.720  69.119   0.666  1.00  0.00     0.000 C 
BRANCH   3   4
ATOM      4  C   UNL     1     119.946  68.624  -0.572  1.00  0.00     0.000 C 
BRANCH   4   5
ATOM      5  C   UNL     1     120.484  69.137  -1.924  1.00  0.00     0.000 C 
BRANCH   5   6
ATOM      6  C   UNL     1     119.875  68.465  -3.168  1.00  0.00     0.000 C 
BRANCH   6   7
ATOM      7  C   UNL     1     120.332  67.006  -3.342  1.00  0.00     0.000 C 
BRANCH   7   8
ATOM      8  C   UNL     1     120.054  66.467  -4.755  1.00  0.00     0.000 C 
BRANCH   8   9
ATOM      9  C   UNL     1     120.166  67.554  -5.838  1.00  0.00     0.000 C 
BRANCH   9  10
ATOM     10  C   UNL     1     121.411  67.390  -6.729  1.00  0.00     0.006 C 
BRANCH  10  11
ATOM     11  C   UNL     1     121.774  65.925  -7.029  1.00  0.00     0.053 C 
BRANCH  11  12
ATOM     12  C   UNL     1     120.856  65.294  -8.030  1.00  0.00     0.041 C 
ATOM     13  O   UNL     1     120.498  65.933  -9.055  1.00  0.00    -0.550 OA
ATOM     14  O   UNL     1     120.417  63.989  -7.847  1.00  0.00    -0.550 OA
ENDBRANCH  11  12
ENDBRANCH  10  11
ENDBRANCH   9  10
ENDBRANCH   8   9
ENDBRANCH   7   8
ENDBRANCH   6   7
ENDBRANCH   5   6
ENDBRANCH   4   5
ENDBRANCH   3   4
ENDBRANCH   2   3
ENDBRANCH   1   2
BRANCH   1  15
ATOM     15  C   UNL     1     120.325  73.044   0.611  1.00  0.00     0.000 C 
BRANCH  15  16
ATOM     16  C   UNL     1     120.725  73.929   1.805  1.00  0.00     0.000 C 
BRANCH  16  17
ATOM     17  C   UNL     1     121.616  73.188   2.815  1.00  0.00     0.000 C 
BRANCH  17  18
ATOM     18  C   UNL     1     121.192  71.726   3.024  1.00  0.00    -0.000 C 
BRANCH  18  19
ATOM     19  C   UNL     1     120.230  71.596   4.210  1.00  0.00    -0.000 C 
BRANCH  19  20
ATOM     20  C   UNL     1     120.851  70.751   5.333  1.00  0.00    -0.000 C 
BRANCH  20  21
ATOM     21  C   UNL     1     119.928  70.619   6.554  1.00  0.00    -0.000 C 
BRANCH  21  22
ATOM     22  C   UNL     1     119.999  71.837   7.486  1.00  0.00    -0.000 C 
BRANCH  22  23
ATOM     23  C   UNL     1     120.623  71.460   8.837  1.00  0.00    -0.000 C 
BRANCH  23  24
ATOM     24  C   UNL     1     120.142  72.356   9.992  1.00  0.00    -0.000 C 
BRANCH  24  25
ATOM     25  C   UNL     1     119.875  73.822   9.606  1.00  0.00    -0.003 C 
ATOM     26  C   UNL     1     120.137  74.799  10.750  1.00  0.00     0.004 C 
ENDBRANCH  24  25
ENDBRANCH  23  24
ENDBRANCH  22  23
ENDBRANCH  21  22
ENDBRANCH  20  21
ENDBRANCH  19  20
ENDBRANCH  18  19
ENDBRANCH  17  18
ENDBRANCH  16  17
ENDBRANCH  15  16
ENDBRANCH   1  15
TORSDOF 22
ENDMDL
MODEL 7
REMARK VINA RESULT:    -0.307      5.222     12.898
REMARK INTER + INTRA:          -1.936
REMARK INTER:                  -3.365
REMARK INTRA:                   1.429
REMARK UNBOUND:                -1.233
REMARK SMILES CCCCCCCCCCCCCCCCCCCCCCCC(=O)[O-]
REMARK SMILES IDX 13 1 14 2 15 3 16 4 17 5 18 6 19 7 20 8 21 9 22 10 23 11
REMARK SMILES IDX 24 12 25 13 26 14 12 15 11 16 10 17 9 18 8 19 7 20 6 21 5 22
REMARK SMILES IDX 4 23 3 24 2 25 1 26
REMARK H PARENT
REMARK Flexibility Score: inf
ROOT
ATOM      1  C   UNL     1     121.518  70.906   1.202  1.00  0.00     0.000 C 
ENDROOT
BRANCH   1   2
ATOM      2  C   UNL     1     120.124  70.479   0.699  1.00  0.00     0.000 C 
BRANCH   2   3
ATOM      3  C   UNL     1     119.927  70.554  -0.828  1.00  0.00     0.000 C 
BRANCH   3   4
ATOM      4  C   UNL     1     121.018  69.849  -1.657  1.00  0.00     0.000 C 
BRANCH   4   5
ATOM      5  C   UNL     1     121.907  68.868  -0.865  1.00  0.00     0.000 C 
BRANCH   5   6
ATOM      6  C   UNL     1     121.151  67.744  -0.134  1.00  0.00     0.000 C 
BRANCH   6   7
ATOM      7  C   UNL     1     119.875  67.304  -0.872  1.00  0.00     0.000 C 
BRANCH   7   8
ATOM      8  C   UNL     1     120.173  66.367  -2.054  1.00  0.00     0.000 C 
BRANCH   8   9
ATOM      9  C   UNL     1     120.894  67.081  -3.211  1.00  0.00     0.000 C 
BRANCH   9  10
ATOM     10  C   UNL     1     120.394  66.636  -4.597  1.00  0.00     0.006 C 
BRANCH  10  11
ATOM     11  C   UNL     1     120.240  67.790  -5.604  1.00  0.00     0.053 C 
BRANCH  11  12
ATOM     12  C   UNL     1     120.606  67.392  -7.001  1.00  0.00     0.041 C 
ATOM     13  O   UNL     1     120.109  66.357  -7.518  1.00  0.00    -0.550 OA
ATOM     14  O   UNL     1     121.475  68.180  -7.745  1.00  0.00    -0.550 OA
ENDBRANCH  11  12
ENDBRANCH  10  11
ENDBRANCH   9  10
ENDBRANCH   8   9
ENDBRANCH   7   8
ENDBRANCH   6   7
ENDBRANCH   5   6
ENDBRANCH   4   5
ENDBRANCH   3   4
ENDBRANCH   2   3
ENDBRANCH   1   2
BRANCH   1  15
ATOM     15  C   UNL     1     121.514  71.880   2.394  1.00  0.00     0.000 C 
BRANCH  15  16
ATOM     16  C   UNL     1     120.153  71.949   3.108  1.00  0.00     0.000 C 
BRANCH  16  17
ATOM     17  C   UNL     1     119.996  70.863   4.185  1.00  0.00     0.000 C 
BRANCH  17  18
ATOM     18  C   UNL     1     120.767  71.186   5.474  1.00  0.00    -0.000 C 
BRANCH  18  19
ATOM     19  C   UNL     1     120.389  72.573   6.007  1.00  0.00    -0.000 C 
BRANCH  19  20
ATOM     20  C   UNL     1     120.593  72.653   7.527  1.00  0.00    -0.000 C 
BRANCH  20  21
ATOM     21  C   UNL     1     121.080  71.326   8.131  1.00  0.00    -0.000 C 
BRANCH  21  22
ATOM     22  C   UNL     1     120.299  70.926   9.391  1.00  0.00    -0.000 C 
BRANCH  22  23
ATOM     23  C   UNL     1     120.479  71.970  10.503  1.00  0.00    -0.000 C 
BRANCH  23  24
ATOM     24  C   UNL     1     119.896  73.346  10.135  1.00  0.00    -0.000 C 
BRANCH  24  25
ATOM     25  C   UNL     1     120.794  74.545  10.492  1.00  0.00    -0.003 C 
ATOM     26  C   UNL     1     120.002  75.790  10.887  1.00  0.00     0.004 C 
ENDBRANCH  24  25
ENDBRANCH  23  24
ENDBRANCH  22  23
ENDBRANCH  21  22
ENDBRANCH  20  21
ENDBRANCH  19  20
ENDBRANCH  18  19
ENDBRANCH  17  18
ENDBRANCH  16  17
ENDBRANCH  15  16
ENDBRANCH   1  15
TORSDOF 22
ENDMDL
MODEL 8
REMARK VINA RESULT:    -0.041      5.189     12.940
REMARK INTER + INTRA:          -1.327
REMARK INTER:                  -1.694
REMARK INTRA:                   0.367
REMARK UNBOUND:                -1.233
REMARK SMILES CCCCCCCCCCCCCCCCCCCCCCCC(=O)[O-]
REMARK SMILES IDX 13 1 14 2 15 3 16 4 17 5 18 6 19 7 20 8 21 9 22 10 23 11
REMARK SMILES IDX 24 12 25 13 26 14 12 15 11 16 10 17 9 18 8 19 7 20 6 21 5 22
REMARK SMILES IDX 4 23 3 24 2 25 1 26
REMARK H PARENT
REMARK Flexibility Score: inf
ROOT
ATOM      1  C   UNL     1     121.672  70.948   1.190  1.00  0.00     0.000 C 
ENDROOT
BRANCH   1   2
ATOM      2  C   UNL     1     120.411  70.366   0.520  1.00  0.00     0.000 C 
BRANCH   2   3
ATOM      3  C   UNL     1     120.453  70.312  -1.019  1.00  0.00     0.000 C 
BRANCH   3   4
ATOM      4  C   UNL     1     121.629  69.508  -1.608  1.00  0.00     0.000 C 
BRANCH   4   5
ATOM      5  C   UNL     1     121.836  68.110  -0.991  1.00  0.00     0.000 C 
BRANCH   5   6
ATOM      6  C   UNL     1     120.671  67.125  -1.195  1.00  0.00     0.000 C 
BRANCH   6   7
ATOM      7  C   UNL     1     119.968  67.306  -2.552  1.00  0.00     0.000 C 
BRANCH   7   8
ATOM      8  C   UNL     1     120.943  67.213  -3.737  1.00  0.00     0.000 C 
BRANCH   8   9
ATOM      9  C   UNL     1     120.501  68.065  -4.939  1.00  0.00     0.000 C 
BRANCH   9  10
ATOM     10  C   UNL     1     120.602  67.315  -6.279  1.00  0.00     0.006 C 
BRANCH  10  11
ATOM     11  C   UNL     1     121.558  66.109  -6.248  1.00  0.00     0.053 C 
BRANCH  11  12
ATOM     12  C   UNL     1     120.847  64.802  -6.419  1.00  0.00     0.041 C 
ATOM     13  O   UNL     1     120.125  64.346  -5.493  1.00  0.00    -0.550 OA
ATOM     14  O   UNL     1     120.958  64.099  -7.612  1.00  0.00    -0.550 OA
ENDBRANCH  11  12
ENDBRANCH  10  11
ENDBRANCH   9  10
ENDBRANCH   8   9
ENDBRANCH   7   8
ENDBRANCH   6   7
ENDBRANCH   5   6
ENDBRANCH   4   5
ENDBRANCH   3   4
ENDBRANCH   2   3
ENDBRANCH   1   2
BRANCH   1  15
ATOM     15  C   UNL     1     121.408  71.930   2.345  1.00  0.00     0.000 C 
BRANCH  15  16
ATOM     16  C   UNL     1     120.033  71.723   3.005  1.00  0.00     0.000 C 
BRANCH  16  17
ATOM     17  C   UNL     1     120.069  70.671   4.124  1.00  0.00     0.000 C 
BRANCH  17  18
ATOM     18  C   UNL     1     120.928  71.103   5.322  1.00  0.00    -0.000 C 
BRANCH  18  19
ATOM     19  C   UNL     1     120.418  72.420   5.917  1.00  0.00    -0.000 C 
BRANCH  19  20
ATOM     20  C   UNL     1     120.949  72.622   7.345  1.00  0.00    -0.000 C 
BRANCH  20  21
ATOM     21  C   UNL     1     119.876  73.157   8.306  1.00  0.00    -0.000 C 
BRANCH  21  22
ATOM     22  C   UNL     1     120.477  73.855   9.535  1.00  0.00    -0.000 C 
BRANCH  22  23
ATOM     23  C   UNL     1     120.099  73.116  10.826  1.00  0.00    -0.000 C 
BRANCH  23  24
ATOM     24  C   UNL     1     120.750  71.726  10.935  1.00  0.00    -0.000 C 
BRANCH  24  25
ATOM     25  C   UNL     1     120.771  70.917   9.626  1.00  0.00    -0.003 C 
ATOM     26  C   UNL     1     119.880  69.677   9.674  1.00  0.00     0.004 C 
ENDBRANCH  24  25
ENDBRANCH  23  24
ENDBRANCH  22  23
ENDBRANCH  21  22
ENDBRANCH  20  21
ENDBRANCH  19  20
ENDBRANCH  18  19
ENDBRANCH  17  18
ENDBRANCH  16  17
ENDBRANCH  15  16
ENDBRANCH   1  15
TORSDOF 22
ENDMDL
