MODEL 1
REMARK VINA RESULT:    -3.877      0.000      0.000
REMARK INTER + INTRA:          -5.847
REMARK INTER:                  -5.463
REMARK INTRA:                  -0.384
REMARK UNBOUND:                -0.384
REMARK SMILES C=CCCCCCCC(=O)[O-]
REMARK SMILES IDX 6 1 7 2 8 3 9 4 10 5 11 6 5 7 4 8 3 9 2 10 1 11
REMARK H PARENT
REMARK Flexibility Score: inf
ROOT
ATOM      1  C   UNL     1      31.478 170.296 155.178  1.00  0.00     0.000 C 
ENDROOT
BRANCH   1   2
ATOM      2  C   UNL     1      30.532 171.456 154.820  1.00  0.00     0.006 C 
BRANCH   2   3
ATOM      3  C   UNL     1      31.218 172.557 154.001  1.00  0.00     0.053 C 
BRANCH   3   4
ATOM      4  C   UNL     1      30.480 173.851 154.144  1.00  0.00     0.041 C 
ATOM      5  O   UNL     1      29.222 173.867 154.143  1.00  0.00    -0.550 OA
ATOM      6  O   UNL     1      31.183 175.046 154.227  1.00  0.00    -0.550 OA
ENDBRANCH   3   4
ENDBRANCH   2   3
ENDBRANCH   1   2
BRANCH   1   7
ATOM      7  C   UNL     1      32.743 170.194 154.305  1.00  0.00     0.000 C 
BRANCH   7   8
ATOM      8  C   UNL     1      34.039 170.438 155.097  1.00  0.00     0.004 C 
BRANCH   8   9
ATOM      9  C   UNL     1      33.855 170.177 156.598  1.00  0.00     0.027 C 
BRANCH   9  10
ATOM     10  C   UNL     1      35.049 169.476 157.187  1.00  0.00    -0.035 C 
ATOM     11  C   UNL     1      35.169 168.146 157.169  1.00  0.00     0.004 C 
ENDBRANCH   9  10
ENDBRANCH   8   9
ENDBRANCH   7   8
ENDBRANCH   1   7
TORSDOF 7
ENDMDL
MODEL 2
REMARK VINA RESULT:    -3.600      3.747      5.485
REMARK INTER + INTRA:          -5.457
REMARK INTER:                  -4.804
REMARK INTRA:                  -0.653
REMARK UNBOUND:                -0.384
REMARK SMILES C=CCCCCCCC(=O)[O-]
REMARK SMILES IDX 6 1 7 2 8 3 9 4 10 5 11 6 5 7 4 8 3 9 2 10 1 11
REMARK H PARENT
REMARK Flexibility Score: inf
ROOT
ATOM      1  C   UNL     1      34.888 169.404 157.400  1.00  0.00     0.000 C 
ENDROOT
BRANCH   1   2
ATOM      2  C   UNL     1      34.248 168.015 157.582  1.00  0.00     0.006 C 
BRANCH   2   3
ATOM      3  C   UNL     1      32.826 168.081 158.152  1.00  0.00     0.053 C 
BRANCH   3   4
ATOM      4  C   UNL     1      32.778 168.998 159.334  1.00  0.00     0.041 C 
ATOM      5  O   UNL     1      33.317 168.660 160.420  1.00  0.00    -0.550 OA
ATOM      6  O   UNL     1      32.094 170.204 159.251  1.00  0.00    -0.550 OA
ENDBRANCH   3   4
ENDBRANCH   2   3
ENDBRANCH   1   2
BRANCH   1   7
ATOM      7  C   UNL     1      34.798 169.980 155.975  1.00  0.00     0.000 C 
BRANCH   7   8
ATOM      8  C   UNL     1      33.482 170.735 155.716  1.00  0.00     0.004 C 
BRANCH   8   9
ATOM      9  C   UNL     1      33.068 170.680 154.239  1.00  0.00     0.027 C 
BRANCH   9  10
ATOM     10  C   UNL     1      32.394 169.378 153.902  1.00  0.00    -0.035 C 
ATOM     11  C   UNL     1      31.517 168.802 154.729  1.00  0.00     0.004 C 
ENDBRANCH   9  10
ENDBRANCH   8   9
ENDBRANCH   7   8
ENDBRANCH   1   7
TORSDOF 7
ENDMDL
MODEL 3
REMARK VINA RESULT:    -3.578      4.191      5.761
REMARK INTER + INTRA:          -5.427
REMARK INTER:                  -4.895
REMARK INTRA:                  -0.531
REMARK UNBOUND:                -0.384
REMARK SMILES C=CCCCCCCC(=O)[O-]
REMARK SMILES IDX 6 1 7 2 8 3 9 4 10 5 11 6 5 7 4 8 3 9 2 10 1 11
REMARK H PARENT
REMARK Flexibility Score: inf
ROOT
ATOM      1  C   UNL     1      34.589 168.132 157.446  1.00  0.00     0.000 C 
ENDROOT
BRANCH   1   2
ATOM      2  C   UNL     1      33.327 167.948 158.308  1.00  0.00     0.006 C 
BRANCH   2   3
ATOM      3  C   UNL     1      32.772 169.272 158.847  1.00  0.00     0.053 C 
BRANCH   3   4
ATOM      4  C   UNL     1      32.465 169.155 160.307  1.00  0.00     0.041 C 
ATOM      5  O   UNL     1      31.381 169.603 160.765  1.00  0.00    -0.550 OA
ATOM      6  O   UNL     1      33.398 168.596 161.171  1.00  0.00    -0.550 OA
ENDBRANCH   3   4
ENDBRANCH   2   3
ENDBRANCH   1   2
BRANCH   1   7
ATOM      7  C   UNL     1      35.064 169.588 157.289  1.00  0.00     0.000 C 
BRANCH   7   8
ATOM      8  C   UNL     1      34.919 170.114 155.851  1.00  0.00     0.004 C 
BRANCH   8   9
ATOM      9  C   UNL     1      33.546 170.755 155.607  1.00  0.00     0.027 C 
BRANCH   9  10
ATOM     10  C   UNL     1      33.035 170.455 154.223  1.00  0.00    -0.035 C 
ATOM     11  C   UNL     1      32.315 169.362 153.957  1.00  0.00     0.004 C 
ENDBRANCH   9  10
ENDBRANCH   8   9
ENDBRANCH   7   8
ENDBRANCH   1   7
TORSDOF 7
ENDMDL
MODEL 4
REMARK VINA RESULT:    -3.576      0.786      1.534
REMARK INTER + INTRA:          -5.424
REMARK INTER:                  -5.034
REMARK INTRA:                  -0.390
REMARK UNBOUND:                -0.384
REMARK SMILES C=CCCCCCCC(=O)[O-]
REMARK SMILES IDX 6 1 7 2 8 3 9 4 10 5 11 6 5 7 4 8 3 9 2 10 1 11
REMARK H PARENT
REMARK Flexibility Score: inf
ROOT
ATOM      1  C   UNL     1      30.437 170.788 155.366  1.00  0.00     0.000 C 
ENDROOT
BRANCH   1   2
ATOM      2  C   UNL     1      30.224 171.590 154.070  1.00  0.00     0.006 C 
BRANCH   2   3
ATOM      3  C   UNL     1      31.151 172.807 153.959  1.00  0.00     0.053 C 
BRANCH   3   4
ATOM      4  C   UNL     1      30.355 174.074 153.979  1.00  0.00     0.041 C 
ATOM      5  O   UNL     1      30.939 175.189 154.001  1.00  0.00    -0.550 OA
ATOM      6  O   UNL     1      28.968 174.023 154.023  1.00  0.00    -0.550 OA
ENDBRANCH   3   4
ENDBRANCH   2   3
ENDBRANCH   1   2
BRANCH   1   7
ATOM      7  C   UNL     1      31.131 169.426 155.182  1.00  0.00     0.000 C 
BRANCH   7   8
ATOM      8  C   UNL     1      32.443 169.309 155.976  1.00  0.00     0.004 C 
BRANCH   8   9
ATOM      9  C   UNL     1      33.602 170.042 155.285  1.00  0.00     0.027 C 
BRANCH   9  10
ATOM     10  C   UNL     1      34.799 170.161 156.190  1.00  0.00    -0.035 C 
ATOM     11  C   UNL     1      35.141 169.189 157.040  1.00  0.00     0.004 C 
ENDBRANCH   9  10
ENDBRANCH   8   9
ENDBRANCH   7   8
ENDBRANCH   1   7
TORSDOF 7
ENDMDL
MODEL 5
REMARK VINA RESULT:    -3.566      0.976      1.606
REMARK INTER + INTRA:          -5.409
REMARK INTER:                  -5.090
REMARK INTRA:                  -0.319
REMARK UNBOUND:                -0.384
REMARK SMILES C=CCCCCCCC(=O)[O-]
REMARK SMILES IDX 6 1 7 2 8 3 9 4 10 5 11 6 5 7 4 8 3 9 2 10 1 11
REMARK H PARENT
REMARK Flexibility Score: inf
ROOT
ATOM      1  C   UNL     1      32.276 170.732 155.093  1.00  0.00     0.000 C 
ENDROOT
BRANCH   1   2
ATOM      2  C   UNL     1      31.720 171.759 154.091  1.00  0.00     0.006 C 
BRANCH   2   3
ATOM      3  C   UNL     1      30.295 172.213 154.427  1.00  0.00     0.053 C 
BRANCH   3   4
ATOM      4  C   UNL     1      30.137 173.679 154.166  1.00  0.00     0.041 C 
ATOM      5  O   UNL     1      31.130 174.448 154.251  1.00  0.00    -0.550 OA
ATOM      6  O   UNL     1      28.883 174.202 153.878  1.00  0.00    -0.550 OA
ENDBRANCH   3   4
ENDBRANCH   2   3
ENDBRANCH   1   2
BRANCH   1   7
ATOM      7  C   UNL     1      33.796 170.496 155.008  1.00  0.00     0.000 C 
BRANCH   7   8
ATOM      8  C   UNL     1      34.479 170.493 156.386  1.00  0.00     0.004 C 
BRANCH   8   9
ATOM      9  C   UNL     1      35.085 169.125 156.726  1.00  0.00     0.027 C 
BRANCH   9  10
ATOM     10  C   UNL     1      34.330 168.447 157.838  1.00  0.00    -0.035 C 
ATOM     11  C   UNL     1      33.222 168.976 158.364  1.00  0.00     0.004 C 
ENDBRANCH   9  10
ENDBRANCH   8   9
ENDBRANCH   7   8
ENDBRANCH   1   7
TORSDOF 7
ENDMDL
MODEL 6
REMARK VINA RESULT:    -3.354      2.785      4.208
REMARK INTER + INTRA:          -5.111
REMARK INTER:                  -4.425
REMARK INTRA:                  -0.685
REMARK UNBOUND:                -0.384
REMARK SMILES C=CCCCCCCC(=O)[O-]
REMARK SMILES IDX 6 1 7 2 8 3 9 4 10 5 11 6 5 7 4 8 3 9 2 10 1 11
REMARK H PARENT
REMARK Flexibility Score: inf
ROOT
ATOM      1  C   UNL     1      35.205 169.298 157.241  1.00  0.00     0.000 C 
ENDROOT
BRANCH   1   2
ATOM      2  C   UNL     1      34.836 170.106 155.984  1.00  0.00     0.006 C 
BRANCH   2   3
ATOM      3  C   UNL     1      33.447 170.751 156.073  1.00  0.00     0.053 C 
BRANCH   3   4
ATOM      4  C   UNL     1      32.763 170.705 154.742  1.00  0.00     0.041 C 
ATOM      5  O   UNL     1      33.085 169.832 153.894  1.00  0.00    -0.550 OA
ATOM      6  O   UNL     1      31.806 171.658 154.420  1.00  0.00    -0.550 OA
ENDBRANCH   3   4
ENDBRANCH   2   3
ENDBRANCH   1   2
BRANCH   1   7
ATOM      7  C   UNL     1      34.461 167.959 157.395  1.00  0.00     0.000 C 
BRANCH   7   8
ATOM      8  C   UNL     1      33.489 167.947 158.587  1.00  0.00     0.004 C 
BRANCH   8   9
ATOM      9  C   UNL     1      32.023 167.993 158.134  1.00  0.00     0.027 C 
BRANCH   9  10
ATOM     10  C   UNL     1      31.309 169.194 158.694  1.00  0.00    -0.035 C 
ATOM     11  C   UNL     1      31.911 170.050 159.524  1.00  0.00     0.004 C 
ENDBRANCH   9  10
ENDBRANCH   8   9
ENDBRANCH   7   8
ENDBRANCH   1   7
TORSDOF 7
ENDMDL
MODEL 7
REMARK VINA RESULT:    -3.341      4.380      5.169
REMARK INTER + INTRA:          -5.092
REMARK INTER:                  -4.389
REMARK INTRA:                  -0.702
REMARK UNBOUND:                -0.384
REMARK SMILES C=CCCCCCCC(=O)[O-]
REMARK SMILES IDX 6 1 7 2 8 3 9 4 10 5 11 6 5 7 4 8 3 9 2 10 1 11
REMARK H PARENT
REMARK Flexibility Score: inf
ROOT
ATOM      1  C   UNL     1      31.206 169.635 156.656  1.00  0.00     0.000 C 
ENDROOT
BRANCH   1   2
ATOM      2  C   UNL     1      31.430 168.976 158.030  1.00  0.00     0.006 C 
BRANCH   2   3
ATOM      3  C   UNL     1      31.979 169.950 159.079  1.00  0.00     0.053 C 
BRANCH   3   4
ATOM      4  C   UNL     1      32.360 169.216 160.326  1.00  0.00     0.041 C 
ATOM      5  O   UNL     1      33.276 168.352 160.298  1.00  0.00    -0.550 OA
ATOM      6  O   UNL     1      31.669 169.448 161.508  1.00  0.00    -0.550 OA
ENDBRANCH   3   4
ENDBRANCH   2   3
ENDBRANCH   1   2
BRANCH   1   7
ATOM      7  C   UNL     1      31.900 168.931 155.476  1.00  0.00     0.000 C 
BRANCH   7   8
ATOM      8  C   UNL     1      32.978 169.803 154.808  1.00  0.00     0.004 C 
BRANCH   8   9
ATOM      9  C   UNL     1      33.758 170.639 155.832  1.00  0.00     0.027 C 
BRANCH   9  10
ATOM     10  C   UNL     1      35.057 169.980 156.209  1.00  0.00    -0.035 C 
ATOM     11  C   UNL     1      35.142 169.108 157.218  1.00  0.00     0.004 C 
ENDBRANCH   9  10
ENDBRANCH   8   9
ENDBRANCH   7   8
ENDBRANCH   1   7
TORSDOF 7
ENDMDL
MODEL 8
REMARK VINA RESULT:    -3.249      3.611      5.773
REMARK INTER + INTRA:          -4.963
REMARK INTER:                  -4.604
REMARK INTRA:                  -0.358
REMARK UNBOUND:                -0.384
REMARK SMILES C=CCCCCCCC(=O)[O-]
REMARK SMILES IDX 6 1 7 2 8 3 9 4 10 5 11 6 5 7 4 8 3 9 2 10 1 11
REMARK H PARENT
REMARK Flexibility Score: inf
ROOT
ATOM      1  C   UNL     1      33.212 170.351 154.228  1.00  0.00     0.000 C 
ENDROOT
BRANCH   1   2
ATOM      2  C   UNL     1      34.134 170.497 155.452  1.00  0.00     0.006 C 
BRANCH   2   3
ATOM      3  C   UNL     1      33.419 170.215 156.778  1.00  0.00     0.053 C 
BRANCH   3   4
ATOM      4  C   UNL     1      34.200 169.234 157.595  1.00  0.00     0.041 C 
ATOM      5  O   UNL     1      35.368 168.913 157.254  1.00  0.00    -0.550 OA
ATOM      6  O   UNL     1      33.619 168.635 158.706  1.00  0.00    -0.550 OA
ENDBRANCH   3   4
ENDBRANCH   2   3
ENDBRANCH   1   2
BRANCH   1   7
ATOM      7  C   UNL     1      31.743 170.745 154.469  1.00  0.00     0.000 C 
BRANCH   7   8
ATOM      8  C   UNL     1      31.487 172.249 154.273  1.00  0.00     0.004 C 
BRANCH   8   9
ATOM      9  C   UNL     1      29.993 172.594 154.352  1.00  0.00     0.027 C 
BRANCH   9  10
ATOM     10  C   UNL     1      29.146 171.356 154.474  1.00  0.00    -0.035 C 
ATOM     11  C   UNL     1      28.217 171.227 155.425  1.00  0.00     0.004 C 
ENDBRANCH   9  10
ENDBRANCH   8   9
ENDBRANCH   7   8
ENDBRANCH   1   7
TORSDOF 7
ENDMDL
