MODEL 1
REMARK VINA RESULT:    -4.873      0.000      0.000
REMARK INTER + INTRA:          -7.041
REMARK INTER:                  -6.582
REMARK INTRA:                  -0.459
REMARK UNBOUND:                -0.459
REMARK SMILES O=C[C@@H](O)[C@H](O)[C@H](O)CO
REMARK SMILES IDX 7 1 9 2 10 3 5 5 3 6 2 7 1 8 4 9 6 11 8 13
REMARK H PARENT 10 4 4 10 6 12 8 14
REMARK Flexibility Score: inf
ROOT
ATOM      1  C   UNL     1     -11.381 -18.314 -14.610  1.00  0.00     0.171 C 
ENDROOT
BRANCH   1   2
ATOM      2  C   UNL     1     -10.020 -17.657 -14.887  1.00  0.00     0.190 C 
BRANCH   2   3
ATOM      3  O   UNL     1      -9.504 -17.130 -13.697  1.00  0.00    -0.394 OA
ATOM      4  H   UNL     1      -9.698 -17.801 -12.990  1.00  0.00     0.210 HD
ENDBRANCH   2   3
ENDBRANCH   1   2
BRANCH   1   5
ATOM      5  C   UNL     1     -12.434 -18.070 -15.729  1.00  0.00     0.181 C 
BRANCH   5   6
ATOM      6  C   UNL     1     -13.795 -18.790 -15.506  1.00  0.00     0.209 C 
BRANCH   6   7
ATOM      7  C   UNL     1     -14.143 -19.720 -16.640  1.00  0.00     0.258 C 
ATOM      8  O   UNL     1     -13.604 -20.812 -16.740  1.00  0.00    -0.300 OA
ENDBRANCH   6   7
BRANCH   6   9
ATOM      9  O   UNL     1     -13.789 -19.497 -14.290  1.00  0.00    -0.383 OA
ATOM     10  H   UNL     1     -13.169 -20.267 -14.388  1.00  0.00     0.211 HD
ENDBRANCH   6   9
ENDBRANCH   5   6
BRANCH   5  11
ATOM     11  O   UNL     1     -11.900 -18.380 -16.994  1.00  0.00    -0.387 OA
ATOM     12  H   UNL     1     -12.080 -17.616 -17.599  1.00  0.00     0.211 HD
ENDBRANCH   5  11
ENDBRANCH   1   5
BRANCH   1  13
ATOM     13  O   UNL     1     -11.876 -17.822 -13.390  1.00  0.00    -0.388 OA
ATOM     14  H   UNL     1     -12.463 -18.527 -13.012  1.00  0.00     0.211 HD
ENDBRANCH   1  13
TORSDOF 8
ENDMDL
MODEL 2
REMARK VINA RESULT:    -4.851      0.986      4.055
REMARK INTER + INTRA:          -7.012
REMARK INTER:                  -6.561
REMARK INTRA:                  -0.450
REMARK UNBOUND:                -0.459
REMARK SMILES O=C[C@@H](O)[C@H](O)[C@H](O)CO
REMARK SMILES IDX 7 1 9 2 10 3 5 5 3 6 2 7 1 8 4 9 6 11 8 13
REMARK H PARENT 10 4 4 10 6 12 8 14
REMARK Flexibility Score: inf
ROOT
ATOM      1  C   UNL     1     -13.775 -19.069 -15.456  1.00  0.00     0.171 C 
ENDROOT
BRANCH   1   2
ATOM      2  C   UNL     1     -14.357 -20.228 -16.280  1.00  0.00     0.190 C 
BRANCH   2   3
ATOM      3  O   UNL     1     -14.858 -19.735 -17.491  1.00  0.00    -0.394 OA
ATOM      4  H   UNL     1     -14.433 -18.848 -17.626  1.00  0.00     0.210 HD
ENDBRANCH   2   3
ENDBRANCH   1   2
BRANCH   1   5
ATOM      5  C   UNL     1     -12.264 -18.809 -15.720  1.00  0.00     0.181 C 
BRANCH   5   6
ATOM      6  C   UNL     1     -11.613 -17.761 -14.773  1.00  0.00     0.209 C 
BRANCH   6   7
ATOM      7  C   UNL     1     -10.266 -17.301 -15.269  1.00  0.00     0.258 C 
ATOM      8  O   UNL     1      -9.241 -17.634 -14.694  1.00  0.00    -0.300 OA
ENDBRANCH   6   7
BRANCH   6   9
ATOM      9  O   UNL     1     -12.463 -16.655 -14.596  1.00  0.00    -0.383 OA
ATOM     10  H   UNL     1     -12.017 -15.861 -14.995  1.00  0.00     0.211 HD
ENDBRANCH   6   9
ENDBRANCH   5   6
BRANCH   5  11
ATOM     11  O   UNL     1     -12.043 -18.476 -17.070  1.00  0.00    -0.387 OA
ATOM     12  H   UNL     1     -12.899 -18.149 -17.449  1.00  0.00     0.211 HD
ENDBRANCH   5  11
ENDBRANCH   1   5
BRANCH   1  13
ATOM     13  O   UNL     1     -13.967 -19.348 -14.092  1.00  0.00    -0.388 OA
ATOM     14  H   UNL     1     -14.530 -18.618 -13.724  1.00  0.00     0.211 HD
ENDBRANCH   1  13
TORSDOF 8
ENDMDL
MODEL 3
REMARK VINA RESULT:    -4.839      1.067      4.071
REMARK INTER + INTRA:          -6.995
REMARK INTER:                  -6.539
REMARK INTRA:                  -0.456
REMARK UNBOUND:                -0.459
REMARK SMILES O=C[C@@H](O)[C@H](O)[C@H](O)CO
REMARK SMILES IDX 7 1 9 2 10 3 5 5 3 6 2 7 1 8 4 9 6 11 8 13
REMARK H PARENT 10 4 4 10 6 12 8 14
REMARK Flexibility Score: inf
ROOT
ATOM      1  C   UNL     1     -12.564 -19.283 -16.458  1.00  0.00     0.171 C 
ENDROOT
BRANCH   1   2
ATOM      2  C   UNL     1     -14.031 -19.146 -16.021  1.00  0.00     0.190 C 
BRANCH   2   3
ATOM      3  O   UNL     1     -14.107 -19.184 -14.623  1.00  0.00    -0.394 OA
ATOM      4  H   UNL     1     -14.878 -19.771 -14.404  1.00  0.00     0.210 HD
ENDBRANCH   2   3
ENDBRANCH   1   2
BRANCH   1   5
ATOM      5  C   UNL     1     -11.669 -18.083 -16.034  1.00  0.00     0.181 C 
BRANCH   5   6
ATOM      6  C   UNL     1     -10.865 -18.308 -14.721  1.00  0.00     0.209 C 
BRANCH   6   7
ATOM      7  C   UNL     1      -9.542 -17.586 -14.729  1.00  0.00     0.258 C 
ATOM      8  O   UNL     1      -8.630 -17.944 -14.000  1.00  0.00    -0.300 OA
ENDBRANCH   6   7
BRANCH   6   9
ATOM      9  O   UNL     1     -11.620 -17.914 -13.602  1.00  0.00    -0.383 OA
ATOM     10  H   UNL     1     -10.986 -17.633 -12.891  1.00  0.00     0.211 HD
ENDBRANCH   6   9
ENDBRANCH   5   6
BRANCH   5  11
ATOM     11  O   UNL     1     -12.423 -16.897 -15.967  1.00  0.00    -0.387 OA
ATOM     12  H   UNL     1     -12.904 -16.887 -15.099  1.00  0.00     0.211 HD
ENDBRANCH   5  11
ENDBRANCH   1   5
BRANCH   1  13
ATOM     13  O   UNL     1     -12.524 -19.422 -17.856  1.00  0.00    -0.388 OA
ATOM     14  H   UNL     1     -11.942 -18.695 -18.201  1.00  0.00     0.211 HD
ENDBRANCH   1  13
TORSDOF 8
ENDMDL
MODEL 4
REMARK VINA RESULT:    -4.752      1.226      4.242
REMARK INTER + INTRA:          -6.878
REMARK INTER:                  -6.377
REMARK INTRA:                  -0.500
REMARK UNBOUND:                -0.459
REMARK SMILES O=C[C@@H](O)[C@H](O)[C@H](O)CO
REMARK SMILES IDX 7 1 9 2 10 3 5 5 3 6 2 7 1 8 4 9 6 11 8 13
REMARK H PARENT 10 4 4 10 6 12 8 14
REMARK Flexibility Score: inf
ROOT
ATOM      1  C   UNL     1     -12.844 -19.630 -16.142  1.00  0.00     0.171 C 
ENDROOT
BRANCH   1   2
ATOM      2  C   UNL     1     -13.896 -20.713 -16.426  1.00  0.00     0.190 C 
BRANCH   2   3
ATOM      3  O   UNL     1     -15.172 -20.212 -16.141  1.00  0.00    -0.394 OA
ATOM      4  H   UNL     1     -15.186 -20.029 -15.165  1.00  0.00     0.210 HD
ENDBRANCH   2   3
ENDBRANCH   1   2
BRANCH   1   5
ATOM      5  C   UNL     1     -13.336 -18.517 -15.173  1.00  0.00     0.181 C 
BRANCH   5   6
ATOM      6  C   UNL     1     -12.294 -17.398 -14.890  1.00  0.00     0.209 C 
BRANCH   6   7
ATOM      7  C   UNL     1     -10.967 -17.952 -14.438  1.00  0.00     0.258 C 
ATOM      8  O   UNL     1      -9.937 -17.315 -14.598  1.00  0.00    -0.300 OA
ENDBRANCH   6   7
BRANCH   6   9
ATOM      9  O   UNL     1     -12.114 -16.588 -16.026  1.00  0.00    -0.383 OA
ATOM     10  H   UNL     1     -12.593 -15.732 -15.869  1.00  0.00     0.211 HD
ENDBRANCH   6   9
ENDBRANCH   5   6
BRANCH   5  11
ATOM     11  O   UNL     1     -13.815 -19.076 -13.973  1.00  0.00    -0.387 OA
ATOM     12  H   UNL     1     -14.066 -20.019 -14.152  1.00  0.00     0.211 HD
ENDBRANCH   5  11
ENDBRANCH   1   5
BRANCH   1  13
ATOM     13  O   UNL     1     -12.459 -19.048 -17.362  1.00  0.00    -0.388 OA
ATOM     14  H   UNL     1     -12.385 -18.070 -17.204  1.00  0.00     0.211 HD
ENDBRANCH   1  13
TORSDOF 8
ENDMDL
MODEL 5
REMARK VINA RESULT:    -4.652      1.349      2.237
REMARK INTER + INTRA:          -6.743
REMARK INTER:                  -6.262
REMARK INTRA:                  -0.481
REMARK UNBOUND:                -0.459
REMARK SMILES O=C[C@@H](O)[C@H](O)[C@H](O)CO
REMARK SMILES IDX 7 1 9 2 10 3 5 5 3 6 2 7 1 8 4 9 6 11 8 13
REMARK H PARENT 10 4 4 10 6 12 8 14
REMARK Flexibility Score: inf
ROOT
ATOM      1  C   UNL     1     -10.251 -17.290 -14.470  1.00  0.00     0.171 C 
ENDROOT
BRANCH   1   2
ATOM      2  C   UNL     1      -9.336 -18.389 -13.910  1.00  0.00     0.190 C 
BRANCH   2   3
ATOM      3  O   UNL     1      -8.114 -17.826 -13.519  1.00  0.00    -0.394 OA
ATOM      4  H   UNL     1      -7.474 -18.016 -14.254  1.00  0.00     0.210 HD
ENDBRANCH   2   3
ENDBRANCH   1   2
BRANCH   1   5
ATOM      5  C   UNL     1     -11.715 -17.758 -14.716  1.00  0.00     0.181 C 
BRANCH   5   6
ATOM      6  C   UNL     1     -11.871 -18.836 -15.826  1.00  0.00     0.209 C 
BRANCH   6   7
ATOM      7  C   UNL     1     -13.097 -19.690 -15.625  1.00  0.00     0.258 C 
ATOM      8  O   UNL     1     -14.213 -19.193 -15.630  1.00  0.00    -0.300 OA
ENDBRANCH   6   7
BRANCH   6   9
ATOM      9  O   UNL     1     -11.906 -18.238 -17.098  1.00  0.00    -0.383 OA
ATOM     10  H   UNL     1     -12.545 -18.752 -17.659  1.00  0.00     0.211 HD
ENDBRANCH   6   9
ENDBRANCH   5   6
BRANCH   5  11
ATOM     11  O   UNL     1     -12.557 -16.656 -14.960  1.00  0.00    -0.387 OA
ATOM     12  H   UNL     1     -12.956 -16.378 -14.095  1.00  0.00     0.211 HD
ENDBRANCH   5  11
ENDBRANCH   1   5
BRANCH   1  13
ATOM     13  O   UNL     1      -9.704 -16.821 -15.676  1.00  0.00    -0.388 OA
ATOM     14  H   UNL     1     -10.447 -16.776 -16.333  1.00  0.00     0.211 HD
ENDBRANCH   1  13
TORSDOF 8
ENDMDL
MODEL 6
REMARK VINA RESULT:    -4.567     12.516     13.752
REMARK INTER + INTRA:          -6.628
REMARK INTER:                  -6.314
REMARK INTRA:                  -0.314
REMARK UNBOUND:                -0.459
REMARK SMILES O=C[C@@H](O)[C@H](O)[C@H](O)CO
REMARK SMILES IDX 7 1 9 2 10 3 5 5 3 6 2 7 1 8 4 9 6 11 8 13
REMARK H PARENT 10 4 4 10 6 12 8 14
REMARK Flexibility Score: inf
ROOT
ATOM      1  C   UNL     1      -2.448 -12.302 -21.221  1.00  0.00     0.171 C 
ENDROOT
BRANCH   1   2
ATOM      2  C   UNL     1      -1.324 -12.529 -22.242  1.00  0.00     0.190 C 
BRANCH   2   3
ATOM      3  O   UNL     1      -0.162 -12.937 -21.575  1.00  0.00    -0.394 OA
ATOM      4  H   UNL     1       0.464 -12.167 -21.612  1.00  0.00     0.210 HD
ENDBRANCH   2   3
ENDBRANCH   1   2
BRANCH   1   5
ATOM      5  C   UNL     1      -2.716 -10.802 -20.907  1.00  0.00     0.181 C 
BRANCH   5   6
ATOM      6  C   UNL     1      -4.216 -10.441 -20.703  1.00  0.00     0.209 C 
BRANCH   6   7
ATOM      7  C   UNL     1      -4.534  -9.040 -21.158  1.00  0.00     0.258 C 
ATOM      8  O   UNL     1      -3.840  -8.097 -20.810  1.00  0.00    -0.300 OA
ENDBRANCH   6   7
BRANCH   6   9
ATOM      9  O   UNL     1      -5.043 -11.362 -21.370  1.00  0.00    -0.383 OA
ATOM     10  H   UNL     1      -5.256 -12.096 -20.736  1.00  0.00     0.211 HD
ENDBRANCH   6   9
ENDBRANCH   5   6
BRANCH   5  11
ATOM     11  O   UNL     1      -2.126  -9.975 -21.881  1.00  0.00    -0.387 OA
ATOM     12  H   UNL     1      -2.852  -9.578 -22.428  1.00  0.00     0.211 HD
ENDBRANCH   5  11
ENDBRANCH   1   5
BRANCH   1  13
ATOM     13  O   UNL     1      -2.116 -12.973 -20.031  1.00  0.00    -0.388 OA
ATOM     14  H   UNL     1      -1.317 -12.519 -19.657  1.00  0.00     0.211 HD
ENDBRANCH   1  13
TORSDOF 8
ENDMDL
MODEL 7
REMARK VINA RESULT:    -4.531      1.354      1.869
REMARK INTER + INTRA:          -6.579
REMARK INTER:                  -6.097
REMARK INTRA:                  -0.482
REMARK UNBOUND:                -0.459
REMARK SMILES O=C[C@@H](O)[C@H](O)[C@H](O)CO
REMARK SMILES IDX 7 1 9 2 10 3 5 5 3 6 2 7 1 8 4 9 6 11 8 13
REMARK H PARENT 10 4 4 10 6 12 8 14
REMARK Flexibility Score: inf
ROOT
ATOM      1  C   UNL     1     -12.010 -17.551 -14.698  1.00  0.00     0.171 C 
ENDROOT
BRANCH   1   2
ATOM      2  C   UNL     1     -10.479 -17.638 -14.795  1.00  0.00     0.190 C 
BRANCH   2   3
ATOM      3  O   UNL     1      -9.905 -17.001 -13.688  1.00  0.00    -0.394 OA
ATOM      4  H   UNL     1     -10.259 -17.466 -12.885  1.00  0.00     0.210 HD
ENDBRANCH   2   3
ENDBRANCH   1   2
BRANCH   1   5
ATOM      5  C   UNL     1     -12.720 -18.936 -14.722  1.00  0.00     0.181 C 
BRANCH   5   6
ATOM      6  C   UNL     1     -13.342 -19.321 -16.094  1.00  0.00     0.209 C 
BRANCH   6   7
ATOM      7  C   UNL     1     -13.377 -20.813 -16.308  1.00  0.00     0.258 C 
ATOM      8  O   UNL     1     -13.588 -21.573 -15.376  1.00  0.00    -0.300 OA
ENDBRANCH   6   7
BRANCH   6   9
ATOM      9  O   UNL     1     -14.637 -18.788 -16.220  1.00  0.00    -0.383 OA
ATOM     10  H   UNL     1     -14.776 -18.546 -17.173  1.00  0.00     0.211 HD
ENDBRANCH   6   9
ENDBRANCH   5   6
BRANCH   5  11
ATOM     11  O   UNL     1     -13.674 -19.025 -13.692  1.00  0.00    -0.387 OA
ATOM     12  H   UNL     1     -13.223 -18.811 -12.835  1.00  0.00     0.211 HD
ENDBRANCH   5  11
ENDBRANCH   1   5
BRANCH   1  13
ATOM     13  O   UNL     1     -12.483 -16.768 -15.766  1.00  0.00    -0.388 OA
ATOM     14  H   UNL     1     -12.272 -15.823 -15.547  1.00  0.00     0.211 HD
ENDBRANCH   1  13
TORSDOF 8
ENDMDL
MODEL 8
REMARK VINA RESULT:    -4.462     12.572     13.899
REMARK INTER + INTRA:          -6.486
REMARK INTER:                  -6.396
REMARK INTRA:                  -0.091
REMARK UNBOUND:                -0.459
REMARK SMILES O=C[C@@H](O)[C@H](O)[C@H](O)CO
REMARK SMILES IDX 7 1 9 2 10 3 5 5 3 6 2 7 1 8 4 9 6 11 8 13
REMARK H PARENT 10 4 4 10 6 12 8 14
REMARK Flexibility Score: inf
ROOT
ATOM      1  C   UNL     1      -3.741  -9.759 -21.553  1.00  0.00     0.171 C 
ENDROOT
BRANCH   1   2
ATOM      2  C   UNL     1      -4.548  -8.942 -20.533  1.00  0.00     0.190 C 
BRANCH   2   3
ATOM      3  O   UNL     1      -3.670  -8.256 -19.684  1.00  0.00    -0.394 OA
ATOM      4  H   UNL     1      -3.742  -8.697 -18.797  1.00  0.00     0.210 HD
ENDBRANCH   2   3
ENDBRANCH   1   2
BRANCH   1   5
ATOM      5  C   UNL     1      -3.414 -11.205 -21.079  1.00  0.00     0.181 C 
BRANCH   5   6
ATOM      6  C   UNL     1      -2.124 -11.812 -21.700  1.00  0.00     0.209 C 
BRANCH   6   7
ATOM      7  C   UNL     1      -1.333 -12.619 -20.702  1.00  0.00     0.258 C 
ATOM      8  O   UNL     1      -0.220 -13.039 -20.980  1.00  0.00    -0.300 OA
ENDBRANCH   6   7
BRANCH   6   9
ATOM      9  O   UNL     1      -2.437 -12.607 -22.818  1.00  0.00    -0.383 OA
ATOM     10  H   UNL     1      -1.604 -13.064 -23.110  1.00  0.00     0.211 HD
ENDBRANCH   6   9
ENDBRANCH   5   6
BRANCH   5  11
ATOM     11  O   UNL     1      -4.517 -12.056 -21.274  1.00  0.00    -0.387 OA
ATOM     12  H   UNL     1      -4.177 -12.932 -21.591  1.00  0.00     0.211 HD
ENDBRANCH   5  11
ENDBRANCH   1   5
BRANCH   1  13
ATOM     13  O   UNL     1      -2.543  -9.077 -21.827  1.00  0.00    -0.388 OA
ATOM     14  H   UNL     1      -2.471  -8.342 -21.163  1.00  0.00     0.211 HD
ENDBRANCH   1  13
TORSDOF 8
ENDMDL
MODEL 9
REMARK VINA RESULT:    -4.148      1.920      4.446
REMARK INTER + INTRA:          -6.062
REMARK INTER:                  -5.355
REMARK INTRA:                  -0.707
REMARK UNBOUND:                -0.459
REMARK SMILES O=C[C@@H](O)[C@H](O)[C@H](O)CO
REMARK SMILES IDX 7 1 9 2 10 3 5 5 3 6 2 7 1 8 4 9 6 11 8 13
REMARK H PARENT 10 4 4 10 6 12 8 14
REMARK Flexibility Score: inf
ROOT
ATOM      1  C   UNL     1     -14.678 -21.024 -15.575  1.00  0.00     0.171 C 
ENDROOT
BRANCH   1   2
ATOM      2  C   UNL     1     -15.322 -21.850 -16.699  1.00  0.00     0.190 C 
BRANCH   2   3
ATOM      3  O   UNL     1     -16.164 -21.028 -17.460  1.00  0.00    -0.394 OA
ATOM      4  H   UNL     1     -15.742 -20.955 -18.356  1.00  0.00     0.210 HD
ENDBRANCH   2   3
ENDBRANCH   1   2
BRANCH   1   5
ATOM      5  C   UNL     1     -13.368 -20.301 -16.001  1.00  0.00     0.181 C 
BRANCH   5   6
ATOM      6  C   UNL     1     -12.909 -19.172 -15.035  1.00  0.00     0.209 C 
BRANCH   6   7
ATOM      7  C   UNL     1     -12.894 -17.820 -15.702  1.00  0.00     0.258 C 
ATOM      8  O   UNL     1     -11.977 -17.497 -16.442  1.00  0.00    -0.300 OA
ENDBRANCH   6   7
BRANCH   6   9
ATOM      9  O   UNL     1     -13.726 -19.133 -13.891  1.00  0.00    -0.383 OA
ATOM     10  H   UNL     1     -14.596 -19.553 -14.124  1.00  0.00     0.211 HD
ENDBRANCH   6   9
ENDBRANCH   5   6
BRANCH   5  11
ATOM     11  O   UNL     1     -13.466 -19.827 -17.322  1.00  0.00    -0.387 OA
ATOM     12  H   UNL     1     -12.553 -19.592 -17.633  1.00  0.00     0.211 HD
ENDBRANCH   5  11
ENDBRANCH   1   5
BRANCH   1  13
ATOM     13  O   UNL     1     -14.408 -21.876 -14.490  1.00  0.00    -0.388 OA
ATOM     14  H   UNL     1     -13.423 -21.881 -14.366  1.00  0.00     0.211 HD
ENDBRANCH   1  13
TORSDOF 8
ENDMDL
