MODEL 1
REMARK VINA RESULT:    -4.562      0.000      0.000
REMARK INTER + INTRA:          -4.851
REMARK INTER:                  -4.829
REMARK INTRA:                  -0.022
REMARK UNBOUND:                -0.022
REMARK SMILES O=C([O-])c1cccnc1
REMARK SMILES IDX 4 1 5 2 9 3 6 4 8 5 7 6 2 7 1 8 3 9
REMARK H PARENT
REMARK Flexibility Score: inf
ROOT
ATOM      1  C   UNL     1      21.621   6.595   6.574  1.00  0.00     0.016 A 
ATOM      2  C   UNL     1      21.803   5.256   6.961  1.00  0.00     0.013 A 
ATOM      3  C   UNL     1      22.405   7.099   5.523  1.00  0.00     0.120 A 
ATOM      4  C   UNL     1      22.743   4.460   6.304  1.00  0.00     0.021 A 
ATOM      5  N   UNL     1      23.314   6.301   4.900  1.00  0.00    -0.264 NA
ATOM      6  C   UNL     1      23.497   5.005   5.265  1.00  0.00     0.111 A 
ENDROOT
BRANCH   1   7
ATOM      7  C   UNL     1      20.631   7.456   7.256  1.00  0.00     0.073 C 
ATOM      8  O   UNL     1      20.333   7.257   8.464  1.00  0.00    -0.545 OA
ATOM      9  O   UNL     1      20.015   8.498   6.572  1.00  0.00    -0.545 OA
ENDBRANCH   1   7
TORSDOF 1
ENDMDL
MODEL 2
REMARK VINA RESULT:    -3.799      2.615      3.671
REMARK INTER + INTRA:          -4.043
REMARK INTER:                  -4.019
REMARK INTRA:                  -0.024
REMARK UNBOUND:                -0.022
REMARK SMILES O=C([O-])c1cccnc1
REMARK SMILES IDX 4 1 5 2 9 3 6 4 8 5 7 6 2 7 1 8 3 9
REMARK H PARENT
REMARK Flexibility Score: inf
ROOT
ATOM      1  C   UNL     1      21.891   5.982   6.501  1.00  0.00     0.016 A 
ATOM      2  C   UNL     1      21.142   6.029   7.689  1.00  0.00     0.013 A 
ATOM      3  C   UNL     1      21.830   7.082   5.629  1.00  0.00     0.120 A 
ATOM      4  C   UNL     1      20.363   7.150   7.982  1.00  0.00     0.021 A 
ATOM      5  N   UNL     1      21.062   8.161   5.938  1.00  0.00    -0.264 NA
ATOM      6  C   UNL     1      20.335   8.218   7.084  1.00  0.00     0.111 A 
ENDROOT
BRANCH   1   7
ATOM      7  C   UNL     1      22.724   4.805   6.172  1.00  0.00     0.073 C 
ATOM      8  O   UNL     1      23.451   4.803   5.143  1.00  0.00    -0.545 OA
ATOM      9  O   UNL     1      22.715   3.684   6.994  1.00  0.00    -0.545 OA
ENDBRANCH   1   7
TORSDOF 1
ENDMDL
MODEL 3
REMARK VINA RESULT:    -3.516     11.893     12.715
REMARK INTER + INTRA:          -3.744
REMARK INTER:                  -3.725
REMARK INTRA:                  -0.019
REMARK UNBOUND:                -0.022
REMARK SMILES O=C([O-])c1cccnc1
REMARK SMILES IDX 4 1 5 2 9 3 6 4 8 5 7 6 2 7 1 8 3 9
REMARK H PARENT
REMARK Flexibility Score: inf
ROOT
ATOM      1  C   UNL     1      21.315   5.543  19.141  1.00  0.00     0.016 A 
ATOM      2  C   UNL     1      21.931   6.510  18.329  1.00  0.00     0.013 A 
ATOM      3  C   UNL     1      20.577   4.521  18.520  1.00  0.00     0.120 A 
ATOM      4  C   UNL     1      21.806   6.441  16.941  1.00  0.00     0.021 A 
ATOM      5  N   UNL     1      20.470   4.478  17.165  1.00  0.00    -0.264 NA
ATOM      6  C   UNL     1      21.064   5.407  16.370  1.00  0.00     0.111 A 
ENDROOT
BRANCH   1   7
ATOM      7  C   UNL     1      21.435   5.596  20.614  1.00  0.00     0.073 C 
ATOM      8  O   UNL     1      21.800   4.580  21.264  1.00  0.00    -0.545 OA
ATOM      9  O   UNL     1      21.147   6.769  21.302  1.00  0.00    -0.545 OA
ENDBRANCH   1   7
TORSDOF 1
ENDMDL
MODEL 4
REMARK VINA RESULT:    -3.443      2.847      4.005
REMARK INTER + INTRA:          -3.667
REMARK INTER:                  -3.644
REMARK INTRA:                  -0.023
REMARK UNBOUND:                -0.022
REMARK SMILES O=C([O-])c1cccnc1
REMARK SMILES IDX 4 1 5 2 9 3 6 4 8 5 7 6 2 7 1 8 3 9
REMARK H PARENT
REMARK Flexibility Score: inf
ROOT
ATOM      1  C   UNL     1      21.781   5.872   6.557  1.00  0.00     0.016 A 
ATOM      2  C   UNL     1      21.473   6.934   5.691  1.00  0.00     0.013 A 
ATOM      3  C   UNL     1      21.291   5.918   7.873  1.00  0.00     0.120 A 
ATOM      4  C   UNL     1      20.694   8.001   6.142  1.00  0.00     0.021 A 
ATOM      5  N   UNL     1      20.535   6.970   8.287  1.00  0.00    -0.264 NA
ATOM      6  C   UNL     1      20.229   8.002   7.458  1.00  0.00     0.111 A 
ENDROOT
BRANCH   1   7
ATOM      7  C   UNL     1      22.604   4.731   6.099  1.00  0.00     0.073 C 
ATOM      8  O   UNL     1      23.374   4.853   5.109  1.00  0.00    -0.545 OA
ATOM      9  O   UNL     1      22.539   3.508   6.756  1.00  0.00    -0.545 OA
ENDBRANCH   1   7
TORSDOF 1
ENDMDL
MODEL 5
REMARK VINA RESULT:    -3.369     11.855     12.613
REMARK INTER + INTRA:          -3.588
REMARK INTER:                  -3.569
REMARK INTRA:                  -0.019
REMARK UNBOUND:                -0.022
REMARK SMILES O=C([O-])c1cccnc1
REMARK SMILES IDX 4 1 5 2 9 3 6 4 8 5 7 6 2 7 1 8 3 9
REMARK H PARENT
REMARK Flexibility Score: inf
ROOT
ATOM      1  C   UNL     1      21.322   5.529  19.122  1.00  0.00     0.016 A 
ATOM      2  C   UNL     1      20.580   4.522  18.483  1.00  0.00     0.013 A 
ATOM      3  C   UNL     1      21.954   6.500  18.326  1.00  0.00     0.120 A 
ATOM      4  C   UNL     1      20.480   4.501  17.091  1.00  0.00     0.021 A 
ATOM      5  N   UNL     1      21.842   6.456  16.972  1.00  0.00    -0.264 NA
ATOM      6  C   UNL     1      21.125   5.487  16.344  1.00  0.00     0.111 A 
ENDROOT
BRANCH   1   7
ATOM      7  C   UNL     1      21.440   5.570  20.596  1.00  0.00     0.073 C 
ATOM      8  O   UNL     1      21.826   4.555  21.235  1.00  0.00    -0.545 OA
ATOM      9  O   UNL     1      21.126   6.729  21.295  1.00  0.00    -0.545 OA
ENDBRANCH   1   7
TORSDOF 1
ENDMDL
MODEL 6
REMARK VINA RESULT:    -3.254      3.102      3.893
REMARK INTER + INTRA:          -3.466
REMARK INTER:                  -3.442
REMARK INTRA:                  -0.024
REMARK UNBOUND:                -0.022
REMARK SMILES O=C([O-])c1cccnc1
REMARK SMILES IDX 4 1 5 2 9 3 6 4 8 5 7 6 2 7 1 8 3 9
REMARK H PARENT
REMARK Flexibility Score: inf
ROOT
ATOM      1  C   UNL     1      23.529   6.669   5.730  1.00  0.00     0.016 A 
ATOM      2  C   UNL     1      22.546   7.654   5.923  1.00  0.00     0.013 A 
ATOM      3  C   UNL     1      23.236   5.348   6.111  1.00  0.00     0.120 A 
ATOM      4  C   UNL     1      21.312   7.312   6.479  1.00  0.00     0.021 A 
ATOM      5  N   UNL     1      22.026   5.043   6.651  1.00  0.00    -0.264 NA
ATOM      6  C   UNL     1      21.068   5.988   6.841  1.00  0.00     0.111 A 
ENDROOT
BRANCH   1   7
ATOM      7  C   UNL     1      24.843   7.009   5.142  1.00  0.00     0.073 C 
ATOM      8  O   UNL     1      25.679   6.105   4.875  1.00  0.00    -0.545 OA
ATOM      9  O   UNL     1      25.174   8.333   4.875  1.00  0.00    -0.545 OA
ENDBRANCH   1   7
TORSDOF 1
ENDMDL
MODEL 7
REMARK VINA RESULT:    -3.063     22.862     23.680
REMARK INTER + INTRA:          -3.264
REMARK INTER:                  -3.248
REMARK INTRA:                  -0.017
REMARK UNBOUND:                -0.022
REMARK SMILES O=C([O-])c1cccnc1
REMARK SMILES IDX 4 1 5 2 9 3 6 4 8 5 7 6 2 7 1 8 3 9
REMARK H PARENT
REMARK Flexibility Score: inf
ROOT
ATOM      1  C   UNL     1      36.209  -2.180  22.568  1.00  0.00     0.016 A 
ATOM      2  C   UNL     1      34.841  -1.994  22.832  1.00  0.00     0.013 A 
ATOM      3  C   UNL     1      37.125  -1.978  23.614  1.00  0.00     0.120 A 
ATOM      4  C   UNL     1      34.419  -1.621  24.109  1.00  0.00     0.021 A 
ATOM      5  N   UNL     1      36.687  -1.613  24.849  1.00  0.00    -0.264 NA
ATOM      6  C   UNL     1      35.367  -1.432  25.116  1.00  0.00     0.111 A 
ENDROOT
BRANCH   1   7
ATOM      7  C   UNL     1      36.677  -2.576  21.222  1.00  0.00     0.073 C 
ATOM      8  O   UNL     1      36.696  -1.741  20.279  1.00  0.00    -0.545 OA
ATOM      9  O   UNL     1      37.104  -3.877  20.980  1.00  0.00    -0.545 OA
ENDBRANCH   1   7
TORSDOF 1
ENDMDL
MODEL 8
REMARK VINA RESULT:    -2.714     12.216     13.006
REMARK INTER + INTRA:          -2.894
REMARK INTER:                  -2.873
REMARK INTRA:                  -0.021
REMARK UNBOUND:                -0.022
REMARK SMILES O=C([O-])c1cccnc1
REMARK SMILES IDX 4 1 5 2 9 3 6 4 8 5 7 6 2 7 1 8 3 9
REMARK H PARENT
REMARK Flexibility Score: inf
ROOT
ATOM      1  C   UNL     1      19.764   4.419  19.056  1.00  0.00     0.016 A 
ATOM      2  C   UNL     1      20.513   5.013  20.085  1.00  0.00     0.013 A 
ATOM      3  C   UNL     1      20.235   4.533  17.736  1.00  0.00     0.120 A 
ATOM      4  C   UNL     1      21.695   5.693  19.789  1.00  0.00     0.021 A 
ATOM      5  N   UNL     1      21.389   5.202  17.475  1.00  0.00    -0.264 NA
ATOM      6  C   UNL     1      22.122   5.779  18.463  1.00  0.00     0.111 A 
ENDROOT
BRANCH   1   7
ATOM      7  C   UNL     1      18.510   3.693  19.348  1.00  0.00     0.073 C 
ATOM      8  O   UNL     1      18.397   3.007  20.399  1.00  0.00    -0.545 OA
ATOM      9  O   UNL     1      17.437   3.758  18.467  1.00  0.00    -0.545 OA
ENDBRANCH   1   7
TORSDOF 1
ENDMDL
MODEL 9
REMARK VINA RESULT:    -2.368     22.547     23.363
REMARK INTER + INTRA:          -2.529
REMARK INTER:                  -2.511
REMARK INTRA:                  -0.018
REMARK UNBOUND:                -0.022
REMARK SMILES O=C([O-])c1cccnc1
REMARK SMILES IDX 4 1 5 2 9 3 6 4 8 5 7 6 2 7 1 8 3 9
REMARK H PARENT
REMARK Flexibility Score: inf
ROOT
ATOM      1  C   UNL     1      35.835  -1.922  22.679  1.00  0.00     0.016 A 
ATOM      2  C   UNL     1      36.519  -1.894  23.906  1.00  0.00     0.013 A 
ATOM      3  C   UNL     1      34.448  -1.694  22.683  1.00  0.00     0.120 A 
ATOM      4  C   UNL     1      35.824  -1.642  25.090  1.00  0.00     0.021 A 
ATOM      5  N   UNL     1      33.795  -1.451  23.851  1.00  0.00    -0.264 NA
ATOM      6  C   UNL     1      34.448  -1.420  25.043  1.00  0.00     0.111 A 
ENDROOT
BRANCH   1   7
ATOM      7  C   UNL     1      36.552  -2.187  21.413  1.00  0.00     0.073 C 
ATOM      8  O   UNL     1      37.118  -3.296  21.218  1.00  0.00    -0.545 OA
ATOM      9  O   UNL     1      36.610  -1.216  20.421  1.00  0.00    -0.545 OA
ENDBRANCH   1   7
TORSDOF 1
ENDMDL
