MODEL 1
REMARK VINA RESULT:    13.866      0.000      0.000
REMARK INTER + INTRA:          20.083
REMARK INTER:                  18.729
REMARK INTRA:                   1.354
REMARK UNBOUND:                 1.354
REMARK SMILES O=c1c(-c2ccc(O)cc2)coc2c([C@@H]3O[C@@H](CO)[C@@H](O)[C@H](O)[C@H]3O)c(O)ccc12
REMARK SMILES IDX 3 1 11 2 12 3 13 4 30 5 2 6 1 7 29 8 28 9 26 10 14 11 4 12
REMARK SMILES IDX 5 13 6 14 7 15 10 16 9 17 8 18 15 20 24 21 16 22 22 23 17 24
REMARK SMILES IDX 20 25 25 26 23 28 18 30 19 31 21 33 27 35
REMARK H PARENT 8 19 25 27 23 29 19 32 21 34 27 36
REMARK Flexibility Score: inf
ROOT
ATOM      1  C   UNL     1      12.094  22.034   2.157  1.00  0.00     0.065 A 
ATOM      2  C   UNL     1      11.984  21.117   1.101  1.00  0.00     0.208 A 
ATOM      3  O   UNL     1      11.953  21.529  -0.160  1.00  0.00    -0.463 OA
ATOM      4  C   UNL     1      12.013  22.810  -0.508  1.00  0.00     0.147 A 
ATOM      5  C   UNL     1      12.228  23.797   0.486  1.00  0.00     0.066 A 
ATOM      6  C   UNL     1      12.245  23.399   1.841  1.00  0.00     0.200 A 
ATOM      7  O   UNL     1      12.362  24.260   2.755  1.00  0.00    -0.288 OA
ATOM      8  C   UNL     1      12.345  25.145   0.111  1.00  0.00     0.020 A 
ATOM      9  C   UNL     1      12.185  25.518  -1.218  1.00  0.00     0.047 A 
ATOM     10  C   UNL     1      11.887  24.559  -2.195  1.00  0.00     0.125 A 
ATOM     11  C   UNL     1      11.822  23.188  -1.857  1.00  0.00     0.069 A 
ENDROOT
BRANCH   1  12
ATOM     12  C   UNL     1      11.930  21.570   3.557  1.00  0.00    -0.011 A 
ATOM     13  C   UNL     1      11.173  20.412   3.812  1.00  0.00     0.013 A 
ATOM     14  C   UNL     1      10.982  19.966   5.124  1.00  0.00     0.047 A 
ATOM     15  C   UNL     1      11.539  20.684   6.195  1.00  0.00     0.115 A 
ATOM     16  C   UNL     1      12.480  22.289   4.635  1.00  0.00     0.013 A 
ATOM     17  C   UNL     1      12.284  21.841   5.949  1.00  0.00     0.047 A 
BRANCH  15  18
ATOM     18  O   UNL     1      11.353  20.256   7.508  1.00  0.00    -0.508 OA
ATOM     19  H   UNL     1      12.128  19.931   8.076  1.00  0.00     0.293 HD
ENDBRANCH  15  18
ENDBRANCH   1  12
BRANCH  11  20
ATOM     20  C   UNL     1      11.397  22.172  -2.927  1.00  0.00     0.188 C 
ATOM     21  C   UNL     1      12.342  22.136  -4.157  1.00  0.00     0.179 C 
ATOM     22  O   UNL     1      11.315  20.869  -2.364  1.00  0.00    -0.362 OA
ATOM     23  C   UNL     1      12.053  20.860  -5.011  1.00  0.00     0.177 C 
ATOM     24  C   UNL     1      10.545  19.974  -3.167  1.00  0.00     0.176 C 
ATOM     25  C   UNL     1      10.665  20.246  -4.703  1.00  0.00     0.177 C 
BRANCH  21  26
ATOM     26  O   UNL     1      12.136  23.262  -4.973  1.00  0.00    -0.387 OA
ATOM     27  H   UNL     1      11.486  23.847  -4.499  1.00  0.00     0.211 HD
ENDBRANCH  21  26
BRANCH  23  28
ATOM     28  O   UNL     1      13.056  19.880  -4.864  1.00  0.00    -0.387 OA
ATOM     29  H   UNL     1      12.769  19.231  -4.164  1.00  0.00     0.211 HD
ENDBRANCH  23  28
BRANCH  24  30
ATOM     30  C   UNL     1       9.120  19.875  -2.571  1.00  0.00     0.191 C 
BRANCH  30  31
ATOM     31  O   UNL     1       9.178  19.980  -1.168  1.00  0.00    -0.394 OA
ATOM     32  H   UNL     1       8.558  20.702  -0.884  1.00  0.00     0.210 HD
ENDBRANCH  30  31
ENDBRANCH  24  30
BRANCH  25  33
ATOM     33  O   UNL     1       9.688  21.159  -5.125  1.00  0.00    -0.388 OA
ATOM     34  H   UNL     1      10.114  22.041  -5.268  1.00  0.00     0.211 HD
ENDBRANCH  25  33
ENDBRANCH  11  20
BRANCH  10  35
ATOM     35  O   UNL     1      11.623  24.981  -3.497  1.00  0.00    -0.507 OA
ATOM     36  H   UNL     1      11.966  25.855  -3.867  1.00  0.00     0.293 HD
ENDBRANCH  10  35
TORSDOF 9
ENDMDL
