MODEL 1
REMARK VINA RESULT:    -6.763      0.000      0.000
REMARK INTER + INTRA:         -11.047
REMARK INTER:                  -9.333
REMARK INTRA:                  -1.714
REMARK UNBOUND:                -1.714
REMARK SMILES C=C(CC[C@@H](C(=O)[O-])[C@@H]1CC[C@]2(C)C3=C(CC[C@]12C)[C@]1(C)CC[C@H](O)C(C)(C)[C@@H]1CC3)C(C)C
REMARK SMILES IDX 4 1 5 2 6 3 7 4 8 5 9 6 10 7 18 8 11 9 12 10 17 11 19 12
REMARK SMILES IDX 13 13 14 14 16 15 15 16 31 17 20 18 30 19 29 20 22 21 21 22
REMARK SMILES IDX 26 23 23 24 24 25 27 26 28 27 25 28 3 30 2 31 1 32 32 33
REMARK SMILES IDX 33 34 34 35
REMARK H PARENT 25 29
REMARK Flexibility Score: inf
ROOT
ATOM      1  C   UNL     1     176.022 177.947 184.029  1.00  0.00     0.014 C 
ENDROOT
BRANCH   1   2
ATOM      2  C   UNL     1     175.490 177.075 185.201  1.00  0.00     0.039 C 
BRANCH   2   3
ATOM      3  C   UNL     1     176.669 176.642 186.044  1.00  0.00     0.045 C 
ATOM      4  O   UNL     1     177.003 175.429 186.095  1.00  0.00    -0.550 OA
ATOM      5  O   UNL     1     177.378 177.577 186.791  1.00  0.00    -0.550 OA
ENDBRANCH   2   3
BRANCH   2   6
ATOM      6  C   UNL     1     174.426 177.811 186.098  1.00  0.00     0.004 C 
ATOM      7  C   UNL     1     174.100 176.991 187.368  1.00  0.00     0.006 C 
ATOM      8  C   UNL     1     173.021 178.167 185.476  1.00  0.00    -0.020 C 
ATOM      9  C   UNL     1     172.602 177.079 187.619  1.00  0.00     0.012 C 
ATOM     10  C   UNL     1     172.060 178.206 186.725  1.00  0.00    -0.006 C 
ATOM     11  C   UNL     1     172.558 177.056 184.500  1.00  0.00     0.012 C 
ATOM     12  C   UNL     1     173.026 179.537 184.727  1.00  0.00     0.012 C 
ATOM     13  C   UNL     1     172.205 179.554 187.503  1.00  0.00     0.017 C 
ATOM     14  C   UNL     1     170.561 177.914 186.421  1.00  0.00    -0.064 C 
ATOM     15  C   UNL     1     171.111 177.262 184.087  1.00  0.00     0.032 C 
ATOM     16  C   UNL     1     170.178 177.249 185.288  1.00  0.00    -0.064 C 
ATOM     17  C   UNL     1     169.573 178.107 187.553  1.00  0.00     0.032 C 
ATOM     18  C   UNL     1     168.778 176.585 185.106  1.00  0.00    -0.008 C 
ATOM     19  C   UNL     1     168.129 178.054 187.088  1.00  0.00     0.009 C 
ATOM     20  C   UNL     1     167.857 176.706 186.394  1.00  0.00     0.007 C 
ATOM     21  C   UNL     1     168.102 177.311 183.899  1.00  0.00     0.014 C 
ATOM     22  C   UNL     1     169.025 175.073 184.779  1.00  0.00     0.016 C 
ATOM     23  C   UNL     1     166.308 176.423 186.149  1.00  0.00    -0.006 C 
ATOM     24  C   UNL     1     166.636 176.941 183.662  1.00  0.00     0.033 C 
ATOM     25  C   UNL     1     165.774 177.191 184.901  1.00  0.00     0.120 C 
ATOM     26  C   UNL     1     166.054 174.899 185.965  1.00  0.00     0.014 C 
ATOM     27  C   UNL     1     165.447 176.816 187.384  1.00  0.00     0.014 C 
BRANCH  25  28
ATOM     28  O   UNL     1     165.729 178.578 185.141  1.00  0.00    -0.393 OA
ATOM     29  H   UNL     1     166.663 178.915 185.125  1.00  0.00     0.210 HD
ENDBRANCH  25  28
ENDBRANCH   2   6
ENDBRANCH   1   2
BRANCH   1  30
ATOM     30  C   UNL     1     175.670 177.388 182.638  1.00  0.00     0.031 C 
BRANCH  30  31
ATOM     31  C   UNL     1     175.028 178.420 181.724  1.00  0.00    -0.075 C 
ATOM     32  C   UNL     1     175.732 179.516 181.392  1.00  0.00     0.008 C 
BRANCH  31  33
ATOM     33  C   UNL     1     173.613 178.262 181.164  1.00  0.00     0.008 C 
ATOM     34  C   UNL     1     172.829 179.580 181.072  1.00  0.00     0.012 C 
ATOM     35  C   UNL     1     173.640 177.566 179.798  1.00  0.00     0.012 C 
ENDBRANCH  31  33
ENDBRANCH  30  31
ENDBRANCH   1  30
TORSDOF 7
ENDMDL
MODEL 2
REMARK VINA RESULT:    -6.377      9.521     12.746
REMARK INTER + INTRA:         -10.514
REMARK INTER:                  -9.432
REMARK INTRA:                  -1.082
REMARK UNBOUND:                -1.714
REMARK SMILES C=C(CC[C@@H](C(=O)[O-])[C@@H]1CC[C@]2(C)C3=C(CC[C@]12C)[C@]1(C)CC[C@H](O)C(C)(C)[C@@H]1CC3)C(C)C
REMARK SMILES IDX 4 1 5 2 6 3 7 4 8 5 9 6 10 7 18 8 11 9 12 10 17 11 19 12
REMARK SMILES IDX 13 13 14 14 16 15 15 16 31 17 20 18 30 19 29 20 22 21 21 22
REMARK SMILES IDX 26 23 23 24 24 25 27 26 28 27 25 28 3 30 2 31 1 32 32 33
REMARK SMILES IDX 33 34 34 35
REMARK H PARENT 25 29
REMARK Flexibility Score: inf
ROOT
ATOM      1  C   UNL     1     160.576 175.772 187.189  1.00  0.00     0.014 C 
ENDROOT
BRANCH   1   2
ATOM      2  C   UNL     1     160.637 176.252 185.712  1.00  0.00     0.039 C 
BRANCH   2   3
ATOM      3  C   UNL     1     160.857 177.750 185.707  1.00  0.00     0.045 C 
ATOM      4  O   UNL     1     161.546 178.293 186.610  1.00  0.00    -0.550 OA
ATOM      5  O   UNL     1     160.277 178.540 184.721  1.00  0.00    -0.550 OA
ENDBRANCH   2   3
BRANCH   2   6
ATOM      6  C   UNL     1     161.756 175.540 184.865  1.00  0.00     0.004 C 
ATOM      7  C   UNL     1     162.942 176.493 184.589  1.00  0.00     0.006 C 
ATOM      8  C   UNL     1     161.381 174.943 183.454  1.00  0.00    -0.020 C 
ATOM      9  C   UNL     1     163.403 176.275 183.155  1.00  0.00     0.012 C 
ATOM     10  C   UNL     1     162.742 174.978 182.660  1.00  0.00    -0.006 C 
ATOM     11  C   UNL     1     160.341 175.844 182.740  1.00  0.00     0.012 C 
ATOM     12  C   UNL     1     160.821 173.489 183.547  1.00  0.00     0.012 C 
ATOM     13  C   UNL     1     163.661 173.782 183.069  1.00  0.00     0.017 C 
ATOM     14  C   UNL     1     162.608 175.054 181.111  1.00  0.00    -0.064 C 
ATOM     15  C   UNL     1     160.157 175.420 181.293  1.00  0.00     0.032 C 
ATOM     16  C   UNL     1     161.461 175.502 180.514  1.00  0.00    -0.064 C 
ATOM     17  C   UNL     1     163.878 174.917 180.297  1.00  0.00     0.032 C 
ATOM     18  C   UNL     1     161.385 175.972 179.029  1.00  0.00    -0.008 C 
ATOM     19  C   UNL     1     163.609 174.741 178.813  1.00  0.00     0.009 C 
ATOM     20  C   UNL     1     162.791 175.936 178.290  1.00  0.00     0.007 C 
ATOM     21  C   UNL     1     160.384 175.009 178.314  1.00  0.00     0.014 C 
ATOM     22  C   UNL     1     160.836 177.440 179.039  1.00  0.00     0.016 C 
ATOM     23  C   UNL     1     162.721 176.007 176.699  1.00  0.00    -0.006 C 
ATOM     24  C   UNL     1     160.301 175.176 176.795  1.00  0.00     0.033 C 
ATOM     25  C   UNL     1     161.666 175.012 176.125  1.00  0.00     0.120 C 
ATOM     26  C   UNL     1     162.379 177.451 176.230  1.00  0.00     0.014 C 
ATOM     27  C   UNL     1     164.102 175.703 176.048  1.00  0.00     0.014 C 
BRANCH  25  28
ATOM     28  O   UNL     1     162.087 173.678 176.288  1.00  0.00    -0.393 OA
ATOM     29  H   UNL     1     162.088 173.252 175.390  1.00  0.00     0.210 HD
ENDBRANCH  25  28
ENDBRANCH   2   6
ENDBRANCH   1   2
BRANCH   1  30
ATOM     30  C   UNL     1     159.972 174.365 187.353  1.00  0.00     0.031 C 
BRANCH  30  31
ATOM     31  C   UNL     1     161.024 173.277 187.508  1.00  0.00    -0.075 C 
ATOM     32  C   UNL     1     162.289 173.637 187.782  1.00  0.00     0.008 C 
BRANCH  31  33
ATOM     33  C   UNL     1     160.701 171.789 187.365  1.00  0.00     0.008 C 
ATOM     34  C   UNL     1     161.557 171.064 186.316  1.00  0.00     0.012 C 
ATOM     35  C   UNL     1     160.805 171.075 188.719  1.00  0.00     0.012 C 
ENDBRANCH  31  33
ENDBRANCH  30  31
ENDBRANCH   1  30
TORSDOF 7
ENDMDL
MODEL 3
REMARK VINA RESULT:    -6.366      9.245     12.338
REMARK INTER + INTRA:         -10.499
REMARK INTER:                  -9.209
REMARK INTRA:                  -1.290
REMARK UNBOUND:                -1.714
REMARK SMILES C=C(CC[C@@H](C(=O)[O-])[C@@H]1CC[C@]2(C)C3=C(CC[C@]12C)[C@]1(C)CC[C@H](O)C(C)(C)[C@@H]1CC3)C(C)C
REMARK SMILES IDX 4 1 5 2 6 3 7 4 8 5 9 6 10 7 18 8 11 9 12 10 17 11 19 12
REMARK SMILES IDX 13 13 14 14 16 15 15 16 31 17 20 18 30 19 29 20 22 21 21 22
REMARK SMILES IDX 26 23 23 24 24 25 27 26 28 27 25 28 3 30 2 31 1 32 32 33
REMARK SMILES IDX 33 34 34 35
REMARK H PARENT 25 29
REMARK Flexibility Score: inf
ROOT
ATOM      1  C   UNL     1     162.412 177.347 176.618  1.00  0.00     0.014 C 
ENDROOT
BRANCH   1   2
ATOM      2  C   UNL     1     161.937 177.552 178.084  1.00  0.00     0.039 C 
BRANCH   2   3
ATOM      3  C   UNL     1     160.772 178.519 178.076  1.00  0.00     0.045 C 
ATOM      4  O   UNL     1     159.951 178.517 177.123  1.00  0.00    -0.550 OA
ATOM      5  O   UNL     1     160.616 179.436 179.110  1.00  0.00    -0.550 OA
ENDBRANCH   2   3
BRANCH   2   6
ATOM      6  C   UNL     1     161.523 176.214 178.803  1.00  0.00     0.004 C 
ATOM      7  C   UNL     1     160.028 176.230 179.199  1.00  0.00     0.006 C 
ATOM      8  C   UNL     1     162.283 175.789 180.118  1.00  0.00    -0.020 C 
ATOM      9  C   UNL     1     159.895 175.604 180.579  1.00  0.00     0.012 C 
ATOM     10  C   UNL     1     161.229 174.907 180.890  1.00  0.00    -0.006 C 
ATOM     11  C   UNL     1     162.641 177.034 180.969  1.00  0.00     0.012 C 
ATOM     12  C   UNL     1     163.586 174.980 179.822  1.00  0.00     0.012 C 
ATOM     13  C   UNL     1     161.168 173.461 180.299  1.00  0.00     0.017 C 
ATOM     14  C   UNL     1     161.410 174.854 182.435  1.00  0.00    -0.064 C 
ATOM     15  C   UNL     1     163.148 176.627 182.342  1.00  0.00     0.032 C 
ATOM     16  C   UNL     1     162.111 175.818 183.106  1.00  0.00    -0.064 C 
ATOM     17  C   UNL     1     160.532 173.887 183.203  1.00  0.00     0.032 C 
ATOM     18  C   UNL     1     162.006 176.051 184.645  1.00  0.00    -0.008 C 
ATOM     19  C   UNL     1     160.964 173.723 184.649  1.00  0.00     0.009 C 
ATOM     20  C   UNL     1     160.954 175.093 185.352  1.00  0.00     0.007 C 
ATOM     21  C   UNL     1     163.433 175.794 185.226  1.00  0.00     0.014 C 
ATOM     22  C   UNL     1     161.579 177.544 184.856  1.00  0.00     0.016 C 
ATOM     23  C   UNL     1     161.088 174.992 186.937  1.00  0.00    -0.006 C 
ATOM     24  C   UNL     1     163.516 175.786 186.754  1.00  0.00     0.033 C 
ATOM     25  C   UNL     1     162.567 174.759 187.375  1.00  0.00     0.120 C 
ATOM     26  C   UNL     1     160.545 176.283 187.614  1.00  0.00     0.014 C 
ATOM     27  C   UNL     1     160.208 173.847 187.518  1.00  0.00     0.014 C 
BRANCH  25  28
ATOM     28  O   UNL     1     163.005 173.471 187.014  1.00  0.00    -0.393 OA
ATOM     29  H   UNL     1     163.990 173.511 186.896  1.00  0.00     0.210 HD
ENDBRANCH  25  28
ENDBRANCH   2   6
ENDBRANCH   1   2
BRANCH   1  30
ATOM     30  C   UNL     1     162.190 175.916 176.095  1.00  0.00     0.031 C 
BRANCH  30  31
ATOM     31  C   UNL     1     160.984 175.796 175.177  1.00  0.00    -0.075 C 
ATOM     32  C   UNL     1     159.882 175.178 175.636  1.00  0.00     0.008 C 
BRANCH  31  33
ATOM     33  C   UNL     1     160.972 176.349 173.751  1.00  0.00     0.008 C 
ATOM     34  C   UNL     1     160.477 177.800 173.650  1.00  0.00     0.012 C 
ATOM     35  C   UNL     1     162.354 176.215 173.100  1.00  0.00     0.012 C 
ENDBRANCH  31  33
ENDBRANCH  30  31
ENDBRANCH   1  30
TORSDOF 7
ENDMDL
MODEL 4
REMARK VINA RESULT:    -6.339      9.100     13.228
REMARK INTER + INTRA:         -10.463
REMARK INTER:                  -9.188
REMARK INTRA:                  -1.274
REMARK UNBOUND:                -1.714
REMARK SMILES C=C(CC[C@@H](C(=O)[O-])[C@@H]1CC[C@]2(C)C3=C(CC[C@]12C)[C@]1(C)CC[C@H](O)C(C)(C)[C@@H]1CC3)C(C)C
REMARK SMILES IDX 4 1 5 2 6 3 7 4 8 5 9 6 10 7 18 8 11 9 12 10 17 11 19 12
REMARK SMILES IDX 13 13 14 14 16 15 15 16 31 17 20 18 30 19 29 20 22 21 21 22
REMARK SMILES IDX 26 23 23 24 24 25 27 26 28 27 25 28 3 30 2 31 1 32 32 33
REMARK SMILES IDX 33 34 34 35
REMARK H PARENT 25 29
REMARK Flexibility Score: inf
ROOT
ATOM      1  C   UNL     1     163.320 166.853 186.412  1.00  0.00     0.014 C 
ENDROOT
BRANCH   1   2
ATOM      2  C   UNL     1     163.182 168.297 185.853  1.00  0.00     0.039 C 
BRANCH   2   3
ATOM      3  C   UNL     1     162.785 168.206 184.395  1.00  0.00     0.045 C 
ATOM      4  O   UNL     1     162.128 167.218 183.975  1.00  0.00    -0.550 OA
ATOM      5  O   UNL     1     163.168 169.201 183.502  1.00  0.00    -0.550 OA
ENDBRANCH   2   3
BRANCH   2   6
ATOM      6  C   UNL     1     162.143 169.178 186.641  1.00  0.00     0.004 C 
ATOM      7  C   UNL     1     160.932 169.547 185.752  1.00  0.00     0.006 C 
ATOM      8  C   UNL     1     162.621 170.548 187.260  1.00  0.00    -0.020 C 
ATOM      9  C   UNL     1     160.560 170.996 186.032  1.00  0.00     0.012 C 
ATOM     10  C   UNL     1     161.304 171.414 187.311  1.00  0.00    -0.006 C 
ATOM     11  C   UNL     1     163.657 171.234 186.333  1.00  0.00     0.012 C 
ATOM     12  C   UNL     1     163.240 170.380 188.683  1.00  0.00     0.012 C 
ATOM     13  C   UNL     1     160.420 171.017 188.537  1.00  0.00     0.017 C 
ATOM     14  C   UNL     1     161.519 172.955 187.274  1.00  0.00    -0.064 C 
ATOM     15  C   UNL     1     163.937 172.656 186.789  1.00  0.00     0.032 C 
ATOM     16  C   UNL     1     162.676 173.504 186.791  1.00  0.00    -0.064 C 
ATOM     17  C   UNL     1     160.302 173.831 187.493  1.00  0.00     0.032 C 
ATOM     18  C   UNL     1     162.811 174.998 186.361  1.00  0.00    -0.008 C 
ATOM     19  C   UNL     1     160.659 175.292 187.700  1.00  0.00     0.009 C 
ATOM     20  C   UNL     1     161.451 175.809 186.484  1.00  0.00     0.007 C 
ATOM     21  C   UNL     1     163.892 175.628 187.297  1.00  0.00     0.014 C 
ATOM     22  C   UNL     1     163.292 175.005 184.870  1.00  0.00     0.016 C 
ATOM     23  C   UNL     1     161.603 177.395 186.456  1.00  0.00    -0.006 C 
ATOM     24  C   UNL     1     164.050 177.144 187.171  1.00  0.00     0.033 C 
ATOM     25  C   UNL     1     162.731 177.881 187.417  1.00  0.00     0.120 C 
ATOM     26  C   UNL     1     161.905 177.890 185.012  1.00  0.00     0.014 C 
ATOM     27  C   UNL     1     160.275 178.108 186.842  1.00  0.00     0.014 C 
BRANCH  25  28
ATOM     28  O   UNL     1     162.362 177.699 188.764  1.00  0.00    -0.393 OA
ATOM     29  H   UNL     1     163.118 178.014 189.327  1.00  0.00     0.210 HD
ENDBRANCH  25  28
ENDBRANCH   2   6
ENDBRANCH   1   2
BRANCH   1  30
ATOM     30  C   UNL     1     162.309 166.526 187.526  1.00  0.00     0.031 C 
BRANCH  30  31
ATOM     31  C   UNL     1     161.172 165.631 187.058  1.00  0.00    -0.075 C 
ATOM     32  C   UNL     1     159.916 166.109 187.098  1.00  0.00     0.008 C 
BRANCH  31  33
ATOM     33  C   UNL     1     161.397 164.209 186.542  1.00  0.00     0.008 C 
ATOM     34  C   UNL     1     160.955 163.113 187.523  1.00  0.00     0.012 C 
ATOM     35  C   UNL     1     160.719 164.007 185.182  1.00  0.00     0.012 C 
ENDBRANCH  31  33
ENDBRANCH  30  31
ENDBRANCH   1  30
TORSDOF 7
ENDMDL
MODEL 5
REMARK VINA RESULT:    -6.276      2.730      5.406
REMARK INTER + INTRA:         -10.375
REMARK INTER:                  -9.283
REMARK INTRA:                  -1.093
REMARK UNBOUND:                -1.714
REMARK SMILES C=C(CC[C@@H](C(=O)[O-])[C@@H]1CC[C@]2(C)C3=C(CC[C@]12C)[C@]1(C)CC[C@H](O)C(C)(C)[C@@H]1CC3)C(C)C
REMARK SMILES IDX 4 1 5 2 6 3 7 4 8 5 9 6 10 7 18 8 11 9 12 10 17 11 19 12
REMARK SMILES IDX 13 13 14 14 16 15 15 16 31 17 20 18 30 19 29 20 22 21 21 22
REMARK SMILES IDX 26 23 23 24 24 25 27 26 28 27 25 28 3 30 2 31 1 32 32 33
REMARK SMILES IDX 33 34 34 35
REMARK H PARENT 25 29
REMARK Flexibility Score: inf
ROOT
ATOM      1  C   UNL     1     171.696 178.263 187.497  1.00  0.00     0.014 C 
ENDROOT
BRANCH   1   2
ATOM      2  C   UNL     1     170.903 177.572 186.353  1.00  0.00     0.039 C 
BRANCH   2   3
ATOM      3  C   UNL     1     171.894 177.042 185.340  1.00  0.00     0.045 C 
ATOM      4  O   UNL     1     172.858 176.322 185.710  1.00  0.00    -0.550 OA
ATOM      5  O   UNL     1     171.763 177.369 183.994  1.00  0.00    -0.550 OA
ENDBRANCH   2   3
BRANCH   2   6
ATOM      6  C   UNL     1     169.966 176.409 186.852  1.00  0.00     0.004 C 
ATOM      7  C   UNL     1     169.698 175.383 185.726  1.00  0.00     0.006 C 
ATOM      8  C   UNL     1     168.538 176.770 187.416  1.00  0.00    -0.020 C 
ATOM      9  C   UNL     1     168.235 174.971 185.796  1.00  0.00     0.012 C 
ATOM     10  C   UNL     1     167.690 175.469 187.145  1.00  0.00    -0.006 C 
ATOM     11  C   UNL     1     167.927 177.961 186.635  1.00  0.00     0.012 C 
ATOM     12  C   UNL     1     168.565 177.117 188.939  1.00  0.00     0.012 C 
ATOM     13  C   UNL     1     167.984 174.374 188.220  1.00  0.00     0.017 C 
ATOM     14  C   UNL     1     166.156 175.693 187.003  1.00  0.00    -0.064 C 
ATOM     15  C   UNL     1     166.465 178.158 186.999  1.00  0.00     0.032 C 
ATOM     16  C   UNL     1     165.638 176.920 186.690  1.00  0.00    -0.064 C 
ATOM     17  C   UNL     1     165.281 174.459 186.913  1.00  0.00     0.032 C 
ATOM     18  C   UNL     1     164.189 177.136 186.154  1.00  0.00    -0.008 C 
ATOM     19  C   UNL     1     163.802 174.777 187.043  1.00  0.00     0.009 C 
ATOM     20  C   UNL     1     163.389 175.779 185.949  1.00  0.00     0.007 C 
ATOM     21  C   UNL     1     163.460 178.029 187.208  1.00  0.00     0.014 C 
ATOM     22  C   UNL     1     164.314 177.883 184.782  1.00  0.00     0.016 C 
ATOM     23  C   UNL     1     161.811 175.939 185.801  1.00  0.00    -0.006 C 
ATOM     24  C   UNL     1     161.959 178.212 186.972  1.00  0.00     0.033 C 
ATOM     25  C   UNL     1     161.222 176.874 186.903  1.00  0.00     0.120 C 
ATOM     26  C   UNL     1     161.448 176.502 184.397  1.00  0.00     0.014 C 
ATOM     27  C   UNL     1     161.083 174.565 185.870  1.00  0.00     0.014 C 
BRANCH  25  28
ATOM     28  O   UNL     1     161.283 176.264 188.170  1.00  0.00    -0.393 OA
ATOM     29  H   UNL     1     162.242 176.189 188.421  1.00  0.00     0.210 HD
ENDBRANCH  25  28
ENDBRANCH   2   6
ENDBRANCH   1   2
BRANCH   1  30
ATOM     30  C   UNL     1     172.349 179.592 187.077  1.00  0.00     0.031 C 
BRANCH  30  31
ATOM     31  C   UNL     1     173.868 179.561 187.148  1.00  0.00    -0.075 C 
ATOM     32  C   UNL     1     174.454 179.347 188.339  1.00  0.00     0.008 C 
BRANCH  31  33
ATOM     33  C   UNL     1     174.758 179.762 185.920  1.00  0.00     0.008 C 
ATOM     34  C   UNL     1     175.667 178.565 185.607  1.00  0.00     0.012 C 
ATOM     35  C   UNL     1     173.917 180.125 184.690  1.00  0.00     0.012 C 
ENDBRANCH  31  33
ENDBRANCH  30  31
ENDBRANCH   1  30
TORSDOF 7
ENDMDL
MODEL 6
REMARK VINA RESULT:    -6.251      3.098      9.670
REMARK INTER + INTRA:         -10.341
REMARK INTER:                  -8.884
REMARK INTRA:                  -1.456
REMARK UNBOUND:                -1.714
REMARK SMILES C=C(CC[C@@H](C(=O)[O-])[C@@H]1CC[C@]2(C)C3=C(CC[C@]12C)[C@]1(C)CC[C@H](O)C(C)(C)[C@@H]1CC3)C(C)C
REMARK SMILES IDX 4 1 5 2 6 3 7 4 8 5 9 6 10 7 18 8 11 9 12 10 17 11 19 12
REMARK SMILES IDX 13 13 14 14 16 15 15 16 31 17 20 18 30 19 29 20 22 21 21 22
REMARK SMILES IDX 26 23 23 24 24 25 27 26 28 27 25 28 3 30 2 31 1 32 32 33
REMARK SMILES IDX 33 34 34 35
REMARK H PARENT 25 29
REMARK Flexibility Score: inf
ROOT
ATOM      1  C   UNL     1     161.807 174.696 185.713  1.00  0.00     0.014 C 
ENDROOT
BRANCH   1   2
ATOM      2  C   UNL     1     163.253 174.756 186.280  1.00  0.00     0.039 C 
BRANCH   2   3
ATOM      3  C   UNL     1     163.564 173.427 186.934  1.00  0.00     0.045 C 
ATOM      4  O   UNL     1     164.349 173.370 187.916  1.00  0.00    -0.550 OA
ATOM      5  O   UNL     1     163.004 172.255 186.438  1.00  0.00    -0.550 OA
ENDBRANCH   2   3
BRANCH   2   6
ATOM      6  C   UNL     1     164.341 175.090 185.192  1.00  0.00     0.004 C 
ATOM      7  C   UNL     1     165.310 173.902 184.986  1.00  0.00     0.006 C 
ATOM      8  C   UNL     1     165.278 176.340 185.410  1.00  0.00    -0.020 C 
ATOM      9  C   UNL     1     166.718 174.458 184.832  1.00  0.00     0.012 C 
ATOM     10  C   UNL     1     166.584 175.973 184.607  1.00  0.00    -0.006 C 
ATOM     11  C   UNL     1     165.623 176.510 186.911  1.00  0.00     0.012 C 
ATOM     12  C   UNL     1     164.643 177.664 184.878  1.00  0.00     0.012 C 
ATOM     13  C   UNL     1     166.388 176.219 183.076  1.00  0.00     0.017 C 
ATOM     14  C   UNL     1     167.887 176.662 185.105  1.00  0.00    -0.064 C 
ATOM     15  C   UNL     1     166.712 177.550 187.105  1.00  0.00     0.032 C 
ATOM     16  C   UNL     1     167.988 177.170 186.372  1.00  0.00    -0.064 C 
ATOM     17  C   UNL     1     169.134 176.477 184.265  1.00  0.00     0.032 C 
ATOM     18  C   UNL     1     169.345 177.509 187.062  1.00  0.00    -0.008 C 
ATOM     19  C   UNL     1     170.269 177.393 184.687  1.00  0.00     0.009 C 
ATOM     20  C   UNL     1     170.608 177.148 186.169  1.00  0.00     0.007 C 
ATOM     21  C   UNL     1     169.320 179.044 187.351  1.00  0.00     0.014 C 
ATOM     22  C   UNL     1     169.397 176.691 188.398  1.00  0.00     0.016 C 
ATOM     23  C   UNL     1     171.977 177.826 186.625  1.00  0.00    -0.006 C 
ATOM     24  C   UNL     1     170.639 179.627 187.862  1.00  0.00     0.033 C 
ATOM     25  C   UNL     1     171.798 179.350 186.902  1.00  0.00     0.120 C 
ATOM     26  C   UNL     1     172.532 177.131 187.902  1.00  0.00     0.014 C 
ATOM     27  C   UNL     1     173.096 177.638 185.560  1.00  0.00     0.014 C 
BRANCH  25  28
ATOM     28  O   UNL     1     171.566 180.058 185.707  1.00  0.00    -0.393 OA
ATOM     29  H   UNL     1     170.851 180.723 185.885  1.00  0.00     0.210 HD
ENDBRANCH  25  28
ENDBRANCH   2   6
ENDBRANCH   1   2
BRANCH   1  30
ATOM     30  C   UNL     1     160.816 175.610 186.456  1.00  0.00     0.031 C 
BRANCH  30  31
ATOM     31  C   UNL     1     160.991 177.082 186.116  1.00  0.00    -0.075 C 
ATOM     32  C   UNL     1     160.849 177.470 184.837  1.00  0.00     0.008 C 
BRANCH  31  33
ATOM     33  C   UNL     1     161.321 178.140 187.169  1.00  0.00     0.008 C 
ATOM     34  C   UNL     1     160.085 178.751 187.847  1.00  0.00     0.012 C 
ATOM     35  C   UNL     1     162.281 177.580 188.226  1.00  0.00     0.012 C 
ENDBRANCH  31  33
ENDBRANCH  30  31
ENDBRANCH   1  30
TORSDOF 7
ENDMDL
MODEL 7
REMARK VINA RESULT:    -6.214      5.216      8.419
REMARK INTER + INTRA:         -10.290
REMARK INTER:                  -9.274
REMARK INTRA:                  -1.016
REMARK UNBOUND:                -1.714
REMARK SMILES C=C(CC[C@@H](C(=O)[O-])[C@@H]1CC[C@]2(C)C3=C(CC[C@]12C)[C@]1(C)CC[C@H](O)C(C)(C)[C@@H]1CC3)C(C)C
REMARK SMILES IDX 4 1 5 2 6 3 7 4 8 5 9 6 10 7 18 8 11 9 12 10 17 11 19 12
REMARK SMILES IDX 13 13 14 14 16 15 15 16 31 17 20 18 30 19 29 20 22 21 21 22
REMARK SMILES IDX 26 23 23 24 24 25 27 26 28 27 25 28 3 30 2 31 1 32 32 33
REMARK SMILES IDX 33 34 34 35
REMARK H PARENT 25 29
REMARK Flexibility Score: inf
ROOT
ATOM      1  C   UNL     1     179.382 170.315 187.251  1.00  0.00     0.014 C 
ENDROOT
BRANCH   1   2
ATOM      2  C   UNL     1     178.928 171.670 186.639  1.00  0.00     0.039 C 
BRANCH   2   3
ATOM      3  C   UNL     1     179.627 171.849 185.309  1.00  0.00     0.045 C 
ATOM      4  O   UNL     1     179.884 173.003 184.877  1.00  0.00    -0.550 OA
ATOM      5  O   UNL     1     179.965 170.741 184.541  1.00  0.00    -0.550 OA
ENDBRANCH   2   3
BRANCH   2   6
ATOM      6  C   UNL     1     177.369 171.781 186.450  1.00  0.00     0.004 C 
ATOM      7  C   UNL     1     176.991 171.862 184.952  1.00  0.00     0.006 C 
ATOM      8  C   UNL     1     176.603 172.984 187.124  1.00  0.00    -0.020 C 
ATOM      9  C   UNL     1     175.874 172.884 184.798  1.00  0.00     0.012 C 
ATOM     10  C   UNL     1     175.336 173.181 186.208  1.00  0.00    -0.006 C 
ATOM     11  C   UNL     1     177.470 174.269 187.094  1.00  0.00     0.012 C 
ATOM     12  C   UNL     1     176.190 172.680 188.599  1.00  0.00     0.012 C 
ATOM     13  C   UNL     1     174.235 172.122 186.538  1.00  0.00     0.017 C 
ATOM     14  C   UNL     1     174.729 174.614 186.211  1.00  0.00    -0.064 C 
ATOM     15  C   UNL     1     176.658 175.483 187.512  1.00  0.00     0.032 C 
ATOM     16  C   UNL     1     175.464 175.701 186.597  1.00  0.00    -0.064 C 
ATOM     17  C   UNL     1     173.414 174.812 185.484  1.00  0.00     0.032 C 
ATOM     18  C   UNL     1     175.073 177.174 186.261  1.00  0.00    -0.008 C 
ATOM     19  C   UNL     1     172.783 176.163 185.767  1.00  0.00     0.009 C 
ATOM     20  C   UNL     1     173.762 177.285 185.372  1.00  0.00     0.007 C 
ATOM     21  C   UNL     1     174.848 177.891 187.631  1.00  0.00     0.014 C 
ATOM     22  C   UNL     1     176.283 177.807 185.493  1.00  0.00     0.016 C 
ATOM     23  C   UNL     1     173.088 178.729 185.336  1.00  0.00    -0.006 C 
ATOM     24  C   UNL     1     174.272 179.305 187.532  1.00  0.00     0.033 C 
ATOM     25  C   UNL     1     172.948 179.333 186.767  1.00  0.00     0.120 C 
ATOM     26  C   UNL     1     173.917 179.697 184.444  1.00  0.00     0.014 C 
ATOM     27  C   UNL     1     171.682 178.692 184.668  1.00  0.00     0.014 C 
BRANCH  25  28
ATOM     28  O   UNL     1     171.983 178.636 187.519  1.00  0.00    -0.393 OA
ATOM     29  H   UNL     1     172.460 178.141 188.234  1.00  0.00     0.210 HD
ENDBRANCH  25  28
ENDBRANCH   2   6
ENDBRANCH   1   2
BRANCH   1  30
ATOM     30  C   UNL     1     178.221 169.338 187.514  1.00  0.00     0.031 C 
BRANCH  30  31
ATOM     31  C   UNL     1     178.342 168.041 186.730  1.00  0.00    -0.075 C 
ATOM     32  C   UNL     1     177.903 168.010 185.460  1.00  0.00     0.008 C 
BRANCH  31  33
ATOM     33  C   UNL     1     178.944 166.768 187.327  1.00  0.00     0.008 C 
ATOM     34  C   UNL     1     179.373 165.731 186.278  1.00  0.00     0.012 C 
ATOM     35  C   UNL     1     180.121 167.101 188.252  1.00  0.00     0.012 C 
ENDBRANCH  31  33
ENDBRANCH  30  31
ENDBRANCH   1  30
TORSDOF 7
ENDMDL
MODEL 8
REMARK VINA RESULT:    -6.162      3.100      6.075
REMARK INTER + INTRA:         -10.218
REMARK INTER:                  -9.300
REMARK INTRA:                  -0.918
REMARK UNBOUND:                -1.714
REMARK SMILES C=C(CC[C@@H](C(=O)[O-])[C@@H]1CC[C@]2(C)C3=C(CC[C@]12C)[C@]1(C)CC[C@H](O)C(C)(C)[C@@H]1CC3)C(C)C
REMARK SMILES IDX 4 1 5 2 6 3 7 4 8 5 9 6 10 7 18 8 11 9 12 10 17 11 19 12
REMARK SMILES IDX 13 13 14 14 16 15 15 16 31 17 20 18 30 19 29 20 22 21 21 22
REMARK SMILES IDX 26 23 23 24 24 25 27 26 28 27 25 28 3 30 2 31 1 32 32 33
REMARK SMILES IDX 33 34 34 35
REMARK H PARENT 25 29
REMARK Flexibility Score: inf
ROOT
ATOM      1  C   UNL     1     171.316 179.050 187.408  1.00  0.00     0.014 C 
ENDROOT
BRANCH   1   2
ATOM      2  C   UNL     1     170.006 178.949 186.578  1.00  0.00     0.039 C 
BRANCH   2   3
ATOM      3  C   UNL     1     170.239 179.612 185.238  1.00  0.00     0.045 C 
ATOM      4  O   UNL     1     169.279 180.125 184.606  1.00  0.00    -0.550 OA
ATOM      5  O   UNL     1     171.513 179.635 184.681  1.00  0.00    -0.550 OA
ENDBRANCH   2   3
BRANCH   2   6
ATOM      6  C   UNL     1     169.508 177.470 186.369  1.00  0.00     0.004 C 
ATOM      7  C   UNL     1     169.318 177.150 184.868  1.00  0.00     0.006 C 
ATOM      8  C   UNL     1     168.160 177.016 187.052  1.00  0.00    -0.020 C 
ATOM      9  C   UNL     1     168.048 176.324 184.716  1.00  0.00     0.012 C 
ATOM     10  C   UNL     1     167.644 175.853 186.122  1.00  0.00    -0.006 C 
ATOM     11  C   UNL     1     167.131 178.175 187.053  1.00  0.00     0.012 C 
ATOM     12  C   UNL     1     168.369 176.516 188.517  1.00  0.00     0.012 C 
ATOM     13  C   UNL     1     168.400 174.518 186.422  1.00  0.00     0.017 C 
ATOM     14  C   UNL     1     166.105 175.620 186.140  1.00  0.00    -0.064 C 
ATOM     15  C   UNL     1     165.759 177.684 187.479  1.00  0.00     0.032 C 
ATOM     16  C   UNL     1     165.239 176.597 186.552  1.00  0.00    -0.064 C 
ATOM     17  C   UNL     1     165.578 174.409 185.398  1.00  0.00     0.032 C 
ATOM     18  C   UNL     1     163.712 176.589 186.235  1.00  0.00    -0.008 C 
ATOM     19  C   UNL     1     164.116 174.129 185.694  1.00  0.00     0.009 C 
ATOM     20  C   UNL     1     163.268 175.362 185.329  1.00  0.00     0.007 C 
ATOM     21  C   UNL     1     162.977 176.527 187.612  1.00  0.00     0.014 C 
ATOM     22  C   UNL     1     163.390 177.931 185.492  1.00  0.00     0.016 C 
ATOM     23  C   UNL     1     161.701 175.068 185.307  1.00  0.00    -0.006 C 
ATOM     24  C   UNL     1     161.463 176.322 187.528  1.00  0.00     0.033 C 
ATOM     25  C   UNL     1     161.098 175.059 186.745  1.00  0.00     0.120 C 
ATOM     26  C   UNL     1     160.959 176.127 184.442  1.00  0.00     0.014 C 
ATOM     27  C   UNL     1     161.379 173.709 184.621  1.00  0.00     0.014 C 
BRANCH  25  28
ATOM     28  O   UNL     1     161.542 173.938 187.473  1.00  0.00    -0.393 OA
ATOM     29  H   UNL     1     161.404 173.136 186.904  1.00  0.00     0.210 HD
ENDBRANCH  25  28
ENDBRANCH   2   6
ENDBRANCH   1   2
BRANCH   1  30
ATOM     30  C   UNL     1     172.111 177.733 187.465  1.00  0.00     0.031 C 
BRANCH  30  31
ATOM     31  C   UNL     1     173.602 177.924 187.230  1.00  0.00    -0.075 C 
ATOM     32  C   UNL     1     174.375 176.836 187.069  1.00  0.00     0.008 C 
BRANCH  31  33
ATOM     33  C   UNL     1     174.258 179.304 187.167  1.00  0.00     0.008 C 
ATOM     34  C   UNL     1     174.897 179.751 188.491  1.00  0.00     0.012 C 
ATOM     35  C   UNL     1     175.290 179.368 186.034  1.00  0.00     0.012 C 
ENDBRANCH  31  33
ENDBRANCH  30  31
ENDBRANCH   1  30
TORSDOF 7
ENDMDL
MODEL 9
REMARK VINA RESULT:    -6.159      7.090      9.918
REMARK INTER + INTRA:         -10.214
REMARK INTER:                  -8.312
REMARK INTRA:                  -1.902
REMARK UNBOUND:                -1.714
REMARK SMILES C=C(CC[C@@H](C(=O)[O-])[C@@H]1CC[C@]2(C)C3=C(CC[C@]12C)[C@]1(C)CC[C@H](O)C(C)(C)[C@@H]1CC3)C(C)C
REMARK SMILES IDX 4 1 5 2 6 3 7 4 8 5 9 6 10 7 18 8 11 9 12 10 17 11 19 12
REMARK SMILES IDX 13 13 14 14 16 15 15 16 31 17 20 18 30 19 29 20 22 21 21 22
REMARK SMILES IDX 26 23 23 24 24 25 27 26 28 27 25 28 3 30 2 31 1 32 32 33
REMARK SMILES IDX 33 34 34 35
REMARK H PARENT 25 29
REMARK Flexibility Score: inf
ROOT
ATOM      1  C   UNL     1     178.975 166.647 184.453  1.00  0.00     0.014 C 
ENDROOT
BRANCH   1   2
ATOM      2  C   UNL     1     178.101 167.023 185.682  1.00  0.00     0.039 C 
BRANCH   2   3
ATOM      3  C   UNL     1     178.125 165.864 186.655  1.00  0.00     0.045 C 
ATOM      4  O   UNL     1     177.051 165.311 187.012  1.00  0.00    -0.550 OA
ATOM      5  O   UNL     1     179.331 165.418 187.184  1.00  0.00    -0.550 OA
ENDBRANCH   2   3
BRANCH   2   6
ATOM      6  C   UNL     1     178.567 168.343 186.403  1.00  0.00     0.004 C 
ATOM      7  C   UNL     1     177.797 168.559 187.727  1.00  0.00     0.006 C 
ATOM      8  C   UNL     1     178.442 169.715 185.635  1.00  0.00    -0.020 C 
ATOM      9  C   UNL     1     177.465 170.039 187.847  1.00  0.00     0.012 C 
ATOM     10  C   UNL     1     178.303 170.778 186.791  1.00  0.00    -0.006 C 
ATOM     11  C   UNL     1     177.166 169.735 184.756  1.00  0.00     0.012 C 
ATOM     12  C   UNL     1     179.685 170.016 184.740  1.00  0.00     0.012 C 
ATOM     13  C   UNL     1     179.695 171.105 187.422  1.00  0.00     0.017 C 
ATOM     14  C   UNL     1     177.562 172.090 186.403  1.00  0.00    -0.064 C 
ATOM     15  C   UNL     1     176.904 171.128 184.209  1.00  0.00     0.032 C 
ATOM     16  C   UNL     1     176.720 172.143 185.325  1.00  0.00    -0.064 C 
ATOM     17  C   UNL     1     177.552 173.209 187.424  1.00  0.00     0.032 C 
ATOM     18  C   UNL     1     175.663 173.270 185.108  1.00  0.00    -0.008 C 
ATOM     19  C   UNL     1     177.040 174.520 186.854  1.00  0.00     0.009 C 
ATOM     20  C   UNL     1     175.618 174.323 186.297  1.00  0.00     0.007 C 
ATOM     21  C   UNL     1     176.054 173.988 183.777  1.00  0.00     0.014 C 
ATOM     22  C   UNL     1     174.267 172.571 184.975  1.00  0.00     0.016 C 
ATOM     23  C   UNL     1     174.874 175.692 185.962  1.00  0.00    -0.006 C 
ATOM     24  C   UNL     1     175.253 175.255 183.467  1.00  0.00     0.033 C 
ATOM     25  C   UNL     1     175.344 176.282 184.597  1.00  0.00     0.120 C 
ATOM     26  C   UNL     1     173.332 175.483 185.932  1.00  0.00     0.014 C 
ATOM     27  C   UNL     1     175.101 176.758 187.073  1.00  0.00     0.014 C 
BRANCH  25  28
ATOM     28  O   UNL     1     176.672 176.744 184.676  1.00  0.00    -0.393 OA
ATOM     29  H   UNL     1     177.208 176.226 184.019  1.00  0.00     0.210 HD
ENDBRANCH  25  28
ENDBRANCH   2   6
ENDBRANCH   1   2
BRANCH   1  30
ATOM     30  C   UNL     1     178.178 166.549 183.139  1.00  0.00     0.031 C 
BRANCH  30  31
ATOM     31  C   UNL     1     178.807 167.334 181.998  1.00  0.00    -0.075 C 
ATOM     32  C   UNL     1     180.125 167.197 181.770  1.00  0.00     0.008 C 
BRANCH  31  33
ATOM     33  C   UNL     1     178.003 168.274 181.099  1.00  0.00     0.008 C 
ATOM     34  C   UNL     1     176.502 168.316 181.425  1.00  0.00     0.012 C 
ATOM     35  C   UNL     1     178.589 169.691 181.124  1.00  0.00     0.012 C 
ENDBRANCH  31  33
ENDBRANCH  30  31
ENDBRANCH   1  30
TORSDOF 7
ENDMDL
