MODEL 1
REMARK VINA RESULT:    -3.147      0.000      0.000
REMARK INTER + INTRA:          -3.745
REMARK INTER:                  -3.698
REMARK INTRA:                  -0.046
REMARK UNBOUND:                -0.046
REMARK SMILES CCCCC(=O)[O-]
REMARK SMILES IDX 4 1 5 2 6 3 7 4 3 5 2 6 1 7
REMARK H PARENT
REMARK Flexibility Score: inf
ROOT
ATOM      1  C   UNL     1      -1.460  26.020 -20.547  1.00  0.00     0.053 C 
ENDROOT
BRANCH   1   2
ATOM      2  C   UNL     1      -1.576  26.596 -19.170  1.00  0.00     0.041 C 
ATOM      3  O   UNL     1      -0.876  27.590 -18.839  1.00  0.00    -0.550 OA
ATOM      4  O   UNL     1      -2.479  26.058 -18.263  1.00  0.00    -0.550 OA
ENDBRANCH   1   2
BRANCH   1   5
ATOM      5  C   UNL     1      -2.615  25.058 -20.869  1.00  0.00     0.006 C 
BRANCH   5   6
ATOM      6  C   UNL     1      -3.839  25.736 -21.509  1.00  0.00    -0.003 C 
ATOM      7  C   UNL     1      -3.990  25.412 -22.995  1.00  0.00     0.004 C 
ENDBRANCH   5   6
ENDBRANCH   1   5
TORSDOF 3
ENDMDL
MODEL 2
REMARK VINA RESULT:    -3.105      2.144      3.725
REMARK INTER + INTRA:          -3.696
REMARK INTER:                  -3.617
REMARK INTRA:                  -0.079
REMARK UNBOUND:                -0.046
REMARK SMILES CCCCC(=O)[O-]
REMARK SMILES IDX 4 1 5 2 6 3 7 4 3 5 2 6 1 7
REMARK H PARENT
REMARK Flexibility Score: inf
ROOT
ATOM      1  C   UNL     1      -2.553  25.426 -21.687  1.00  0.00     0.053 C 
ENDROOT
BRANCH   1   2
ATOM      2  C   UNL     1      -3.945  25.177 -21.194  1.00  0.00     0.041 C 
ATOM      3  O   UNL     1      -4.199  25.235 -19.962  1.00  0.00    -0.550 OA
ATOM      4  O   UNL     1      -4.967  24.915 -22.096  1.00  0.00    -0.550 OA
ENDBRANCH   1   2
BRANCH   1   5
ATOM      5  C   UNL     1      -1.527  25.421 -20.543  1.00  0.00     0.006 C 
BRANCH   5   6
ATOM      6  C   UNL     1      -0.876  26.790 -20.275  1.00  0.00    -0.003 C 
ATOM      7  C   UNL     1      -1.007  27.236 -18.819  1.00  0.00     0.004 C 
ENDBRANCH   5   6
ENDBRANCH   1   5
TORSDOF 3
ENDMDL
MODEL 3
REMARK VINA RESULT:    -2.502     23.402     24.115
REMARK INTER + INTRA:          -2.986
REMARK INTER:                  -2.879
REMARK INTRA:                  -0.108
REMARK UNBOUND:                -0.046
REMARK SMILES CCCCC(=O)[O-]
REMARK SMILES IDX 4 1 5 2 6 3 7 4 3 5 2 6 1 7
REMARK H PARENT
REMARK Flexibility Score: inf
ROOT
ATOM      1  C   UNL     1     -19.941  27.867  -5.460  1.00  0.00     0.053 C 
ENDROOT
BRANCH   1   2
ATOM      2  C   UNL     1     -20.528  26.498  -5.620  1.00  0.00     0.041 C 
ATOM      3  O   UNL     1     -20.935  25.863  -4.611  1.00  0.00    -0.550 OA
ATOM      4  O   UNL     1     -20.655  25.938  -6.884  1.00  0.00    -0.550 OA
ENDBRANCH   1   2
BRANCH   1   5
ATOM      5  C   UNL     1     -21.001  28.905  -5.056  1.00  0.00     0.006 C 
BRANCH   5   6
ATOM      6  C   UNL     1     -20.923  29.344  -3.583  1.00  0.00    -0.003 C 
ATOM      7  C   UNL     1     -19.579  29.012  -2.934  1.00  0.00     0.004 C 
ENDBRANCH   5   6
ENDBRANCH   1   5
TORSDOF 3
ENDMDL
MODEL 4
REMARK VINA RESULT:    -2.404     23.331     23.861
REMARK INTER + INTRA:          -2.872
REMARK INTER:                  -2.769
REMARK INTRA:                  -0.103
REMARK UNBOUND:                -0.046
REMARK SMILES CCCCC(=O)[O-]
REMARK SMILES IDX 4 1 5 2 6 3 7 4 3 5 2 6 1 7
REMARK H PARENT
REMARK Flexibility Score: inf
ROOT
ATOM      1  C   UNL     1     -19.317  27.471  -4.550  1.00  0.00     0.053 C 
ENDROOT
BRANCH   1   2
ATOM      2  C   UNL     1     -19.877  28.810  -4.183  1.00  0.00     0.041 C 
ATOM      3  O   UNL     1     -20.677  29.395  -4.959  1.00  0.00    -0.550 OA
ATOM      4  O   UNL     1     -19.541  29.397  -2.970  1.00  0.00    -0.550 OA
ENDBRANCH   1   2
BRANCH   1   5
ATOM      5  C   UNL     1     -20.165  26.318  -3.988  1.00  0.00     0.006 C 
BRANCH   5   6
ATOM      6  C   UNL     1     -21.123  25.684  -5.012  1.00  0.00    -0.003 C 
ATOM      7  C   UNL     1     -20.740  25.997  -6.458  1.00  0.00     0.004 C 
ENDBRANCH   5   6
ENDBRANCH   1   5
TORSDOF 3
ENDMDL
MODEL 5
REMARK VINA RESULT:    -2.338     23.619     24.215
REMARK INTER + INTRA:          -2.794
REMARK INTER:                  -2.683
REMARK INTRA:                  -0.111
REMARK UNBOUND:                -0.046
REMARK SMILES CCCCC(=O)[O-]
REMARK SMILES IDX 4 1 5 2 6 3 7 4 3 5 2 6 1 7
REMARK H PARENT
REMARK Flexibility Score: inf
ROOT
ATOM      1  C   UNL     1     -19.624  27.903  -5.117  1.00  0.00     0.053 C 
ENDROOT
BRANCH   1   2
ATOM      2  C   UNL     1     -20.158  29.051  -4.316  1.00  0.00     0.041 C 
ATOM      3  O   UNL     1     -21.125  29.730  -4.752  1.00  0.00    -0.550 OA
ATOM      4  O   UNL     1     -19.611  29.349  -3.076  1.00  0.00    -0.550 OA
ENDBRANCH   1   2
BRANCH   1   5
ATOM      5  C   UNL     1     -20.543  26.673  -5.045  1.00  0.00     0.006 C 
BRANCH   5   6
ATOM      6  C   UNL     1     -20.681  26.071  -3.636  1.00  0.00    -0.003 C 
ATOM      7  C   UNL     1     -19.333  25.730  -3.001  1.00  0.00     0.004 C 
ENDBRANCH   5   6
ENDBRANCH   1   5
TORSDOF 3
ENDMDL
MODEL 6
REMARK VINA RESULT:    -2.202     23.313     23.973
REMARK INTER + INTRA:          -2.634
REMARK INTER:                  -2.628
REMARK INTRA:                  -0.006
REMARK UNBOUND:                -0.046
REMARK SMILES CCCCC(=O)[O-]
REMARK SMILES IDX 4 1 5 2 6 3 7 4 3 5 2 6 1 7
REMARK H PARENT
REMARK Flexibility Score: inf
ROOT
ATOM      1  C   UNL     1     -20.247  27.704  -3.405  1.00  0.00     0.053 C 
ENDROOT
BRANCH   1   2
ATOM      2  C   UNL     1     -20.199  28.135  -4.838  1.00  0.00     0.041 C 
ATOM      3  O   UNL     1     -20.256  29.358  -5.133  1.00  0.00    -0.550 OA
ATOM      4  O   UNL     1     -20.060  27.190  -5.846  1.00  0.00    -0.550 OA
ENDBRANCH   1   2
BRANCH   1   5
ATOM      5  C   UNL     1     -20.217  26.173  -3.263  1.00  0.00     0.006 C 
BRANCH   5   6
ATOM      6  C   UNL     1     -18.833  25.602  -2.905  1.00  0.00    -0.003 C 
ATOM      7  C   UNL     1     -17.739  26.669  -2.875  1.00  0.00     0.004 C 
ENDBRANCH   5   6
ENDBRANCH   1   5
TORSDOF 3
ENDMDL
MODEL 7
REMARK VINA RESULT:    -1.860     23.058     23.640
REMARK INTER + INTRA:          -2.233
REMARK INTER:                  -2.201
REMARK INTRA:                  -0.032
REMARK UNBOUND:                -0.046
REMARK SMILES CCCCC(=O)[O-]
REMARK SMILES IDX 4 1 5 2 6 3 7 4 3 5 2 6 1 7
REMARK H PARENT
REMARK Flexibility Score: inf
ROOT
ATOM      1  C   UNL     1     -19.676  27.122  -4.220  1.00  0.00     0.053 C 
ENDROOT
BRANCH   1   2
ATOM      2  C   UNL     1     -18.686  26.494  -3.288  1.00  0.00     0.041 C 
ATOM      3  O   UNL     1     -18.864  25.318  -2.875  1.00  0.00    -0.550 OA
ATOM      4  O   UNL     1     -17.551  27.195  -2.902  1.00  0.00    -0.550 OA
ENDBRANCH   1   2
BRANCH   1   5
ATOM      5  C   UNL     1     -21.007  26.353  -4.250  1.00  0.00     0.006 C 
BRANCH   5   6
ATOM      6  C   UNL     1     -21.125  25.343  -5.404  1.00  0.00    -0.003 C 
ATOM      7  C   UNL     1     -20.753  25.943  -6.760  1.00  0.00     0.004 C 
ENDBRANCH   5   6
ENDBRANCH   1   5
TORSDOF 3
ENDMDL
MODEL 8
REMARK VINA RESULT:    -1.477     28.670     29.337
REMARK INTER + INTRA:          -1.782
REMARK INTER:                  -1.696
REMARK INTRA:                  -0.086
REMARK UNBOUND:                -0.046
REMARK SMILES CCCCC(=O)[O-]
REMARK SMILES IDX 4 1 5 2 6 3 7 4 3 5 2 6 1 7
REMARK H PARENT
REMARK Flexibility Score: inf
ROOT
ATOM      1  C   UNL     1     -18.683  43.327  -3.516  1.00  0.00     0.053 C 
ENDROOT
BRANCH   1   2
ATOM      2  C   UNL     1     -18.569  41.897  -3.085  1.00  0.00     0.041 C 
ATOM      3  O   UNL     1     -17.436  41.386  -2.883  1.00  0.00    -0.550 OA
ATOM      4  O   UNL     1     -19.714  41.139  -2.876  1.00  0.00    -0.550 OA
ENDBRANCH   1   2
BRANCH   1   5
ATOM      5  C   UNL     1     -19.911  44.018  -2.900  1.00  0.00     0.006 C 
BRANCH   5   6
ATOM      6  C   UNL     1     -20.941  44.509  -3.932  1.00  0.00    -0.003 C 
ATOM      7  C   UNL     1     -21.082  43.564  -5.126  1.00  0.00     0.004 C 
ENDBRANCH   5   6
ENDBRANCH   1   5
TORSDOF 3
ENDMDL
MODEL 9
REMARK VINA RESULT:    -1.250     28.539     29.293
REMARK INTER + INTRA:          -1.516
REMARK INTER:                  -1.498
REMARK INTRA:                  -0.018
REMARK UNBOUND:                -0.046
REMARK SMILES CCCCC(=O)[O-]
REMARK SMILES IDX 4 1 5 2 6 3 7 4 3 5 2 6 1 7
REMARK H PARENT
REMARK Flexibility Score: inf
ROOT
ATOM      1  C   UNL     1     -21.124  41.470  -4.344  1.00  0.00     0.053 C 
ENDROOT
BRANCH   1   2
ATOM      2  C   UNL     1     -21.024  39.988  -4.148  1.00  0.00     0.041 C 
ATOM      3  O   UNL     1     -21.076  39.214  -5.140  1.00  0.00    -0.550 OA
ATOM      4  O   UNL     1     -20.840  39.465  -2.875  1.00  0.00    -0.550 OA
ENDBRANCH   1   2
BRANCH   1   5
ATOM      5  C   UNL     1     -20.432  42.249  -3.213  1.00  0.00     0.006 C 
BRANCH   5   6
ATOM      6  C   UNL     1     -20.530  43.778  -3.350  1.00  0.00    -0.003 C 
ATOM      7  C   UNL     1     -19.204  44.486  -3.072  1.00  0.00     0.004 C 
ENDBRANCH   5   6
ENDBRANCH   1   5
TORSDOF 3
ENDMDL
