MODEL 1
REMARK VINA RESULT:    -3.750      0.000      0.000
REMARK INTER + INTRA:          -3.863
REMARK INTER:                  -4.627
REMARK INTRA:                   0.764
REMARK UNBOUND:                 0.764
REMARK SMILES CC1=CC=CC(C)(C)CC1=O
REMARK SMILES IDX 1 1 2 2 3 3 10 4 11 5 9 6 4 8 5 9 6 10 7 11 8 12
REMARK H PARENT
REMARK Flexibility Score: 80.00
ROOT
ATOM      1  C   UNL     1       9.893  48.496  18.422  1.00  0.00     0.048 C 
ATOM      2  C   UNL     1      10.489  47.125  18.640  1.00  0.00    -0.008 C 
ATOM      3  C   UNL     1       9.871  46.307  19.518  1.00  0.00     0.007 C 
ENDROOT
BRANCH   2   4
ATOM      4  C   UNL     1      11.751  46.816  17.924  1.00  0.00     0.159 C 
ATOM      5  O   UNL     1      12.354  47.747  17.323  1.00  0.00    -0.295 OA
BRANCH   4   6
ATOM      6  C   UNL     1      12.351  45.445  17.861  1.00  0.00     0.091 CG0
ATOM      7  G   UNL     1      12.675  44.857  19.253  1.00  0.00     0.000 G0
ENDBRANCH   4   6
ENDBRANCH   2   4
BRANCH   3   8
ATOM      8  C   UNL     1      10.228  44.936  19.955  1.00  0.00    -0.003 C 
ATOM      9  C   UNL     1      11.402  44.300  19.864  1.00  0.00    -0.020 C 
BRANCH   9  10
ATOM     10  C   UNL     1      12.671  44.842  19.250  1.00  0.00    -0.010 CG0
ATOM     11  C   UNL     1      13.654  43.666  19.048  1.00  0.00     0.016 C 
ATOM     12  C   UNL     1      13.332  45.856  20.212  1.00  0.00     0.016 C 
ATOM     13  G   UNL     1      12.360  45.451  17.864  1.00  0.00     0.000 G0
ENDBRANCH   9  10
ENDBRANCH   3   8
TORSDOF 0
ENDMDL
MODEL 2
REMARK VINA RESULT:    -3.536      1.684      2.734
REMARK INTER + INTRA:          -3.598
REMARK INTER:                  -4.354
REMARK INTRA:                   0.756
REMARK UNBOUND:                 0.764
REMARK SMILES CC1=CC=CC(C)(C)CC1=O
REMARK SMILES IDX 1 1 2 2 3 3 10 4 11 5 9 6 4 8 5 9 6 10 7 11 8 12
REMARK H PARENT
REMARK Flexibility Score: 80.00
ROOT
ATOM      1  C   UNL     1       9.877  44.259  20.117  1.00  0.00     0.048 C 
ATOM      2  C   UNL     1      11.276  44.381  19.557  1.00  0.00    -0.008 C 
ATOM      3  C   UNL     1      12.034  43.265  19.520  1.00  0.00     0.007 C 
ENDROOT
BRANCH   2   4
ATOM      4  C   UNL     1      11.728  45.738  19.162  1.00  0.00     0.159 C 
ATOM      5  O   UNL     1      11.029  46.734  19.493  1.00  0.00    -0.295 OA
BRANCH   4   6
ATOM      6  C   UNL     1      12.974  45.995  18.371  1.00  0.00     0.091 CG0
ATOM      7  G   UNL     1      14.254  45.476  19.065  1.00  0.00     0.000 G0
ENDBRANCH   4   6
ENDBRANCH   2   4
BRANCH   3   8
ATOM      8  C   UNL     1      13.430  43.079  19.058  1.00  0.00    -0.003 C 
ATOM      9  C   UNL     1      14.387  43.996  18.871  1.00  0.00    -0.020 C 
BRANCH   9  10
ATOM     10  C   UNL     1      14.251  45.487  19.067  1.00  0.00    -0.010 CG0
ATOM     11  C   UNL     1      15.459  46.178  18.394  1.00  0.00     0.016 C 
ATOM     12  C   UNL     1      14.288  45.826  20.575  1.00  0.00     0.016 C 
ATOM     13  G   UNL     1      12.963  45.988  18.375  1.00  0.00     0.000 G0
ENDBRANCH   9  10
ENDBRANCH   3   8
TORSDOF 0
ENDMDL
MODEL 3
REMARK VINA RESULT:    -3.422      1.977      3.338
REMARK INTER + INTRA:          -3.459
REMARK INTER:                  -4.209
REMARK INTRA:                   0.750
REMARK UNBOUND:                 0.764
REMARK SMILES CC1=CC=CC(C)(C)CC1=O
REMARK SMILES IDX 1 1 2 2 3 3 10 4 11 5 9 6 4 8 5 9 6 10 7 11 8 12
REMARK H PARENT
REMARK Flexibility Score: 80.00
ROOT
ATOM      1  C   UNL     1      10.535  42.757  19.931  1.00  0.00     0.048 C 
ATOM      2  C   UNL     1      11.341  43.977  19.551  1.00  0.00    -0.008 C 
ATOM      3  C   UNL     1      10.682  45.148  19.428  1.00  0.00     0.007 C 
ENDROOT
BRANCH   2   4
ATOM      4  C   UNL     1      12.784  43.772  19.272  1.00  0.00     0.159 C 
ATOM      5  O   UNL     1      13.225  42.594  19.176  1.00  0.00    -0.295 OA
BRANCH   4   6
ATOM      6  C   UNL     1      13.761  44.896  19.109  1.00  0.00     0.091 CG0
ATOM      7  G   UNL     1      13.395  45.859  17.957  1.00  0.00     0.000 G0
ENDBRANCH   4   6
ENDBRANCH   2   4
BRANCH   3   8
ATOM      8  C   UNL     1      11.188  46.489  19.049  1.00  0.00    -0.003 C 
ATOM      9  C   UNL     1      12.323  46.816  18.419  1.00  0.00    -0.020 C 
BRANCH   9  10
ATOM     10  C   UNL     1      13.400  45.863  17.958  1.00  0.00    -0.010 CG0
ATOM     11  C   UNL     1      14.665  46.685  17.622  1.00  0.00     0.016 C 
ATOM     12  C   UNL     1      12.947  45.137  16.670  1.00  0.00     0.016 C 
ATOM     13  G   UNL     1      13.753  44.884  19.101  1.00  0.00     0.000 G0
ENDBRANCH   9  10
ENDBRANCH   3   8
TORSDOF 0
ENDMDL
MODEL 4
REMARK VINA RESULT:    -3.360      1.913      2.964
REMARK INTER + INTRA:          -3.382
REMARK INTER:                  -4.151
REMARK INTRA:                   0.769
REMARK UNBOUND:                 0.764
REMARK SMILES CC1=CC=CC(C)(C)CC1=O
REMARK SMILES IDX 1 1 2 2 3 3 10 4 11 5 9 6 4 8 5 9 6 10 7 11 8 12
REMARK H PARENT
REMARK Flexibility Score: 80.00
ROOT
ATOM      1  C   UNL     1      10.026  46.562  19.118  1.00  0.00     0.048 C 
ATOM      2  C   UNL     1      11.502  46.454  18.813  1.00  0.00    -0.008 C 
ATOM      3  C   UNL     1      11.945  47.006  17.664  1.00  0.00     0.007 C 
ENDROOT
BRANCH   2   4
ATOM      4  C   UNL     1      12.334  45.685  19.771  1.00  0.00     0.159 C 
ATOM      5  O   UNL     1      11.761  44.989  20.653  1.00  0.00    -0.295 OA
BRANCH   4   6
ATOM      6  C   UNL     1      13.832  45.697  19.758  1.00  0.00     0.091 CG0
ATOM      7  G   UNL     1      14.434  45.198  18.425  1.00  0.00     0.000 G0
ENDBRANCH   4   6
ENDBRANCH   2   4
BRANCH   3   8
ATOM      8  C   UNL     1      13.311  47.038  17.089  1.00  0.00    -0.003 C 
ATOM      9  C   UNL     1      14.370  46.274  17.384  1.00  0.00    -0.020 C 
BRANCH   9  10
ATOM     10  C   UNL     1      14.426  45.184  18.428  1.00  0.00    -0.010 CG0
ATOM     11  C   UNL     1      15.909  44.822  18.672  1.00  0.00     0.016 C 
ATOM     12  C   UNL     1      13.705  43.919  17.909  1.00  0.00     0.016 C 
ATOM     13  G   UNL     1      13.833  45.704  19.757  1.00  0.00     0.000 G0
ENDBRANCH   9  10
ENDBRANCH   3   8
TORSDOF 0
ENDMDL
MODEL 5
REMARK VINA RESULT:    -3.345      2.276      4.449
REMARK INTER + INTRA:          -3.362
REMARK INTER:                  -4.113
REMARK INTRA:                   0.751
REMARK UNBOUND:                 0.764
REMARK SMILES CC1=CC=CC(C)(C)CC1=O
REMARK SMILES IDX 1 1 2 2 3 3 10 4 11 5 9 6 4 8 5 9 6 10 7 11 8 12
REMARK H PARENT
REMARK Flexibility Score: 80.00
ROOT
ATOM      1  C   UNL     1      17.173  43.881  20.421  1.00  0.00     0.048 C 
ATOM      2  C   UNL     1      15.708  44.180  20.203  1.00  0.00    -0.008 C 
ATOM      3  C   UNL     1      14.962  43.236  19.591  1.00  0.00     0.007 C 
ENDROOT
BRANCH   2   4
ATOM      4  C   UNL     1      15.224  45.521  20.614  1.00  0.00     0.159 C 
ATOM      5  O   UNL     1      16.068  46.395  20.951  1.00  0.00    -0.295 OA
BRANCH   4   6
ATOM      6  C   UNL     1      13.775  45.896  20.666  1.00  0.00     0.091 CG0
ATOM      7  G   UNL     1      13.057  45.741  19.306  1.00  0.00     0.000 G0
ENDBRANCH   4   6
ENDBRANCH   2   4
BRANCH   3   8
ATOM      8  C   UNL     1      13.526  43.250  19.222  1.00  0.00    -0.003 C 
ATOM      9  C   UNL     1      12.700  44.294  19.085  1.00  0.00    -0.020 C 
BRANCH   9  10
ATOM     10  C   UNL     1      13.045  45.747  19.311  1.00  0.00    -0.010 CG0
ATOM     11  C   UNL     1      11.728  46.551  19.401  1.00  0.00     0.016 C 
ATOM     12  C   UNL     1      13.853  46.290  18.109  1.00  0.00     0.016 C 
ATOM     13  G   UNL     1      13.796  45.902  20.653  1.00  0.00     0.000 G0
ENDBRANCH   9  10
ENDBRANCH   3   8
TORSDOF 0
ENDMDL
MODEL 6
REMARK VINA RESULT:    -3.289      1.952      2.739
REMARK INTER + INTRA:          -3.294
REMARK INTER:                  -4.049
REMARK INTRA:                   0.754
REMARK UNBOUND:                 0.764
REMARK SMILES CC1=CC=CC(C)(C)CC1=O
REMARK SMILES IDX 1 1 2 2 3 3 10 4 11 5 9 6 4 8 5 9 6 10 7 11 8 12
REMARK H PARENT
REMARK Flexibility Score: 80.00
ROOT
ATOM      1  C   UNL     1      11.201  46.949  18.423  1.00  0.00     0.048 C 
ATOM      2  C   UNL     1      12.407  46.152  18.862  1.00  0.00    -0.008 C 
ATOM      3  C   UNL     1      12.732  46.181  20.172  1.00  0.00     0.007 C 
ENDROOT
BRANCH   2   4
ATOM      4  C   UNL     1      13.181  45.460  17.803  1.00  0.00     0.159 C 
ATOM      5  O   UNL     1      12.930  45.724  16.595  1.00  0.00    -0.295 OA
BRANCH   4   6
ATOM      6  C   UNL     1      14.245  44.445  18.086  1.00  0.00     0.091 CG0
ATOM      7  G   UNL     1      15.414  45.007  18.927  1.00  0.00     0.000 G0
ENDBRANCH   4   6
ENDBRANCH   2   4
BRANCH   3   8
ATOM      8  C   UNL     1      13.856  45.532  20.887  1.00  0.00    -0.003 C 
ATOM      9  C   UNL     1      14.999  45.040  20.394  1.00  0.00    -0.020 C 
BRANCH   9  10
ATOM     10  C   UNL     1      15.408  45.007  18.941  1.00  0.00    -0.010 CG0
ATOM     11  C   UNL     1      16.606  44.041  18.795  1.00  0.00     0.016 C 
ATOM     12  C   UNL     1      15.872  46.412  18.491  1.00  0.00     0.016 C 
ATOM     13  G   UNL     1      14.244  44.461  18.084  1.00  0.00     0.000 G0
ENDBRANCH   9  10
ENDBRANCH   3   8
TORSDOF 0
ENDMDL
MODEL 7
REMARK VINA RESULT:    -3.256      3.628      5.664
REMARK INTER + INTRA:          -3.253
REMARK INTER:                  -4.004
REMARK INTRA:                   0.751
REMARK UNBOUND:                 0.764
REMARK SMILES CC1=CC=CC(C)(C)CC1=O
REMARK SMILES IDX 1 1 2 2 3 3 10 4 11 5 9 6 4 8 5 9 6 10 7 11 8 12
REMARK H PARENT
REMARK Flexibility Score: 80.00
ROOT
ATOM      1  C   UNL     1      19.340  46.082  20.606  1.00  0.00     0.048 C 
ATOM      2  C   UNL     1      17.968  45.536  20.285  1.00  0.00    -0.008 C 
ATOM      3  C   UNL     1      17.902  44.371  19.607  1.00  0.00     0.007 C 
ENDROOT
BRANCH   2   4
ATOM      4  C   UNL     1      16.802  46.364  20.680  1.00  0.00     0.159 C 
ATOM      5  O   UNL     1      17.000  47.548  21.069  1.00  0.00    -0.295 OA
BRANCH   4   6
ATOM      6  C   UNL     1      15.389  45.867  20.656  1.00  0.00     0.091 CG0
ATOM      7  G   UNL     1      14.929  45.407  19.255  1.00  0.00     0.000 G0
ENDBRANCH   4   6
ENDBRANCH   2   4
BRANCH   3   8
ATOM      8  C   UNL     1      16.720  43.611  19.133  1.00  0.00    -0.003 C 
ATOM      9  C   UNL     1      15.459  44.030  18.965  1.00  0.00    -0.020 C 
BRANCH   9  10
ATOM     10  C   UNL     1      14.927  45.413  19.256  1.00  0.00    -0.010 CG0
ATOM     11  C   UNL     1      13.383  45.345  19.273  1.00  0.00     0.016 C 
ATOM     12  C   UNL     1      15.349  46.387  18.132  1.00  0.00     0.016 C 
ATOM     13  G   UNL     1      15.403  45.872  20.653  1.00  0.00     0.000 G0
ENDBRANCH   9  10
ENDBRANCH   3   8
TORSDOF 0
ENDMDL
MODEL 8
REMARK VINA RESULT:    -3.233      2.597      3.199
REMARK INTER + INTRA:          -3.224
REMARK INTER:                  -3.983
REMARK INTRA:                   0.759
REMARK UNBOUND:                 0.764
REMARK SMILES CC1=CC=CC(C)(C)CC1=O
REMARK SMILES IDX 1 1 2 2 3 3 10 4 11 5 9 6 4 8 5 9 6 10 7 11 8 12
REMARK H PARENT
REMARK Flexibility Score: 80.00
ROOT
ATOM      1  C   UNL     1      12.854  46.892  16.802  1.00  0.00     0.048 C 
ATOM      2  C   UNL     1      13.520  45.821  17.634  1.00  0.00    -0.008 C 
ATOM      3  C   UNL     1      12.742  44.825  18.109  1.00  0.00     0.007 C 
ENDROOT
BRANCH   2   4
ATOM      4  C   UNL     1      14.965  45.991  17.922  1.00  0.00     0.159 C 
ATOM      5  O   UNL     1      15.517  47.089  17.639  1.00  0.00    -0.295 OA
BRANCH   4   6
ATOM      6  C   UNL     1      15.820  44.918  18.523  1.00  0.00     0.091 CG0
ATOM      7  G   UNL     1      15.322  44.448  19.909  1.00  0.00     0.000 G0
ENDBRANCH   4   6
ENDBRANCH   2   4
BRANCH   3   8
ATOM      8  C   UNL     1      13.098  43.665  18.961  1.00  0.00    -0.003 C 
ATOM      9  C   UNL     1      14.173  43.486  19.737  1.00  0.00    -0.020 C 
BRANCH   9  10
ATOM     10  C   UNL     1      15.326  44.446  19.908  1.00  0.00    -0.010 CG0
ATOM     11  C   UNL     1      16.488  43.692  20.595  1.00  0.00     0.016 C 
ATOM     12  C   UNL     1      14.907  45.615  20.829  1.00  0.00     0.016 C 
ATOM     13  G   UNL     1      15.816  44.924  18.522  1.00  0.00     0.000 G0
ENDBRANCH   9  10
ENDBRANCH   3   8
TORSDOF 0
ENDMDL
MODEL 9
REMARK VINA RESULT:    -3.179      2.388      4.397
REMARK INTER + INTRA:          -3.158
REMARK INTER:                  -3.935
REMARK INTRA:                   0.777
REMARK UNBOUND:                 0.764
REMARK SMILES CC1=CC=CC(C)(C)CC1=O
REMARK SMILES IDX 1 1 2 2 3 3 10 4 11 5 9 6 4 8 5 9 6 10 7 11 8 12
REMARK H PARENT
REMARK Flexibility Score: 80.00
ROOT
ATOM      1  C   UNL     1      17.077  43.934  18.848  1.00  0.00     0.048 C 
ATOM      2  C   UNL     1      15.665  44.429  18.638  1.00  0.00    -0.008 C 
ATOM      3  C   UNL     1      15.503  45.600  17.987  1.00  0.00     0.007 C 
ENDROOT
BRANCH   2   4
ATOM      4  C   UNL     1      14.571  43.620  19.231  1.00  0.00     0.159 C 
ATOM      5  O   UNL     1      14.866  42.695  20.036  1.00  0.00    -0.295 OA
BRANCH   4   6
ATOM      6  C   UNL     1      13.122  43.832  18.915  1.00  0.00     0.091 CG0
ATOM      7  G   UNL     1      12.623  45.252  19.268  1.00  0.00     0.000 G0
ENDBRANCH   4   6
ENDBRANCH   2   4
BRANCH   3   8
ATOM      8  C   UNL     1      14.263  46.342  17.659  1.00  0.00    -0.003 C 
ATOM      9  C   UNL     1      13.041  46.223  18.193  1.00  0.00    -0.020 C 
BRANCH   9  10
ATOM     10  C   UNL     1      12.624  45.251  19.270  1.00  0.00    -0.010 CG0
ATOM     11  C   UNL     1      11.080  45.227  19.331  1.00  0.00     0.016 C 
ATOM     12  C   UNL     1      13.147  45.730  20.644  1.00  0.00     0.016 C 
ATOM     13  G   UNL     1      13.114  43.830  18.909  1.00  0.00     0.000 G0
ENDBRANCH   9  10
ENDBRANCH   3   8
TORSDOF 0
ENDMDL
