MODEL 1
REMARK VINA RESULT:    -3.480      0.000      0.000
REMARK INTER + INTRA:          -4.824
REMARK INTER:                  -4.700
REMARK INTRA:                  -0.124
REMARK UNBOUND:                -0.124
REMARK SMILES [NH3+]CCCC[C@@H]([NH3+])C(=O)[O-]
REMARK SMILES IDX 4 1 3 2 2 3 1 4 5 8 6 9 7 10 8 14 9 15 10 16
REMARK H PARENT 1 5 1 6 1 7 7 11 7 12 7 13
REMARK Flexibility Score: inf
ROOT
ATOM      1  C   UNL     1     -23.450   6.379   7.081  1.00  0.00     0.012 C 
ENDROOT
BRANCH   1   2
ATOM      2  C   UNL     1     -23.581   6.397   5.551  1.00  0.00     0.061 C 
BRANCH   2   3
ATOM      3  C   UNL     1     -23.614   7.824   4.977  1.00  0.00     0.258 C 
BRANCH   3   4
ATOM      4  N   UNL     1     -23.050   8.805   5.905  1.00  0.00    -0.358 N 
ATOM      5  H   UNL     1     -22.619   9.600   5.379  1.00  0.00     0.344 HD
ATOM      6  H   UNL     1     -23.816   9.180   6.511  1.00  0.00     0.344 HD
ATOM      7  H   UNL     1     -22.335   8.355   6.522  1.00  0.00     0.344 HD
ENDBRANCH   3   4
ENDBRANCH   2   3
ENDBRANCH   1   2
BRANCH   1   8
ATOM      8  C   UNL     1     -23.513   4.941   7.619  1.00  0.00     0.072 C 
BRANCH   8   9
ATOM      9  C   UNL     1     -22.396   4.639   8.643  1.00  0.00     0.227 C 
BRANCH   9  10
ATOM     10  N   UNL     1     -22.944   4.337   9.974  1.00  0.00    -0.350 N 
ATOM     11  H   UNL     1     -22.627   3.391  10.287  1.00  0.00     0.345 HD
ATOM     12  H   UNL     1     -23.990   4.320   9.932  1.00  0.00     0.345 HD
ATOM     13  H   UNL     1     -22.642   5.054  10.673  1.00  0.00     0.345 HD
ENDBRANCH   9  10
BRANCH   9  14
ATOM     14  C   UNL     1     -21.559   3.488   8.153  1.00  0.00     0.099 C 
ATOM     15  O   UNL     1     -21.142   2.613   8.958  1.00  0.00    -0.544 OA
ATOM     16  O   UNL     1     -21.257   3.375   6.802  1.00  0.00    -0.544 OA
ENDBRANCH   9  14
ENDBRANCH   8   9
ENDBRANCH   1   8
TORSDOF 7
ENDMDL
MODEL 2
REMARK VINA RESULT:    -3.446      3.128      3.731
REMARK INTER + INTRA:          -4.778
REMARK INTER:                  -4.540
REMARK INTRA:                  -0.238
REMARK UNBOUND:                -0.124
REMARK SMILES [NH3+]CCCC[C@@H]([NH3+])C(=O)[O-]
REMARK SMILES IDX 4 1 3 2 2 3 1 4 5 8 6 9 7 10 8 14 9 15 10 16
REMARK H PARENT 1 5 1 6 1 7 7 11 7 12 7 13
REMARK Flexibility Score: inf
ROOT
ATOM      1  C   UNL     1     -22.492   4.063   7.720  1.00  0.00     0.012 C 
ENDROOT
BRANCH   1   2
ATOM      2  C   UNL     1     -22.757   5.278   8.620  1.00  0.00     0.061 C 
BRANCH   2   3
ATOM      3  C   UNL     1     -23.818   4.996   9.696  1.00  0.00     0.258 C 
BRANCH   3   4
ATOM      4  N   UNL     1     -23.225   4.801  11.020  1.00  0.00    -0.358 N 
ATOM      5  H   UNL     1     -22.197   4.996  10.992  1.00  0.00     0.344 HD
ATOM      6  H   UNL     1     -23.672   5.464  11.694  1.00  0.00     0.344 HD
ATOM      7  H   UNL     1     -23.395   3.826  11.357  1.00  0.00     0.344 HD
ENDBRANCH   3   4
ENDBRANCH   2   3
ENDBRANCH   1   2
BRANCH   1   8
ATOM      8  C   UNL     1     -21.162   3.387   8.089  1.00  0.00     0.072 C 
BRANCH   8   9
ATOM      9  C   UNL     1     -21.362   2.047   8.832  1.00  0.00     0.227 C 
BRANCH   9  10
ATOM     10  N   UNL     1     -22.748   1.569   8.732  1.00  0.00    -0.350 N 
ATOM     11  H   UNL     1     -23.363   2.110   9.381  1.00  0.00     0.345 HD
ATOM     12  H   UNL     1     -22.800   0.563   9.017  1.00  0.00     0.345 HD
ATOM     13  H   UNL     1     -23.106   1.665   7.753  1.00  0.00     0.345 HD
ENDBRANCH   9  10
BRANCH   9  14
ATOM     14  C   UNL     1     -20.416   1.015   8.277  1.00  0.00     0.099 C 
ATOM     15  O   UNL     1     -19.394   0.669   8.928  1.00  0.00    -0.544 OA
ATOM     16  O   UNL     1     -20.678   0.424   7.048  1.00  0.00    -0.544 OA
ENDBRANCH   9  14
ENDBRANCH   8   9
ENDBRANCH   1   8
TORSDOF 7
ENDMDL
MODEL 3
REMARK VINA RESULT:    -3.435      3.454      4.143
REMARK INTER + INTRA:          -4.763
REMARK INTER:                  -4.476
REMARK INTRA:                  -0.287
REMARK UNBOUND:                -0.124
REMARK SMILES [NH3+]CCCC[C@@H]([NH3+])C(=O)[O-]
REMARK SMILES IDX 4 1 3 2 2 3 1 4 5 8 6 9 7 10 8 14 9 15 10 16
REMARK H PARENT 1 5 1 6 1 7 7 11 7 12 7 13
REMARK Flexibility Score: inf
ROOT
ATOM      1  C   UNL     1     -21.823   4.010   8.477  1.00  0.00     0.012 C 
ENDROOT
BRANCH   1   2
ATOM      2  C   UNL     1     -22.672   5.254   8.779  1.00  0.00     0.061 C 
BRANCH   2   3
ATOM      3  C   UNL     1     -23.850   4.952   9.720  1.00  0.00     0.258 C 
BRANCH   3   4
ATOM      4  N   UNL     1     -23.437   4.907  11.124  1.00  0.00    -0.358 N 
ATOM      5  H   UNL     1     -23.735   5.778  11.621  1.00  0.00     0.344 HD
ATOM      6  H   UNL     1     -23.893   4.086  11.586  1.00  0.00     0.344 HD
ATOM      7  H   UNL     1     -22.401   4.790  11.196  1.00  0.00     0.344 HD
ENDBRANCH   3   4
ENDBRANCH   2   3
ENDBRANCH   1   2
BRANCH   1   8
ATOM      8  C   UNL     1     -22.180   3.425   7.101  1.00  0.00     0.072 C 
BRANCH   8   9
ATOM      9  C   UNL     1     -22.831   2.027   7.200  1.00  0.00     0.227 C 
BRANCH   9  10
ATOM     10  N   UNL     1     -22.614   1.416   8.519  1.00  0.00    -0.350 N 
ATOM     11  H   UNL     1     -23.523   1.084   8.915  1.00  0.00     0.345 HD
ATOM     12  H   UNL     1     -22.225   2.127   9.181  1.00  0.00     0.345 HD
ATOM     13  H   UNL     1     -21.949   0.611   8.452  1.00  0.00     0.345 HD
ENDBRANCH   9  10
BRANCH   9  14
ATOM     14  C   UNL     1     -24.306   2.135   6.914  1.00  0.00     0.099 C 
ATOM     15  O   UNL     1     -24.796   3.214   6.485  1.00  0.00    -0.544 OA
ATOM     16  O   UNL     1     -25.132   1.036   7.105  1.00  0.00    -0.544 OA
ENDBRANCH   9  14
ENDBRANCH   8   9
ENDBRANCH   1   8
TORSDOF 7
ENDMDL
MODEL 4
REMARK VINA RESULT:    -3.430     16.350     17.218
REMARK INTER + INTRA:          -4.757
REMARK INTER:                  -4.664
REMARK INTRA:                  -0.093
REMARK UNBOUND:                -0.124
REMARK SMILES [NH3+]CCCC[C@@H]([NH3+])C(=O)[O-]
REMARK SMILES IDX 4 1 3 2 2 3 1 4 5 8 6 9 7 10 8 14 9 15 10 16
REMARK H PARENT 1 5 1 6 1 7 7 11 7 12 7 13
REMARK Flexibility Score: inf
ROOT
ATOM      1  C   UNL     1     -23.496  -4.421  -6.523  1.00  0.00     0.012 C 
ENDROOT
BRANCH   1   2
ATOM      2  C   UNL     1     -23.606  -4.742  -5.026  1.00  0.00     0.061 C 
BRANCH   2   3
ATOM      3  C   UNL     1     -23.879  -6.232  -4.759  1.00  0.00     0.258 C 
BRANCH   3   4
ATOM      4  N   UNL     1     -23.142  -7.101  -5.678  1.00  0.00    -0.358 N 
ATOM      5  H   UNL     1     -22.912  -8.011  -5.215  1.00  0.00     0.344 HD
ATOM      6  H   UNL     1     -23.738  -7.294  -6.515  1.00  0.00     0.344 HD
ATOM      7  H   UNL     1     -22.265  -6.632  -6.000  1.00  0.00     0.344 HD
ENDBRANCH   3   4
ENDBRANCH   2   3
ENDBRANCH   1   2
BRANCH   1   8
ATOM      8  C   UNL     1     -23.467  -2.902  -6.757  1.00  0.00     0.072 C 
BRANCH   8   9
ATOM      9  C   UNL     1     -22.457  -2.487  -7.851  1.00  0.00     0.227 C 
BRANCH   9  10
ATOM     10  N   UNL     1     -23.126  -2.188  -9.125  1.00  0.00    -0.350 N 
ATOM     11  H   UNL     1     -22.643  -2.682  -9.909  1.00  0.00     0.345 HD
ATOM     12  H   UNL     1     -23.074  -1.161  -9.322  1.00  0.00     0.345 HD
ATOM     13  H   UNL     1     -24.131  -2.480  -9.096  1.00  0.00     0.345 HD
ENDBRANCH   9  10
BRANCH   9  14
ATOM     14  C   UNL     1     -21.670  -1.291  -7.384  1.00  0.00     0.099 C 
ATOM     15  O   UNL     1     -21.238  -1.232  -6.203  1.00  0.00    -0.544 OA
ATOM     16  O   UNL     1     -21.401  -0.251  -8.265  1.00  0.00    -0.544 OA
ENDBRANCH   9  14
ENDBRANCH   8   9
ENDBRANCH   1   8
TORSDOF 7
ENDMDL
MODEL 5
REMARK VINA RESULT:    -3.398      7.899      9.487
REMARK INTER + INTRA:          -4.714
REMARK INTER:                  -4.126
REMARK INTRA:                  -0.588
REMARK UNBOUND:                -0.124
REMARK SMILES [NH3+]CCCC[C@@H]([NH3+])C(=O)[O-]
REMARK SMILES IDX 4 1 3 2 2 3 1 4 5 8 6 9 7 10 8 14 9 15 10 16
REMARK H PARENT 1 5 1 6 1 7 7 11 7 12 7 13
REMARK Flexibility Score: inf
ROOT
ATOM      1  C   UNL     1     -30.654  11.404   3.102  1.00  0.00     0.012 C 
ENDROOT
BRANCH   1   2
ATOM      2  C   UNL     1     -31.540  10.493   3.964  1.00  0.00     0.061 C 
BRANCH   2   3
ATOM      3  C   UNL     1     -31.400  10.785   5.468  1.00  0.00     0.258 C 
BRANCH   3   4
ATOM      4  N   UNL     1     -30.591   9.775   6.153  1.00  0.00    -0.358 N 
ATOM      5  H   UNL     1     -29.572   9.991   6.049  1.00  0.00     0.344 HD
ATOM      6  H   UNL     1     -30.831   9.780   7.171  1.00  0.00     0.344 HD
ATOM      7  H   UNL     1     -30.796   8.823   5.772  1.00  0.00     0.344 HD
ENDBRANCH   3   4
ENDBRANCH   2   3
ENDBRANCH   1   2
BRANCH   1   8
ATOM      8  C   UNL     1     -29.499  10.608   2.474  1.00  0.00     0.072 C 
BRANCH   8   9
ATOM      9  C   UNL     1     -28.151  10.851   3.189  1.00  0.00     0.227 C 
BRANCH   9  10
ATOM     10  N   UNL     1     -28.223  11.988   4.118  1.00  0.00    -0.350 N 
ATOM     11  H   UNL     1     -27.296  12.465   4.176  1.00  0.00     0.345 HD
ATOM     12  H   UNL     1     -28.461  11.647   5.079  1.00  0.00     0.345 HD
ATOM     13  H   UNL     1     -28.950  12.675   3.810  1.00  0.00     0.345 HD
ENDBRANCH   9  10
BRANCH   9  14
ATOM     14  C   UNL     1     -27.738   9.604   3.926  1.00  0.00     0.099 C 
ATOM     15  O   UNL     1     -26.554   9.465   4.334  1.00  0.00    -0.544 OA
ATOM     16  O   UNL     1     -28.671   8.606   4.177  1.00  0.00    -0.544 OA
ENDBRANCH   9  14
ENDBRANCH   8   9
ENDBRANCH   1   8
TORSDOF 7
ENDMDL
MODEL 6
REMARK VINA RESULT:    -3.362      2.883      3.569
REMARK INTER + INTRA:          -4.664
REMARK INTER:                  -4.387
REMARK INTRA:                  -0.278
REMARK UNBOUND:                -0.124
REMARK SMILES [NH3+]CCCC[C@@H]([NH3+])C(=O)[O-]
REMARK SMILES IDX 4 1 3 2 2 3 1 4 5 8 6 9 7 10 8 14 9 15 10 16
REMARK H PARENT 1 5 1 6 1 7 7 11 7 12 7 13
REMARK Flexibility Score: inf
ROOT
ATOM      1  C   UNL     1     -23.326   4.509   7.461  1.00  0.00     0.012 C 
ENDROOT
BRANCH   1   2
ATOM      2  C   UNL     1     -23.024   5.358   8.704  1.00  0.00     0.061 C 
BRANCH   2   3
ATOM      3  C   UNL     1     -23.965   5.043   9.879  1.00  0.00     0.258 C 
BRANCH   3   4
ATOM      4  N   UNL     1     -23.232   4.762  11.114  1.00  0.00    -0.358 N 
ATOM      5  H   UNL     1     -23.583   5.366  11.893  1.00  0.00     0.344 HD
ATOM      6  H   UNL     1     -23.379   3.760  11.376  1.00  0.00     0.344 HD
ATOM      7  H   UNL     1     -22.208   4.918  10.974  1.00  0.00     0.344 HD
ENDBRANCH   3   4
ENDBRANCH   2   3
ENDBRANCH   1   2
BRANCH   1   8
ATOM      8  C   UNL     1     -22.910   3.046   7.683  1.00  0.00     0.072 C 
BRANCH   8   9
ATOM      9  C   UNL     1     -21.432   2.905   8.111  1.00  0.00     0.227 C 
BRANCH   9  10
ATOM     10  N   UNL     1     -21.294   2.120   9.346  1.00  0.00    -0.350 N 
ATOM     11  H   UNL     1     -20.636   2.596  10.003  1.00  0.00     0.345 HD
ATOM     12  H   UNL     1     -20.891   1.179   9.126  1.00  0.00     0.345 HD
ATOM     13  H   UNL     1     -22.222   1.994   9.813  1.00  0.00     0.345 HD
ENDBRANCH   9  10
BRANCH   9  14
ATOM     14  C   UNL     1     -20.642   2.266   6.999  1.00  0.00     0.099 C 
ATOM     15  O   UNL     1     -20.687   2.737   5.831  1.00  0.00    -0.544 OA
ATOM     16  O   UNL     1     -19.843   1.162   7.261  1.00  0.00    -0.544 OA
ENDBRANCH   9  14
ENDBRANCH   8   9
ENDBRANCH   1   8
TORSDOF 7
ENDMDL
MODEL 7
REMARK VINA RESULT:    -3.325      8.986      9.895
REMARK INTER + INTRA:          -4.616
REMARK INTER:                  -4.078
REMARK INTRA:                  -0.538
REMARK UNBOUND:                -0.124
REMARK SMILES [NH3+]CCCC[C@@H]([NH3+])C(=O)[O-]
REMARK SMILES IDX 4 1 3 2 2 3 1 4 5 8 6 9 7 10 8 14 9 15 10 16
REMARK H PARENT 1 5 1 6 1 7 7 11 7 12 7 13
REMARK Flexibility Score: inf
ROOT
ATOM      1  C   UNL     1     -31.745   8.848   3.579  1.00  0.00     0.012 C 
ENDROOT
BRANCH   1   2
ATOM      2  C   UNL     1     -31.164   8.526   2.195  1.00  0.00     0.061 C 
BRANCH   2   3
ATOM      3  C   UNL     1     -29.999   7.524   2.260  1.00  0.00     0.258 C 
BRANCH   3   4
ATOM      4  N   UNL     1     -29.663   7.158   3.637  1.00  0.00    -0.358 N 
ATOM      5  H   UNL     1     -30.414   6.558   4.050  1.00  0.00     0.344 HD
ATOM      6  H   UNL     1     -28.767   6.618   3.636  1.00  0.00     0.344 HD
ATOM      7  H   UNL     1     -29.529   8.015   4.220  1.00  0.00     0.344 HD
ENDBRANCH   3   4
ENDBRANCH   2   3
ENDBRANCH   1   2
BRANCH   1   8
ATOM      8  C   UNL     1     -31.666  10.354   3.871  1.00  0.00     0.072 C 
BRANCH   8   9
ATOM      9  C   UNL     1     -30.590  10.702   4.924  1.00  0.00     0.227 C 
BRANCH   9  10
ATOM     10  N   UNL     1     -30.665   9.814   6.093  1.00  0.00    -0.350 N 
ATOM     11  H   UNL     1     -29.844   9.974   6.720  1.00  0.00     0.345 HD
ATOM     12  H   UNL     1     -30.632   8.814   5.783  1.00  0.00     0.345 HD
ATOM     13  H   UNL     1     -31.549   9.976   6.629  1.00  0.00     0.345 HD
ENDBRANCH   9  10
BRANCH   9  14
ATOM     14  C   UNL     1     -29.223  10.620   4.296  1.00  0.00     0.099 C 
ATOM     15  O   UNL     1     -28.851  11.486   3.461  1.00  0.00    -0.544 OA
ATOM     16  O   UNL     1     -28.357   9.594   4.652  1.00  0.00    -0.544 OA
ENDBRANCH   9  14
ENDBRANCH   8   9
ENDBRANCH   1   8
TORSDOF 7
ENDMDL
MODEL 8
REMARK VINA RESULT:    -3.289      8.645     10.085
REMARK INTER + INTRA:          -4.567
REMARK INTER:                  -4.079
REMARK INTRA:                  -0.488
REMARK UNBOUND:                -0.124
REMARK SMILES [NH3+]CCCC[C@@H]([NH3+])C(=O)[O-]
REMARK SMILES IDX 4 1 3 2 2 3 1 4 5 8 6 9 7 10 8 14 9 15 10 16
REMARK H PARENT 1 5 1 6 1 7 7 11 7 12 7 13
REMARK Flexibility Score: inf
ROOT
ATOM      1  C   UNL     1     -31.240  11.737   3.647  1.00  0.00     0.012 C 
ENDROOT
BRANCH   1   2
ATOM      2  C   UNL     1     -32.054  11.317   2.415  1.00  0.00     0.061 C 
BRANCH   2   3
ATOM      3  C   UNL     1     -31.164  10.927   1.223  1.00  0.00     0.258 C 
BRANCH   3   4
ATOM      4  N   UNL     1     -31.204   9.489   0.952  1.00  0.00    -0.358 N 
ATOM      5  H   UNL     1     -32.186   9.131   1.017  1.00  0.00     0.344 HD
ATOM      6  H   UNL     1     -30.850   9.316  -0.017  1.00  0.00     0.344 HD
ATOM      7  H   UNL     1     -30.590   8.974   1.623  1.00  0.00     0.344 HD
ENDBRANCH   3   4
ENDBRANCH   2   3
ENDBRANCH   1   2
BRANCH   1   8
ATOM      8  C   UNL     1     -31.402  10.716   4.785  1.00  0.00     0.072 C 
BRANCH   8   9
ATOM      9  C   UNL     1     -30.047  10.218   5.335  1.00  0.00     0.227 C 
BRANCH   9  10
ATOM     10  N   UNL     1     -30.210   9.471   6.591  1.00  0.00    -0.350 N 
ATOM     11  H   UNL     1     -29.388   9.634   7.216  1.00  0.00     0.345 HD
ATOM     12  H   UNL     1     -30.253   8.444   6.390  1.00  0.00     0.345 HD
ATOM     13  H   UNL     1     -31.086   9.759   7.085  1.00  0.00     0.345 HD
ENDBRANCH   9  10
BRANCH   9  14
ATOM     14  C   UNL     1     -29.368   9.358   4.303  1.00  0.00     0.099 C 
ATOM     15  O   UNL     1     -30.031   8.527   3.628  1.00  0.00    -0.544 OA
ATOM     16  O   UNL     1     -28.004   9.491   4.077  1.00  0.00    -0.544 OA
ENDBRANCH   9  14
ENDBRANCH   8   9
ENDBRANCH   1   8
TORSDOF 7
ENDMDL
MODEL 9
REMARK VINA RESULT:    -3.289      2.946      5.096
REMARK INTER + INTRA:          -4.566
REMARK INTER:                  -4.050
REMARK INTRA:                  -0.516
REMARK UNBOUND:                -0.124
REMARK SMILES [NH3+]CCCC[C@@H]([NH3+])C(=O)[O-]
REMARK SMILES IDX 4 1 3 2 2 3 1 4 5 8 6 9 7 10 8 14 9 15 10 16
REMARK H PARENT 1 5 1 6 1 7 7 11 7 12 7 13
REMARK Flexibility Score: inf
ROOT
ATOM      1  C   UNL     1     -21.233   2.063   8.828  1.00  0.00     0.012 C 
ENDROOT
BRANCH   1   2
ATOM      2  C   UNL     1     -21.367   1.027   7.703  1.00  0.00     0.061 C 
BRANCH   2   3
ATOM      3  C   UNL     1     -22.413  -0.056   8.018  1.00  0.00     0.258 C 
BRANCH   3   4
ATOM      4  N   UNL     1     -23.516   0.461   8.829  1.00  0.00    -0.358 N 
ATOM      5  H   UNL     1     -24.395   0.509   8.263  1.00  0.00     0.344 HD
ATOM      6  H   UNL     1     -23.674  -0.183   9.638  1.00  0.00     0.344 HD
ATOM      7  H   UNL     1     -23.281   1.408   9.204  1.00  0.00     0.344 HD
ENDBRANCH   3   4
ENDBRANCH   2   3
ENDBRANCH   1   2
BRANCH   1   8
ATOM      8  C   UNL     1     -21.500   3.482   8.302  1.00  0.00     0.072 C 
BRANCH   8   9
ATOM      9  C   UNL     1     -22.918   3.988   8.648  1.00  0.00     0.227 C 
BRANCH   9  10
ATOM     10  N   UNL     1     -22.889   5.343   9.218  1.00  0.00    -0.350 N 
ATOM     11  H   UNL     1     -23.786   5.543   9.715  1.00  0.00     0.345 HD
ATOM     12  H   UNL     1     -22.791   6.049   8.451  1.00  0.00     0.345 HD
ATOM     13  H   UNL     1     -22.090   5.450   9.885  1.00  0.00     0.345 HD
ENDBRANCH   9  10
BRANCH   9  14
ATOM     14  C   UNL     1     -23.779   3.963   7.413  1.00  0.00     0.099 C 
ATOM     15  O   UNL     1     -23.884   4.988   6.687  1.00  0.00    -0.544 OA
ATOM     16  O   UNL     1     -24.448   2.799   7.056  1.00  0.00    -0.544 OA
ENDBRANCH   9  14
ENDBRANCH   8   9
ENDBRANCH   1   8
TORSDOF 7
ENDMDL
