MODEL 1
REMARK VINA RESULT:    -3.886      0.000      0.000
REMARK INTER + INTRA:          -4.348
REMARK INTER:                  -4.340
REMARK INTRA:                  -0.007
REMARK UNBOUND:                -0.007
REMARK SMILES CCCC(=O)[O-]
REMARK SMILES IDX 3 1 4 2 5 3 6 4 2 5 1 6
REMARK H PARENT
REMARK Flexibility Score: inf
ROOT
ATOM      1  C   UNL     1      17.687  24.397  11.608  1.00  0.00     0.052 C 
ENDROOT
BRANCH   1   2
ATOM      2  C   UNL     1      16.810  23.302  12.125  1.00  0.00     0.041 C 
ATOM      3  O   UNL     1      16.636  23.160  13.364  1.00  0.00    -0.550 OA
ATOM      4  O   UNL     1      16.221  22.405  11.241  1.00  0.00    -0.550 OA
ENDBRANCH   1   2
BRANCH   1   5
ATOM      5  C   UNL     1      18.601  23.873  10.498  1.00  0.00     0.003 C 
ATOM      6  C   UNL     1      19.946  24.594  10.503  1.00  0.00     0.004 C 
ENDBRANCH   1   5
TORSDOF 2
ENDMDL
MODEL 2
REMARK VINA RESULT:    -3.762      9.616     10.412
REMARK INTER + INTRA:          -4.209
REMARK INTER:                  -4.197
REMARK INTRA:                  -0.012
REMARK UNBOUND:                -0.007
REMARK SMILES CCCC(=O)[O-]
REMARK SMILES IDX 3 1 4 2 5 3 6 4 2 5 1 6
REMARK H PARENT
REMARK Flexibility Score: inf
ROOT
ATOM      1  C   UNL     1      19.042  24.997   1.155  1.00  0.00     0.052 C 
ENDROOT
BRANCH   1   2
ATOM      2  C   UNL     1      19.649  24.925   2.520  1.00  0.00     0.041 C 
ATOM      3  O   UNL     1      19.218  25.662   3.444  1.00  0.00    -0.550 OA
ATOM      4  O   UNL     1      20.725  24.078   2.759  1.00  0.00    -0.550 OA
ENDBRANCH   1   2
BRANCH   1   5
ATOM      5  C   UNL     1      18.839  26.455   0.735  1.00  0.00     0.003 C 
ATOM      6  C   UNL     1      17.848  26.564  -0.421  1.00  0.00     0.004 C 
ENDBRANCH   1   5
TORSDOF 2
ENDMDL
MODEL 3
REMARK VINA RESULT:    -3.755      2.300      3.460
REMARK INTER + INTRA:          -4.201
REMARK INTER:                  -4.191
REMARK INTRA:                  -0.010
REMARK UNBOUND:                -0.007
REMARK SMILES CCCC(=O)[O-]
REMARK SMILES IDX 3 1 4 2 5 3 6 4 2 5 1 6
REMARK H PARENT
REMARK Flexibility Score: inf
ROOT
ATOM      1  C   UNL     1      17.859  24.529  11.346  1.00  0.00     0.052 C 
ENDROOT
BRANCH   1   2
ATOM      2  C   UNL     1      18.928  24.009  10.440  1.00  0.00     0.041 C 
ATOM      3  O   UNL     1      18.641  23.197   9.521  1.00  0.00    -0.550 OA
ATOM      4  O   UNL     1      20.252  24.382  10.639  1.00  0.00    -0.550 OA
ENDBRANCH   1   2
BRANCH   1   5
ATOM      5  C   UNL     1      16.935  23.392  11.792  1.00  0.00     0.003 C 
ATOM      6  C   UNL     1      16.653  23.466  13.290  1.00  0.00     0.004 C 
ENDBRANCH   1   5
TORSDOF 2
ENDMDL
MODEL 4
REMARK VINA RESULT:    -3.719     10.757     11.532
REMARK INTER + INTRA:          -4.161
REMARK INTER:                  -4.119
REMARK INTRA:                  -0.041
REMARK UNBOUND:                -0.007
REMARK SMILES CCCC(=O)[O-]
REMARK SMILES IDX 3 1 4 2 5 3 6 4 2 5 1 6
REMARK H PARENT
REMARK Flexibility Score: inf
ROOT
ATOM      1  C   UNL     1      18.482  26.628   0.389  1.00  0.00     0.052 C 
ENDROOT
BRANCH   1   2
ATOM      2  C   UNL     1      19.053  25.582   1.291  1.00  0.00     0.041 C 
ATOM      3  O   UNL     1      19.090  25.770   2.536  1.00  0.00    -0.550 OA
ATOM      4  O   UNL     1      19.591  24.418   0.755  1.00  0.00    -0.550 OA
ENDBRANCH   1   2
BRANCH   1   5
ATOM      5  C   UNL     1      18.200  26.045  -0.998  1.00  0.00     0.003 C 
ATOM      6  C   UNL     1      16.750  25.586  -1.119  1.00  0.00     0.004 C 
ENDBRANCH   1   5
TORSDOF 2
ENDMDL
MODEL 5
REMARK VINA RESULT:    -3.706     10.565     11.409
REMARK INTER + INTRA:          -4.147
REMARK INTER:                  -4.108
REMARK INTRA:                  -0.038
REMARK UNBOUND:                -0.007
REMARK SMILES CCCC(=O)[O-]
REMARK SMILES IDX 3 1 4 2 5 3 6 4 2 5 1 6
REMARK H PARENT
REMARK Flexibility Score: inf
ROOT
ATOM      1  C   UNL     1      18.568  26.571   0.692  1.00  0.00     0.052 C 
ENDROOT
BRANCH   1   2
ATOM      2  C   UNL     1      19.209  25.483   1.492  1.00  0.00     0.041 C 
ATOM      3  O   UNL     1      19.611  24.433   0.925  1.00  0.00    -0.550 OA
ATOM      4  O   UNL     1      19.319  25.605   2.872  1.00  0.00    -0.550 OA
ENDBRANCH   1   2
BRANCH   1   5
ATOM      5  C   UNL     1      18.444  26.156  -0.776  1.00  0.00     0.003 C 
ATOM      6  C   UNL     1      17.005  25.786  -1.126  1.00  0.00     0.004 C 
ENDBRANCH   1   5
TORSDOF 2
ENDMDL
MODEL 6
REMARK VINA RESULT:    -3.696     10.241     11.141
REMARK INTER + INTRA:          -4.135
REMARK INTER:                  -4.123
REMARK INTRA:                  -0.013
REMARK UNBOUND:                -0.007
REMARK SMILES CCCC(=O)[O-]
REMARK SMILES IDX 3 1 4 2 5 3 6 4 2 5 1 6
REMARK H PARENT
REMARK Flexibility Score: inf
ROOT
ATOM      1  C   UNL     1      18.884  25.695   1.110  1.00  0.00     0.052 C 
ENDROOT
BRANCH   1   2
ATOM      2  C   UNL     1      18.530  24.907  -0.111  1.00  0.00     0.041 C 
ATOM      3  O   UNL     1      17.700  23.964  -0.038  1.00  0.00    -0.550 OA
ATOM      4  O   UNL     1      19.155  25.182  -1.321  1.00  0.00    -0.550 OA
ENDBRANCH   1   2
BRANCH   1   5
ATOM      5  C   UNL     1      19.571  24.800   2.145  1.00  0.00     0.003 C 
ATOM      6  C   UNL     1      19.350  25.324   3.561  1.00  0.00     0.004 C 
ENDBRANCH   1   5
TORSDOF 2
ENDMDL
MODEL 7
REMARK VINA RESULT:    -3.659     10.828     11.715
REMARK INTER + INTRA:          -4.093
REMARK INTER:                  -4.088
REMARK INTRA:                  -0.006
REMARK UNBOUND:                -0.007
REMARK SMILES CCCC(=O)[O-]
REMARK SMILES IDX 3 1 4 2 5 3 6 4 2 5 1 6
REMARK H PARENT
REMARK Flexibility Score: inf
ROOT
ATOM      1  C   UNL     1      18.789  26.261   0.753  1.00  0.00     0.052 C 
ENDROOT
BRANCH   1   2
ATOM      2  C   UNL     1      18.288  25.850  -0.594  1.00  0.00     0.041 C 
ATOM      3  O   UNL     1      19.079  25.361  -1.443  1.00  0.00    -0.550 OA
ATOM      4  O   UNL     1      16.955  26.051  -0.932  1.00  0.00    -0.550 OA
ENDBRANCH   1   2
BRANCH   1   5
ATOM      5  C   UNL     1      19.237  25.037   1.556  1.00  0.00     0.003 C 
ATOM      6  C   UNL     1      19.393  25.374   3.036  1.00  0.00     0.004 C 
ENDBRANCH   1   5
TORSDOF 2
ENDMDL
MODEL 8
REMARK VINA RESULT:    -3.596     11.789     12.616
REMARK INTER + INTRA:          -4.023
REMARK INTER:                  -4.036
REMARK INTRA:                   0.012
REMARK UNBOUND:                -0.007
REMARK SMILES CCCC(=O)[O-]
REMARK SMILES IDX 3 1 4 2 5 3 6 4 2 5 1 6
REMARK H PARENT
REMARK Flexibility Score: inf
ROOT
ATOM      1  C   UNL     1      17.452  26.575  -0.328  1.00  0.00     0.052 C 
ENDROOT
BRANCH   1   2
ATOM      2  C   UNL     1      17.491  25.575  -1.439  1.00  0.00     0.041 C 
ATOM      3  O   UNL     1      18.561  24.971  -1.710  1.00  0.00    -0.550 OA
ATOM      4  O   UNL     1      16.357  25.344  -2.208  1.00  0.00    -0.550 OA
ENDBRANCH   1   2
BRANCH   1   5
ATOM      5  C   UNL     1      18.831  26.706   0.324  1.00  0.00     0.003 C 
ATOM      6  C   UNL     1      18.958  25.787   1.535  1.00  0.00     0.004 C 
ENDBRANCH   1   5
TORSDOF 2
ENDMDL
MODEL 9
REMARK VINA RESULT:    -3.508     11.546     12.348
REMARK INTER + INTRA:          -3.926
REMARK INTER:                  -3.907
REMARK INTRA:                  -0.018
REMARK UNBOUND:                -0.007
REMARK SMILES CCCC(=O)[O-]
REMARK SMILES IDX 3 1 4 2 5 3 6 4 2 5 1 6
REMARK H PARENT
REMARK Flexibility Score: inf
ROOT
ATOM      1  C   UNL     1      17.964  24.919  -0.476  1.00  0.00     0.052 C 
ENDROOT
BRANCH   1   2
ATOM      2  C   UNL     1      18.701  25.879   0.402  1.00  0.00     0.041 C 
ATOM      3  O   UNL     1      19.205  25.487   1.487  1.00  0.00    -0.550 OA
ATOM      4  O   UNL     1      18.790  27.220   0.048  1.00  0.00    -0.550 OA
ENDBRANCH   1   2
BRANCH   1   5
ATOM      5  C   UNL     1      17.106  25.674  -1.494  1.00  0.00     0.003 C 
ATOM      6  C   UNL     1      15.684  25.122  -1.535  1.00  0.00     0.004 C 
ENDBRANCH   1   5
TORSDOF 2
ENDMDL
