MODEL 1
REMARK VINA RESULT:    -7.190      0.000      0.000
REMARK INTER + INTRA:          -8.994
REMARK INTER:                  -8.661
REMARK INTRA:                  -0.332
REMARK UNBOUND:                -0.332
REMARK SMILES O=c1c(O)c(-c2ccc(O)c(O)c2)oc2cc(O)cc(O)c12
REMARK SMILES IDX 5 1 3 2 2 3 1 4 22 5 20 6 19 7 17 8 16 9 15 10 14 11 6 12
REMARK SMILES IDX 7 13 8 14 9 15 13 16 11 17 10 18 12 20 4 22 21 24 18 26
REMARK H PARENT 10 19 12 21 4 23 21 25 18 27
REMARK Flexibility Score: inf
ROOT
ATOM      1  C   UNL     1     -11.161 -28.322 -22.012  1.00  0.00     0.180 A 
ATOM      2  C   UNL     1     -11.444 -27.121 -21.334  1.00  0.00     0.208 A 
ATOM      3  C   UNL     1     -12.605 -27.043 -20.548  1.00  0.00     0.238 A 
ATOM      4  O   UNL     1     -12.875 -25.969 -19.945  1.00  0.00    -0.285 OA
ATOM      5  C   UNL     1     -13.449 -28.167 -20.439  1.00  0.00     0.111 A 
ATOM      6  C   UNL     1     -14.634 -28.173 -19.665  1.00  0.00     0.134 A 
ATOM      7  C   UNL     1     -15.418 -29.335 -19.599  1.00  0.00     0.093 A 
ATOM      8  C   UNL     1     -15.038 -30.489 -20.288  1.00  0.00     0.123 A 
ATOM      9  C   UNL     1     -13.867 -30.489 -21.054  1.00  0.00     0.094 A 
ATOM     10  C   UNL     1     -13.075 -29.341 -21.134  1.00  0.00     0.146 A 
ATOM     11  O   UNL     1     -11.972 -29.367 -21.873  1.00  0.00    -0.452 OA
ENDROOT
BRANCH   1  12
ATOM     12  C   UNL     1      -9.966 -28.476 -22.873  1.00  0.00     0.025 A 
ATOM     13  C   UNL     1     -10.004 -28.154 -24.241  1.00  0.00     0.016 A 
ATOM     14  C   UNL     1      -8.871 -28.331 -25.040  1.00  0.00     0.051 A 
ATOM     15  C   UNL     1      -7.691 -28.843 -24.492  1.00  0.00     0.157 A 
ATOM     16  C   UNL     1      -8.786 -29.010 -22.329  1.00  0.00     0.062 A 
ATOM     17  C   UNL     1      -7.648 -29.187 -23.130  1.00  0.00     0.158 A 
BRANCH  15  18
ATOM     18  O   UNL     1      -6.577 -29.006 -25.314  1.00  0.00    -0.504 OA
ATOM     19  H   UNL     1      -5.836 -29.661 -25.092  1.00  0.00     0.293 HD
ENDBRANCH  15  18
BRANCH  17  20
ATOM     20  O   UNL     1      -6.477 -29.704 -22.578  1.00  0.00    -0.504 OA
ATOM     21  H   UNL     1      -6.418 -30.666 -22.264  1.00  0.00     0.293 HD
ENDBRANCH  17  20
ENDBRANCH   1  12
BRANCH   2  22
ATOM     22  O   UNL     1     -10.566 -26.037 -21.419  1.00  0.00    -0.502 OA
ATOM     23  H   UNL     1     -10.073 -25.673 -20.612  1.00  0.00     0.293 HD
ENDBRANCH   2  22
BRANCH   6  24
ATOM     24  O   UNL     1     -15.041 -27.036 -18.964  1.00  0.00    -0.507 OA
ATOM     25  H   UNL     1     -15.136 -27.038 -17.955  1.00  0.00     0.293 HD
ENDBRANCH   6  24
BRANCH   8  26
ATOM     26  O   UNL     1     -15.832 -31.631 -20.205  1.00  0.00    -0.508 OA
ATOM     27  H   UNL     1     -16.835 -31.571 -20.077  1.00  0.00     0.293 HD
ENDBRANCH   8  26
TORSDOF 6
ENDMDL
MODEL 2
REMARK VINA RESULT:    -7.143      6.431     11.485
REMARK INTER + INTRA:          -8.937
REMARK INTER:                  -8.626
REMARK INTRA:                  -0.311
REMARK UNBOUND:                -0.332
REMARK SMILES O=c1c(O)c(-c2ccc(O)c(O)c2)oc2cc(O)cc(O)c12
REMARK SMILES IDX 5 1 3 2 2 3 1 4 22 5 20 6 19 7 17 8 16 9 15 10 14 11 6 12
REMARK SMILES IDX 7 13 8 14 9 15 13 16 11 17 10 18 12 20 4 22 21 24 18 26
REMARK H PARENT 10 19 12 21 4 23 21 25 18 27
REMARK Flexibility Score: inf
ROOT
ATOM      1  C   UNL     1      -4.630 -25.451 -26.830  1.00  0.00     0.180 A 
ATOM      2  C   UNL     1      -4.512 -24.164 -26.271  1.00  0.00     0.208 A 
ATOM      3  C   UNL     1      -3.647 -23.238 -26.875  1.00  0.00     0.238 A 
ATOM      4  O   UNL     1      -3.525 -22.086 -26.377  1.00  0.00    -0.285 OA
ATOM      5  C   UNL     1      -2.931 -23.606 -28.033  1.00  0.00     0.111 A 
ATOM      6  C   UNL     1      -2.043 -22.732 -28.704  1.00  0.00     0.134 A 
ATOM      7  C   UNL     1      -1.373 -23.170 -29.857  1.00  0.00     0.093 A 
ATOM      8  C   UNL     1      -1.576 -24.460 -30.351  1.00  0.00     0.123 A 
ATOM      9  C   UNL     1      -2.453 -25.328 -29.692  1.00  0.00     0.094 A 
ATOM     10  C   UNL     1      -3.128 -24.912 -28.541  1.00  0.00     0.146 A 
ATOM     11  O   UNL     1      -3.950 -25.757 -27.932  1.00  0.00    -0.452 OA
ENDROOT
BRANCH   1  12
ATOM     12  C   UNL     1      -5.507 -26.488 -26.240  1.00  0.00     0.025 A 
ATOM     13  C   UNL     1      -6.882 -26.531 -26.527  1.00  0.00     0.016 A 
ATOM     14  C   UNL     1      -7.695 -27.505 -25.939  1.00  0.00     0.051 A 
ATOM     15  C   UNL     1      -7.153 -28.438 -25.050  1.00  0.00     0.157 A 
ATOM     16  C   UNL     1      -4.969 -27.413 -25.330  1.00  0.00     0.062 A 
ATOM     17  C   UNL     1      -5.783 -28.391 -24.740  1.00  0.00     0.158 A 
BRANCH  15  18
ATOM     18  O   UNL     1      -7.989 -29.398 -24.481  1.00  0.00    -0.504 OA
ATOM     19  H   UNL     1      -8.147 -30.299 -24.917  1.00  0.00     0.293 HD
ENDBRANCH  15  18
BRANCH  17  20
ATOM     20  O   UNL     1      -5.237 -29.313 -23.849  1.00  0.00    -0.504 OA
ATOM     21  H   UNL     1      -5.490 -29.316 -22.868  1.00  0.00     0.293 HD
ENDBRANCH  17  20
ENDBRANCH   1  12
BRANCH   2  22
ATOM     22  O   UNL     1      -5.270 -23.808 -25.152  1.00  0.00    -0.502 OA
ATOM     23  H   UNL     1      -6.085 -23.210 -25.216  1.00  0.00     0.293 HD
ENDBRANCH   2  22
BRANCH   6  24
ATOM     24  O   UNL     1      -1.819 -21.436 -28.236  1.00  0.00    -0.507 OA
ATOM     25  H   UNL     1      -2.275 -21.085 -27.402  1.00  0.00     0.293 HD
ENDBRANCH   6  24
BRANCH   8  26
ATOM     26  O   UNL     1      -0.901 -24.870 -31.499  1.00  0.00    -0.508 OA
ATOM     27  H   UNL     1      -1.390 -25.299 -32.276  1.00  0.00     0.293 HD
ENDBRANCH   8  26
TORSDOF 6
ENDMDL
MODEL 3
REMARK VINA RESULT:    -7.071      5.552     10.604
REMARK INTER + INTRA:          -8.850
REMARK INTER:                  -8.876
REMARK INTRA:                   0.026
REMARK UNBOUND:                -0.332
REMARK SMILES O=c1c(O)c(-c2ccc(O)c(O)c2)oc2cc(O)cc(O)c12
REMARK SMILES IDX 5 1 3 2 2 3 1 4 22 5 20 6 19 7 17 8 16 9 15 10 14 11 6 12
REMARK SMILES IDX 7 13 8 14 9 15 13 16 11 17 10 18 12 20 4 22 21 24 18 26
REMARK H PARENT 10 19 12 21 4 23 21 25 18 27
REMARK Flexibility Score: inf
ROOT
ATOM      1  C   UNL     1      -5.061 -26.450 -26.312  1.00  0.00     0.180 A 
ATOM      2  C   UNL     1      -3.799 -25.902 -26.012  1.00  0.00     0.208 A 
ATOM      3  C   UNL     1      -3.129 -25.162 -26.998  1.00  0.00     0.238 A 
ATOM      4  O   UNL     1      -1.994 -24.675 -26.745  1.00  0.00    -0.285 OA
ATOM      5  C   UNL     1      -3.737 -24.966 -28.256  1.00  0.00     0.111 A 
ATOM      6  C   UNL     1      -3.131 -24.230 -29.302  1.00  0.00     0.134 A 
ATOM      7  C   UNL     1      -3.804 -24.073 -30.524  1.00  0.00     0.093 A 
ATOM      8  C   UNL     1      -5.068 -24.634 -30.717  1.00  0.00     0.123 A 
ATOM      9  C   UNL     1      -5.672 -25.362 -29.686  1.00  0.00     0.094 A 
ATOM     10  C   UNL     1      -5.016 -25.532 -28.464  1.00  0.00     0.146 A 
ATOM     11  O   UNL     1      -5.609 -26.232 -27.505  1.00  0.00    -0.452 OA
ENDROOT
BRANCH   1  12
ATOM     12  C   UNL     1      -5.821 -27.258 -25.331  1.00  0.00     0.025 A 
ATOM     13  C   UNL     1      -7.158 -26.959 -25.017  1.00  0.00     0.016 A 
ATOM     14  C   UNL     1      -7.848 -27.720 -24.070  1.00  0.00     0.051 A 
ATOM     15  C   UNL     1      -7.214 -28.779 -23.414  1.00  0.00     0.157 A 
ATOM     16  C   UNL     1      -5.179 -28.309 -24.655  1.00  0.00     0.062 A 
ATOM     17  C   UNL     1      -5.871 -29.074 -23.705  1.00  0.00     0.158 A 
BRANCH  15  18
ATOM     18  O   UNL     1      -7.929 -29.522 -22.475  1.00  0.00    -0.504 OA
ATOM     19  H   UNL     1      -8.866 -29.861 -22.659  1.00  0.00     0.293 HD
ENDBRANCH  15  18
BRANCH  17  20
ATOM     20  O   UNL     1      -5.230 -30.124 -23.050  1.00  0.00    -0.504 OA
ATOM     21  H   UNL     1      -5.369 -30.296 -22.061  1.00  0.00     0.293 HD
ENDBRANCH  17  20
ENDBRANCH   1  12
BRANCH   2  22
ATOM     22  O   UNL     1      -3.241 -26.068 -24.742  1.00  0.00    -0.502 OA
ATOM     23  H   UNL     1      -3.794 -26.018 -23.895  1.00  0.00     0.293 HD
ENDBRANCH   2  22
BRANCH   6  24
ATOM     24  O   UNL     1      -1.868 -23.656 -29.140  1.00  0.00    -0.507 OA
ATOM     25  H   UNL     1      -1.562 -23.287 -28.248  1.00  0.00     0.293 HD
ENDBRANCH   6  24
BRANCH   8  26
ATOM     26  O   UNL     1      -5.717 -24.462 -31.938  1.00  0.00    -0.508 OA
ATOM     27  H   UNL     1      -5.490 -25.033 -32.744  1.00  0.00     0.293 HD
ENDBRANCH   8  26
TORSDOF 6
ENDMDL
MODEL 4
REMARK VINA RESULT:    -7.028      5.509     10.880
REMARK INTER + INTRA:          -8.799
REMARK INTER:                  -8.685
REMARK INTRA:                  -0.114
REMARK UNBOUND:                -0.332
REMARK SMILES O=c1c(O)c(-c2ccc(O)c(O)c2)oc2cc(O)cc(O)c12
REMARK SMILES IDX 5 1 3 2 2 3 1 4 22 5 20 6 19 7 17 8 16 9 15 10 14 11 6 12
REMARK SMILES IDX 7 13 8 14 9 15 13 16 11 17 10 18 12 20 4 22 21 24 18 26
REMARK H PARENT 10 19 12 21 4 23 21 25 18 27
REMARK Flexibility Score: inf
ROOT
ATOM      1  C   UNL     1      -5.037 -26.431 -26.172  1.00  0.00     0.180 A 
ATOM      2  C   UNL     1      -5.426 -26.229 -27.510  1.00  0.00     0.208 A 
ATOM      3  C   UNL     1      -4.634 -25.411 -28.330  1.00  0.00     0.238 A 
ATOM      4  O   UNL     1      -4.979 -25.214 -29.528  1.00  0.00    -0.285 OA
ATOM      5  C   UNL     1      -3.462 -24.825 -27.808  1.00  0.00     0.111 A 
ATOM      6  C   UNL     1      -2.609 -23.991 -28.568  1.00  0.00     0.134 A 
ATOM      7  C   UNL     1      -1.455 -23.453 -27.979  1.00  0.00     0.093 A 
ATOM      8  C   UNL     1      -1.140 -23.733 -26.648  1.00  0.00     0.123 A 
ATOM      9  C   UNL     1      -1.980 -24.556 -25.891  1.00  0.00     0.094 A 
ATOM     10  C   UNL     1      -3.134 -25.101 -26.460  1.00  0.00     0.146 A 
ATOM     11  O   UNL     1      -3.917 -25.874 -25.718  1.00  0.00    -0.452 OA
ENDROOT
BRANCH   1  12
ATOM     12  C   UNL     1      -5.829 -27.266 -25.239  1.00  0.00     0.025 A 
ATOM     13  C   UNL     1      -7.180 -26.985 -24.974  1.00  0.00     0.016 A 
ATOM     14  C   UNL     1      -7.901 -27.773 -24.072  1.00  0.00     0.051 A 
ATOM     15  C   UNL     1      -7.283 -28.840 -23.412  1.00  0.00     0.157 A 
ATOM     16  C   UNL     1      -5.205 -28.325 -24.560  1.00  0.00     0.062 A 
ATOM     17  C   UNL     1      -5.927 -29.116 -23.655  1.00  0.00     0.158 A 
BRANCH  15  18
ATOM     18  O   UNL     1      -8.028 -29.608 -22.519  1.00  0.00    -0.504 OA
ATOM     19  H   UNL     1      -9.018 -29.781 -22.654  1.00  0.00     0.293 HD
ENDBRANCH  15  18
BRANCH  17  20
ATOM     20  O   UNL     1      -5.302 -30.174 -22.996  1.00  0.00    -0.504 OA
ATOM     21  H   UNL     1      -5.450 -30.345 -22.008  1.00  0.00     0.293 HD
ENDBRANCH  17  20
ENDBRANCH   1  12
BRANCH   2  22
ATOM     22  O   UNL     1      -6.564 -26.861 -28.017  1.00  0.00    -0.502 OA
ATOM     23  H   UNL     1      -6.902 -27.745 -27.655  1.00  0.00     0.293 HD
ENDBRANCH   2  22
BRANCH   6  24
ATOM     24  O   UNL     1      -2.896 -23.693 -29.902  1.00  0.00    -0.507 OA
ATOM     25  H   UNL     1      -2.233 -23.882 -30.645  1.00  0.00     0.293 HD
ENDBRANCH   6  24
BRANCH   8  26
ATOM     26  O   UNL     1       0.013 -23.187 -26.085  1.00  0.00    -0.508 OA
ATOM     27  H   UNL     1       0.747 -22.791 -26.660  1.00  0.00     0.293 HD
ENDBRANCH   8  26
TORSDOF 6
ENDMDL
MODEL 5
REMARK VINA RESULT:    -6.983     11.229     13.795
REMARK INTER + INTRA:          -8.745
REMARK INTER:                  -8.431
REMARK INTRA:                  -0.314
REMARK UNBOUND:                -0.332
REMARK SMILES O=c1c(O)c(-c2ccc(O)c(O)c2)oc2cc(O)cc(O)c12
REMARK SMILES IDX 5 1 3 2 2 3 1 4 22 5 20 6 19 7 17 8 16 9 15 10 14 11 6 12
REMARK SMILES IDX 7 13 8 14 9 15 13 16 11 17 10 18 12 20 4 22 21 24 18 26
REMARK H PARENT 10 19 12 21 4 23 21 25 18 27
REMARK Flexibility Score: inf
ROOT
ATOM      1  C   UNL     1      -5.234 -20.915 -29.061  1.00  0.00     0.180 A 
ATOM      2  C   UNL     1      -6.365 -21.753 -29.066  1.00  0.00     0.208 A 
ATOM      3  C   UNL     1      -6.230 -23.073 -29.524  1.00  0.00     0.238 A 
ATOM      4  O   UNL     1      -7.238 -23.830 -29.543  1.00  0.00    -0.285 OA
ATOM      5  C   UNL     1      -4.967 -23.538 -29.949  1.00  0.00     0.111 A 
ATOM      6  C   UNL     1      -4.745 -24.854 -30.420  1.00  0.00     0.134 A 
ATOM      7  C   UNL     1      -3.457 -25.243 -30.817  1.00  0.00     0.093 A 
ATOM      8  C   UNL     1      -2.390 -24.344 -30.750  1.00  0.00     0.123 A 
ATOM      9  C   UNL     1      -2.604 -23.042 -30.285  1.00  0.00     0.094 A 
ATOM     10  C   UNL     1      -3.880 -22.635 -29.887  1.00  0.00     0.146 A 
ATOM     11  O   UNL     1      -4.056 -21.392 -29.456  1.00  0.00    -0.452 OA
ENDROOT
BRANCH   1  12
ATOM     12  C   UNL     1      -5.301 -19.506 -28.611  1.00  0.00     0.025 A 
ATOM     13  C   UNL     1      -5.216 -19.169 -27.249  1.00  0.00     0.016 A 
ATOM     14  C   UNL     1      -5.305 -17.833 -26.846  1.00  0.00     0.051 A 
ATOM     15  C   UNL     1      -5.495 -16.819 -27.790  1.00  0.00     0.157 A 
ATOM     16  C   UNL     1      -5.512 -18.488 -29.556  1.00  0.00     0.062 A 
ATOM     17  C   UNL     1      -5.602 -17.147 -29.152  1.00  0.00     0.158 A 
BRANCH  15  18
ATOM     18  O   UNL     1      -5.578 -15.497 -27.357  1.00  0.00    -0.504 OA
ATOM     19  H   UNL     1      -6.097 -14.794 -27.870  1.00  0.00     0.293 HD
ENDBRANCH  15  18
BRANCH  17  20
ATOM     20  O   UNL     1      -5.797 -16.143 -30.098  1.00  0.00    -0.504 OA
ATOM     21  H   UNL     1      -6.718 -15.929 -30.462  1.00  0.00     0.293 HD
ENDBRANCH  17  20
ENDBRANCH   1  12
BRANCH   2  22
ATOM     22  O   UNL     1      -7.594 -21.285 -28.594  1.00  0.00    -0.502 OA
ATOM     23  H   UNL     1      -7.664 -20.548 -27.902  1.00  0.00     0.293 HD
ENDBRANCH   2  22
BRANCH   6  24
ATOM     24  O   UNL     1      -5.791 -25.776 -30.498  1.00  0.00    -0.507 OA
ATOM     25  H   UNL     1      -5.827 -26.479 -31.226  1.00  0.00     0.293 HD
ENDBRANCH   6  24
BRANCH   8  26
ATOM     26  O   UNL     1      -1.120 -24.756 -31.149  1.00  0.00    -0.508 OA
ATOM     27  H   UNL     1      -0.885 -25.737 -31.240  1.00  0.00     0.293 HD
ENDBRANCH   8  26
TORSDOF 6
ENDMDL
MODEL 6
REMARK VINA RESULT:    -6.937     12.646     14.337
REMARK INTER + INTRA:          -8.689
REMARK INTER:                  -8.401
REMARK INTRA:                  -0.288
REMARK UNBOUND:                -0.332
REMARK SMILES O=c1c(O)c(-c2ccc(O)c(O)c2)oc2cc(O)cc(O)c12
REMARK SMILES IDX 5 1 3 2 2 3 1 4 22 5 20 6 19 7 17 8 16 9 15 10 14 11 6 12
REMARK SMILES IDX 7 13 8 14 9 15 13 16 11 17 10 18 12 20 4 22 21 24 18 26
REMARK H PARENT 10 19 12 21 4 23 21 25 18 27
REMARK Flexibility Score: inf
ROOT
ATOM      1  C   UNL     1      -4.876 -20.631 -29.449  1.00  0.00     0.180 A 
ATOM      2  C   UNL     1      -4.900 -21.508 -30.550  1.00  0.00     0.208 A 
ATOM      3  C   UNL     1      -4.053 -22.627 -30.546  1.00  0.00     0.238 A 
ATOM      4  O   UNL     1      -4.058 -23.413 -31.532  1.00  0.00    -0.285 OA
ATOM      5  C   UNL     1      -3.213 -22.861 -29.437  1.00  0.00     0.111 A 
ATOM      6  C   UNL     1      -2.333 -23.966 -29.353  1.00  0.00     0.134 A 
ATOM      7  C   UNL     1      -1.534 -24.134 -28.212  1.00  0.00     0.093 A 
ATOM      8  C   UNL     1      -1.600 -23.223 -27.156  1.00  0.00     0.123 A 
ATOM      9  C   UNL     1      -2.469 -22.129 -27.234  1.00  0.00     0.094 A 
ATOM     10  C   UNL     1      -3.270 -21.942 -28.363  1.00  0.00     0.146 A 
ATOM     11  O   UNL     1      -4.081 -20.892 -28.414  1.00  0.00    -0.452 OA
ENDROOT
BRANCH   1  12
ATOM     12  C   UNL     1      -5.727 -19.421 -29.387  1.00  0.00     0.025 A 
ATOM     13  C   UNL     1      -6.933 -19.410 -28.666  1.00  0.00     0.016 A 
ATOM     14  C   UNL     1      -7.731 -18.263 -28.642  1.00  0.00     0.051 A 
ATOM     15  C   UNL     1      -7.347 -17.118 -29.347  1.00  0.00     0.157 A 
ATOM     16  C   UNL     1      -5.353 -18.277 -30.112  1.00  0.00     0.062 A 
ATOM     17  C   UNL     1      -6.153 -17.124 -30.088  1.00  0.00     0.158 A 
BRANCH  15  18
ATOM     18  O   UNL     1      -8.163 -15.988 -29.302  1.00  0.00    -0.504 OA
ATOM     19  H   UNL     1      -7.831 -15.073 -29.584  1.00  0.00     0.293 HD
ENDBRANCH  15  18
BRANCH  17  20
ATOM     20  O   UNL     1      -5.767 -15.989 -30.799  1.00  0.00    -0.504 OA
ATOM     21  H   UNL     1      -4.791 -15.776 -30.969  1.00  0.00     0.293 HD
ENDBRANCH  17  20
ENDBRANCH   1  12
BRANCH   2  22
ATOM     22  O   UNL     1      -5.778 -21.281 -31.614  1.00  0.00    -0.502 OA
ATOM     23  H   UNL     1      -6.090 -22.023 -32.228  1.00  0.00     0.293 HD
ENDBRANCH   2  22
BRANCH   6  24
ATOM     24  O   UNL     1      -2.244 -24.895 -30.391  1.00  0.00    -0.507 OA
ATOM     25  H   UNL     1      -1.575 -25.656 -30.369  1.00  0.00     0.293 HD
ENDBRANCH   6  24
BRANCH   8  26
ATOM     26  O   UNL     1      -0.799 -23.413 -26.032  1.00  0.00    -0.508 OA
ATOM     27  H   UNL     1       0.089 -23.898 -26.090  1.00  0.00     0.293 HD
ENDBRANCH   8  26
TORSDOF 6
ENDMDL
MODEL 7
REMARK VINA RESULT:    -6.914      5.777      9.084
REMARK INTER + INTRA:          -8.661
REMARK INTER:                  -8.401
REMARK INTRA:                  -0.261
REMARK UNBOUND:                -0.332
REMARK SMILES O=c1c(O)c(-c2ccc(O)c(O)c2)oc2cc(O)cc(O)c12
REMARK SMILES IDX 5 1 3 2 2 3 1 4 22 5 20 6 19 7 17 8 16 9 15 10 14 11 6 12
REMARK SMILES IDX 7 13 8 14 9 15 13 16 11 17 10 18 12 20 4 22 21 24 18 26
REMARK H PARENT 10 19 12 21 4 23 21 25 18 27
REMARK Flexibility Score: inf
ROOT
ATOM      1  C   UNL     1      -4.944 -25.906 -27.540  1.00  0.00     0.180 A 
ATOM      2  C   UNL     1      -6.277 -25.515 -27.767  1.00  0.00     0.208 A 
ATOM      3  C   UNL     1      -7.295 -26.090 -26.990  1.00  0.00     0.238 A 
ATOM      4  O   UNL     1      -8.494 -25.755 -27.191  1.00  0.00    -0.285 OA
ATOM      5  C   UNL     1      -6.963 -27.030 -25.992  1.00  0.00     0.111 A 
ATOM      6  C   UNL     1      -7.927 -27.653 -25.164  1.00  0.00     0.134 A 
ATOM      7  C   UNL     1      -7.516 -28.571 -24.186  1.00  0.00     0.093 A 
ATOM      8  C   UNL     1      -6.163 -28.876 -24.020  1.00  0.00     0.123 A 
ATOM      9  C   UNL     1      -5.206 -28.263 -24.835  1.00  0.00     0.094 A 
ATOM     10  C   UNL     1      -5.595 -27.347 -25.816  1.00  0.00     0.146 A 
ATOM     11  O   UNL     1      -4.667 -26.784 -26.580  1.00  0.00    -0.452 OA
ENDROOT
BRANCH   1  12
ATOM     12  C   UNL     1      -3.818 -25.358 -28.330  1.00  0.00     0.025 A 
ATOM     13  C   UNL     1      -3.612 -25.734 -29.669  1.00  0.00     0.016 A 
ATOM     14  C   UNL     1      -2.528 -25.222 -30.387  1.00  0.00     0.051 A 
ATOM     15  C   UNL     1      -1.627 -24.341 -29.779  1.00  0.00     0.157 A 
ATOM     16  C   UNL     1      -2.900 -24.490 -27.715  1.00  0.00     0.062 A 
ATOM     17  C   UNL     1      -1.812 -23.975 -28.435  1.00  0.00     0.158 A 
BRANCH  15  18
ATOM     18  O   UNL     1      -0.557 -23.846 -30.523  1.00  0.00    -0.504 OA
ATOM     19  H   UNL     1      -0.335 -24.197 -31.447  1.00  0.00     0.293 HD
ENDBRANCH  15  18
BRANCH  17  20
ATOM     20  O   UNL     1      -0.915 -23.103 -27.821  1.00  0.00    -0.504 OA
ATOM     21  H   UNL     1      -0.305 -22.502 -28.361  1.00  0.00     0.293 HD
ENDBRANCH  17  20
ENDBRANCH   1  12
BRANCH   2  22
ATOM     22  O   UNL     1      -6.575 -24.545 -28.728  1.00  0.00    -0.502 OA
ATOM     23  H   UNL     1      -5.899 -23.854 -29.030  1.00  0.00     0.293 HD
ENDBRANCH   2  22
BRANCH   6  24
ATOM     24  O   UNL     1      -9.287 -27.369 -25.305  1.00  0.00    -0.507 OA
ATOM     25  H   UNL     1      -9.637 -26.418 -25.285  1.00  0.00     0.293 HD
ENDBRANCH   6  24
BRANCH   8  26
ATOM     26  O   UNL     1      -5.780 -29.790 -23.040  1.00  0.00    -0.508 OA
ATOM     27  H   UNL     1      -5.237 -30.614 -23.267  1.00  0.00     0.293 HD
ENDBRANCH   8  26
TORSDOF 6
ENDMDL
MODEL 8
REMARK VINA RESULT:    -6.792     11.787     14.054
REMARK INTER + INTRA:          -8.514
REMARK INTER:                  -8.222
REMARK INTRA:                  -0.293
REMARK UNBOUND:                -0.332
REMARK SMILES O=c1c(O)c(-c2ccc(O)c(O)c2)oc2cc(O)cc(O)c12
REMARK SMILES IDX 5 1 3 2 2 3 1 4 22 5 20 6 19 7 17 8 16 9 15 10 14 11 6 12
REMARK SMILES IDX 7 13 8 14 9 15 13 16 11 17 10 18 12 20 4 22 21 24 18 26
REMARK H PARENT 10 19 12 21 4 23 21 25 18 27
REMARK Flexibility Score: inf
ROOT
ATOM      1  C   UNL     1      -4.406 -20.714 -28.895  1.00  0.00     0.180 A 
ATOM      2  C   UNL     1      -4.370 -21.132 -27.551  1.00  0.00     0.208 A 
ATOM      3  C   UNL     1      -3.635 -22.280 -27.217  1.00  0.00     0.238 A 
ATOM      4  O   UNL     1      -3.604 -22.670 -26.018  1.00  0.00    -0.285 OA
ATOM      5  C   UNL     1      -2.935 -22.977 -28.224  1.00  0.00     0.111 A 
ATOM      6  C   UNL     1      -2.168 -24.139 -27.971  1.00  0.00     0.134 A 
ATOM      7  C   UNL     1      -1.493 -24.772 -29.026  1.00  0.00     0.093 A 
ATOM      8  C   UNL     1      -1.569 -24.265 -30.325  1.00  0.00     0.123 A 
ATOM      9  C   UNL     1      -2.326 -23.116 -30.581  1.00  0.00     0.094 A 
ATOM     10  C   UNL     1      -3.007 -22.473 -29.544  1.00  0.00     0.146 A 
ATOM     11  O   UNL     1      -3.722 -21.388 -29.816  1.00  0.00    -0.452 OA
ENDROOT
BRANCH   1  12
ATOM     12  C   UNL     1      -5.174 -19.524 -29.329  1.00  0.00     0.025 A 
ATOM     13  C   UNL     1      -4.672 -18.224 -29.150  1.00  0.00     0.016 A 
ATOM     14  C   UNL     1      -5.425 -17.116 -29.545  1.00  0.00     0.051 A 
ATOM     15  C   UNL     1      -6.693 -17.286 -30.110  1.00  0.00     0.157 A 
ATOM     16  C   UNL     1      -6.456 -19.692 -29.878  1.00  0.00     0.062 A 
ATOM     17  C   UNL     1      -7.214 -18.580 -30.275  1.00  0.00     0.158 A 
BRANCH  15  18
ATOM     18  O   UNL     1      -7.420 -16.160 -30.497  1.00  0.00    -0.504 OA
ATOM     19  H   UNL     1      -7.873 -16.097 -31.401  1.00  0.00     0.293 HD
ENDBRANCH  15  18
BRANCH  17  20
ATOM     20  O   UNL     1      -8.479 -18.757 -30.832  1.00  0.00    -0.504 OA
ATOM     21  H   UNL     1      -9.274 -18.206 -30.529  1.00  0.00     0.293 HD
ENDBRANCH  17  20
ENDBRANCH   1  12
BRANCH   2  22
ATOM     22  O   UNL     1      -5.031 -20.395 -26.565  1.00  0.00    -0.502 OA
ATOM     23  H   UNL     1      -5.051 -20.684 -25.594  1.00  0.00     0.293 HD
ENDBRANCH   2  22
BRANCH   6  24
ATOM     24  O   UNL     1      -2.072 -24.671 -26.683  1.00  0.00    -0.507 OA
ATOM     25  H   UNL     1      -2.678 -25.420 -26.369  1.00  0.00     0.293 HD
ENDBRANCH   6  24
BRANCH   8  26
ATOM     26  O   UNL     1      -0.888 -24.910 -31.355  1.00  0.00    -0.508 OA
ATOM     27  H   UNL     1       0.118 -24.837 -31.453  1.00  0.00     0.293 HD
ENDBRANCH   8  26
TORSDOF 6
ENDMDL
MODEL 9
REMARK VINA RESULT:    -6.689      6.347     11.678
REMARK INTER + INTRA:          -8.390
REMARK INTER:                  -8.059
REMARK INTRA:                  -0.331
REMARK UNBOUND:                -0.332
REMARK SMILES O=c1c(O)c(-c2ccc(O)c(O)c2)oc2cc(O)cc(O)c12
REMARK SMILES IDX 5 1 3 2 2 3 1 4 22 5 20 6 19 7 17 8 16 9 15 10 14 11 6 12
REMARK SMILES IDX 7 13 8 14 9 15 13 16 11 17 10 18 12 20 4 22 21 24 18 26
REMARK H PARENT 10 19 12 21 4 23 21 25 18 27
REMARK Flexibility Score: inf
ROOT
ATOM      1  C   UNL     1      -5.480 -25.435 -27.753  1.00  0.00     0.180 A 
ATOM      2  C   UNL     1      -5.576 -25.391 -29.157  1.00  0.00     0.208 A 
ATOM      3  C   UNL     1      -4.539 -24.793 -29.890  1.00  0.00     0.238 A 
ATOM      4  O   UNL     1      -4.619 -24.738 -31.147  1.00  0.00    -0.285 OA
ATOM      5  C   UNL     1      -3.419 -24.267 -29.212  1.00  0.00     0.111 A 
ATOM      6  C   UNL     1      -2.331 -23.652 -29.875  1.00  0.00     0.134 A 
ATOM      7  C   UNL     1      -1.248 -23.162 -29.130  1.00  0.00     0.093 A 
ATOM      8  C   UNL     1      -1.233 -23.275 -27.738  1.00  0.00     0.123 A 
ATOM      9  C   UNL     1      -2.305 -23.883 -27.077  1.00  0.00     0.094 A 
ATOM     10  C   UNL     1      -3.394 -24.376 -27.802  1.00  0.00     0.146 A 
ATOM     11  O   UNL     1      -4.401 -24.942 -27.149  1.00  0.00    -0.452 OA
ENDROOT
BRANCH   1  12
ATOM     12  C   UNL     1      -6.540 -26.032 -26.910  1.00  0.00     0.025 A 
ATOM     13  C   UNL     1      -7.655 -25.283 -26.496  1.00  0.00     0.016 A 
ATOM     14  C   UNL     1      -8.631 -25.861 -25.680  1.00  0.00     0.051 A 
ATOM     15  C   UNL     1      -8.504 -27.187 -25.255  1.00  0.00     0.157 A 
ATOM     16  C   UNL     1      -6.404 -27.357 -26.465  1.00  0.00     0.062 A 
ATOM     17  C   UNL     1      -7.384 -27.939 -25.646  1.00  0.00     0.158 A 
BRANCH  15  18
ATOM     18  O   UNL     1      -9.496 -27.737 -24.443  1.00  0.00    -0.504 OA
ATOM     19  H   UNL     1      -9.663 -28.735 -24.400  1.00  0.00     0.293 HD
ENDBRANCH  15  18
BRANCH  17  20
ATOM     20  O   UNL     1      -7.247 -29.260 -25.221  1.00  0.00    -0.504 OA
ATOM     21  H   UNL     1      -7.631 -29.575 -24.338  1.00  0.00     0.293 HD
ENDBRANCH  17  20
ENDBRANCH   1  12
BRANCH   2  22
ATOM     22  O   UNL     1      -6.672 -25.963 -29.808  1.00  0.00    -0.502 OA
ATOM     23  H   UNL     1      -7.297 -26.614 -29.349  1.00  0.00     0.293 HD
ENDBRANCH   2  22
BRANCH   6  24
ATOM     24  O   UNL     1      -2.316 -23.524 -31.266  1.00  0.00    -0.507 OA
ATOM     25  H   UNL     1      -2.987 -24.006 -31.852  1.00  0.00     0.293 HD
ENDBRANCH   6  24
BRANCH   8  26
ATOM     26  O   UNL     1      -0.145 -22.782 -27.021  1.00  0.00    -0.508 OA
ATOM     27  H   UNL     1      -0.104 -21.817 -26.717  1.00  0.00     0.293 HD
ENDBRANCH   8  26
TORSDOF 6
ENDMDL
