MODEL 1
REMARK VINA RESULT:    -6.513      0.000      0.000
REMARK INTER + INTRA:         -10.496
REMARK INTER:                  -9.179
REMARK INTRA:                  -1.317
REMARK UNBOUND:                -1.317
REMARK SMILES O=C(C=Cc1ccc(O)cc1)CC(=O)C=Cc1ccc(O)cc1
REMARK SMILES IDX 12 1 2 2 1 3 3 4 4 5 5 6 6 7 7 8 8 9 11 10 10 11 9 12 13 14
REMARK SMILES IDX 14 15 15 16 16 17 17 18 18 19 23 20 19 21 22 22 20 23 21 24
REMARK H PARENT 9 13 21 25
REMARK Flexibility Score: inf
ROOT
ATOM      1  C   UNL     1      31.924 -31.868  47.082  1.00  0.00     0.160 C 
ENDROOT
BRANCH   1   2
ATOM      2  C   UNL     1      30.478 -31.470  47.078  1.00  0.00     0.163 C 
ATOM      3  O   UNL     1      30.176 -30.247  47.125  1.00  0.00    -0.294 OA
BRANCH   2   4
ATOM      4  C   UNL     1      29.430 -32.515  47.115  1.00  0.00     0.048 C 
ATOM      5  C   UNL     1      28.202 -32.408  46.582  1.00  0.00     0.012 C 
BRANCH   5   6
ATOM      6  C   UNL     1      27.741 -31.308  45.711  1.00  0.00    -0.025 A 
ATOM      7  C   UNL     1      27.717 -31.448  44.312  1.00  0.00     0.012 A 
ATOM      8  C   UNL     1      27.231 -30.412  43.509  1.00  0.00     0.047 A 
ATOM      9  C   UNL     1      26.744 -29.237  44.095  1.00  0.00     0.115 A 
ATOM     10  C   UNL     1      27.224 -30.141  46.293  1.00  0.00     0.012 A 
ATOM     11  C   UNL     1      26.739 -29.106  45.487  1.00  0.00     0.047 A 
BRANCH   9  12
ATOM     12  O   UNL     1      26.259 -28.197  43.305  1.00  0.00    -0.508 OA
ATOM     13  H   UNL     1      26.825 -27.775  42.578  1.00  0.00     0.293 HD
ENDBRANCH   9  12
ENDBRANCH   5   6
ENDBRANCH   2   4
ENDBRANCH   1   2
BRANCH   1  14
ATOM     14  C   UNL     1      32.344 -32.353  45.720  1.00  0.00     0.163 C 
ATOM     15  O   UNL     1      33.390 -33.049  45.628  1.00  0.00    -0.294 OA
BRANCH  14  16
ATOM     16  C   UNL     1      31.615 -32.022  44.474  1.00  0.00     0.048 C 
ATOM     17  C   UNL     1      31.541 -30.785  43.959  1.00  0.00     0.012 C 
BRANCH  17  18
ATOM     18  C   UNL     1      30.808 -30.461  42.710  1.00  0.00    -0.025 A 
ATOM     19  C   UNL     1      30.331 -31.518  41.917  1.00  0.00     0.012 A 
ATOM     20  C   UNL     1      30.538 -29.136  42.312  1.00  0.00     0.012 A 
ATOM     21  C   UNL     1      29.625 -31.260  40.737  1.00  0.00     0.047 A 
ATOM     22  C   UNL     1      29.830 -28.882  41.132  1.00  0.00     0.047 A 
ATOM     23  C   UNL     1      29.375 -29.944  40.341  1.00  0.00     0.115 A 
BRANCH  23  24
ATOM     24  O   UNL     1      28.671 -29.701  39.163  1.00  0.00    -0.508 OA
ATOM     25  H   UNL     1      29.051 -29.117  38.429  1.00  0.00     0.293 HD
ENDBRANCH  23  24
ENDBRANCH  17  18
ENDBRANCH  14  16
ENDBRANCH   1  14
TORSDOF 8
ENDMDL
MODEL 2
REMARK VINA RESULT:    -6.400      3.673      6.351
REMARK INTER + INTRA:         -10.336
REMARK INTER:                  -9.475
REMARK INTRA:                  -0.861
REMARK UNBOUND:                -1.317
REMARK SMILES O=C(C=Cc1ccc(O)cc1)CC(=O)C=Cc1ccc(O)cc1
REMARK SMILES IDX 12 1 2 2 1 3 3 4 4 5 5 6 6 7 7 8 8 9 11 10 10 11 9 12 13 14
REMARK SMILES IDX 14 15 15 16 16 17 17 18 18 19 23 20 19 21 22 22 20 23 21 24
REMARK H PARENT 9 13 21 25
REMARK Flexibility Score: inf
ROOT
ATOM      1  C   UNL     1      29.459 -29.797  41.573  1.00  0.00     0.160 C 
ENDROOT
BRANCH   1   2
ATOM      2  C   UNL     1      28.325 -30.571  42.177  1.00  0.00     0.163 C 
ATOM      3  O   UNL     1      27.902 -31.602  41.588  1.00  0.00    -0.294 OA
BRANCH   2   4
ATOM      4  C   UNL     1      27.660 -30.066  43.398  1.00  0.00     0.048 C 
ATOM      5  C   UNL     1      27.854 -30.533  44.643  1.00  0.00     0.012 C 
BRANCH   5   6
ATOM      6  C   UNL     1      28.893 -31.506  45.039  1.00  0.00    -0.025 A 
ATOM      7  C   UNL     1      28.597 -32.874  45.174  1.00  0.00     0.012 A 
ATOM      8  C   UNL     1      29.606 -33.784  45.503  1.00  0.00     0.047 A 
ATOM      9  C   UNL     1      30.923 -33.341  45.677  1.00  0.00     0.115 A 
ATOM     10  C   UNL     1      30.219 -31.073  45.184  1.00  0.00     0.012 A 
ATOM     11  C   UNL     1      31.227 -31.985  45.513  1.00  0.00     0.047 A 
BRANCH   9  12
ATOM     12  O   UNL     1      31.938 -34.237  46.005  1.00  0.00    -0.508 OA
ATOM     13  H   UNL     1      32.474 -34.715  45.290  1.00  0.00     0.293 HD
ENDBRANCH   9  12
ENDBRANCH   5   6
ENDBRANCH   2   4
ENDBRANCH   1   2
BRANCH   1  14
ATOM     14  C   UNL     1      28.979 -28.976  40.407  1.00  0.00     0.163 C 
ATOM     15  O   UNL     1      29.226 -29.388  39.242  1.00  0.00    -0.294 OA
BRANCH  14  16
ATOM     16  C   UNL     1      28.266 -27.686  40.553  1.00  0.00     0.048 C 
ATOM     17  C   UNL     1      27.667 -27.045  39.538  1.00  0.00     0.012 C 
BRANCH  17  18
ATOM     18  C   UNL     1      26.954 -25.753  39.691  1.00  0.00    -0.025 A 
ATOM     19  C   UNL     1      27.282 -24.697  38.823  1.00  0.00     0.012 A 
ATOM     20  C   UNL     1      25.935 -25.557  40.646  1.00  0.00     0.012 A 
ATOM     21  C   UNL     1      26.628 -23.465  38.924  1.00  0.00     0.047 A 
ATOM     22  C   UNL     1      25.283 -24.324  40.742  1.00  0.00     0.047 A 
ATOM     23  C   UNL     1      25.631 -23.274  39.883  1.00  0.00     0.115 A 
BRANCH  23  24
ATOM     24  O   UNL     1      24.988 -22.041  39.972  1.00  0.00    -0.508 OA
ATOM     25  H   UNL     1      25.439 -21.184  39.675  1.00  0.00     0.293 HD
ENDBRANCH  23  24
ENDBRANCH  17  18
ENDBRANCH  14  16
ENDBRANCH   1  14
TORSDOF 8
ENDMDL
MODEL 3
REMARK VINA RESULT:    -6.079      6.492     10.288
REMARK INTER + INTRA:          -9.884
REMARK INTER:                  -9.307
REMARK INTRA:                  -0.577
REMARK UNBOUND:                -1.317
REMARK SMILES O=C(C=Cc1ccc(O)cc1)CC(=O)C=Cc1ccc(O)cc1
REMARK SMILES IDX 12 1 2 2 1 3 3 4 4 5 5 6 6 7 7 8 8 9 11 10 10 11 9 12 13 14
REMARK SMILES IDX 14 15 15 16 16 17 17 18 18 19 23 20 19 21 22 22 20 23 21 24
REMARK H PARENT 9 13 21 25
REMARK Flexibility Score: inf
ROOT
ATOM      1  C   UNL     1      26.468 -25.429  38.236  1.00  0.00     0.160 C 
ENDROOT
BRANCH   1   2
ATOM      2  C   UNL     1      26.444 -24.041  37.666  1.00  0.00     0.163 C 
ATOM      3  O   UNL     1      27.487 -23.336  37.719  1.00  0.00    -0.294 OA
BRANCH   2   4
ATOM      4  C   UNL     1      25.178 -23.488  37.136  1.00  0.00     0.048 C 
ATOM      5  C   UNL     1      24.875 -23.337  35.837  1.00  0.00     0.012 C 
BRANCH   5   6
ATOM      6  C   UNL     1      25.671 -23.859  34.707  1.00  0.00    -0.025 A 
ATOM      7  C   UNL     1      25.725 -25.237  34.429  1.00  0.00     0.012 A 
ATOM      8  C   UNL     1      26.445 -25.705  33.326  1.00  0.00     0.047 A 
ATOM      9  C   UNL     1      27.098 -24.802  32.477  1.00  0.00     0.115 A 
ATOM     10  C   UNL     1      26.302 -22.959  33.836  1.00  0.00     0.012 A 
ATOM     11  C   UNL     1      27.021 -23.429  32.734  1.00  0.00     0.047 A 
BRANCH   9  12
ATOM     12  O   UNL     1      27.820 -25.256  31.376  1.00  0.00    -0.508 OA
ATOM     13  H   UNL     1      28.407 -24.633  30.834  1.00  0.00     0.293 HD
ENDBRANCH   9  12
ENDBRANCH   5   6
ENDBRANCH   2   4
ENDBRANCH   1   2
BRANCH   1  14
ATOM     14  C   UNL     1      26.843 -25.397  39.693  1.00  0.00     0.163 C 
ATOM     15  O   UNL     1      26.581 -24.358  40.357  1.00  0.00    -0.294 OA
BRANCH  14  16
ATOM     16  C   UNL     1      27.539 -26.507  40.382  1.00  0.00     0.048 C 
ATOM     17  C   UNL     1      28.205 -27.481  39.743  1.00  0.00     0.012 C 
BRANCH  17  18
ATOM     18  C   UNL     1      28.901 -28.592  40.440  1.00  0.00    -0.025 A 
ATOM     19  C   UNL     1      28.670 -29.908  40.004  1.00  0.00     0.012 A 
ATOM     20  C   UNL     1      29.812 -28.374  41.493  1.00  0.00     0.012 A 
ATOM     21  C   UNL     1      29.313 -30.985  40.623  1.00  0.00     0.047 A 
ATOM     22  C   UNL     1      30.453 -29.453  42.108  1.00  0.00     0.047 A 
ATOM     23  C   UNL     1      30.202 -30.762  41.677  1.00  0.00     0.115 A 
BRANCH  23  24
ATOM     24  O   UNL     1      30.835 -31.844  42.285  1.00  0.00    -0.508 OA
ATOM     25  H   UNL     1      30.775 -32.001  43.283  1.00  0.00     0.293 HD
ENDBRANCH  23  24
ENDBRANCH  17  18
ENDBRANCH  14  16
ENDBRANCH   1  14
TORSDOF 8
ENDMDL
MODEL 4
REMARK VINA RESULT:    -5.611      4.480      7.031
REMARK INTER + INTRA:          -9.225
REMARK INTER:                  -8.912
REMARK INTRA:                  -0.313
REMARK UNBOUND:                -1.317
REMARK SMILES O=C(C=Cc1ccc(O)cc1)CC(=O)C=Cc1ccc(O)cc1
REMARK SMILES IDX 12 1 2 2 1 3 3 4 4 5 5 6 6 7 7 8 8 9 11 10 10 11 9 12 13 14
REMARK SMILES IDX 14 15 15 16 16 17 17 18 18 19 23 20 19 21 22 22 20 23 21 24
REMARK H PARENT 9 13 21 25
REMARK Flexibility Score: inf
ROOT
ATOM      1  C   UNL     1      24.875 -27.720  43.552  1.00  0.00     0.160 C 
ENDROOT
BRANCH   1   2
ATOM      2  C   UNL     1      26.187 -28.368  43.882  1.00  0.00     0.163 C 
ATOM      3  O   UNL     1      27.122 -28.330  43.037  1.00  0.00    -0.294 OA
BRANCH   2   4
ATOM      4  C   UNL     1      26.336 -29.119  45.148  1.00  0.00     0.048 C 
ATOM      5  C   UNL     1      27.062 -30.237  45.312  1.00  0.00     0.012 C 
BRANCH   5   6
ATOM      6  C   UNL     1      27.983 -30.812  44.311  1.00  0.00    -0.025 A 
ATOM      7  C   UNL     1      27.512 -31.636  43.274  1.00  0.00     0.012 A 
ATOM      8  C   UNL     1      28.395 -32.131  42.310  1.00  0.00     0.047 A 
ATOM      9  C   UNL     1      29.753 -31.789  42.358  1.00  0.00     0.115 A 
ATOM     10  C   UNL     1      29.338 -30.449  44.337  1.00  0.00     0.012 A 
ATOM     11  C   UNL     1      30.220 -30.945  43.371  1.00  0.00     0.047 A 
BRANCH   9  12
ATOM     12  O   UNL     1      30.643 -32.276  41.404  1.00  0.00    -0.508 OA
ATOM     13  H   UNL     1      31.606 -31.961  41.369  1.00  0.00     0.293 HD
ENDBRANCH   9  12
ENDBRANCH   5   6
ENDBRANCH   2   4
ENDBRANCH   1   2
BRANCH   1  14
ATOM     14  C   UNL     1      25.058 -26.247  43.303  1.00  0.00     0.163 C 
ATOM     15  O   UNL     1      25.318 -25.501  44.284  1.00  0.00    -0.294 OA
BRANCH  14  16
ATOM     16  C   UNL     1      24.910 -25.619  41.970  1.00  0.00     0.048 C 
ATOM     17  C   UNL     1      25.925 -25.455  41.106  1.00  0.00     0.012 C 
BRANCH  17  18
ATOM     18  C   UNL     1      25.770 -24.824  39.772  1.00  0.00    -0.025 A 
ATOM     19  C   UNL     1      25.165 -23.557  39.693  1.00  0.00     0.012 A 
ATOM     20  C   UNL     1      26.240 -25.428  38.588  1.00  0.00     0.012 A 
ATOM     21  C   UNL     1      25.009 -22.920  38.458  1.00  0.00     0.047 A 
ATOM     22  C   UNL     1      26.083 -24.786  37.356  1.00  0.00     0.047 A 
ATOM     23  C   UNL     1      25.463 -23.532  37.288  1.00  0.00     0.115 A 
BRANCH  23  24
ATOM     24  O   UNL     1      25.301 -22.885  36.065  1.00  0.00    -0.508 OA
ATOM     25  H   UNL     1      24.417 -22.466  35.800  1.00  0.00     0.293 HD
ENDBRANCH  23  24
ENDBRANCH  17  18
ENDBRANCH  14  16
ENDBRANCH   1  14
TORSDOF 8
ENDMDL
MODEL 5
REMARK VINA RESULT:    -5.058      3.927      6.086
REMARK INTER + INTRA:          -8.444
REMARK INTER:                  -9.078
REMARK INTRA:                   0.633
REMARK UNBOUND:                -1.317
REMARK SMILES O=C(C=Cc1ccc(O)cc1)CC(=O)C=Cc1ccc(O)cc1
REMARK SMILES IDX 12 1 2 2 1 3 3 4 4 5 5 6 6 7 7 8 8 9 11 10 10 11 9 12 13 14
REMARK SMILES IDX 14 15 15 16 16 17 17 18 18 19 23 20 19 21 22 22 20 23 21 24
REMARK H PARENT 9 13 21 25
REMARK Flexibility Score: inf
ROOT
ATOM      1  C   UNL     1      28.961 -30.232  39.876  1.00  0.00     0.160 C 
ENDROOT
BRANCH   1   2
ATOM      2  C   UNL     1      28.909 -31.160  41.053  1.00  0.00     0.163 C 
ATOM      3  O   UNL     1      27.790 -31.555  41.478  1.00  0.00    -0.294 OA
BRANCH   2   4
ATOM      4  C   UNL     1      30.160 -31.524  41.755  1.00  0.00     0.048 C 
ATOM      5  C   UNL     1      30.374 -31.418  43.076  1.00  0.00     0.012 C 
BRANCH   5   6
ATOM      6  C   UNL     1      29.344 -31.093  44.085  1.00  0.00    -0.025 A 
ATOM      7  C   UNL     1      29.281 -31.781  45.310  1.00  0.00     0.012 A 
ATOM      8  C   UNL     1      28.330 -31.425  46.270  1.00  0.00     0.047 A 
ATOM      9  C   UNL     1      27.447 -30.364  46.026  1.00  0.00     0.115 A 
ATOM     10  C   UNL     1      28.478 -30.013  43.860  1.00  0.00     0.012 A 
ATOM     11  C   UNL     1      27.527 -29.658  44.821  1.00  0.00     0.047 A 
BRANCH   9  12
ATOM     12  O   UNL     1      26.494 -30.000  46.974  1.00  0.00    -0.508 OA
ATOM     13  H   UNL     1      25.698 -30.594  47.180  1.00  0.00     0.293 HD
ENDBRANCH   9  12
ENDBRANCH   5   6
ENDBRANCH   2   4
ENDBRANCH   1   2
BRANCH   1  14
ATOM     14  C   UNL     1      29.030 -28.800  40.332  1.00  0.00     0.163 C 
ATOM     15  O   UNL     1      29.680 -28.535  41.378  1.00  0.00    -0.294 OA
BRANCH  14  16
ATOM     16  C   UNL     1      28.341 -27.687  39.639  1.00  0.00     0.048 C 
ATOM     17  C   UNL     1      27.688 -26.702  40.275  1.00  0.00     0.012 C 
BRANCH  17  18
ATOM     18  C   UNL     1      26.999 -25.590  39.574  1.00  0.00    -0.025 A 
ATOM     19  C   UNL     1      26.698 -24.423  40.298  1.00  0.00     0.012 A 
ATOM     20  C   UNL     1      26.671 -25.645  38.205  1.00  0.00     0.012 A 
ATOM     21  C   UNL     1      26.060 -23.345  39.676  1.00  0.00     0.047 A 
ATOM     22  C   UNL     1      26.034 -24.564  37.586  1.00  0.00     0.047 A 
ATOM     23  C   UNL     1      25.724 -23.413  38.322  1.00  0.00     0.115 A 
BRANCH  23  24
ATOM     24  O   UNL     1      25.088 -22.332  37.715  1.00  0.00    -0.508 OA
ATOM     25  H   UNL     1      24.101 -22.356  37.489  1.00  0.00     0.293 HD
ENDBRANCH  23  24
ENDBRANCH  17  18
ENDBRANCH  14  16
ENDBRANCH   1  14
TORSDOF 8
ENDMDL
MODEL 6
REMARK VINA RESULT:    -4.991      5.082      8.080
REMARK INTER + INTRA:          -8.350
REMARK INTER:                  -7.771
REMARK INTRA:                  -0.579
REMARK UNBOUND:                -1.317
REMARK SMILES O=C(C=Cc1ccc(O)cc1)CC(=O)C=Cc1ccc(O)cc1
REMARK SMILES IDX 12 1 2 2 1 3 3 4 4 5 5 6 6 7 7 8 8 9 11 10 10 11 9 12 13 14
REMARK SMILES IDX 14 15 15 16 16 17 17 18 18 19 23 20 19 21 22 22 20 23 21 24
REMARK H PARENT 9 13 21 25
REMARK Flexibility Score: inf
ROOT
ATOM      1  C   UNL     1      27.989 -27.491  39.597  1.00  0.00     0.160 C 
ENDROOT
BRANCH   1   2
ATOM      2  C   UNL     1      27.535 -26.109  39.964  1.00  0.00     0.163 C 
ATOM      3  O   UNL     1      28.373 -25.167  39.969  1.00  0.00    -0.294 OA
BRANCH   2   4
ATOM      4  C   UNL     1      26.139 -25.889  40.403  1.00  0.00     0.048 C 
ATOM      5  C   UNL     1      25.213 -25.183  39.734  1.00  0.00     0.012 C 
BRANCH   5   6
ATOM      6  C   UNL     1      25.365 -24.656  38.362  1.00  0.00    -0.025 A 
ATOM      7  C   UNL     1      24.875 -25.365  37.251  1.00  0.00     0.012 A 
ATOM      8  C   UNL     1      24.987 -24.826  35.966  1.00  0.00     0.047 A 
ATOM      9  C   UNL     1      25.567 -23.564  35.780  1.00  0.00     0.115 A 
ATOM     10  C   UNL     1      25.917 -23.381  38.173  1.00  0.00     0.012 A 
ATOM     11  C   UNL     1      26.028 -22.843  36.887  1.00  0.00     0.047 A 
BRANCH   9  12
ATOM     12  O   UNL     1      25.685 -23.016  34.505  1.00  0.00    -0.508 OA
ATOM     13  H   UNL     1      25.003 -23.209  33.781  1.00  0.00     0.293 HD
ENDBRANCH   9  12
ENDBRANCH   5   6
ENDBRANCH   2   4
ENDBRANCH   1   2
BRANCH   1  14
ATOM     14  C   UNL     1      28.931 -28.034  40.638  1.00  0.00     0.163 C 
ATOM     15  O   UNL     1      30.063 -27.496  40.760  1.00  0.00    -0.294 OA
BRANCH  14  16
ATOM     16  C   UNL     1      28.613 -29.193  41.502  1.00  0.00     0.048 C 
ATOM     17  C   UNL     1      29.540 -29.923  42.143  1.00  0.00     0.012 C 
BRANCH  17  18
ATOM     18  C   UNL     1      29.214 -31.084  43.007  1.00  0.00    -0.025 A 
ATOM     19  C   UNL     1      27.919 -31.628  42.944  1.00  0.00     0.012 A 
ATOM     20  C   UNL     1      30.163 -31.687  43.858  1.00  0.00     0.012 A 
ATOM     21  C   UNL     1      27.571 -32.729  43.732  1.00  0.00     0.047 A 
ATOM     22  C   UNL     1      29.811 -32.789  44.643  1.00  0.00     0.047 A 
ATOM     23  C   UNL     1      28.512 -33.311  44.584  1.00  0.00     0.115 A 
BRANCH  23  24
ATOM     24  O   UNL     1      28.152 -34.408  45.363  1.00  0.00    -0.508 OA
ATOM     25  H   UNL     1      27.808 -35.264  44.946  1.00  0.00     0.293 HD
ENDBRANCH  23  24
ENDBRANCH  17  18
ENDBRANCH  14  16
ENDBRANCH   1  14
TORSDOF 8
ENDMDL
MODEL 7
REMARK VINA RESULT:    -4.963      1.506      4.395
REMARK INTER + INTRA:          -8.312
REMARK INTER:                  -7.321
REMARK INTRA:                  -0.990
REMARK UNBOUND:                -1.317
REMARK SMILES O=C(C=Cc1ccc(O)cc1)CC(=O)C=Cc1ccc(O)cc1
REMARK SMILES IDX 12 1 2 2 1 3 3 4 4 5 5 6 6 7 7 8 8 9 11 10 10 11 9 12 13 14
REMARK SMILES IDX 14 15 15 16 16 17 17 18 18 19 23 20 19 21 22 22 20 23 21 24
REMARK H PARENT 9 13 21 25
REMARK Flexibility Score: inf
ROOT
ATOM      1  C   UNL     1      29.871 -33.281  47.014  1.00  0.00     0.160 C 
ENDROOT
BRANCH   1   2
ATOM      2  C   UNL     1      30.740 -32.079  46.788  1.00  0.00     0.163 C 
ATOM      3  O   UNL     1      30.289 -30.934  47.058  1.00  0.00    -0.294 OA
BRANCH   2   4
ATOM      4  C   UNL     1      32.073 -32.245  46.167  1.00  0.00     0.048 C 
ATOM      5  C   UNL     1      32.364 -32.031  44.873  1.00  0.00     0.012 C 
BRANCH   5   6
ATOM      6  C   UNL     1      31.454 -31.420  43.882  1.00  0.00    -0.025 A 
ATOM      7  C   UNL     1      31.481 -30.039  43.622  1.00  0.00     0.012 A 
ATOM      8  C   UNL     1      30.646 -29.489  42.646  1.00  0.00     0.047 A 
ATOM      9  C   UNL     1      29.792 -30.315  41.904  1.00  0.00     0.115 A 
ATOM     10  C   UNL     1      30.619 -32.246  43.115  1.00  0.00     0.012 A 
ATOM     11  C   UNL     1      29.784 -31.694  42.139  1.00  0.00     0.047 A 
BRANCH   9  12
ATOM     12  O   UNL     1      28.953 -29.779  40.929  1.00  0.00    -0.508 OA
ATOM     13  H   UNL     1      28.219 -29.122  41.165  1.00  0.00     0.293 HD
ENDBRANCH   9  12
ENDBRANCH   5   6
ENDBRANCH   2   4
ENDBRANCH   1   2
BRANCH   1  14
ATOM     14  C   UNL     1      28.888 -33.444  45.886  1.00  0.00     0.163 C 
ATOM     15  O   UNL     1      28.678 -34.602  45.438  1.00  0.00    -0.294 OA
BRANCH  14  16
ATOM     16  C   UNL     1      28.183 -32.310  45.246  1.00  0.00     0.048 C 
ATOM     17  C   UNL     1      27.515 -31.366  45.928  1.00  0.00     0.012 C 
BRANCH  17  18
ATOM     18  C   UNL     1      26.810 -30.233  45.280  1.00  0.00    -0.025 A 
ATOM     19  C   UNL     1      27.210 -29.840  43.991  1.00  0.00     0.012 A 
ATOM     20  C   UNL     1      25.730 -29.563  45.891  1.00  0.00     0.012 A 
ATOM     21  C   UNL     1      26.566 -28.784  43.338  1.00  0.00     0.047 A 
ATOM     22  C   UNL     1      25.089 -28.509  45.233  1.00  0.00     0.047 A 
ATOM     23  C   UNL     1      25.507 -28.115  43.956  1.00  0.00     0.115 A 
BRANCH  23  24
ATOM     24  O   UNL     1      24.875 -27.065  43.293  1.00  0.00    -0.508 OA
ATOM     25  H   UNL     1      24.031 -27.211  42.753  1.00  0.00     0.293 HD
ENDBRANCH  23  24
ENDBRANCH  17  18
ENDBRANCH  14  16
ENDBRANCH   1  14
TORSDOF 8
ENDMDL
MODEL 8
REMARK VINA RESULT:    -4.658      5.735      8.603
REMARK INTER + INTRA:          -7.881
REMARK INTER:                  -7.734
REMARK INTRA:                  -0.147
REMARK UNBOUND:                -1.317
REMARK SMILES O=C(C=Cc1ccc(O)cc1)CC(=O)C=Cc1ccc(O)cc1
REMARK SMILES IDX 12 1 2 2 1 3 3 4 4 5 5 6 6 7 7 8 8 9 11 10 10 11 9 12 13 14
REMARK SMILES IDX 14 15 15 16 16 17 17 18 18 19 23 20 19 21 22 22 20 23 21 24
REMARK H PARENT 9 13 21 25
REMARK Flexibility Score: inf
ROOT
ATOM      1  C   UNL     1      28.137 -26.075  40.014  1.00  0.00     0.160 C 
ENDROOT
BRANCH   1   2
ATOM      2  C   UNL     1      28.192 -27.540  40.332  1.00  0.00     0.163 C 
ATOM      3  O   UNL     1      27.964 -27.922  41.511  1.00  0.00    -0.294 OA
BRANCH   2   4
ATOM      4  C   UNL     1      28.601 -28.503  39.286  1.00  0.00     0.048 C 
ATOM      5  C   UNL     1      29.125 -29.719  39.506  1.00  0.00     0.012 C 
BRANCH   5   6
ATOM      6  C   UNL     1      29.217 -30.385  40.822  1.00  0.00    -0.025 A 
ATOM      7  C   UNL     1      28.227 -31.286  41.253  1.00  0.00     0.012 A 
ATOM      8  C   UNL     1      28.358 -31.942  42.481  1.00  0.00     0.047 A 
ATOM      9  C   UNL     1      29.488 -31.722  43.279  1.00  0.00     0.115 A 
ATOM     10  C   UNL     1      30.360 -30.193  41.611  1.00  0.00     0.012 A 
ATOM     11  C   UNL     1      30.489 -30.849  42.839  1.00  0.00     0.047 A 
BRANCH   9  12
ATOM     12  O   UNL     1      29.630 -32.368  44.505  1.00  0.00    -0.508 OA
ATOM     13  H   UNL     1      30.267 -33.148  44.622  1.00  0.00     0.293 HD
ENDBRANCH   9  12
ENDBRANCH   5   6
ENDBRANCH   2   4
ENDBRANCH   1   2
BRANCH   1  14
ATOM     14  C   UNL     1      26.755 -25.679  39.570  1.00  0.00     0.163 C 
ATOM     15  O   UNL     1      25.874 -25.491  40.451  1.00  0.00    -0.294 OA
BRANCH  14  16
ATOM     16  C   UNL     1      26.361 -25.538  38.150  1.00  0.00     0.048 C 
ATOM     17  C   UNL     1      26.392 -24.375  37.479  1.00  0.00     0.012 C 
BRANCH  17  18
ATOM     18  C   UNL     1      25.996 -24.240  36.055  1.00  0.00    -0.025 A 
ATOM     19  C   UNL     1      26.454 -23.125  35.333  1.00  0.00     0.012 A 
ATOM     20  C   UNL     1      25.212 -25.205  35.391  1.00  0.00     0.012 A 
ATOM     21  C   UNL     1      26.116 -22.962  33.986  1.00  0.00     0.047 A 
ATOM     22  C   UNL     1      24.877 -25.039  34.044  1.00  0.00     0.047 A 
ATOM     23  C   UNL     1      25.326 -23.915  33.339  1.00  0.00     0.115 A 
BRANCH  23  24
ATOM     24  O   UNL     1      24.995 -23.740  31.997  1.00  0.00    -0.508 OA
ATOM     25  H   UNL     1      24.529 -24.466  31.467  1.00  0.00     0.293 HD
ENDBRANCH  23  24
ENDBRANCH  17  18
ENDBRANCH  14  16
ENDBRANCH   1  14
TORSDOF 8
ENDMDL
