MODEL 1
REMARK VINA RESULT:    -4.438      0.000      0.000
REMARK INTER + INTRA:         -10.857
REMARK INTER:                  -8.330
REMARK INTRA:                  -2.526
REMARK UNBOUND:                -2.526
REMARK SMILES CCCCCCCCC=CCCCCCCCC(=O)[O-]
REMARK SMILES IDX 10 1 9 2 11 3 12 4 13 5 14 6 15 7 16 8 17 9 18 10 19 11
REMARK SMILES IDX 20 12 8 13 7 14 6 15 5 16 4 17 3 18 2 19 1 20
REMARK H PARENT
REMARK Flexibility Score: inf
ROOT
ATOM      1  C   UNL     1      -5.562  -5.461   5.160  1.00  0.00    -0.031 C 
ATOM      2  C   UNL     1      -4.685  -5.842   6.108  1.00  0.00    -0.031 C 
ENDROOT
BRANCH   1   3
ATOM      3  C   UNL     1      -7.050  -5.721   5.179  1.00  0.00     0.027 C 
BRANCH   3   4
ATOM      4  C   UNL     1      -7.444  -6.879   4.250  1.00  0.00     0.004 C 
BRANCH   4   5
ATOM      5  C   UNL     1      -7.997  -8.086   5.019  1.00  0.00     0.000 C 
BRANCH   5   6
ATOM      6  C   UNL     1      -6.901  -9.126   5.286  1.00  0.00     0.000 C 
BRANCH   6   7
ATOM      7  C   UNL     1      -5.761  -9.069   4.254  1.00  0.00     0.000 C 
BRANCH   7   8
ATOM      8  C   UNL     1      -4.374  -9.399   4.844  1.00  0.00     0.006 C 
BRANCH   8   9
ATOM      9  C   UNL     1      -3.259  -9.313   3.793  1.00  0.00     0.053 C 
BRANCH   9  10
ATOM     10  C   UNL     1      -2.017  -8.732   4.388  1.00  0.00     0.041 C 
ATOM     11  O   UNL     1      -2.068  -8.104   5.477  1.00  0.00    -0.550 OA
ATOM     12  O   UNL     1      -0.805  -8.853   3.719  1.00  0.00    -0.550 OA
ENDBRANCH   9  10
ENDBRANCH   8   9
ENDBRANCH   7   8
ENDBRANCH   6   7
ENDBRANCH   5   6
ENDBRANCH   4   5
ENDBRANCH   3   4
ENDBRANCH   1   3
BRANCH   2  13
ATOM     13  C   UNL     1      -5.015  -6.633   7.352  1.00  0.00     0.027 C 
BRANCH  13  14
ATOM     14  C   UNL     1      -4.657  -5.870   8.636  1.00  0.00     0.004 C 
BRANCH  14  15
ATOM     15  C   UNL     1      -5.838  -5.091   9.245  1.00  0.00     0.000 C 
BRANCH  15  16
ATOM     16  C   UNL     1      -5.423  -3.730   9.833  1.00  0.00     0.000 C 
BRANCH  16  17
ATOM     17  C   UNL     1      -6.216  -2.562   9.208  1.00  0.00    -0.000 C 
BRANCH  17  18
ATOM     18  C   UNL     1      -7.053  -2.973   7.985  1.00  0.00    -0.000 C 
BRANCH  18  19
ATOM     19  C   UNL     1      -6.694  -2.180   6.721  1.00  0.00    -0.003 C 
ATOM     20  C   UNL     1      -7.900  -2.040   5.798  1.00  0.00     0.004 C 
ENDBRANCH  18  19
ENDBRANCH  17  18
ENDBRANCH  16  17
ENDBRANCH  15  16
ENDBRANCH  14  15
ENDBRANCH  13  14
ENDBRANCH   2  13
TORSDOF 15
ENDMDL
MODEL 2
REMARK VINA RESULT:    -4.438      0.977      2.155
REMARK INTER + INTRA:         -10.856
REMARK INTER:                  -8.566
REMARK INTRA:                  -2.290
REMARK UNBOUND:                -2.526
REMARK SMILES CCCCCCCCC=CCCCCCCCC(=O)[O-]
REMARK SMILES IDX 10 1 9 2 11 3 12 4 13 5 14 6 15 7 16 8 17 9 18 10 19 11
REMARK SMILES IDX 20 12 8 13 7 14 6 15 5 16 4 17 3 18 2 19 1 20
REMARK H PARENT
REMARK Flexibility Score: inf
ROOT
ATOM      1  C   UNL     1      -4.636  -6.092   7.060  1.00  0.00    -0.031 C 
ATOM      2  C   UNL     1      -4.921  -5.995   8.373  1.00  0.00    -0.031 C 
ENDROOT
BRANCH   1   3
ATOM      3  C   UNL     1      -5.271  -5.278   5.957  1.00  0.00     0.027 C 
BRANCH   3   4
ATOM      4  C   UNL     1      -5.599  -6.135   4.725  1.00  0.00     0.004 C 
BRANCH   4   5
ATOM      5  C   UNL     1      -6.772  -7.093   4.972  1.00  0.00     0.000 C 
BRANCH   5   6
ATOM      6  C   UNL     1      -6.445  -8.511   4.489  1.00  0.00     0.000 C 
BRANCH   6   7
ATOM      7  C   UNL     1      -4.995  -8.652   3.991  1.00  0.00     0.000 C 
BRANCH   7   8
ATOM      8  C   UNL     1      -4.094  -9.477   4.934  1.00  0.00     0.006 C 
BRANCH   8   9
ATOM      9  C   UNL     1      -2.764  -9.865   4.274  1.00  0.00     0.053 C 
BRANCH   9  10
ATOM     10  C   UNL     1      -1.766  -8.760   4.409  1.00  0.00     0.041 C 
ATOM     11  O   UNL     1      -0.808  -8.667   3.598  1.00  0.00    -0.550 OA
ATOM     12  O   UNL     1      -1.872  -7.853   5.455  1.00  0.00    -0.550 OA
ENDBRANCH   9  10
ENDBRANCH   8   9
ENDBRANCH   7   8
ENDBRANCH   6   7
ENDBRANCH   5   6
ENDBRANCH   4   5
ENDBRANCH   3   4
ENDBRANCH   1   3
BRANCH   2  13
ATOM     13  C   UNL     1      -5.954  -5.079   8.988  1.00  0.00     0.027 C 
BRANCH  13  14
ATOM     14  C   UNL     1      -5.376  -3.694   9.318  1.00  0.00     0.004 C 
BRANCH  14  15
ATOM     15  C   UNL     1      -6.267  -2.525   8.859  1.00  0.00     0.000 C 
BRANCH  15  16
ATOM     16  C   UNL     1      -5.976  -2.077   7.415  1.00  0.00     0.000 C 
BRANCH  16  17
ATOM     17  C   UNL     1      -7.258  -1.651   6.670  1.00  0.00    -0.000 C 
BRANCH  17  18
ATOM     18  C   UNL     1      -7.851  -2.759   5.784  1.00  0.00    -0.000 C 
BRANCH  18  19
ATOM     19  C   UNL     1      -9.141  -3.358   6.359  1.00  0.00    -0.003 C 
ATOM     20  C   UNL     1      -8.918  -4.787   6.843  1.00  0.00     0.004 C 
ENDBRANCH  18  19
ENDBRANCH  17  18
ENDBRANCH  16  17
ENDBRANCH  15  16
ENDBRANCH  14  15
ENDBRANCH  13  14
ENDBRANCH   2  13
TORSDOF 15
ENDMDL
MODEL 3
REMARK VINA RESULT:    -4.403      1.454      2.982
REMARK INTER + INTRA:         -10.789
REMARK INTER:                  -8.269
REMARK INTRA:                  -2.521
REMARK UNBOUND:                -2.526
REMARK SMILES CCCCCCCCC=CCCCCCCCC(=O)[O-]
REMARK SMILES IDX 10 1 9 2 11 3 12 4 13 5 14 6 15 7 16 8 17 9 18 10 19 11
REMARK SMILES IDX 20 12 8 13 7 14 6 15 5 16 4 17 3 18 2 19 1 20
REMARK H PARENT
REMARK Flexibility Score: inf
ROOT
ATOM      1  C   UNL     1      -4.378  -4.741   8.062  1.00  0.00    -0.031 C 
ATOM      2  C   UNL     1      -4.392  -3.637   8.833  1.00  0.00    -0.031 C 
ENDROOT
BRANCH   1   3
ATOM      3  C   UNL     1      -5.313  -5.921   8.193  1.00  0.00     0.027 C 
BRANCH   3   4
ATOM      4  C   UNL     1      -6.461  -5.862   7.175  1.00  0.00     0.004 C 
BRANCH   4   5
ATOM      5  C   UNL     1      -6.166  -4.902   6.014  1.00  0.00     0.000 C 
BRANCH   5   6
ATOM      6  C   UNL     1      -5.829  -5.669   4.729  1.00  0.00     0.000 C 
BRANCH   6   7
ATOM      7  C   UNL     1      -6.226  -7.155   4.801  1.00  0.00     0.000 C 
BRANCH   7   8
ATOM      8  C   UNL     1      -5.072  -8.122   4.461  1.00  0.00     0.006 C 
BRANCH   8   9
ATOM      9  C   UNL     1      -4.148  -8.367   5.661  1.00  0.00     0.053 C 
BRANCH   9  10
ATOM     10  C   UNL     1      -2.810  -7.739   5.434  1.00  0.00     0.041 C 
ATOM     11  O   UNL     1      -1.820  -8.450   5.122  1.00  0.00    -0.550 OA
ATOM     12  O   UNL     1      -2.648  -6.370   5.603  1.00  0.00    -0.550 OA
ENDBRANCH   9  10
ENDBRANCH   8   9
ENDBRANCH   7   8
ENDBRANCH   6   7
ENDBRANCH   5   6
ENDBRANCH   4   5
ENDBRANCH   3   4
ENDBRANCH   1   3
BRANCH   2  13
ATOM     13  C   UNL     1      -5.320  -3.383   9.997  1.00  0.00     0.027 C 
BRANCH  13  14
ATOM     14  C   UNL     1      -6.652  -2.761   9.551  1.00  0.00     0.004 C 
BRANCH  14  15
ATOM     15  C   UNL     1      -7.879  -3.645   9.843  1.00  0.00     0.000 C 
BRANCH  15  16
ATOM     16  C   UNL     1      -9.059  -3.369   8.894  1.00  0.00     0.000 C 
BRANCH  16  17
ATOM     17  C   UNL     1      -8.631  -2.550   7.658  1.00  0.00    -0.000 C 
BRANCH  17  18
ATOM     18  C   UNL     1      -9.221  -3.076   6.339  1.00  0.00    -0.000 C 
BRANCH  18  19
ATOM     19  C   UNL     1      -8.864  -2.198   5.132  1.00  0.00    -0.003 C 
ATOM     20  C   UNL     1      -7.885  -1.096   5.524  1.00  0.00     0.004 C 
ENDBRANCH  18  19
ENDBRANCH  17  18
ENDBRANCH  16  17
ENDBRANCH  15  16
ENDBRANCH  14  15
ENDBRANCH  13  14
ENDBRANCH   2  13
TORSDOF 15
ENDMDL
MODEL 4
REMARK VINA RESULT:    -4.354      2.906      5.252
REMARK INTER + INTRA:         -10.697
REMARK INTER:                  -8.305
REMARK INTRA:                  -2.392
REMARK UNBOUND:                -2.526
REMARK SMILES CCCCCCCCC=CCCCCCCCC(=O)[O-]
REMARK SMILES IDX 10 1 9 2 11 3 12 4 13 5 14 6 15 7 16 8 17 9 18 10 19 11
REMARK SMILES IDX 20 12 8 13 7 14 6 15 5 16 4 17 3 18 2 19 1 20
REMARK H PARENT
REMARK Flexibility Score: inf
ROOT
ATOM      1  C   UNL     1      -4.949  -9.077   3.849  1.00  0.00    -0.031 C 
ATOM      2  C   UNL     1      -3.638  -9.042   4.156  1.00  0.00    -0.031 C 
ENDROOT
BRANCH   1   3
ATOM      3  C   UNL     1      -6.080  -9.269   4.832  1.00  0.00     0.027 C 
BRANCH   3   4
ATOM      4  C   UNL     1      -7.341  -8.496   4.416  1.00  0.00     0.004 C 
BRANCH   4   5
ATOM      5  C   UNL     1      -7.464  -7.146   5.135  1.00  0.00     0.000 C 
BRANCH   5   6
ATOM      6  C   UNL     1      -6.744  -6.035   4.361  1.00  0.00     0.000 C 
BRANCH   6   7
ATOM      7  C   UNL     1      -6.648  -4.720   5.156  1.00  0.00     0.000 C 
BRANCH   7   8
ATOM      8  C   UNL     1      -7.923  -4.388   5.960  1.00  0.00     0.006 C 
BRANCH   8   9
ATOM      9  C   UNL     1      -7.682  -3.290   7.005  1.00  0.00     0.053 C 
BRANCH   9  10
ATOM     10  C   UNL     1      -7.051  -2.091   6.374  1.00  0.00     0.041 C 
ATOM     11  O   UNL     1      -5.990  -1.608   6.848  1.00  0.00    -0.550 OA
ATOM     12  O   UNL     1      -7.656  -1.482   5.282  1.00  0.00    -0.550 OA
ENDBRANCH   9  10
ENDBRANCH   8   9
ENDBRANCH   7   8
ENDBRANCH   6   7
ENDBRANCH   5   6
ENDBRANCH   4   5
ENDBRANCH   3   4
ENDBRANCH   1   3
BRANCH   2  13
ATOM     13  C   UNL     1      -3.047  -9.224   5.535  1.00  0.00     0.027 C 
BRANCH  13  14
ATOM     14  C   UNL     1      -2.498  -7.908   6.107  1.00  0.00     0.004 C 
BRANCH  14  15
ATOM     15  C   UNL     1      -3.542  -6.778   6.177  1.00  0.00     0.000 C 
BRANCH  15  16
ATOM     16  C   UNL     1      -4.603  -7.006   7.268  1.00  0.00     0.000 C 
BRANCH  16  17
ATOM     17  C   UNL     1      -4.386  -6.089   8.491  1.00  0.00    -0.000 C 
BRANCH  17  18
ATOM     18  C   UNL     1      -4.374  -4.592   8.140  1.00  0.00    -0.000 C 
BRANCH  18  19
ATOM     19  C   UNL     1      -4.871  -3.705   9.289  1.00  0.00    -0.003 C 
ATOM     20  C   UNL     1      -5.930  -4.422  10.120  1.00  0.00     0.004 C 
ENDBRANCH  18  19
ENDBRANCH  17  18
ENDBRANCH  16  17
ENDBRANCH  15  16
ENDBRANCH  14  15
ENDBRANCH  13  14
ENDBRANCH   2  13
TORSDOF 15
ENDMDL
MODEL 5
REMARK VINA RESULT:    -4.347      3.404      6.685
REMARK INTER + INTRA:         -10.684
REMARK INTER:                  -7.821
REMARK INTRA:                  -2.863
REMARK UNBOUND:                -2.526
REMARK SMILES CCCCCCCCC=CCCCCCCCC(=O)[O-]
REMARK SMILES IDX 10 1 9 2 11 3 12 4 13 5 14 6 15 7 16 8 17 9 18 10 19 11
REMARK SMILES IDX 20 12 8 13 7 14 6 15 5 16 4 17 3 18 2 19 1 20
REMARK H PARENT
REMARK Flexibility Score: inf
ROOT
ATOM      1  C   UNL     1      -4.680  -5.780   8.513  1.00  0.00    -0.031 C 
ATOM      2  C   UNL     1      -4.330  -6.776   7.676  1.00  0.00    -0.031 C 
ENDROOT
BRANCH   1   3
ATOM      3  C   UNL     1      -4.591  -4.303   8.213  1.00  0.00     0.027 C 
BRANCH   3   4
ATOM      4  C   UNL     1      -5.300  -3.454   9.279  1.00  0.00     0.004 C 
BRANCH   4   5
ATOM      5  C   UNL     1      -6.688  -4.003   9.637  1.00  0.00     0.000 C 
BRANCH   5   6
ATOM      6  C   UNL     1      -7.704  -2.869   9.823  1.00  0.00     0.000 C 
BRANCH   6   7
ATOM      7  C   UNL     1      -8.494  -2.561   8.538  1.00  0.00     0.000 C 
BRANCH   7   8
ATOM      8  C   UNL     1      -8.074  -1.243   7.854  1.00  0.00     0.006 C 
BRANCH   8   9
ATOM      9  C   UNL     1      -7.185  -1.483   6.626  1.00  0.00     0.053 C 
BRANCH   9  10
ATOM     10  C   UNL     1      -7.957  -1.263   5.365  1.00  0.00     0.041 C 
ATOM     11  O   UNL     1      -8.980  -1.952   5.118  1.00  0.00    -0.550 OA
ATOM     12  O   UNL     1      -7.525  -0.318   4.442  1.00  0.00    -0.550 OA
ENDBRANCH   9  10
ENDBRANCH   8   9
ENDBRANCH   7   8
ENDBRANCH   6   7
ENDBRANCH   5   6
ENDBRANCH   4   5
ENDBRANCH   3   4
ENDBRANCH   1   3
BRANCH   2  13
ATOM     13  C   UNL     1      -3.748  -6.604   6.293  1.00  0.00     0.027 C 
BRANCH  13  14
ATOM     14  C   UNL     1      -3.830  -7.897   5.466  1.00  0.00     0.004 C 
BRANCH  14  15
ATOM     15  C   UNL     1      -4.951  -7.888   4.409  1.00  0.00     0.000 C 
BRANCH  15  16
ATOM     16  C   UNL     1      -6.252  -8.542   4.907  1.00  0.00     0.000 C 
BRANCH  16  17
ATOM     17  C   UNL     1      -7.426  -7.540   4.951  1.00  0.00    -0.000 C 
BRANCH  17  18
ATOM     18  C   UNL     1      -7.614  -6.874   6.325  1.00  0.00    -0.000 C 
BRANCH  18  19
ATOM     19  C   UNL     1      -7.710  -5.345   6.240  1.00  0.00    -0.003 C 
ATOM     20  C   UNL     1      -6.731  -4.788   5.212  1.00  0.00     0.004 C 
ENDBRANCH  18  19
ENDBRANCH  17  18
ENDBRANCH  16  17
ENDBRANCH  15  16
ENDBRANCH  14  15
ENDBRANCH  13  14
ENDBRANCH   2  13
TORSDOF 15
ENDMDL
MODEL 6
REMARK VINA RESULT:    -4.298      3.462      7.473
REMARK INTER + INTRA:         -10.593
REMARK INTER:                  -8.502
REMARK INTRA:                  -2.091
REMARK UNBOUND:                -2.526
REMARK SMILES CCCCCCCCC=CCCCCCCCC(=O)[O-]
REMARK SMILES IDX 10 1 9 2 11 3 12 4 13 5 14 6 15 7 16 8 17 9 18 10 19 11
REMARK SMILES IDX 20 12 8 13 7 14 6 15 5 16 4 17 3 18 2 19 1 20
REMARK H PARENT
REMARK Flexibility Score: inf
ROOT
ATOM      1  C   UNL     1      -4.702  -5.485   7.108  1.00  0.00    -0.031 C 
ATOM      2  C   UNL     1      -5.624  -5.443   6.127  1.00  0.00    -0.031 C 
ENDROOT
BRANCH   1   3
ATOM      3  C   UNL     1      -4.932  -5.983   8.516  1.00  0.00     0.027 C 
BRANCH   3   4
ATOM      4  C   UNL     1      -5.602  -4.920   9.399  1.00  0.00     0.004 C 
BRANCH   4   5
ATOM      5  C   UNL     1      -5.079  -3.506   9.114  1.00  0.00     0.000 C 
BRANCH   5   6
ATOM      6  C   UNL     1      -6.229  -2.535   8.821  1.00  0.00     0.000 C 
BRANCH   6   7
ATOM      7  C   UNL     1      -6.128  -1.896   7.424  1.00  0.00     0.000 C 
BRANCH   7   8
ATOM      8  C   UNL     1      -7.333  -2.208   6.512  1.00  0.00     0.006 C 
BRANCH   8   9
ATOM      9  C   UNL     1      -8.383  -1.089   6.533  1.00  0.00     0.053 C 
BRANCH   9  10
ATOM     10  C   UNL     1      -8.090  -0.071   5.479  1.00  0.00     0.041 C 
ATOM     11  O   UNL     1      -7.564  -0.418   4.389  1.00  0.00    -0.550 OA
ATOM     12  O   UNL     1      -8.364   1.271   5.714  1.00  0.00    -0.550 OA
ENDBRANCH   9  10
ENDBRANCH   8   9
ENDBRANCH   7   8
ENDBRANCH   6   7
ENDBRANCH   5   6
ENDBRANCH   4   5
ENDBRANCH   3   4
ENDBRANCH   1   3
BRANCH   2  13
ATOM     13  C   UNL     1      -7.073  -5.851   6.258  1.00  0.00     0.027 C 
BRANCH  13  14
ATOM     14  C   UNL     1      -7.287  -7.338   5.934  1.00  0.00     0.004 C 
BRANCH  14  15
ATOM     15  C   UNL     1      -6.876  -7.726   4.502  1.00  0.00     0.000 C 
BRANCH  15  16
ATOM     16  C   UNL     1      -6.134  -9.073   4.433  1.00  0.00     0.000 C 
BRANCH  16  17
ATOM     17  C   UNL     1      -4.822  -9.055   5.245  1.00  0.00    -0.000 C 
BRANCH  17  18
ATOM     18  C   UNL     1      -3.558  -9.026   4.369  1.00  0.00    -0.000 C 
BRANCH  18  19
ATOM     19  C   UNL     1      -2.287  -8.697   5.164  1.00  0.00    -0.003 C 
ATOM     20  C   UNL     1      -2.615  -8.375   6.618  1.00  0.00     0.004 C 
ENDBRANCH  18  19
ENDBRANCH  17  18
ENDBRANCH  16  17
ENDBRANCH  15  16
ENDBRANCH  14  15
ENDBRANCH  13  14
ENDBRANCH   2  13
TORSDOF 15
ENDMDL
MODEL 7
REMARK VINA RESULT:    -4.260      3.281      6.526
REMARK INTER + INTRA:         -10.522
REMARK INTER:                  -8.249
REMARK INTRA:                  -2.273
REMARK UNBOUND:                -2.526
REMARK SMILES CCCCCCCCC=CCCCCCCCC(=O)[O-]
REMARK SMILES IDX 10 1 9 2 11 3 12 4 13 5 14 6 15 7 16 8 17 9 18 10 19 11
REMARK SMILES IDX 20 12 8 13 7 14 6 15 5 16 4 17 3 18 2 19 1 20
REMARK H PARENT
REMARK Flexibility Score: inf
ROOT
ATOM      1  C   UNL     1      -3.967  -6.066   6.612  1.00  0.00    -0.031 C 
ATOM      2  C   UNL     1      -3.112  -6.791   5.866  1.00  0.00    -0.031 C 
ENDROOT
BRANCH   1   3
ATOM      3  C   UNL     1      -4.690  -6.549   7.848  1.00  0.00     0.027 C 
BRANCH   3   4
ATOM      4  C   UNL     1      -5.589  -5.460   8.452  1.00  0.00     0.004 C 
BRANCH   4   5
ATOM      5  C   UNL     1      -7.018  -5.503   7.893  1.00  0.00     0.000 C 
BRANCH   5   6
ATOM      6  C   UNL     1      -7.504  -4.103   7.498  1.00  0.00     0.000 C 
BRANCH   6   7
ATOM      7  C   UNL     1      -6.578  -2.984   8.010  1.00  0.00     0.000 C 
BRANCH   7   8
ATOM      8  C   UNL     1      -6.336  -1.861   6.979  1.00  0.00     0.006 C 
BRANCH   8   9
ATOM      9  C   UNL     1      -7.611  -1.063   6.679  1.00  0.00     0.053 C 
BRANCH   9  10
ATOM     10  C   UNL     1      -7.973  -1.170   5.233  1.00  0.00     0.041 C 
ATOM     11  O   UNL     1      -7.533  -0.331   4.404  1.00  0.00    -0.550 OA
ATOM     12  O   UNL     1      -8.828  -2.177   4.804  1.00  0.00    -0.550 OA
ENDBRANCH   9  10
ENDBRANCH   8   9
ENDBRANCH   7   8
ENDBRANCH   6   7
ENDBRANCH   5   6
ENDBRANCH   4   5
ENDBRANCH   3   4
ENDBRANCH   1   3
BRANCH   2  13
ATOM     13  C   UNL     1      -2.741  -8.237   6.103  1.00  0.00     0.027 C 
BRANCH  13  14
ATOM     14  C   UNL     1      -3.276  -9.160   4.997  1.00  0.00     0.004 C 
BRANCH  14  15
ATOM     15  C   UNL     1      -4.756  -9.548   5.176  1.00  0.00     0.000 C 
BRANCH  15  16
ATOM     16  C   UNL     1      -5.693  -8.811   4.202  1.00  0.00     0.000 C 
BRANCH  16  17
ATOM     17  C   UNL     1      -6.664  -7.862   4.936  1.00  0.00    -0.000 C 
BRANCH  17  18
ATOM     18  C   UNL     1      -6.696  -6.441   4.347  1.00  0.00    -0.000 C 
BRANCH  18  19
ATOM     19  C   UNL     1      -8.121  -5.904   4.158  1.00  0.00    -0.003 C 
ATOM     20  C   UNL     1      -9.155  -7.011   4.340  1.00  0.00     0.004 C 
ENDBRANCH  18  19
ENDBRANCH  17  18
ENDBRANCH  16  17
ENDBRANCH  15  16
ENDBRANCH  14  15
ENDBRANCH  13  14
ENDBRANCH   2  13
TORSDOF 15
ENDMDL
MODEL 8
REMARK VINA RESULT:    -4.224      2.718      5.873
REMARK INTER + INTRA:         -10.455
REMARK INTER:                  -7.948
REMARK INTRA:                  -2.507
REMARK UNBOUND:                -2.526
REMARK SMILES CCCCCCCCC=CCCCCCCCC(=O)[O-]
REMARK SMILES IDX 10 1 9 2 11 3 12 4 13 5 14 6 15 7 16 8 17 9 18 10 19 11
REMARK SMILES IDX 20 12 8 13 7 14 6 15 5 16 4 17 3 18 2 19 1 20
REMARK H PARENT
REMARK Flexibility Score: inf
ROOT
ATOM      1  C   UNL     1      -4.771  -6.070   5.351  1.00  0.00    -0.031 C 
ATOM      2  C   UNL     1      -5.583  -6.729   4.502  1.00  0.00    -0.031 C 
ENDROOT
BRANCH   1   3
ATOM      3  C   UNL     1      -3.736  -6.700   6.251  1.00  0.00     0.027 C 
BRANCH   3   4
ATOM      4  C   UNL     1      -4.202  -6.757   7.714  1.00  0.00     0.004 C 
BRANCH   4   5
ATOM      5  C   UNL     1      -5.538  -6.035   7.931  1.00  0.00     0.000 C 
BRANCH   5   6
ATOM      6  C   UNL     1      -5.564  -5.305   9.280  1.00  0.00     0.000 C 
BRANCH   6   7
ATOM      7  C   UNL     1      -6.555  -4.127   9.301  1.00  0.00     0.000 C 
BRANCH   7   8
ATOM      8  C   UNL     1      -5.903  -2.763   8.991  1.00  0.00     0.006 C 
BRANCH   8   9
ATOM      9  C   UNL     1      -6.817  -1.860   8.152  1.00  0.00     0.053 C 
BRANCH   9  10
ATOM     10  C   UNL     1      -6.523  -2.019   6.695  1.00  0.00     0.041 C 
ATOM     11  O   UNL     1      -5.676  -2.864   6.307  1.00  0.00    -0.550 OA
ATOM     12  O   UNL     1      -7.161  -1.207   5.765  1.00  0.00    -0.550 OA
ENDBRANCH   9  10
ENDBRANCH   8   9
ENDBRANCH   7   8
ENDBRANCH   6   7
ENDBRANCH   5   6
ENDBRANCH   4   5
ENDBRANCH   3   4
ENDBRANCH   1   3
BRANCH   2  13
ATOM     13  C   UNL     1      -5.636  -8.228   4.315  1.00  0.00     0.027 C 
BRANCH  13  14
ATOM     14  C   UNL     1      -6.772  -8.872   5.126  1.00  0.00     0.004 C 
BRANCH  14  15
ATOM     15  C   UNL     1      -8.138  -8.186   4.935  1.00  0.00     0.000 C 
BRANCH  15  16
ATOM     16  C   UNL     1      -8.881  -7.945   6.261  1.00  0.00     0.000 C 
BRANCH  16  17
ATOM     17  C   UNL     1      -9.582  -6.570   6.292  1.00  0.00    -0.000 C 
BRANCH  17  18
ATOM     18  C   UNL     1      -8.604  -5.383   6.327  1.00  0.00    -0.000 C 
BRANCH  18  19
ATOM     19  C   UNL     1      -8.976  -4.273   5.336  1.00  0.00    -0.003 C 
ATOM     20  C   UNL     1      -8.295  -4.486   3.988  1.00  0.00     0.004 C 
ENDBRANCH  18  19
ENDBRANCH  17  18
ENDBRANCH  16  17
ENDBRANCH  15  16
ENDBRANCH  14  15
ENDBRANCH  13  14
ENDBRANCH   2  13
TORSDOF 15
ENDMDL
MODEL 9
REMARK VINA RESULT:    -4.208      2.821      6.925
REMARK INTER + INTRA:         -10.425
REMARK INTER:                  -7.870
REMARK INTRA:                  -2.554
REMARK UNBOUND:                -2.526
REMARK SMILES CCCCCCCCC=CCCCCCCCC(=O)[O-]
REMARK SMILES IDX 10 1 9 2 11 3 12 4 13 5 14 6 15 7 16 8 17 9 18 10 19 11
REMARK SMILES IDX 20 12 8 13 7 14 6 15 5 16 4 17 3 18 2 19 1 20
REMARK H PARENT
REMARK Flexibility Score: inf
ROOT
ATOM      1  C   UNL     1      -4.933  -5.664   8.553  1.00  0.00    -0.031 C 
ATOM      2  C   UNL     1      -5.326  -6.404   7.499  1.00  0.00    -0.031 C 
ENDROOT
BRANCH   1   3
ATOM      3  C   UNL     1      -4.332  -4.280   8.484  1.00  0.00     0.027 C 
BRANCH   3   4
ATOM      4  C   UNL     1      -4.856  -3.368   9.604  1.00  0.00     0.004 C 
BRANCH   4   5
ATOM      5  C   UNL     1      -6.013  -4.005  10.385  1.00  0.00     0.000 C 
BRANCH   5   6
ATOM      6  C   UNL     1      -7.249  -3.097  10.389  1.00  0.00     0.000 C 
BRANCH   6   7
ATOM      7  C   UNL     1      -8.398  -3.650   9.526  1.00  0.00     0.000 C 
BRANCH   7   8
ATOM      8  C   UNL     1      -8.555  -2.931   8.170  1.00  0.00     0.006 C 
BRANCH   8   9
ATOM      9  C   UNL     1      -7.953  -3.737   7.011  1.00  0.00     0.053 C 
BRANCH   9  10
ATOM     10  C   UNL     1      -7.204  -2.841   6.078  1.00  0.00     0.041 C 
ATOM     11  O   UNL     1      -6.246  -2.143   6.501  1.00  0.00    -0.550 OA
ATOM     12  O   UNL     1      -7.588  -2.748   4.746  1.00  0.00    -0.550 OA
ENDBRANCH   9  10
ENDBRANCH   8   9
ENDBRANCH   7   8
ENDBRANCH   6   7
ENDBRANCH   5   6
ENDBRANCH   4   5
ENDBRANCH   3   4
ENDBRANCH   1   3
BRANCH   2  13
ATOM     13  C   UNL     1      -5.208  -6.006   6.046  1.00  0.00     0.027 C 
BRANCH  13  14
ATOM     14  C   UNL     1      -6.351  -6.581   5.194  1.00  0.00     0.004 C 
BRANCH  14  15
ATOM     15  C   UNL     1      -5.944  -7.809   4.358  1.00  0.00     0.000 C 
BRANCH  15  16
ATOM     16  C   UNL     1      -5.945  -9.116   5.169  1.00  0.00     0.000 C 
BRANCH  16  17
ATOM     17  C   UNL     1      -4.542  -9.756   5.240  1.00  0.00    -0.000 C 
BRANCH  17  18
ATOM     18  C   UNL     1      -3.498  -9.046   4.361  1.00  0.00    -0.000 C 
BRANCH  18  19
ATOM     19  C   UNL     1      -2.401  -8.352   5.180  1.00  0.00    -0.003 C 
ATOM     20  C   UNL     1      -2.580  -8.611   6.672  1.00  0.00     0.004 C 
ENDBRANCH  18  19
ENDBRANCH  17  18
ENDBRANCH  16  17
ENDBRANCH  15  16
ENDBRANCH  14  15
ENDBRANCH  13  14
ENDBRANCH   2  13
TORSDOF 15
ENDMDL
