MODEL 1
REMARK VINA RESULT:    -4.641      0.000      0.000
REMARK INTER + INTRA:          -5.080
REMARK INTER:                  -4.912
REMARK INTRA:                  -0.168
REMARK UNBOUND:                -0.168
REMARK SMILES CC(C)[C@@H]1CC[C@@H](C)CC1=O
REMARK SMILES IDX 8 1 7 2 6 3 5 4 4 5 10 6 11 7 9 8 2 9 1 10 3 11
REMARK H PARENT
REMARK Flexibility Score: inf
ROOT
ATOM      1  C   UNL     1      -8.507   5.917   4.980  1.00  0.00     0.008 C 
ATOM      2  C   UNL     1      -7.873   5.462   3.660  1.00  0.00    -0.007 C 
ATOM      3  C   UNL     1      -6.622   6.305   3.339  1.00  0.00     0.004 C 
ATOM      4  C   UNL     1      -5.974   5.877   2.009  1.00  0.00     0.012 C 
ATOM      5  C   UNL     1      -6.972   5.972   0.829  1.00  0.00     0.058 C 
ATOM      6  C   UNL     1      -8.218   5.193   1.222  1.00  0.00     0.136 C 
ATOM      7  O   UNL     1      -8.625   4.249   0.562  1.00  0.00    -0.299 OA
ATOM      8  C   UNL     1      -8.895   5.548   2.513  1.00  0.00     0.079 C 
ENDROOT
BRANCH   5   9
ATOM      9  C   UNL     1      -6.365   5.500  -0.534  1.00  0.00    -0.007 C 
ATOM     10  C   UNL     1      -6.514   6.593  -1.609  1.00  0.00     0.008 C 
ATOM     11  C   UNL     1      -4.876   5.125  -0.425  1.00  0.00     0.008 C 
ENDBRANCH   5   9
TORSDOF 1
ENDMDL
MODEL 2
REMARK VINA RESULT:    -4.592      1.402      1.784
REMARK INTER + INTRA:          -5.028
REMARK INTER:                  -4.883
REMARK INTRA:                  -0.145
REMARK UNBOUND:                -0.168
REMARK SMILES CC(C)[C@@H]1CC[C@@H](C)CC1=O
REMARK SMILES IDX 8 1 7 2 6 3 5 4 4 5 10 6 11 7 9 8 2 9 1 10 3 11
REMARK H PARENT
REMARK Flexibility Score: inf
ROOT
ATOM      1  C   UNL     1      -6.700   6.194   4.683  1.00  0.00     0.008 C 
ATOM      2  C   UNL     1      -6.895   5.713   3.240  1.00  0.00    -0.007 C 
ATOM      3  C   UNL     1      -6.435   6.795   2.241  1.00  0.00     0.004 C 
ATOM      4  C   UNL     1      -6.634   6.343   0.782  1.00  0.00     0.012 C 
ATOM      5  C   UNL     1      -8.110   5.973   0.493  1.00  0.00     0.058 C 
ATOM      6  C   UNL     1      -8.541   4.965   1.547  1.00  0.00     0.136 C 
ATOM      7  O   UNL     1      -8.946   3.850   1.249  1.00  0.00    -0.299 OA
ATOM      8  C   UNL     1      -8.365   5.333   2.990  1.00  0.00     0.079 C 
ENDROOT
BRANCH   5   9
ATOM      9  C   UNL     1      -8.345   5.463  -0.968  1.00  0.00    -0.007 C 
ATOM     10  C   UNL     1      -9.730   5.895  -1.484  1.00  0.00     0.008 C 
ATOM     11  C   UNL     1      -7.278   5.970  -1.954  1.00  0.00     0.008 C 
ENDBRANCH   5   9
TORSDOF 1
ENDMDL
MODEL 3
REMARK VINA RESULT:    -4.536      1.638      4.479
REMARK INTER + INTRA:          -4.969
REMARK INTER:                  -4.805
REMARK INTRA:                  -0.164
REMARK UNBOUND:                -0.168
REMARK SMILES CC(C)[C@@H]1CC[C@@H](C)CC1=O
REMARK SMILES IDX 8 1 7 2 6 3 5 4 4 5 10 6 11 7 9 8 2 9 1 10 3 11
REMARK H PARENT
REMARK Flexibility Score: inf
ROOT
ATOM      1  C   UNL     1      -7.644   5.906  -0.628  1.00  0.00     0.008 C 
ATOM      2  C   UNL     1      -7.691   6.270   0.861  1.00  0.00    -0.007 C 
ATOM      3  C   UNL     1      -6.375   5.871   1.559  1.00  0.00     0.004 C 
ATOM      4  C   UNL     1      -6.402   6.212   3.061  1.00  0.00     0.012 C 
ATOM      5  C   UNL     1      -7.591   5.530   3.782  1.00  0.00     0.058 C 
ATOM      6  C   UNL     1      -8.854   5.887   3.015  1.00  0.00     0.136 C 
ATOM      7  O   UNL     1      -9.789   6.470   3.543  1.00  0.00    -0.299 OA
ATOM      8  C   UNL     1      -8.893   5.594   1.544  1.00  0.00     0.079 C 
ENDROOT
BRANCH   5   9
ATOM      9  C   UNL     1      -7.681   5.890   5.303  1.00  0.00    -0.007 C 
ATOM     10  C   UNL     1      -7.911   4.627   6.153  1.00  0.00     0.008 C 
ATOM     11  C   UNL     1      -6.419   6.603   5.821  1.00  0.00     0.008 C 
ENDBRANCH   5   9
TORSDOF 1
ENDMDL
MODEL 4
REMARK VINA RESULT:    -4.465      2.108      3.151
REMARK INTER + INTRA:          -4.894
REMARK INTER:                  -4.741
REMARK INTRA:                  -0.153
REMARK UNBOUND:                -0.168
REMARK SMILES CC(C)[C@@H]1CC[C@@H](C)CC1=O
REMARK SMILES IDX 8 1 7 2 6 3 5 4 4 5 10 6 11 7 9 8 2 9 1 10 3 11
REMARK H PARENT
REMARK Flexibility Score: inf
ROOT
ATOM      1  C   UNL     1      -6.139   6.474   5.886  1.00  0.00     0.008 C 
ATOM      2  C   UNL     1      -6.903   6.525   4.558  1.00  0.00    -0.007 C 
ATOM      3  C   UNL     1      -8.273   5.829   4.693  1.00  0.00     0.004 C 
ATOM      4  C   UNL     1      -9.056   5.852   3.367  1.00  0.00     0.012 C 
ATOM      5  C   UNL     1      -8.257   5.189   2.218  1.00  0.00     0.058 C 
ATOM      6  C   UNL     1      -6.890   5.853   2.173  1.00  0.00     0.136 C 
ATOM      7  O   UNL     1      -6.481   6.426   1.174  1.00  0.00    -0.299 OA
ATOM      8  C   UNL     1      -6.075   5.878   3.433  1.00  0.00     0.079 C 
ENDROOT
BRANCH   5   9
ATOM      9  C   UNL     1      -9.000   5.235   0.841  1.00  0.00    -0.007 C 
ATOM     10  C   UNL     1      -8.744   3.948   0.036  1.00  0.00     0.008 C 
ATOM     11  C   UNL     1     -10.521   5.422   0.991  1.00  0.00     0.008 C 
ENDBRANCH   5   9
TORSDOF 1
ENDMDL
MODEL 5
REMARK VINA RESULT:    -4.463      1.916      4.679
REMARK INTER + INTRA:          -4.891
REMARK INTER:                  -4.793
REMARK INTRA:                  -0.098
REMARK UNBOUND:                -0.168
REMARK SMILES CC(C)[C@@H]1CC[C@@H](C)CC1=O
REMARK SMILES IDX 8 1 7 2 6 3 5 4 4 5 10 6 11 7 9 8 2 9 1 10 3 11
REMARK H PARENT
REMARK Flexibility Score: inf
ROOT
ATOM      1  C   UNL     1      -8.925   5.899  -3.633  1.00  0.00     0.008 C 
ATOM      2  C   UNL     1      -8.421   5.444  -2.258  1.00  0.00    -0.007 C 
ATOM      3  C   UNL     1      -9.512   5.646  -1.187  1.00  0.00     0.004 C 
ATOM      4  C   UNL     1      -9.025   5.210   0.209  1.00  0.00     0.012 C 
ATOM      5  C   UNL     1      -7.744   5.971   0.632  1.00  0.00     0.058 C 
ATOM      6  C   UNL     1      -6.728   5.809  -0.487  1.00  0.00     0.136 C 
ATOM      7  O   UNL     1      -5.633   5.300  -0.298  1.00  0.00    -0.299 OA
ATOM      8  C   UNL     1      -7.138   6.202  -1.876  1.00  0.00     0.079 C 
ENDROOT
BRANCH   5   9
ATOM      9  C   UNL     1      -7.191   5.522   2.026  1.00  0.00    -0.007 C 
ATOM     10  C   UNL     1      -6.396   6.660   2.693  1.00  0.00     0.008 C 
ATOM     11  C   UNL     1      -8.303   5.074   2.992  1.00  0.00     0.008 C 
ENDBRANCH   5   9
TORSDOF 1
ENDMDL
MODEL 6
REMARK VINA RESULT:    -4.453      1.786      2.573
REMARK INTER + INTRA:          -4.880
REMARK INTER:                  -4.706
REMARK INTRA:                  -0.175
REMARK UNBOUND:                -0.168
REMARK SMILES CC(C)[C@@H]1CC[C@@H](C)CC1=O
REMARK SMILES IDX 8 1 7 2 6 3 5 4 4 5 10 6 11 7 9 8 2 9 1 10 3 11
REMARK H PARENT
REMARK Flexibility Score: inf
ROOT
ATOM      1  C   UNL     1      -7.917   5.013   5.722  1.00  0.00     0.008 C 
ATOM      2  C   UNL     1      -7.867   5.716   4.361  1.00  0.00    -0.007 C 
ATOM      3  C   UNL     1      -8.368   4.775   3.246  1.00  0.00     0.004 C 
ATOM      4  C   UNL     1      -8.313   5.452   1.863  1.00  0.00     0.012 C 
ATOM      5  C   UNL     1      -6.883   5.937   1.519  1.00  0.00     0.058 C 
ATOM      6  C   UNL     1      -6.403   6.795   2.679  1.00  0.00     0.136 C 
ATOM      7  O   UNL     1      -6.070   7.962   2.527  1.00  0.00    -0.299 OA
ATOM      8  C   UNL     1      -6.440   6.205   4.058  1.00  0.00     0.079 C 
ENDROOT
BRANCH   5   9
ATOM      9  C   UNL     1      -6.795   6.674   0.141  1.00  0.00    -0.007 C 
ATOM     10  C   UNL     1      -6.090   5.793  -0.908  1.00  0.00     0.008 C 
ATOM     11  C   UNL     1      -8.175   7.076  -0.409  1.00  0.00     0.008 C 
ENDBRANCH   5   9
TORSDOF 1
ENDMDL
MODEL 7
REMARK VINA RESULT:    -4.395      1.628      2.415
REMARK INTER + INTRA:          -4.820
REMARK INTER:                  -4.719
REMARK INTRA:                  -0.100
REMARK UNBOUND:                -0.168
REMARK SMILES CC(C)[C@@H]1CC[C@@H](C)CC1=O
REMARK SMILES IDX 8 1 7 2 6 3 5 4 4 5 10 6 11 7 9 8 2 9 1 10 3 11
REMARK H PARENT
REMARK Flexibility Score: inf
ROOT
ATOM      1  C   UNL     1      -7.919   5.138   4.646  1.00  0.00     0.008 C 
ATOM      2  C   UNL     1      -8.076   5.679   3.220  1.00  0.00    -0.007 C 
ATOM      3  C   UNL     1      -8.550   4.564   2.266  1.00  0.00     0.004 C 
ATOM      4  C   UNL     1      -8.701   5.078   0.821  1.00  0.00     0.012 C 
ATOM      5  C   UNL     1      -7.379   5.682   0.286  1.00  0.00     0.058 C 
ATOM      6  C   UNL     1      -6.912   6.718   1.296  1.00  0.00     0.136 C 
ATOM      7  O   UNL     1      -6.743   7.890   0.990  1.00  0.00    -0.299 OA
ATOM      8  C   UNL     1      -6.754   6.291   2.725  1.00  0.00     0.079 C 
ENDROOT
BRANCH   5   9
ATOM      9  C   UNL     1      -7.505   6.259  -1.163  1.00  0.00    -0.007 C 
ATOM     10  C   UNL     1      -6.146   6.226  -1.887  1.00  0.00     0.008 C 
ATOM     11  C   UNL     1      -8.532   5.497  -2.020  1.00  0.00     0.008 C 
ENDBRANCH   5   9
TORSDOF 1
ENDMDL
MODEL 8
REMARK VINA RESULT:    -4.386      2.054      4.766
REMARK INTER + INTRA:          -4.810
REMARK INTER:                  -4.636
REMARK INTRA:                  -0.174
REMARK UNBOUND:                -0.168
REMARK SMILES CC(C)[C@@H]1CC[C@@H](C)CC1=O
REMARK SMILES IDX 8 1 7 2 6 3 5 4 4 5 10 6 11 7 9 8 2 9 1 10 3 11
REMARK H PARENT
REMARK Flexibility Score: inf
ROOT
ATOM      1  C   UNL     1      -6.696   7.720  -3.385  1.00  0.00     0.008 C 
ATOM      2  C   UNL     1      -7.383   7.125  -2.151  1.00  0.00    -0.007 C 
ATOM      3  C   UNL     1      -6.443   6.136  -1.430  1.00  0.00     0.004 C 
ATOM      4  C   UNL     1      -7.116   5.512  -0.193  1.00  0.00     0.012 C 
ATOM      5  C   UNL     1      -8.435   4.788  -0.562  1.00  0.00     0.058 C 
ATOM      6  C   UNL     1      -9.294   5.775  -1.336  1.00  0.00     0.136 C 
ATOM      7  O   UNL     1     -10.409   6.100  -0.955  1.00  0.00    -0.299 OA
ATOM      8  C   UNL     1      -8.699   6.432  -2.546  1.00  0.00     0.079 C 
ENDROOT
BRANCH   5   9
ATOM      9  C   UNL     1      -9.173   4.180   0.677  1.00  0.00    -0.007 C 
ATOM     10  C   UNL     1      -9.076   2.643   0.674  1.00  0.00     0.008 C 
ATOM     11  C   UNL     1      -8.618   4.700   2.015  1.00  0.00     0.008 C 
ENDBRANCH   5   9
TORSDOF 1
ENDMDL
MODEL 9
REMARK VINA RESULT:    -4.227      2.461      5.553
REMARK INTER + INTRA:          -4.642
REMARK INTER:                  -4.487
REMARK INTRA:                  -0.155
REMARK UNBOUND:                -0.168
REMARK SMILES CC(C)[C@@H]1CC[C@@H](C)CC1=O
REMARK SMILES IDX 8 1 7 2 6 3 5 4 4 5 10 6 11 7 9 8 2 9 1 10 3 11
REMARK H PARENT
REMARK Flexibility Score: inf
ROOT
ATOM      1  C   UNL     1      -8.228   7.564  -5.129  1.00  0.00     0.008 C 
ATOM      2  C   UNL     1      -7.978   6.620  -3.948  1.00  0.00    -0.007 C 
ATOM      3  C   UNL     1      -9.266   6.437  -3.118  1.00  0.00     0.004 C 
ATOM      4  C   UNL     1      -9.038   5.504  -1.914  1.00  0.00     0.012 C 
ATOM      5  C   UNL     1      -7.905   6.022  -0.993  1.00  0.00     0.058 C 
ATOM      6  C   UNL     1      -6.683   6.261  -1.866  1.00  0.00     0.136 C 
ATOM      7  O   UNL     1      -5.621   5.691  -1.663  1.00  0.00    -0.299 OA
ATOM      8  C   UNL     1      -6.835   7.150  -3.065  1.00  0.00     0.079 C 
ENDROOT
BRANCH   5   9
ATOM      9  C   UNL     1      -7.610   5.075   0.218  1.00  0.00    -0.007 C 
ATOM     10  C   UNL     1      -7.271   5.889   1.481  1.00  0.00     0.008 C 
ATOM     11  C   UNL     1      -8.789   4.140   0.543  1.00  0.00     0.008 C 
ENDBRANCH   5   9
TORSDOF 1
ENDMDL
