MODEL 1
REMARK VINA RESULT:    -6.234      0.000      0.000
REMARK INTER + INTRA:         -11.294
REMARK INTER:                  -9.514
REMARK INTRA:                  -1.780
REMARK UNBOUND:                -1.780
REMARK SMILES OC[C@H]1O[C@@H](O[C@]2(CO)O[C@H](CO)[C@@H](O)[C@H]2O)[C@@H](O)[C@@H](O)[C@H]1O
REMARK SMILES IDX 6 1 5 2 3 3 22 4 4 5 20 6 18 7 2 8 1 9 23 11 21 13 19 15
REMARK SMILES IDX 7 17 16 18 10 19 14 20 11 21 8 22 9 23 17 25 15 27 12 29
REMARK SMILES IDX 13 30
REMARK H PARENT 1 10 23 12 21 14 19 16 9 24 17 26 15 28 13 31
REMARK Flexibility Score: inf
ROOT
ATOM      1  O   UNL     1      16.844 -29.907 -32.875  1.00  0.00    -0.313 OA
ENDROOT
BRANCH   1   2
ATOM      2  C   UNL     1      16.484 -28.685 -32.241  1.00  0.00     0.285 C 
ATOM      3  C   UNL     1      17.133 -29.300 -30.013  1.00  0.00     0.178 C 
ATOM      4  C   UNL     1      15.654 -29.372 -29.553  1.00  0.00     0.177 C 
ATOM      5  O   UNL     1      17.334 -28.431 -31.127  1.00  0.00    -0.341 OA
ATOM      6  C   UNL     1      14.704 -29.670 -30.718  1.00  0.00     0.179 C 
ATOM      7  C   UNL     1      14.991 -28.682 -31.856  1.00  0.00     0.202 C 
BRANCH   3   8
ATOM      8  C   UNL     1      17.820 -30.672 -30.188  1.00  0.00     0.191 C 
BRANCH   8   9
ATOM      9  O   UNL     1      19.025 -30.523 -30.890  1.00  0.00    -0.394 OA
ATOM     10  H   UNL     1      18.834 -29.954 -31.679  1.00  0.00     0.210 HD
ENDBRANCH   8   9
ENDBRANCH   3   8
BRANCH   4  11
ATOM     11  O   UNL     1      15.500 -30.326 -28.532  1.00  0.00    -0.387 OA
ATOM     12  H   UNL     1      14.676 -30.839 -28.740  1.00  0.00     0.211 HD
ENDBRANCH   4  11
BRANCH   6  13
ATOM     13  O   UNL     1      14.855 -30.999 -31.149  1.00  0.00    -0.387 OA
ATOM     14  H   UNL     1      13.969 -31.298 -31.484  1.00  0.00     0.211 HD
ENDBRANCH   6  13
BRANCH   7  15
ATOM     15  O   UNL     1      14.207 -28.982 -32.981  1.00  0.00    -0.385 OA
ATOM     16  H   UNL     1      14.823 -29.333 -33.675  1.00  0.00     0.211 HD
ENDBRANCH   7  15
ENDBRANCH   1   2
BRANCH   1  17
ATOM     17  C   UNL     1      17.663 -29.777 -34.038  1.00  0.00     0.224 C 
ATOM     18  C   UNL     1      17.075 -28.806 -35.088  1.00  0.00     0.208 C 
ATOM     19  O   UNL     1      18.879 -29.202 -33.605  1.00  0.00    -0.337 OA
ATOM     20  C   UNL     1      18.290 -28.126 -35.679  1.00  0.00     0.180 C 
ATOM     21  C   UNL     1      19.363 -28.328 -34.606  1.00  0.00     0.179 C 
BRANCH  17  22
ATOM     22  C   UNL     1      17.999 -31.175 -34.626  1.00  0.00     0.225 C 
BRANCH  22  23
ATOM     23  O   UNL     1      18.850 -31.881 -33.761  1.00  0.00    -0.391 OA
ATOM     24  H   UNL     1      18.569 -31.657 -32.836  1.00  0.00     0.210 HD
ENDBRANCH  22  23
ENDBRANCH  17  22
BRANCH  18  25
ATOM     25  O   UNL     1      16.312 -29.463 -36.071  1.00  0.00    -0.385 OA
ATOM     26  H   UNL     1      16.420 -30.435 -35.907  1.00  0.00     0.211 HD
ENDBRANCH  18  25
BRANCH  20  27
ATOM     27  O   UNL     1      18.697 -28.749 -36.873  1.00  0.00    -0.387 OA
ATOM     28  H   UNL     1      18.294 -29.656 -36.878  1.00  0.00     0.211 HD
ENDBRANCH  20  27
BRANCH  21  29
ATOM     29  C   UNL     1      19.774 -26.997 -33.960  1.00  0.00     0.191 C 
BRANCH  29  30
ATOM     30  O   UNL     1      19.650 -27.066 -32.565  1.00  0.00    -0.394 OA
ATOM     31  H   UNL     1      20.410 -27.614 -32.239  1.00  0.00     0.210 HD
ENDBRANCH  29  30
ENDBRANCH  21  29
ENDBRANCH   1  17
TORSDOF 13
ENDMDL
MODEL 2
REMARK VINA RESULT:    -6.211      2.077      4.509
REMARK INTER + INTRA:         -11.258
REMARK INTER:                  -9.425
REMARK INTRA:                  -1.833
REMARK UNBOUND:                -1.780
REMARK SMILES OC[C@H]1O[C@@H](O[C@]2(CO)O[C@H](CO)[C@@H](O)[C@H]2O)[C@@H](O)[C@@H](O)[C@H]1O
REMARK SMILES IDX 6 1 5 2 3 3 22 4 4 5 20 6 18 7 2 8 1 9 23 11 21 13 19 15
REMARK SMILES IDX 7 17 16 18 10 19 14 20 11 21 8 22 9 23 17 25 15 27 12 29
REMARK SMILES IDX 13 30
REMARK H PARENT 1 10 23 12 21 14 19 16 9 24 17 26 15 28 13 31
REMARK Flexibility Score: inf
ROOT
ATOM      1  O   UNL     1      15.852 -28.580 -31.245  1.00  0.00    -0.313 OA
ENDROOT
BRANCH   1   2
ATOM      2  C   UNL     1      14.716 -29.380 -30.937  1.00  0.00     0.285 C 
ATOM      3  C   UNL     1      13.176 -28.304 -32.431  1.00  0.00     0.178 C 
ATOM      4  C   UNL     1      12.402 -27.667 -31.248  1.00  0.00     0.177 C 
ATOM      5  O   UNL     1      13.866 -29.500 -32.073  1.00  0.00    -0.341 OA
ATOM      6  C   UNL     1      13.287 -27.495 -30.008  1.00  0.00     0.179 C 
ATOM      7  C   UNL     1      13.975 -28.831 -29.701  1.00  0.00     0.202 C 
BRANCH   3   8
ATOM      8  C   UNL     1      14.055 -27.316 -33.229  1.00  0.00     0.191 C 
BRANCH   8   9
ATOM      9  O   UNL     1      14.931 -28.020 -34.069  1.00  0.00    -0.394 OA
ATOM     10  H   UNL     1      15.065 -27.465 -34.880  1.00  0.00     0.210 HD
ENDBRANCH   8   9
ENDBRANCH   3   8
BRANCH   4  11
ATOM     11  O   UNL     1      11.839 -26.437 -31.629  1.00  0.00    -0.387 OA
ATOM     12  H   UNL     1      11.817 -25.866 -30.817  1.00  0.00     0.211 HD
ENDBRANCH   4  11
BRANCH   6  13
ATOM     13  O   UNL     1      14.229 -26.473 -30.215  1.00  0.00    -0.387 OA
ATOM     14  H   UNL     1      13.727 -25.618 -30.259  1.00  0.00     0.211 HD
ENDBRANCH   6  13
BRANCH   7  15
ATOM     15  O   UNL     1      14.870 -28.691 -28.629  1.00  0.00    -0.385 OA
ATOM     16  H   UNL     1      14.981 -27.718 -28.473  1.00  0.00     0.211 HD
ENDBRANCH   7  15
ENDBRANCH   1   2
BRANCH   1  17
ATOM     17  C   UNL     1      17.049 -29.301 -31.544  1.00  0.00     0.224 C 
ATOM     18  C   UNL     1      17.034 -30.749 -31.002  1.00  0.00     0.208 C 
ATOM     19  O   UNL     1      17.107 -29.407 -32.952  1.00  0.00    -0.337 OA
ATOM     20  C   UNL     1      17.773 -31.543 -32.057  1.00  0.00     0.180 C 
ATOM     21  C   UNL     1      17.664 -30.658 -33.302  1.00  0.00     0.179 C 
BRANCH  17  22
ATOM     22  C   UNL     1      18.297 -28.496 -31.091  1.00  0.00     0.225 C 
BRANCH  22  23
ATOM     23  O   UNL     1      18.993 -27.998 -32.203  1.00  0.00    -0.391 OA
ATOM     24  H   UNL     1      19.116 -27.025 -32.053  1.00  0.00     0.210 HD
ENDBRANCH  22  23
ENDBRANCH  17  22
BRANCH  18  25
ATOM     25  O   UNL     1      17.642 -30.863 -29.738  1.00  0.00    -0.385 OA
ATOM     26  H   UNL     1      18.441 -30.277 -29.756  1.00  0.00     0.211 HD
ENDBRANCH  18  25
BRANCH  20  27
ATOM     27  O   UNL     1      19.128 -31.711 -31.717  1.00  0.00    -0.387 OA
ATOM     28  H   UNL     1      19.545 -30.810 -31.735  1.00  0.00     0.211 HD
ENDBRANCH  20  27
BRANCH  21  29
ATOM     29  C   UNL     1      16.797 -31.313 -34.386  1.00  0.00     0.191 C 
BRANCH  29  30
ATOM     30  O   UNL     1      15.538 -30.698 -34.450  1.00  0.00    -0.394 OA
ATOM     31  H   UNL     1      14.905 -31.383 -34.788  1.00  0.00     0.210 HD
ENDBRANCH  29  30
ENDBRANCH  21  29
ENDBRANCH   1  17
TORSDOF 13
ENDMDL
MODEL 3
REMARK VINA RESULT:    -6.171      1.279      1.806
REMARK INTER + INTRA:         -11.198
REMARK INTER:                  -9.626
REMARK INTRA:                  -1.573
REMARK UNBOUND:                -1.780
REMARK SMILES OC[C@H]1O[C@@H](O[C@]2(CO)O[C@H](CO)[C@@H](O)[C@H]2O)[C@@H](O)[C@@H](O)[C@H]1O
REMARK SMILES IDX 6 1 5 2 3 3 22 4 4 5 20 6 18 7 2 8 1 9 23 11 21 13 19 15
REMARK SMILES IDX 7 17 16 18 10 19 14 20 11 21 8 22 9 23 17 25 15 27 12 29
REMARK SMILES IDX 13 30
REMARK H PARENT 1 10 23 12 21 14 19 16 9 24 17 26 15 28 13 31
REMARK Flexibility Score: inf
ROOT
ATOM      1  O   UNL     1      16.895 -29.910 -32.803  1.00  0.00    -0.313 OA
ENDROOT
BRANCH   1   2
ATOM      2  C   UNL     1      16.505 -28.675 -32.214  1.00  0.00     0.285 C 
ATOM      3  C   UNL     1      17.009 -29.254 -29.939  1.00  0.00     0.178 C 
ATOM      4  C   UNL     1      15.504 -29.309 -29.572  1.00  0.00     0.177 C 
ATOM      5  O   UNL     1      17.285 -28.407 -31.053  1.00  0.00    -0.341 OA
ATOM      6  C   UNL     1      14.626 -29.621 -30.789  1.00  0.00     0.179 C 
ATOM      7  C   UNL     1      14.991 -28.656 -31.923  1.00  0.00     0.202 C 
BRANCH   3   8
ATOM      8  C   UNL     1      17.695 -30.634 -30.047  1.00  0.00     0.191 C 
BRANCH   8   9
ATOM      9  O   UNL     1      19.016 -30.483 -30.493  1.00  0.00    -0.394 OA
ATOM     10  H   UNL     1      18.979 -30.366 -31.477  1.00  0.00     0.210 HD
ENDBRANCH   8   9
ENDBRANCH   3   8
BRANCH   4  11
ATOM     11  O   UNL     1      15.278 -30.244 -28.547  1.00  0.00    -0.387 OA
ATOM     12  H   UNL     1      14.361 -30.600 -28.678  1.00  0.00     0.211 HD
ENDBRANCH   4  11
BRANCH   6  13
ATOM     13  O   UNL     1      14.793 -30.959 -31.186  1.00  0.00    -0.387 OA
ATOM     14  H   UNL     1      15.733 -31.057 -31.490  1.00  0.00     0.211 HD
ENDBRANCH   6  13
BRANCH   7  15
ATOM     15  O   UNL     1      14.277 -28.970 -33.090  1.00  0.00    -0.385 OA
ATOM     16  H   UNL     1      13.740 -28.169 -33.322  1.00  0.00     0.211 HD
ENDBRANCH   7  15
ENDBRANCH   1   2
BRANCH   1  17
ATOM     17  C   UNL     1      17.539 -29.808 -34.074  1.00  0.00     0.224 C 
ATOM     18  C   UNL     1      16.706 -30.421 -35.225  1.00  0.00     0.208 C 
ATOM     19  O   UNL     1      17.645 -28.428 -34.355  1.00  0.00    -0.337 OA
ATOM     20  C   UNL     1      16.988 -29.515 -36.403  1.00  0.00     0.180 C 
ATOM     21  C   UNL     1      17.471 -28.220 -35.743  1.00  0.00     0.179 C 
BRANCH  17  22
ATOM     22  C   UNL     1      18.982 -30.375 -34.000  1.00  0.00     0.225 C 
BRANCH  22  23
ATOM     23  O   UNL     1      19.009 -31.559 -33.248  1.00  0.00    -0.391 OA
ATOM     24  H   UNL     1      18.708 -31.324 -32.332  1.00  0.00     0.210 HD
ENDBRANCH  22  23
ENDBRANCH  17  22
BRANCH  18  25
ATOM     25  O   UNL     1      17.054 -31.757 -35.497  1.00  0.00    -0.385 OA
ATOM     26  H   UNL     1      17.453 -31.765 -36.404  1.00  0.00     0.211 HD
ENDBRANCH  18  25
BRANCH  20  27
ATOM     27  O   UNL     1      18.009 -30.035 -37.219  1.00  0.00    -0.387 OA
ATOM     28  H   UNL     1      18.351 -29.283 -37.769  1.00  0.00     0.211 HD
ENDBRANCH  20  27
BRANCH  21  29
ATOM     29  C   UNL     1      16.479 -27.069 -35.963  1.00  0.00     0.191 C 
BRANCH  29  30
ATOM     30  O   UNL     1      16.220 -26.896 -37.330  1.00  0.00    -0.394 OA
ATOM     31  H   UNL     1      15.972 -25.943 -37.453  1.00  0.00     0.210 HD
ENDBRANCH  29  30
ENDBRANCH  21  29
ENDBRANCH   1  17
TORSDOF 13
ENDMDL
MODEL 4
REMARK VINA RESULT:    -5.813      1.375      5.392
REMARK INTER + INTRA:         -10.651
REMARK INTER:                  -9.456
REMARK INTRA:                  -1.195
REMARK UNBOUND:                -1.780
REMARK SMILES OC[C@H]1O[C@@H](O[C@]2(CO)O[C@H](CO)[C@@H](O)[C@H]2O)[C@@H](O)[C@@H](O)[C@H]1O
REMARK SMILES IDX 6 1 5 2 3 3 22 4 4 5 20 6 18 7 2 8 1 9 23 11 21 13 19 15
REMARK SMILES IDX 7 17 16 18 10 19 14 20 11 21 8 22 9 23 17 25 15 27 12 29
REMARK SMILES IDX 13 30
REMARK H PARENT 1 10 23 12 21 14 19 16 9 24 17 26 15 28 13 31
REMARK Flexibility Score: inf
ROOT
ATOM      1  O   UNL     1      17.160 -29.279 -32.905  1.00  0.00    -0.313 OA
ENDROOT
BRANCH   1   2
ATOM      2  C   UNL     1      17.660 -30.250 -33.817  1.00  0.00     0.285 C 
ATOM      3  C   UNL     1      19.301 -28.852 -34.875  1.00  0.00     0.178 C 
ATOM      4  C   UNL     1      18.477 -28.800 -36.188  1.00  0.00     0.177 C 
ATOM      5  O   UNL     1      19.038 -30.015 -34.092  1.00  0.00    -0.341 OA
ATOM      6  C   UNL     1      16.981 -29.023 -35.936  1.00  0.00     0.179 C 
ATOM      7  C   UNL     1      16.804 -30.295 -35.099  1.00  0.00     0.202 C 
BRANCH   3   8
ATOM      8  C   UNL     1      19.272 -27.549 -34.047  1.00  0.00     0.191 C 
BRANCH   8   9
ATOM      9  O   UNL     1      19.702 -27.801 -32.735  1.00  0.00    -0.394 OA
ATOM     10  H   UNL     1      20.462 -27.190 -32.556  1.00  0.00     0.210 HD
ENDBRANCH   8   9
ENDBRANCH   3   8
BRANCH   4  11
ATOM     11  O   UNL     1      18.691 -27.584 -36.858  1.00  0.00    -0.387 OA
ATOM     12  H   UNL     1      18.620 -26.864 -36.178  1.00  0.00     0.211 HD
ENDBRANCH   4  11
BRANCH   6  13
ATOM     13  O   UNL     1      16.419 -27.907 -35.293  1.00  0.00    -0.387 OA
ATOM     14  H   UNL     1      15.441 -28.065 -35.239  1.00  0.00     0.211 HD
ENDBRANCH   6  13
BRANCH   7  15
ATOM     15  O   UNL     1      15.453 -30.483 -34.765  1.00  0.00    -0.385 OA
ATOM     16  H   UNL     1      14.964 -29.682 -35.088  1.00  0.00     0.211 HD
ENDBRANCH   7  15
ENDBRANCH   1   2
BRANCH   1  17
ATOM     17  C   UNL     1      16.521 -29.802 -31.740  1.00  0.00     0.224 C 
ATOM     18  C   UNL     1      16.934 -29.071 -30.441  1.00  0.00     0.208 C 
ATOM     19  O   UNL     1      15.138 -29.563 -31.905  1.00  0.00    -0.337 OA
ATOM     20  C   UNL     1      15.671 -29.059 -29.609  1.00  0.00     0.180 C 
ATOM     21  C   UNL     1      14.564 -29.262 -30.648  1.00  0.00     0.179 C 
BRANCH  17  22
ATOM     22  C   UNL     1      16.714 -31.341 -31.658  1.00  0.00     0.225 C 
BRANCH  22  23
ATOM     23  O   UNL     1      15.545 -32.007 -32.056  1.00  0.00    -0.391 OA
ATOM     24  H   UNL     1      15.502 -31.946 -33.045  1.00  0.00     0.210 HD
ENDBRANCH  22  23
ENDBRANCH  17  22
BRANCH  18  25
ATOM     25  O   UNL     1      17.997 -29.707 -29.773  1.00  0.00    -0.385 OA
ATOM     26  H   UNL     1      18.469 -30.254 -30.453  1.00  0.00     0.211 HD
ENDBRANCH  18  25
BRANCH  20  27
ATOM     27  O   UNL     1      15.652 -30.124 -28.689  1.00  0.00    -0.387 OA
ATOM     28  H   UNL     1      14.731 -30.495 -28.696  1.00  0.00     0.211 HD
ENDBRANCH  20  27
BRANCH  21  29
ATOM     29  C   UNL     1      13.679 -28.015 -30.781  1.00  0.00     0.191 C 
BRANCH  29  30
ATOM     30  O   UNL     1      14.332 -26.888 -30.262  1.00  0.00    -0.394 OA
ATOM     31  H   UNL     1      15.287 -26.970 -30.519  1.00  0.00     0.210 HD
ENDBRANCH  29  30
ENDBRANCH  21  29
ENDBRANCH   1  17
TORSDOF 13
ENDMDL
MODEL 5
REMARK VINA RESULT:    -5.777      1.306      5.540
REMARK INTER + INTRA:         -10.596
REMARK INTER:                  -8.594
REMARK INTRA:                  -2.002
REMARK UNBOUND:                -1.780
REMARK SMILES OC[C@H]1O[C@@H](O[C@]2(CO)O[C@H](CO)[C@@H](O)[C@H]2O)[C@@H](O)[C@@H](O)[C@H]1O
REMARK SMILES IDX 6 1 5 2 3 3 22 4 4 5 20 6 18 7 2 8 1 9 23 11 21 13 19 15
REMARK SMILES IDX 7 17 16 18 10 19 14 20 11 21 8 22 9 23 17 25 15 27 12 29
REMARK SMILES IDX 13 30
REMARK H PARENT 1 10 23 12 21 14 19 16 9 24 17 26 15 28 13 31
REMARK Flexibility Score: inf
ROOT
ATOM      1  O   UNL     1      17.866 -29.781 -32.981  1.00  0.00    -0.313 OA
ENDROOT
BRANCH   1   2
ATOM      2  C   UNL     1      17.621 -28.406 -33.254  1.00  0.00     0.285 C 
ATOM      3  C   UNL     1      16.650 -28.699 -35.430  1.00  0.00     0.178 C 
ATOM      4  C   UNL     1      17.894 -28.080 -36.119  1.00  0.00     0.177 C 
ATOM      5  O   UNL     1      16.474 -28.258 -34.085  1.00  0.00    -0.341 OA
ATOM      6  C   UNL     1      19.159 -28.239 -35.269  1.00  0.00     0.179 C 
ATOM      7  C   UNL     1      18.872 -27.731 -33.851  1.00  0.00     0.202 C 
BRANCH   3   8
ATOM      8  C   UNL     1      16.528 -30.231 -35.582  1.00  0.00     0.191 C 
BRANCH   8   9
ATOM      9  O   UNL     1      15.524 -30.722 -34.734  1.00  0.00    -0.394 OA
ATOM     10  H   UNL     1      15.469 -30.104 -33.960  1.00  0.00     0.210 HD
ENDBRANCH   8   9
ENDBRANCH   3   8
BRANCH   4  11
ATOM     11  O   UNL     1      18.080 -28.636 -37.395  1.00  0.00    -0.387 OA
ATOM     12  H   UNL     1      19.060 -28.670 -37.555  1.00  0.00     0.211 HD
ENDBRANCH   4  11
BRANCH   6  13
ATOM     13  O   UNL     1      19.576 -29.581 -35.254  1.00  0.00    -0.387 OA
ATOM     14  H   UNL     1      20.569 -29.578 -35.252  1.00  0.00     0.211 HD
ENDBRANCH   6  13
BRANCH   7  15
ATOM     15  O   UNL     1      19.978 -27.948 -33.015  1.00  0.00    -0.385 OA
ATOM     16  H   UNL     1      20.782 -27.946 -33.596  1.00  0.00     0.211 HD
ENDBRANCH   7  15
ENDBRANCH   1   2
BRANCH   1  17
ATOM     17  C   UNL     1      17.261 -30.288 -31.790  1.00  0.00     0.224 C 
ATOM     18  C   UNL     1      17.367 -29.313 -30.594  1.00  0.00     0.208 C 
ATOM     19  O   UNL     1      15.883 -30.420 -32.071  1.00  0.00    -0.337 OA
ATOM     20  C   UNL     1      16.064 -29.503 -29.850  1.00  0.00     0.180 C 
ATOM     21  C   UNL     1      15.139 -30.107 -30.910  1.00  0.00     0.179 C 
BRANCH  17  22
ATOM     22  C   UNL     1      17.803 -31.707 -31.467  1.00  0.00     0.225 C 
BRANCH  22  23
ATOM     23  O   UNL     1      19.205 -31.723 -31.520  1.00  0.00    -0.391 OA
ATOM     24  H   UNL     1      19.454 -31.986 -32.444  1.00  0.00     0.210 HD
ENDBRANCH  22  23
ENDBRANCH  17  22
BRANCH  18  25
ATOM     25  O   UNL     1      18.482 -29.574 -29.777  1.00  0.00    -0.385 OA
ATOM     26  H   UNL     1      18.185 -30.236 -29.100  1.00  0.00     0.211 HD
ENDBRANCH  18  25
BRANCH  20  27
ATOM     27  O   UNL     1      16.210 -30.409 -28.783  1.00  0.00    -0.387 OA
ATOM     28  H   UNL     1      15.403 -30.987 -28.782  1.00  0.00     0.211 HD
ENDBRANCH  20  27
BRANCH  21  29
ATOM     29  C   UNL     1      14.001 -29.145 -31.281  1.00  0.00     0.191 C 
BRANCH  29  30
ATOM     30  O   UNL     1      13.987 -28.908 -32.663  1.00  0.00    -0.394 OA
ATOM     31  H   UNL     1      13.187 -29.372 -33.022  1.00  0.00     0.210 HD
ENDBRANCH  29  30
ENDBRANCH  21  29
ENDBRANCH   1  17
TORSDOF 13
ENDMDL
MODEL 6
REMARK VINA RESULT:    -5.527      1.821      5.364
REMARK INTER + INTRA:         -10.215
REMARK INTER:                  -8.677
REMARK INTRA:                  -1.538
REMARK UNBOUND:                -1.780
REMARK SMILES OC[C@H]1O[C@@H](O[C@]2(CO)O[C@H](CO)[C@@H](O)[C@H]2O)[C@@H](O)[C@@H](O)[C@H]1O
REMARK SMILES IDX 6 1 5 2 3 3 22 4 4 5 20 6 18 7 2 8 1 9 23 11 21 13 19 15
REMARK SMILES IDX 7 17 16 18 10 19 14 20 11 21 8 22 9 23 17 25 15 27 12 29
REMARK SMILES IDX 13 30
REMARK H PARENT 1 10 23 12 21 14 19 16 9 24 17 26 15 28 13 31
REMARK Flexibility Score: inf
ROOT
ATOM      1  O   UNL     1      16.648 -29.572 -33.051  1.00  0.00    -0.313 OA
ENDROOT
BRANCH   1   2
ATOM      2  C   UNL     1      15.986 -30.025 -34.227  1.00  0.00     0.285 C 
ATOM      3  C   UNL     1      17.733 -31.470 -35.017  1.00  0.00     0.178 C 
ATOM      4  C   UNL     1      18.056 -30.512 -36.193  1.00  0.00     0.177 C 
ATOM      5  O   UNL     1      16.391 -31.352 -34.548  1.00  0.00    -0.341 OA
ATOM      6  C   UNL     1      17.660 -29.065 -35.881  1.00  0.00     0.179 C 
ATOM      7  C   UNL     1      16.205 -29.044 -35.396  1.00  0.00     0.202 C 
BRANCH   3   8
ATOM      8  C   UNL     1      18.773 -31.459 -33.875  1.00  0.00     0.191 C 
BRANCH   8   9
ATOM      9  O   UNL     1      18.315 -32.229 -32.796  1.00  0.00    -0.394 OA
ATOM     10  H   UNL     1      19.013 -32.906 -32.604  1.00  0.00     0.210 HD
ENDBRANCH   8   9
ENDBRANCH   3   8
BRANCH   4  11
ATOM     11  O   UNL     1      19.417 -30.590 -36.535  1.00  0.00    -0.387 OA
ATOM     12  H   UNL     1      19.476 -30.456 -37.517  1.00  0.00     0.211 HD
ENDBRANCH   4  11
BRANCH   6  13
ATOM     13  O   UNL     1      18.525 -28.514 -34.920  1.00  0.00    -0.387 OA
ATOM     14  H   UNL     1      19.051 -27.806 -35.374  1.00  0.00     0.211 HD
ENDBRANCH   6  13
BRANCH   7  15
ATOM     15  O   UNL     1      15.832 -27.747 -35.008  1.00  0.00    -0.385 OA
ATOM     16  H   UNL     1      14.991 -27.534 -35.490  1.00  0.00     0.211 HD
ENDBRANCH   7  15
ENDBRANCH   1   2
BRANCH   1  17
ATOM     17  C   UNL     1      15.834 -29.497 -31.880  1.00  0.00     0.224 C 
ATOM     18  C   UNL     1      16.156 -28.268 -30.997  1.00  0.00     0.208 C 
ATOM     19  O   UNL     1      14.506 -29.323 -32.329  1.00  0.00    -0.337 OA
ATOM     20  C   UNL     1      14.810 -27.851 -30.446  1.00  0.00     0.180 C 
ATOM     21  C   UNL     1      13.818 -28.474 -31.433  1.00  0.00     0.179 C 
BRANCH  17  22
ATOM     22  C   UNL     1      15.884 -30.837 -31.096  1.00  0.00     0.225 C 
BRANCH  22  23
ATOM     23  O   UNL     1      15.521 -31.907 -31.928  1.00  0.00    -0.391 OA
ATOM     24  H   UNL     1      16.317 -32.494 -32.003  1.00  0.00     0.210 HD
ENDBRANCH  22  23
ENDBRANCH  17  22
BRANCH  18  25
ATOM     25  O   UNL     1      17.074 -28.560 -29.971  1.00  0.00    -0.385 OA
ATOM     26  H   UNL     1      17.672 -27.772 -29.897  1.00  0.00     0.211 HD
ENDBRANCH  18  25
BRANCH  20  27
ATOM     27  O   UNL     1      14.592 -28.384 -29.162  1.00  0.00    -0.387 OA
ATOM     28  H   UNL     1      13.749 -28.906 -29.205  1.00  0.00     0.211 HD
ENDBRANCH  20  27
BRANCH  21  29
ATOM     29  C   UNL     1      13.065 -27.399 -32.230  1.00  0.00     0.191 C 
BRANCH  29  30
ATOM     30  O   UNL     1      13.586 -27.292 -33.528  1.00  0.00    -0.394 OA
ATOM     31  H   UNL     1      13.268 -26.425 -33.891  1.00  0.00     0.210 HD
ENDBRANCH  29  30
ENDBRANCH  21  29
ENDBRANCH   1  17
TORSDOF 13
ENDMDL
MODEL 7
REMARK VINA RESULT:    -5.515      9.626     11.654
REMARK INTER + INTRA:         -10.196
REMARK INTER:                  -8.683
REMARK INTRA:                  -1.513
REMARK UNBOUND:                -1.780
REMARK SMILES OC[C@H]1O[C@@H](O[C@]2(CO)O[C@H](CO)[C@@H](O)[C@H]2O)[C@@H](O)[C@@H](O)[C@H]1O
REMARK SMILES IDX 6 1 5 2 3 3 22 4 4 5 20 6 18 7 2 8 1 9 23 11 21 13 19 15
REMARK SMILES IDX 7 17 16 18 10 19 14 20 11 21 8 22 9 23 17 25 15 27 12 29
REMARK SMILES IDX 13 30
REMARK H PARENT 1 10 23 12 21 14 19 16 9 24 17 26 15 28 13 31
REMARK Flexibility Score: inf
ROOT
ATOM      1  O   UNL     1      23.937 -26.942 -24.442  1.00  0.00    -0.313 OA
ENDROOT
BRANCH   1   2
ATOM      2  C   UNL     1      23.655 -26.858 -25.834  1.00  0.00     0.285 C 
ATOM      3  C   UNL     1      25.450 -28.262 -26.590  1.00  0.00     0.178 C 
ATOM      4  C   UNL     1      26.203 -27.050 -27.197  1.00  0.00     0.177 C 
ATOM      5  O   UNL     1      24.041 -28.058 -26.496  1.00  0.00    -0.341 OA
ATOM      6  C   UNL     1      25.838 -25.737 -26.497  1.00  0.00     0.179 C 
ATOM      7  C   UNL     1      24.310 -25.607 -26.454  1.00  0.00     0.202 C 
BRANCH   3   8
ATOM      8  C   UNL     1      26.067 -28.815 -25.287  1.00  0.00     0.191 C 
BRANCH   8   9
ATOM      9  O   UNL     1      25.951 -30.213 -25.253  1.00  0.00    -0.394 OA
ATOM     10  H   UNL     1      26.871 -30.580 -25.209  1.00  0.00     0.210 HD
ENDBRANCH   8   9
ENDBRANCH   3   8
BRANCH   4  11
ATOM     11  O   UNL     1      27.592 -27.262 -27.159  1.00  0.00    -0.387 OA
ATOM     12  H   UNL     1      27.970 -26.843 -27.976  1.00  0.00     0.211 HD
ENDBRANCH   4  11
BRANCH   6  13
ATOM     13  O   UNL     1      26.388 -25.699 -25.204  1.00  0.00    -0.387 OA
ATOM     14  H   UNL     1      26.253 -26.597 -24.804  1.00  0.00     0.211 HD
ENDBRANCH   6  13
BRANCH   7  15
ATOM     15  O   UNL     1      23.931 -24.463 -25.735  1.00  0.00    -0.385 OA
ATOM     16  H   UNL     1      24.688 -23.824 -25.792  1.00  0.00     0.211 HD
ENDBRANCH   7  15
ENDBRANCH   1   2
BRANCH   1  17
ATOM     17  C   UNL     1      22.871 -27.434 -23.628  1.00  0.00     0.224 C 
ATOM     18  C   UNL     1      21.516 -27.489 -24.373  1.00  0.00     0.208 C 
ATOM     19  O   UNL     1      23.200 -28.770 -23.308  1.00  0.00    -0.337 OA
ATOM     20  C   UNL     1      20.846 -28.729 -23.823  1.00  0.00     0.180 C 
ATOM     21  C   UNL     1      22.018 -29.544 -23.268  1.00  0.00     0.179 C 
BRANCH  17  22
ATOM     22  C   UNL     1      22.797 -26.645 -22.293  1.00  0.00     0.225 C 
BRANCH  22  23
ATOM     23  O   UNL     1      23.797 -25.661 -22.246  1.00  0.00    -0.391 OA
ATOM     24  H   UNL     1      24.498 -25.993 -21.627  1.00  0.00     0.210 HD
ENDBRANCH  22  23
ENDBRANCH  17  22
BRANCH  18  25
ATOM     25  O   UNL     1      20.736 -26.336 -24.169  1.00  0.00    -0.385 OA
ATOM     26  H   UNL     1      21.371 -25.583 -24.059  1.00  0.00     0.211 HD
ENDBRANCH  18  25
BRANCH  20  27
ATOM     27  O   UNL     1      19.958 -28.412 -22.779  1.00  0.00    -0.387 OA
ATOM     28  H   UNL     1      20.147 -29.044 -22.037  1.00  0.00     0.211 HD
ENDBRANCH  20  27
BRANCH  21  29
ATOM     29  C   UNL     1      22.233 -30.839 -24.065  1.00  0.00     0.191 C 
BRANCH  29  30
ATOM     30  O   UNL     1      23.084 -30.611 -25.156  1.00  0.00    -0.394 OA
ATOM     31  H   UNL     1      22.919 -29.680 -25.455  1.00  0.00     0.210 HD
ENDBRANCH  29  30
ENDBRANCH  21  29
ENDBRANCH   1  17
TORSDOF 13
ENDMDL
MODEL 8
REMARK VINA RESULT:    -5.502      1.348      2.550
REMARK INTER + INTRA:         -10.176
REMARK INTER:                  -9.003
REMARK INTRA:                  -1.173
REMARK UNBOUND:                -1.780
REMARK SMILES OC[C@H]1O[C@@H](O[C@]2(CO)O[C@H](CO)[C@@H](O)[C@H]2O)[C@@H](O)[C@@H](O)[C@H]1O
REMARK SMILES IDX 6 1 5 2 3 3 22 4 4 5 20 6 18 7 2 8 1 9 23 11 21 13 19 15
REMARK SMILES IDX 7 17 16 18 10 19 14 20 11 21 8 22 9 23 17 25 15 27 12 29
REMARK SMILES IDX 13 30
REMARK H PARENT 1 10 23 12 21 14 19 16 9 24 17 26 15 28 13 31
REMARK Flexibility Score: inf
ROOT
ATOM      1  O   UNL     1      17.588 -29.479 -33.162  1.00  0.00    -0.313 OA
ENDROOT
BRANCH   1   2
ATOM      2  C   UNL     1      16.963 -30.695 -32.765  1.00  0.00     0.285 C 
ATOM      3  C   UNL     1      15.695 -29.798 -30.935  1.00  0.00     0.178 C 
ATOM      4  C   UNL     1      16.590 -30.524 -29.898  1.00  0.00     0.177 C 
ATOM      5  O   UNL     1      15.677 -30.438 -32.210  1.00  0.00    -0.341 OA
ATOM      6  C   UNL     1      17.995 -30.799 -30.446  1.00  0.00     0.179 C 
ATOM      7  C   UNL     1      17.870 -31.493 -31.807  1.00  0.00     0.202 C 
BRANCH   3   8
ATOM      8  C   UNL     1      15.927 -28.274 -31.029  1.00  0.00     0.191 C 
BRANCH   8   9
ATOM      9  O   UNL     1      15.034 -27.596 -30.187  1.00  0.00    -0.394 OA
ATOM     10  H   UNL     1      14.663 -28.265 -29.557  1.00  0.00     0.210 HD
ENDBRANCH   8   9
ENDBRANCH   3   8
BRANCH   4  11
ATOM     11  O   UNL     1      16.659 -29.789 -28.703  1.00  0.00    -0.387 OA
ATOM     12  H   UNL     1      16.320 -30.380 -27.981  1.00  0.00     0.211 HD
ENDBRANCH   4  11
BRANCH   6  13
ATOM     13  O   UNL     1      18.725 -29.603 -30.550  1.00  0.00    -0.387 OA
ATOM     14  H   UNL     1      18.272 -29.044 -31.234  1.00  0.00     0.211 HD
ENDBRANCH   6  13
BRANCH   7  15
ATOM     15  O   UNL     1      19.134 -31.677 -32.387  1.00  0.00    -0.385 OA
ATOM     16  H   UNL     1      19.635 -30.829 -32.259  1.00  0.00     0.211 HD
ENDBRANCH   7  15
ENDBRANCH   1   2
BRANCH   1  17
ATOM     17  C   UNL     1      17.944 -29.394 -34.543  1.00  0.00     0.224 C 
ATOM     18  C   UNL     1      17.471 -28.082 -35.211  1.00  0.00     0.208 C 
ATOM     19  O   UNL     1      19.356 -29.373 -34.587  1.00  0.00    -0.337 OA
ATOM     20  C   UNL     1      18.577 -27.749 -36.188  1.00  0.00     0.180 C 
ATOM     21  C   UNL     1      19.776 -28.526 -35.639  1.00  0.00     0.179 C 
BRANCH  17  22
ATOM     22  C   UNL     1      17.479 -30.665 -35.304  1.00  0.00     0.225 C 
BRANCH  22  23
ATOM     23  O   UNL     1      18.531 -31.588 -35.412  1.00  0.00    -0.391 OA
ATOM     24  H   UNL     1      18.262 -32.250 -36.100  1.00  0.00     0.210 HD
ENDBRANCH  22  23
ENDBRANCH  17  22
BRANCH  18  25
ATOM     25  O   UNL     1      16.226 -28.217 -35.854  1.00  0.00    -0.385 OA
ATOM     26  H   UNL     1      16.374 -27.979 -36.805  1.00  0.00     0.211 HD
ENDBRANCH  18  25
BRANCH  20  27
ATOM     27  O   UNL     1      18.273 -28.207 -37.483  1.00  0.00    -0.387 OA
ATOM     28  H   UNL     1      17.545 -27.628 -37.831  1.00  0.00     0.211 HD
ENDBRANCH  20  27
BRANCH  21  29
ATOM     29  C   UNL     1      20.873 -27.583 -35.123  1.00  0.00     0.191 C 
BRANCH  29  30
ATOM     30  O   UNL     1      20.885 -27.562 -33.721  1.00  0.00    -0.394 OA
ATOM     31  H   UNL     1      20.854 -28.507 -33.422  1.00  0.00     0.210 HD
ENDBRANCH  29  30
ENDBRANCH  21  29
ENDBRANCH   1  17
TORSDOF 13
ENDMDL
MODEL 9
REMARK VINA RESULT:    -5.330      9.088     10.900
REMARK INTER + INTRA:          -9.915
REMARK INTER:                  -8.723
REMARK INTRA:                  -1.192
REMARK UNBOUND:                -1.780
REMARK SMILES OC[C@H]1O[C@@H](O[C@]2(CO)O[C@H](CO)[C@@H](O)[C@H]2O)[C@@H](O)[C@@H](O)[C@H]1O
REMARK SMILES IDX 6 1 5 2 3 3 22 4 4 5 20 6 18 7 2 8 1 9 23 11 21 13 19 15
REMARK SMILES IDX 7 17 16 18 10 19 14 20 11 21 8 22 9 23 17 25 15 27 12 29
REMARK SMILES IDX 13 30
REMARK H PARENT 1 10 23 12 21 14 19 16 9 24 17 26 15 28 13 31
REMARK Flexibility Score: inf
ROOT
ATOM      1  O   UNL     1      24.021 -26.937 -24.846  1.00  0.00    -0.313 OA
ENDROOT
BRANCH   1   2
ATOM      2  C   UNL     1      24.366 -27.535 -23.602  1.00  0.00     0.285 C 
ATOM      3  C   UNL     1      22.535 -29.083 -23.492  1.00  0.00     0.178 C 
ATOM      4  C   UNL     1      21.873 -28.290 -22.337  1.00  0.00     0.177 C 
ATOM      5  O   UNL     1      23.947 -28.896 -23.567  1.00  0.00    -0.341 OA
ATOM      6  C   UNL     1      22.277 -26.811 -22.350  1.00  0.00     0.179 C 
ATOM      7  C   UNL     1      23.806 -26.716 -22.422  1.00  0.00     0.202 C 
BRANCH   3   8
ATOM      8  C   UNL     1      21.834 -28.931 -24.860  1.00  0.00     0.191 C 
BRANCH   8   9
ATOM      9  O   UNL     1      22.623 -29.495 -25.873  1.00  0.00    -0.394 OA
ATOM     10  H   UNL     1      22.370 -29.049 -26.722  1.00  0.00     0.210 HD
ENDBRANCH   8   9
ENDBRANCH   3   8
BRANCH   4  11
ATOM     11  O   UNL     1      20.475 -28.421 -22.383  1.00  0.00    -0.387 OA
ATOM     12  H   UNL     1      20.093 -27.574 -22.031  1.00  0.00     0.211 HD
ENDBRANCH   4  11
BRANCH   6  13
ATOM     13  O   UNL     1      21.674 -26.146 -23.432  1.00  0.00    -0.387 OA
ATOM     14  H   UNL     1      22.314 -26.185 -24.190  1.00  0.00     0.211 HD
ENDBRANCH   6  13
BRANCH   7  15
ATOM     15  O   UNL     1      24.213 -25.377 -22.533  1.00  0.00    -0.385 OA
ATOM     16  H   UNL     1      25.020 -25.275 -21.965  1.00  0.00     0.211 HD
ENDBRANCH   7  15
ENDBRANCH   1   2
BRANCH   1  17
ATOM     17  C   UNL     1      25.117 -26.652 -25.716  1.00  0.00     0.224 C 
ATOM     18  C   UNL     1      25.172 -27.586 -26.948  1.00  0.00     0.208 C 
ATOM     19  O   UNL     1      24.897 -25.350 -26.218  1.00  0.00    -0.337 OA
ATOM     20  C   UNL     1      25.670 -26.693 -28.063  1.00  0.00     0.180 C 
ATOM     21  C   UNL     1      25.343 -25.285 -27.558  1.00  0.00     0.179 C 
BRANCH  17  22
ATOM     22  C   UNL     1      26.449 -26.620 -24.920  1.00  0.00     0.225 C 
BRANCH  22  23
ATOM     23  O   UNL     1      26.725 -25.319 -24.472  1.00  0.00    -0.391 OA
ATOM     24  H   UNL     1      27.041 -24.805 -25.260  1.00  0.00     0.210 HD
ENDBRANCH  22  23
ENDBRANCH  17  22
BRANCH  18  25
ATOM     25  O   UNL     1      26.011 -28.698 -26.751  1.00  0.00    -0.385 OA
ATOM     26  H   UNL     1      25.440 -29.418 -26.378  1.00  0.00     0.211 HD
ENDBRANCH  18  25
BRANCH  20  27
ATOM     27  O   UNL     1      27.061 -26.818 -28.238  1.00  0.00    -0.387 OA
ATOM     28  H   UNL     1      27.236 -26.753 -29.213  1.00  0.00     0.211 HD
ENDBRANCH  20  27
BRANCH  21  29
ATOM     29  C   UNL     1      24.265 -24.612 -28.419  1.00  0.00     0.191 C 
BRANCH  29  30
ATOM     30  O   UNL     1      24.852 -23.824 -29.419  1.00  0.00    -0.394 OA
ATOM     31  H   UNL     1      25.207 -24.450 -30.101  1.00  0.00     0.210 HD
ENDBRANCH  29  30
ENDBRANCH  21  29
ENDBRANCH   1  17
TORSDOF 13
ENDMDL
