MODEL 1
REMARK VINA RESULT:     4.139      0.000      0.000
REMARK INTER + INTRA:           6.061
REMARK INTER:                   6.317
REMARK INTRA:                  -0.257
REMARK UNBOUND:                -0.257
REMARK SMILES CCCCCCCCCCC(=O)[O-]
REMARK SMILES IDX 7 1 8 2 9 3 10 4 11 5 12 6 13 7 6 8 5 9 4 10 3 11 2 12 1 13
REMARK H PARENT
REMARK Flexibility Score: inf
ROOT
ATOM      1  C   UNL     1     -34.767  16.074  16.757  1.00  0.00     0.000 C 
ENDROOT
BRANCH   1   2
ATOM      2  C   UNL     1     -35.114  17.379  17.490  1.00  0.00     0.000 C 
BRANCH   2   3
ATOM      3  C   UNL     1     -36.623  17.532  17.747  1.00  0.00     0.006 C 
BRANCH   3   4
ATOM      4  C   UNL     1     -37.385  16.221  17.513  1.00  0.00     0.053 C 
BRANCH   4   5
ATOM      5  C   UNL     1     -38.726  16.230  18.180  1.00  0.00     0.041 C 
ATOM      6  O   UNL     1     -38.920  15.553  19.224  1.00  0.00    -0.550 OA
ATOM      7  O   UNL     1     -39.754  17.009  17.665  1.00  0.00    -0.550 OA
ENDBRANCH   4   5
ENDBRANCH   3   4
ENDBRANCH   2   3
ENDBRANCH   1   2
BRANCH   1   8
ATOM      8  C   UNL     1     -34.262  14.975  17.711  1.00  0.00     0.000 C 
BRANCH   8   9
ATOM      9  C   UNL     1     -33.813  13.712  16.959  1.00  0.00    -0.000 C 
BRANCH   9  10
ATOM     10  C   UNL     1     -32.628  13.007  17.644  1.00  0.00    -0.000 C 
BRANCH  10  11
ATOM     11  C   UNL     1     -32.891  12.754  19.143  1.00  0.00    -0.000 C 
BRANCH  11  12
ATOM     12  C   UNL     1     -33.290  11.302  19.460  1.00  0.00    -0.003 C 
ATOM     13  C   UNL     1     -34.013  11.157  20.797  1.00  0.00     0.004 C 
ENDBRANCH  11  12
ENDBRANCH  10  11
ENDBRANCH   9  10
ENDBRANCH   8   9
ENDBRANCH   1   8
TORSDOF 9
ENDMDL
MODEL 2
REMARK VINA RESULT:     4.302      2.831      5.855
REMARK INTER + INTRA:           6.309
REMARK INTER:                   6.732
REMARK INTRA:                  -0.423
REMARK UNBOUND:                -0.257
REMARK SMILES CCCCCCCCCCC(=O)[O-]
REMARK SMILES IDX 7 1 8 2 9 3 10 4 11 5 12 6 13 7 6 8 5 9 4 10 3 11 2 12 1 13
REMARK H PARENT
REMARK Flexibility Score: inf
ROOT
ATOM      1  C   UNL     1     -33.888  13.940  16.538  1.00  0.00     0.000 C 
ENDROOT
BRANCH   1   2
ATOM      2  C   UNL     1     -32.812  13.039  17.166  1.00  0.00     0.000 C 
BRANCH   2   3
ATOM      3  C   UNL     1     -32.856  13.045  18.704  1.00  0.00     0.006 C 
BRANCH   3   4
ATOM      4  C   UNL     1     -32.929  11.626  19.285  1.00  0.00     0.053 C 
BRANCH   4   5
ATOM      5  C   UNL     1     -33.781  11.574  20.517  1.00  0.00     0.041 C 
ATOM      6  O   UNL     1     -34.311  10.489  20.876  1.00  0.00    -0.550 OA
ATOM      7  O   UNL     1     -33.967  12.717  21.283  1.00  0.00    -0.550 OA
ENDBRANCH   4   5
ENDBRANCH   3   4
ENDBRANCH   2   3
ENDBRANCH   1   2
BRANCH   1   8
ATOM      8  C   UNL     1     -34.346  15.063  17.487  1.00  0.00     0.000 C 
BRANCH   8   9
ATOM      9  C   UNL     1     -35.037  16.214  16.737  1.00  0.00    -0.000 C 
BRANCH   9  10
ATOM     10  C   UNL     1     -35.457  17.360  17.674  1.00  0.00    -0.000 C 
BRANCH  10  11
ATOM     11  C   UNL     1     -36.991  17.482  17.791  1.00  0.00    -0.000 C 
BRANCH  11  12
ATOM     12  C   UNL     1     -37.729  16.145  17.606  1.00  0.00    -0.003 C 
ATOM     13  C   UNL     1     -38.699  15.833  18.743  1.00  0.00     0.004 C 
ENDBRANCH  11  12
ENDBRANCH  10  11
ENDBRANCH   9  10
ENDBRANCH   8   9
ENDBRANCH   1   8
TORSDOF 9
ENDMDL
MODEL 3
REMARK VINA RESULT:     4.393      3.041      6.264
REMARK INTER + INTRA:           6.448
REMARK INTER:                   6.902
REMARK INTRA:                  -0.455
REMARK UNBOUND:                -0.257
REMARK SMILES CCCCCCCCCCC(=O)[O-]
REMARK SMILES IDX 7 1 8 2 9 3 10 4 11 5 12 6 13 7 6 8 5 9 4 10 3 11 2 12 1 13
REMARK H PARENT
REMARK Flexibility Score: inf
ROOT
ATOM      1  C   UNL     1     -34.897  16.002  16.763  1.00  0.00     0.000 C 
ENDROOT
BRANCH   1   2
ATOM      2  C   UNL     1     -34.273  14.872  17.598  1.00  0.00     0.000 C 
BRANCH   2   3
ATOM      3  C   UNL     1     -33.551  13.825  16.734  1.00  0.00     0.006 C 
BRANCH   3   4
ATOM      4  C   UNL     1     -33.471  12.459  17.429  1.00  0.00     0.053 C 
BRANCH   4   5
ATOM      5  C   UNL     1     -32.747  12.542  18.738  1.00  0.00     0.041 C 
ATOM      6  O   UNL     1     -31.525  12.845  18.769  1.00  0.00    -0.550 OA
ATOM      7  O   UNL     1     -33.429  12.311  19.925  1.00  0.00    -0.550 OA
ENDBRANCH   4   5
ENDBRANCH   3   4
ENDBRANCH   2   3
ENDBRANCH   1   2
BRANCH   1   8
ATOM      8  C   UNL     1     -35.088  17.299  17.571  1.00  0.00     0.000 C 
BRANCH   8   9
ATOM      9  C   UNL     1     -36.571  17.650  17.769  1.00  0.00    -0.000 C 
BRANCH   9  10
ATOM     10  C   UNL     1     -37.509  16.503  17.352  1.00  0.00    -0.000 C 
BRANCH  10  11
ATOM     11  C   UNL     1     -38.453  16.079  18.497  1.00  0.00    -0.000 C 
BRANCH  11  12
ATOM     12  C   UNL     1     -39.919  16.490  18.269  1.00  0.00    -0.003 C 
ATOM     13  C   UNL     1     -40.119  17.318  17.003  1.00  0.00     0.004 C 
ENDBRANCH  11  12
ENDBRANCH  10  11
ENDBRANCH   9  10
ENDBRANCH   8   9
ENDBRANCH   1   8
TORSDOF 9
ENDMDL
MODEL 4
REMARK VINA RESULT:     6.383      1.434      2.632
REMARK INTER + INTRA:           9.485
REMARK INTER:                   9.801
REMARK INTRA:                  -0.316
REMARK UNBOUND:                -0.257
REMARK SMILES CCCCCCCCCCC(=O)[O-]
REMARK SMILES IDX 7 1 8 2 9 3 10 4 11 5 12 6 13 7 6 8 5 9 4 10 3 11 2 12 1 13
REMARK H PARENT
REMARK Flexibility Score: inf
ROOT
ATOM      1  C   UNL     1     -34.605  15.805  17.825  1.00  0.00     0.000 C 
ENDROOT
BRANCH   1   2
ATOM      2  C   UNL     1     -35.154  17.154  17.330  1.00  0.00     0.000 C 
BRANCH   2   3
ATOM      3  C   UNL     1     -36.642  17.348  17.666  1.00  0.00     0.006 C 
BRANCH   3   4
ATOM      4  C   UNL     1     -37.391  16.012  17.769  1.00  0.00     0.053 C 
BRANCH   4   5
ATOM      5  C   UNL     1     -38.795  16.198  18.257  1.00  0.00     0.041 C 
ATOM      6  O   UNL     1     -39.584  16.963  17.642  1.00  0.00    -0.550 OA
ATOM      7  O   UNL     1     -39.240  15.504  19.374  1.00  0.00    -0.550 OA
ENDBRANCH   4   5
ENDBRANCH   3   4
ENDBRANCH   2   3
ENDBRANCH   1   2
BRANCH   1   8
ATOM      8  C   UNL     1     -34.234  14.858  16.669  1.00  0.00     0.000 C 
BRANCH   8   9
ATOM      9  C   UNL     1     -34.039  13.409  17.143  1.00  0.00    -0.000 C 
BRANCH   9  10
ATOM     10  C   UNL     1     -32.651  13.172  17.763  1.00  0.00    -0.000 C 
BRANCH  10  11
ATOM     11  C   UNL     1     -31.540  13.103  16.694  1.00  0.00    -0.000 C 
BRANCH  11  12
ATOM     12  C   UNL     1     -30.118  13.133  17.281  1.00  0.00    -0.003 C 
ATOM     13  C   UNL     1     -29.057  13.533  16.261  1.00  0.00     0.004 C 
ENDBRANCH  11  12
ENDBRANCH  10  11
ENDBRANCH   9  10
ENDBRANCH   8   9
ENDBRANCH   1   8
TORSDOF 9
ENDMDL
