MODEL 1
REMARK VINA RESULT:    -3.679      0.000      0.000
REMARK INTER + INTRA:          -5.374
REMARK INTER:                  -4.970
REMARK INTRA:                  -0.404
REMARK UNBOUND:                -0.404
REMARK SMILES [NH3+]CCCC[C@H]([NH3+])C(=O)[O-]
REMARK SMILES IDX 4 1 3 2 2 3 1 4 5 8 6 9 7 10 8 14 9 15 10 16
REMARK H PARENT 1 5 1 6 1 7 7 11 7 12 7 13
REMARK Flexibility Score: inf
ROOT
ATOM      1  C   UNL     1      -3.331 -20.790  30.995  1.00  0.00     0.012 C 
ENDROOT
BRANCH   1   2
ATOM      2  C   UNL     1      -4.734 -21.246  31.430  1.00  0.00     0.061 C 
BRANCH   2   3
ATOM      3  C   UNL     1      -5.523 -22.015  30.353  1.00  0.00     0.258 C 
BRANCH   3   4
ATOM      4  N   UNL     1      -5.344 -21.443  29.017  1.00  0.00    -0.358 N 
ATOM      5  H   UNL     1      -6.264 -21.370  28.524  1.00  0.00     0.344 HD
ATOM      6  H   UNL     1      -4.683 -22.029  28.458  1.00  0.00     0.344 HD
ATOM      7  H   UNL     1      -4.936 -20.485  29.109  1.00  0.00     0.344 HD
ENDBRANCH   3   4
ENDBRANCH   2   3
ENDBRANCH   1   2
BRANCH   1   8
ATOM      8  C   UNL     1      -2.318 -21.947  30.930  1.00  0.00     0.072 C 
BRANCH   8   9
ATOM      9  C   UNL     1      -1.150 -21.646  29.967  1.00  0.00     0.227 C 
BRANCH   9  10
ATOM     10  N   UNL     1      -0.711 -20.253  30.115  1.00  0.00    -0.350 N 
ATOM     11  H   UNL     1      -1.284 -19.776  30.849  1.00  0.00     0.345 HD
ATOM     12  H   UNL     1       0.299 -20.210  30.384  1.00  0.00     0.345 HD
ATOM     13  H   UNL     1      -0.847 -19.741  29.212  1.00  0.00     0.345 HD
ENDBRANCH   9  10
BRANCH   9  14
ATOM     14  C   UNL     1      -1.546 -21.910  28.538  1.00  0.00     0.099 C 
ATOM     15  O   UNL     1      -0.850 -21.453  27.594  1.00  0.00    -0.544 OA
ATOM     16  O   UNL     1      -2.678 -22.665  28.252  1.00  0.00    -0.544 OA
ENDBRANCH   9  14
ENDBRANCH   8   9
ENDBRANCH   1   8
TORSDOF 7
ENDMDL
MODEL 2
REMARK VINA RESULT:    -3.665     11.678     13.357
REMARK INTER + INTRA:          -5.354
REMARK INTER:                  -4.938
REMARK INTRA:                  -0.416
REMARK UNBOUND:                -0.404
REMARK SMILES [NH3+]CCCC[C@H]([NH3+])C(=O)[O-]
REMARK SMILES IDX 4 1 3 2 2 3 1 4 5 8 6 9 7 10 8 14 9 15 10 16
REMARK H PARENT 1 5 1 6 1 7 7 11 7 12 7 13
REMARK Flexibility Score: inf
ROOT
ATOM      1  C   UNL     1       9.042 -27.766  31.815  1.00  0.00     0.012 C 
ENDROOT
BRANCH   1   2
ATOM      2  C   UNL     1      10.510 -27.385  32.072  1.00  0.00     0.061 C 
BRANCH   2   3
ATOM      3  C   UNL     1      11.127 -26.450  31.015  1.00  0.00     0.258 C 
BRANCH   3   4
ATOM      4  N   UNL     1      11.533 -27.168  29.805  1.00  0.00    -0.358 N 
ATOM      5  H   UNL     1      12.443 -26.796  29.447  1.00  0.00     0.344 HD
ATOM      6  H   UNL     1      10.795 -27.082  29.069  1.00  0.00     0.344 HD
ATOM      7  H   UNL     1      11.651 -28.181  30.035  1.00  0.00     0.344 HD
ENDBRANCH   3   4
ENDBRANCH   2   3
ENDBRANCH   1   2
BRANCH   1   8
ATOM      8  C   UNL     1       8.197 -26.585  31.305  1.00  0.00     0.072 C 
BRANCH   8   9
ATOM      9  C   UNL     1       7.130 -27.030  30.283  1.00  0.00     0.227 C 
BRANCH   9  10
ATOM     10  N   UNL     1       6.685 -28.399  30.571  1.00  0.00    -0.350 N 
ATOM     11  H   UNL     1       6.051 -28.735  29.809  1.00  0.00     0.345 HD
ATOM     12  H   UNL     1       7.503 -29.046  30.648  1.00  0.00     0.345 HD
ATOM     13  H   UNL     1       6.149 -28.416  31.470  1.00  0.00     0.345 HD
ENDBRANCH   9  10
BRANCH   9  14
ATOM     14  C   UNL     1       7.661 -26.949  28.876  1.00  0.00     0.099 C 
ATOM     15  O   UNL     1       8.682 -26.256  28.624  1.00  0.00    -0.544 OA
ATOM     16  O   UNL     1       7.032 -27.641  27.847  1.00  0.00    -0.544 OA
ENDBRANCH   9  14
ENDBRANCH   8   9
ENDBRANCH   1   8
TORSDOF 7
ENDMDL
MODEL 3
REMARK VINA RESULT:    -3.574     12.879     14.439
REMARK INTER + INTRA:          -5.231
REMARK INTER:                  -4.728
REMARK INTRA:                  -0.503
REMARK UNBOUND:                -0.404
REMARK SMILES [NH3+]CCCC[C@H]([NH3+])C(=O)[O-]
REMARK SMILES IDX 4 1 3 2 2 3 1 4 5 8 6 9 7 10 8 14 9 15 10 16
REMARK H PARENT 1 5 1 6 1 7 7 11 7 12 7 13
REMARK Flexibility Score: inf
ROOT
ATOM      1  C   UNL     1       9.936 -26.064  29.517  1.00  0.00     0.012 C 
ENDROOT
BRANCH   1   2
ATOM      2  C   UNL     1      11.062 -25.124  29.980  1.00  0.00     0.061 C 
BRANCH   2   3
ATOM      3  C   UNL     1      12.373 -25.834  30.369  1.00  0.00     0.258 C 
BRANCH   3   4
ATOM      4  N   UNL     1      12.309 -27.281  30.154  1.00  0.00    -0.358 N 
ATOM      5  H   UNL     1      12.170 -27.494  29.140  1.00  0.00     0.344 HD
ATOM      6  H   UNL     1      11.532 -27.695  30.718  1.00  0.00     0.344 HD
ATOM      7  H   UNL     1      13.208 -27.711  30.469  1.00  0.00     0.344 HD
ENDBRANCH   3   4
ENDBRANCH   2   3
ENDBRANCH   1   2
BRANCH   1   8
ATOM      8  C   UNL     1       8.775 -26.150  30.524  1.00  0.00     0.072 C 
BRANCH   8   9
ATOM      9  C   UNL     1       8.650 -27.555  31.151  1.00  0.00     0.227 C 
BRANCH   9  10
ATOM     10  N   UNL     1       7.244 -27.973  31.195  1.00  0.00    -0.350 N 
ATOM     11  H   UNL     1       6.983 -28.238  32.173  1.00  0.00     0.345 HD
ATOM     12  H   UNL     1       6.618 -27.201  30.868  1.00  0.00     0.345 HD
ATOM     13  H   UNL     1       7.104 -28.810  30.582  1.00  0.00     0.345 HD
ENDBRANCH   9  10
BRANCH   9  14
ATOM     14  C   UNL     1       9.238 -27.583  32.537  1.00  0.00     0.099 C 
ATOM     15  O   UNL     1      10.486 -27.610  32.696  1.00  0.00    -0.544 OA
ATOM     16  O   UNL     1       8.407 -27.574  33.652  1.00  0.00    -0.544 OA
ENDBRANCH   9  14
ENDBRANCH   8   9
ENDBRANCH   1   8
TORSDOF 7
ENDMDL
MODEL 4
REMARK VINA RESULT:    -3.535      3.209      4.659
REMARK INTER + INTRA:          -5.179
REMARK INTER:                  -5.056
REMARK INTRA:                  -0.123
REMARK UNBOUND:                -0.404
REMARK SMILES [NH3+]CCCC[C@H]([NH3+])C(=O)[O-]
REMARK SMILES IDX 4 1 3 2 2 3 1 4 5 8 6 9 7 10 8 14 9 15 10 16
REMARK H PARENT 1 5 1 6 1 7 7 11 7 12 7 13
REMARK Flexibility Score: inf
ROOT
ATOM      1  C   UNL     1      -5.873 -23.942  28.876  1.00  0.00     0.012 C 
ENDROOT
BRANCH   1   2
ATOM      2  C   UNL     1      -7.094 -24.873  28.778  1.00  0.00     0.061 C 
BRANCH   2   3
ATOM      3  C   UNL     1      -6.757 -26.346  28.474  1.00  0.00     0.258 C 
BRANCH   3   4
ATOM      4  N   UNL     1      -6.482 -26.574  27.054  1.00  0.00    -0.358 N 
ATOM      5  H   UNL     1      -5.969 -27.475  26.921  1.00  0.00     0.344 HD
ATOM      6  H   UNL     1      -5.925 -25.781  26.662  1.00  0.00     0.344 HD
ATOM      7  H   UNL     1      -7.390 -26.624  26.537  1.00  0.00     0.344 HD
ENDBRANCH   3   4
ENDBRANCH   2   3
ENDBRANCH   1   2
BRANCH   1   8
ATOM      8  C   UNL     1      -5.562 -23.513  30.321  1.00  0.00     0.072 C 
BRANCH   8   9
ATOM      9  C   UNL     1      -5.642 -21.983  30.505  1.00  0.00     0.227 C 
BRANCH   9  10
ATOM     10  N   UNL     1      -6.067 -21.339  29.256  1.00  0.00    -0.350 N 
ATOM     11  H   UNL     1      -6.023 -20.298  29.360  1.00  0.00     0.345 HD
ATOM     12  H   UNL     1      -5.454 -21.632  28.461  1.00  0.00     0.345 HD
ATOM     13  H   UNL     1      -7.057 -21.602  29.040  1.00  0.00     0.345 HD
ENDBRANCH   9  10
BRANCH   9  14
ATOM     14  C   UNL     1      -4.316 -21.421  30.946  1.00  0.00     0.099 C 
ATOM     15  O   UNL     1      -4.189 -20.930  32.099  1.00  0.00    -0.544 OA
ATOM     16  O   UNL     1      -3.223 -21.444  30.088  1.00  0.00    -0.544 OA
ENDBRANCH   9  14
ENDBRANCH   8   9
ENDBRANCH   1   8
TORSDOF 7
ENDMDL
MODEL 5
REMARK VINA RESULT:    -3.493      9.821     10.628
REMARK INTER + INTRA:          -5.121
REMARK INTER:                  -4.835
REMARK INTRA:                  -0.286
REMARK UNBOUND:                -0.404
REMARK SMILES [NH3+]CCCC[C@H]([NH3+])C(=O)[O-]
REMARK SMILES IDX 4 1 3 2 2 3 1 4 5 8 6 9 7 10 8 14 9 15 10 16
REMARK H PARENT 1 5 1 6 1 7 7 11 7 12 7 13
REMARK Flexibility Score: inf
ROOT
ATOM      1  C   UNL     1       3.482 -26.894  26.506  1.00  0.00     0.012 C 
ENDROOT
BRANCH   1   2
ATOM      2  C   UNL     1       2.894 -27.246  25.129  1.00  0.00     0.061 C 
BRANCH   2   3
ATOM      3  C   UNL     1       3.872 -27.958  24.174  1.00  0.00     0.258 C 
BRANCH   3   4
ATOM      4  N   UNL     1       5.043 -27.136  23.862  1.00  0.00    -0.358 N 
ATOM      5  H   UNL     1       4.847 -26.518  23.041  1.00  0.00     0.344 HD
ATOM      6  H   UNL     1       5.869 -27.745  23.664  1.00  0.00     0.344 HD
ATOM      7  H   UNL     1       5.267 -26.536  24.688  1.00  0.00     0.344 HD
ENDBRANCH   3   4
ENDBRANCH   2   3
ENDBRANCH   1   2
BRANCH   1   8
ATOM      8  C   UNL     1       2.854 -27.709  27.652  1.00  0.00     0.072 C 
BRANCH   8   9
ATOM      9  C   UNL     1       3.741 -28.899  28.074  1.00  0.00     0.227 C 
BRANCH   9  10
ATOM     10  N   UNL     1       5.146 -28.634  27.744  1.00  0.00    -0.350 N 
ATOM     11  H   UNL     1       5.629 -28.202  28.566  1.00  0.00     0.345 HD
ATOM     12  H   UNL     1       5.639 -29.519  27.482  1.00  0.00     0.345 HD
ATOM     13  H   UNL     1       5.202 -27.961  26.943  1.00  0.00     0.345 HD
ENDBRANCH   9  10
BRANCH   9  14
ATOM     14  C   UNL     1       3.289 -30.173  27.407  1.00  0.00     0.099 C 
ATOM     15  O   UNL     1       2.274 -30.784  27.832  1.00  0.00    -0.544 OA
ATOM     16  O   UNL     1       3.986 -30.679  26.316  1.00  0.00    -0.544 OA
ENDBRANCH   9  14
ENDBRANCH   8   9
ENDBRANCH   1   8
TORSDOF 7
ENDMDL
MODEL 6
REMARK VINA RESULT:    -3.485     14.605     15.430
REMARK INTER + INTRA:          -5.111
REMARK INTER:                  -4.991
REMARK INTRA:                  -0.120
REMARK UNBOUND:                -0.404
REMARK SMILES [NH3+]CCCC[C@H]([NH3+])C(=O)[O-]
REMARK SMILES IDX 4 1 3 2 2 3 1 4 5 8 6 9 7 10 8 14 9 15 10 16
REMARK H PARENT 1 5 1 6 1 7 7 11 7 12 7 13
REMARK Flexibility Score: inf
ROOT
ATOM      1  C   UNL     1      12.046 -24.713  29.586  1.00  0.00     0.012 C 
ENDROOT
BRANCH   1   2
ATOM      2  C   UNL     1      13.078 -23.574  29.503  1.00  0.00     0.061 C 
BRANCH   2   3
ATOM      3  C   UNL     1      12.522 -22.240  28.968  1.00  0.00     0.258 C 
BRANCH   3   4
ATOM      4  N   UNL     1      12.844 -22.029  27.555  1.00  0.00    -0.358 N 
ATOM      5  H   UNL     1      12.286 -22.675  26.952  1.00  0.00     0.344 HD
ATOM      6  H   UNL     1      13.866 -22.177  27.392  1.00  0.00     0.344 HD
ATOM      7  H   UNL     1      12.610 -21.042  27.298  1.00  0.00     0.344 HD
ENDBRANCH   3   4
ENDBRANCH   2   3
ENDBRANCH   1   2
BRANCH   1   8
ATOM      8  C   UNL     1      11.635 -25.044  31.033  1.00  0.00     0.072 C 
BRANCH   8   9
ATOM      9  C   UNL     1      11.665 -26.561  31.314  1.00  0.00     0.227 C 
BRANCH   9  10
ATOM     10  N   UNL     1      12.239 -27.282  30.172  1.00  0.00    -0.350 N 
ATOM     11  H   UNL     1      13.054 -26.750  29.789  1.00  0.00     0.345 HD
ATOM     12  H   UNL     1      12.556 -28.237  30.459  1.00  0.00     0.345 HD
ATOM     13  H   UNL     1      11.523 -27.372  29.413  1.00  0.00     0.345 HD
ENDBRANCH   9  10
BRANCH   9  14
ATOM     14  C   UNL     1      10.283 -27.083  31.609  1.00  0.00     0.099 C 
ATOM     15  O   UNL     1       9.420 -27.142  30.694  1.00  0.00    -0.544 OA
ATOM     16  O   UNL     1       9.951 -27.507  32.890  1.00  0.00    -0.544 OA
ENDBRANCH   9  14
ENDBRANCH   8   9
ENDBRANCH   1   8
TORSDOF 7
ENDMDL
MODEL 7
REMARK VINA RESULT:    -3.476      2.533      3.072
REMARK INTER + INTRA:          -5.099
REMARK INTER:                  -4.587
REMARK INTRA:                  -0.512
REMARK UNBOUND:                -0.404
REMARK SMILES [NH3+]CCCC[C@H]([NH3+])C(=O)[O-]
REMARK SMILES IDX 4 1 3 2 2 3 1 4 5 8 6 9 7 10 8 14 9 15 10 16
REMARK H PARENT 1 5 1 6 1 7 7 11 7 12 7 13
REMARK Flexibility Score: inf
ROOT
ATOM      1  C   UNL     1      -3.579 -23.004  29.144  1.00  0.00     0.012 C 
ENDROOT
BRANCH   1   2
ATOM      2  C   UNL     1      -4.797 -23.618  29.855  1.00  0.00     0.061 C 
BRANCH   2   3
ATOM      3  C   UNL     1      -6.140 -22.931  29.541  1.00  0.00     0.258 C 
BRANCH   3   4
ATOM      4  N   UNL     1      -5.978 -21.512  29.218  1.00  0.00    -0.358 N 
ATOM      5  H   UNL     1      -5.555 -21.399  28.268  1.00  0.00     0.344 HD
ATOM      6  H   UNL     1      -5.379 -21.044  29.936  1.00  0.00     0.344 HD
ATOM      7  H   UNL     1      -6.918 -21.053  29.224  1.00  0.00     0.344 HD
ENDBRANCH   3   4
ENDBRANCH   2   3
ENDBRANCH   1   2
BRANCH   1   8
ATOM      8  C   UNL     1      -2.460 -22.595  30.118  1.00  0.00     0.072 C 
BRANCH   8   9
ATOM      9  C   UNL     1      -2.523 -21.096  30.482  1.00  0.00     0.227 C 
BRANCH   9  10
ATOM     10  N   UNL     1      -1.170 -20.534  30.575  1.00  0.00    -0.350 N 
ATOM     11  H   UNL     1      -0.463 -21.273  30.352  1.00  0.00     0.345 HD
ATOM     12  H   UNL     1      -1.055 -19.735  29.911  1.00  0.00     0.345 HD
ATOM     13  H   UNL     1      -0.992 -20.198  31.551  1.00  0.00     0.345 HD
ENDBRANCH   9  10
BRANCH   9  14
ATOM     14  C   UNL     1      -3.256 -20.886  31.781  1.00  0.00     0.099 C 
ATOM     15  O   UNL     1      -4.503 -20.708  31.782  1.00  0.00    -0.544 OA
ATOM     16  O   UNL     1      -2.565 -20.891  32.987  1.00  0.00    -0.544 OA
ENDBRANCH   9  14
ENDBRANCH   8   9
ENDBRANCH   1   8
TORSDOF 7
ENDMDL
MODEL 8
REMARK VINA RESULT:    -3.471      2.211      3.069
REMARK INTER + INTRA:          -5.093
REMARK INTER:                  -4.641
REMARK INTRA:                  -0.452
REMARK UNBOUND:                -0.404
REMARK SMILES [NH3+]CCCC[C@H]([NH3+])C(=O)[O-]
REMARK SMILES IDX 4 1 3 2 2 3 1 4 5 8 6 9 7 10 8 14 9 15 10 16
REMARK H PARENT 1 5 1 6 1 7 7 11 7 12 7 13
REMARK Flexibility Score: inf
ROOT
ATOM      1  C   UNL     1      -6.250 -22.940  30.351  1.00  0.00     0.012 C 
ENDROOT
BRANCH   1   2
ATOM      2  C   UNL     1      -6.971 -23.515  29.120  1.00  0.00     0.061 C 
BRANCH   2   3
ATOM      3  C   UNL     1      -6.299 -24.755  28.501  1.00  0.00     0.258 C 
BRANCH   3   4
ATOM      4  N   UNL     1      -4.945 -24.971  29.015  1.00  0.00    -0.358 N 
ATOM      5  H   UNL     1      -4.743 -25.994  29.095  1.00  0.00     0.344 HD
ATOM      6  H   UNL     1      -4.835 -24.508  29.946  1.00  0.00     0.344 HD
ATOM      7  H   UNL     1      -4.258 -24.543  28.353  1.00  0.00     0.344 HD
ENDBRANCH   3   4
ENDBRANCH   2   3
ENDBRANCH   1   2
BRANCH   1   8
ATOM      8  C   UNL     1      -5.502 -21.629  30.050  1.00  0.00     0.072 C 
BRANCH   8   9
ATOM      9  C   UNL     1      -4.080 -21.618  30.650  1.00  0.00     0.227 C 
BRANCH   9  10
ATOM     10  N   UNL     1      -3.814 -20.335  31.313  1.00  0.00    -0.350 N 
ATOM     11  H   UNL     1      -2.786 -20.140  31.308  1.00  0.00     0.345 HD
ATOM     12  H   UNL     1      -4.315 -19.556  30.827  1.00  0.00     0.345 HD
ATOM     13  H   UNL     1      -4.132 -20.379  32.309  1.00  0.00     0.345 HD
ENDBRANCH   9  10
BRANCH   9  14
ATOM     14  C   UNL     1      -3.044 -21.870  29.586  1.00  0.00     0.099 C 
ATOM     15  O   UNL     1      -1.834 -21.595  29.803  1.00  0.00    -0.544 OA
ATOM     16  O   UNL     1      -3.413 -22.412  28.361  1.00  0.00    -0.544 OA
ENDBRANCH   9  14
ENDBRANCH   8   9
ENDBRANCH   1   8
TORSDOF 7
ENDMDL
MODEL 9
REMARK VINA RESULT:    -3.453     13.237     14.707
REMARK INTER + INTRA:          -5.068
REMARK INTER:                  -4.660
REMARK INTRA:                  -0.408
REMARK UNBOUND:                -0.404
REMARK SMILES [NH3+]CCCC[C@H]([NH3+])C(=O)[O-]
REMARK SMILES IDX 4 1 3 2 2 3 1 4 5 8 6 9 7 10 8 14 9 15 10 16
REMARK H PARENT 1 5 1 6 1 7 7 11 7 12 7 13
REMARK Flexibility Score: inf
ROOT
ATOM      1  C   UNL     1      11.997 -25.750  31.405  1.00  0.00     0.012 C 
ENDROOT
BRANCH   1   2
ATOM      2  C   UNL     1      12.946 -25.412  30.242  1.00  0.00     0.061 C 
BRANCH   2   3
ATOM      3  C   UNL     1      12.558 -24.155  29.440  1.00  0.00     0.258 C 
BRANCH   3   4
ATOM      4  N   UNL     1      11.124 -23.870  29.508  1.00  0.00    -0.358 N 
ATOM      5  H   UNL     1      10.718 -24.249  30.394  1.00  0.00     0.344 HD
ATOM      6  H   UNL     1      10.634 -24.284  28.683  1.00  0.00     0.344 HD
ATOM      7  H   UNL     1      10.982 -22.834  29.489  1.00  0.00     0.344 HD
ENDBRANCH   3   4
ENDBRANCH   2   3
ENDBRANCH   1   2
BRANCH   1   8
ATOM      8  C   UNL     1      11.358 -27.144  31.271  1.00  0.00     0.072 C 
BRANCH   8   9
ATOM      9  C   UNL     1       9.835 -27.112  31.519  1.00  0.00     0.227 C 
BRANCH   9  10
ATOM     10  N   UNL     1       9.387 -28.375  32.119  1.00  0.00    -0.350 N 
ATOM     11  H   UNL     1       9.774 -29.182  31.577  1.00  0.00     0.345 HD
ATOM     12  H   UNL     1       9.704 -28.445  33.114  1.00  0.00     0.345 HD
ATOM     13  H   UNL     1       8.343 -28.432  32.088  1.00  0.00     0.345 HD
ENDBRANCH   9  10
BRANCH   9  14
ATOM     14  C   UNL     1       9.084 -26.859  30.238  1.00  0.00     0.099 C 
ATOM     15  O   UNL     1       7.828 -26.941  30.213  1.00  0.00    -0.544 OA
ATOM     16  O   UNL     1       9.771 -26.529  29.075  1.00  0.00    -0.544 OA
ENDBRANCH   9  14
ENDBRANCH   8   9
ENDBRANCH   1   8
TORSDOF 7
ENDMDL
