MODEL 1
REMARK VINA RESULT:    -2.316      0.000      0.000
REMARK INTER + INTRA:          -3.420
REMARK INTER:                  -2.857
REMARK INTRA:                  -0.563
REMARK UNBOUND:                -0.563
REMARK SMILES CC(C)=CCC[C@@H](C)c1ccc(C)cc1
REMARK SMILES IDX 6 1 7 2 8 3 9 4 13 5 12 6 11 7 14 8 10 9 15 10 5 11 4 12
REMARK SMILES IDX 2 13 1 14 3 15
REMARK H PARENT
REMARK Flexibility Score: inf
ROOT
ATOM      1  C   UNL     1      26.560   7.475  -0.667  1.00  0.00     0.012 C 
ENDROOT
BRANCH   1   2
ATOM      2  C   UNL     1      27.967   8.090  -0.505  1.00  0.00     0.016 C 
ATOM      3  C   UNL     1      29.054   7.029  -0.728  1.00  0.00     0.013 C 
BRANCH   2   4
ATOM      4  C   UNL     1      28.179   9.273  -1.435  1.00  0.00    -0.045 A 
ATOM      5  C   UNL     1      28.798  12.595  -4.125  1.00  0.00     0.044 C 
ATOM      6  C   UNL     1      28.607  11.429  -3.200  1.00  0.00    -0.051 A 
ATOM      7  C   UNL     1      29.125  11.469  -1.898  1.00  0.00     0.004 A 
ATOM      8  C   UNL     1      27.853  10.320  -3.608  1.00  0.00     0.004 A 
ATOM      9  C   UNL     1      28.918  10.399  -1.024  1.00  0.00     0.004 A 
ATOM     10  C   UNL     1      27.646   9.248  -2.735  1.00  0.00     0.004 A 
ENDBRANCH   2   4
ENDBRANCH   1   2
BRANCH   1  11
ATOM     11  C   UNL     1      26.610   6.075  -1.299  1.00  0.00     0.028 C 
BRANCH  11  12
ATOM     12  C   UNL     1      25.353   5.797  -2.083  1.00  0.00    -0.028 C 
ATOM     13  C   UNL     1      24.805   4.571  -2.231  1.00  0.00    -0.080 C 
ATOM     14  C   UNL     1      23.523   4.447  -3.014  1.00  0.00     0.039 C 
ATOM     15  C   UNL     1      25.447   3.331  -1.652  1.00  0.00     0.039 C 
ENDBRANCH  11  12
ENDBRANCH   1  11
TORSDOF 4
ENDMDL
MODEL 2
REMARK VINA RESULT:    -2.097      1.096      6.361
REMARK INTER + INTRA:          -3.150
REMARK INTER:                  -2.741
REMARK INTRA:                  -0.409
REMARK UNBOUND:                -0.563
REMARK SMILES CC(C)=CCC[C@@H](C)c1ccc(C)cc1
REMARK SMILES IDX 6 1 7 2 8 3 9 4 13 5 12 6 11 7 14 8 10 9 15 10 5 11 4 12
REMARK SMILES IDX 2 13 1 14 3 15
REMARK H PARENT
REMARK Flexibility Score: inf
ROOT
ATOM      1  C   UNL     1      29.090   8.170  -1.410  1.00  0.00     0.012 C 
ENDROOT
BRANCH   1   2
ATOM      2  C   UNL     1      27.945   7.858  -0.424  1.00  0.00     0.016 C 
ATOM      3  C   UNL     1      27.074   9.099  -0.190  1.00  0.00     0.013 C 
BRANCH   2   4
ATOM      4  C   UNL     1      27.092   6.692  -0.897  1.00  0.00    -0.045 A 
ATOM      5  C   UNL     1      24.721   3.344  -2.248  1.00  0.00     0.044 C 
ATOM      6  C   UNL     1      25.563   4.502  -1.800  1.00  0.00    -0.051 A 
ATOM      7  C   UNL     1      25.303   5.792  -2.285  1.00  0.00     0.004 A 
ATOM      8  C   UNL     1      26.570   4.315  -0.844  1.00  0.00     0.004 A 
ATOM      9  C   UNL     1      26.064   6.877  -1.842  1.00  0.00     0.004 A 
ATOM     10  C   UNL     1      27.333   5.399  -0.401  1.00  0.00     0.004 A 
ENDBRANCH   2   4
ENDBRANCH   1   2
BRANCH   1  11
ATOM     11  C   UNL     1      28.600   8.960  -2.634  1.00  0.00     0.028 C 
BRANCH  11  12
ATOM     12  C   UNL     1      29.109  10.378  -2.595  1.00  0.00    -0.028 C 
ATOM     13  C   UNL     1      28.526  11.413  -3.238  1.00  0.00    -0.080 C 
ATOM     14  C   UNL     1      29.125  12.787  -3.079  1.00  0.00     0.039 C 
ATOM     15  C   UNL     1      27.312  11.227  -4.118  1.00  0.00     0.039 C 
ENDBRANCH  11  12
ENDBRANCH   1  11
TORSDOF 4
ENDMDL
MODEL 3
REMARK VINA RESULT:    -1.670      0.737      1.691
REMARK INTER + INTRA:          -2.624
REMARK INTER:                  -2.322
REMARK INTRA:                  -0.302
REMARK UNBOUND:                -0.563
REMARK SMILES CC(C)=CCC[C@@H](C)c1ccc(C)cc1
REMARK SMILES IDX 6 1 7 2 8 3 9 4 13 5 12 6 11 7 14 8 10 9 15 10 5 11 4 12
REMARK SMILES IDX 2 13 1 14 3 15
REMARK H PARENT
REMARK Flexibility Score: inf
ROOT
ATOM      1  C   UNL     1      27.591   6.438  -1.260  1.00  0.00     0.012 C 
ENDROOT
BRANCH   1   2
ATOM      2  C   UNL     1      27.906   7.748  -0.508  1.00  0.00     0.016 C 
ATOM      3  C   UNL     1      29.124   7.569   0.409  1.00  0.00     0.013 C 
BRANCH   2   4
ATOM      4  C   UNL     1      28.125   8.911  -1.461  1.00  0.00    -0.045 A 
ATOM      5  C   UNL     1      28.735  12.256  -4.125  1.00  0.00     0.044 C 
ATOM      6  C   UNL     1      28.500  11.107  -3.189  1.00  0.00    -0.051 A 
ATOM      7  C   UNL     1      27.730  10.008  -3.600  1.00  0.00     0.004 A 
ATOM      8  C   UNL     1      29.102  11.091  -1.924  1.00  0.00     0.004 A 
ATOM      9  C   UNL     1      27.539   8.922  -2.742  1.00  0.00     0.004 A 
ATOM     10  C   UNL     1      28.911  10.006  -1.064  1.00  0.00     0.004 A 
ENDBRANCH   2   4
ENDBRANCH   1   2
BRANCH   1  11
ATOM     11  C   UNL     1      26.081   6.241  -1.473  1.00  0.00     0.028 C 
BRANCH  11  12
ATOM     12  C   UNL     1      25.733   4.775  -1.514  1.00  0.00    -0.028 C 
ATOM     13  C   UNL     1      24.751   4.248  -2.277  1.00  0.00    -0.080 C 
ATOM     14  C   UNL     1      24.539   2.756  -2.245  1.00  0.00     0.039 C 
ATOM     15  C   UNL     1      23.858   5.109  -3.140  1.00  0.00     0.039 C 
ENDBRANCH  11  12
ENDBRANCH   1  11
TORSDOF 4
ENDMDL
MODEL 4
REMARK VINA RESULT:    -1.574      1.103      2.322
REMARK INTER + INTRA:          -2.505
REMARK INTER:                  -1.839
REMARK INTRA:                  -0.666
REMARK UNBOUND:                -0.563
REMARK SMILES CC(C)=CCC[C@@H](C)c1ccc(C)cc1
REMARK SMILES IDX 6 1 7 2 8 3 9 4 13 5 12 6 11 7 14 8 10 9 15 10 5 11 4 12
REMARK SMILES IDX 2 13 1 14 3 15
REMARK H PARENT
REMARK Flexibility Score: inf
ROOT
ATOM      1  C   UNL     1      27.567   7.630  -1.709  1.00  0.00     0.012 C 
ENDROOT
BRANCH   1   2
ATOM      2  C   UNL     1      27.292   8.295  -3.074  1.00  0.00     0.016 C 
ATOM      3  C   UNL     1      25.800   8.217  -3.427  1.00  0.00     0.013 C 
BRANCH   2   4
ATOM      4  C   UNL     1      27.772   9.737  -3.109  1.00  0.00    -0.045 A 
ATOM      5  C   UNL     1      29.125  13.839  -3.146  1.00  0.00     0.044 C 
ATOM      6  C   UNL     1      28.632  12.422  -3.117  1.00  0.00    -0.051 A 
ATOM      7  C   UNL     1      27.775  11.952  -4.122  1.00  0.00     0.004 A 
ATOM      8  C   UNL     1      29.079  11.539  -2.125  1.00  0.00     0.004 A 
ATOM      9  C   UNL     1      27.343  10.623  -4.116  1.00  0.00     0.004 A 
ATOM     10  C   UNL     1      28.647  10.209  -2.116  1.00  0.00     0.004 A 
ENDBRANCH   2   4
ENDBRANCH   1   2
BRANCH   1  11
ATOM     11  C   UNL     1      26.314   6.951  -1.133  1.00  0.00     0.028 C 
BRANCH  11  12
ATOM     12  C   UNL     1      26.495   5.455  -1.077  1.00  0.00    -0.028 C 
ATOM     13  C   UNL     1      25.732   4.571  -1.757  1.00  0.00    -0.080 C 
ATOM     14  C   UNL     1      26.050   3.103  -1.634  1.00  0.00     0.039 C 
ATOM     15  C   UNL     1      24.568   5.012  -2.615  1.00  0.00     0.039 C 
ENDBRANCH  11  12
ENDBRANCH   1  11
TORSDOF 4
ENDMDL
MODEL 5
REMARK VINA RESULT:    -1.548      1.030      6.080
REMARK INTER + INTRA:          -2.473
REMARK INTER:                  -1.880
REMARK INTRA:                  -0.594
REMARK UNBOUND:                -0.563
REMARK SMILES CC(C)=CCC[C@@H](C)c1ccc(C)cc1
REMARK SMILES IDX 6 1 7 2 8 3 9 4 13 5 12 6 11 7 14 8 10 9 15 10 5 11 4 12
REMARK SMILES IDX 2 13 1 14 3 15
REMARK H PARENT
REMARK Flexibility Score: inf
ROOT
ATOM      1  C   UNL     1      27.692   8.415  -0.371  1.00  0.00     0.012 C 
ENDROOT
BRANCH   1   2
ATOM      2  C   UNL     1      28.265   7.039  -0.772  1.00  0.00     0.016 C 
ATOM      3  C   UNL     1      29.109   6.449   0.366  1.00  0.00     0.013 C 
BRANCH   2   4
ATOM      4  C   UNL     1      27.171   6.067  -1.182  1.00  0.00    -0.045 A 
ATOM      5  C   UNL     1      24.019   3.347  -2.332  1.00  0.00     0.044 C 
ATOM      6  C   UNL     1      25.100   4.298  -1.908  1.00  0.00    -0.051 A 
ATOM      7  C   UNL     1      26.190   3.838  -1.155  1.00  0.00     0.004 A 
ATOM      8  C   UNL     1      25.063   5.637  -2.319  1.00  0.00     0.004 A 
ATOM      9  C   UNL     1      27.214   4.715  -0.790  1.00  0.00     0.004 A 
ATOM     10  C   UNL     1      26.086   6.517  -1.954  1.00  0.00     0.004 A 
ENDBRANCH   2   4
ENDBRANCH   1   2
BRANCH   1  11
ATOM     11  C   UNL     1      28.749   9.528  -0.452  1.00  0.00     0.028 C 
BRANCH  11  12
ATOM     12  C   UNL     1      28.371  10.549  -1.495  1.00  0.00    -0.028 C 
ATOM     13  C   UNL     1      28.513  10.364  -2.826  1.00  0.00    -0.080 C 
ATOM     14  C   UNL     1      28.059  11.460  -3.756  1.00  0.00     0.039 C 
ATOM     15  C   UNL     1      29.125   9.107  -3.399  1.00  0.00     0.039 C 
ENDBRANCH  11  12
ENDBRANCH   1  11
TORSDOF 4
ENDMDL
