MODEL 1
REMARK VINA RESULT:    -4.408      0.000      0.000
REMARK INTER + INTRA:          -4.981
REMARK INTER:                  -4.794
REMARK INTRA:                  -0.186
REMARK UNBOUND:                -0.186
REMARK SMILES Cc1ccc(C(C)C)c(O)c1
REMARK SMILES IDX 1 1 2 2 11 3 9 4 5 5 4 6 3 7 10 8 6 10 7 11 8 12
REMARK H PARENT 10 9
REMARK Flexibility Score: inf
ROOT
ATOM      1  C   UNL     1     -14.773  84.967  -7.607  1.00  0.00     0.044 C 
ATOM      2  C   UNL     1     -14.275  84.069  -8.701  1.00  0.00    -0.047 A 
ATOM      3  C   UNL     1     -13.701  82.830  -8.392  1.00  0.00     0.049 A 
ATOM      4  C   UNL     1     -13.200  82.000  -9.406  1.00  0.00     0.119 A 
ATOM      5  C   UNL     1     -13.261  82.417 -10.757  1.00  0.00    -0.004 A 
ATOM      6  C   UNL     1     -13.823  83.673 -11.051  1.00  0.00     0.008 A 
ATOM      7  C   UNL     1     -14.319  84.493 -10.035  1.00  0.00     0.004 A 
ENDROOT
BRANCH   4   8
ATOM      8  O   UNL     1     -12.643  80.767  -9.066  1.00  0.00    -0.508 OA
ATOM      9  H   UNL     1     -12.077  80.239  -9.718  1.00  0.00     0.293 HD
ENDBRANCH   4   8
BRANCH   5  10
ATOM     10  C   UNL     1     -12.735  81.562 -11.902  1.00  0.00     0.017 C 
ATOM     11  C   UNL     1     -11.227  81.756 -12.112  1.00  0.00     0.012 C 
ATOM     12  C   UNL     1     -13.520  81.800 -13.198  1.00  0.00     0.012 C 
ENDBRANCH   5  10
TORSDOF 2
ENDMDL
MODEL 2
REMARK VINA RESULT:    -4.205      2.243      4.216
REMARK INTER + INTRA:          -4.760
REMARK INTER:                  -4.563
REMARK INTRA:                  -0.197
REMARK UNBOUND:                -0.186
REMARK SMILES Cc1ccc(C(C)C)c(O)c1
REMARK SMILES IDX 1 1 2 2 11 3 9 4 5 5 4 6 3 7 10 8 6 10 7 11 8 12
REMARK H PARENT 10 9
REMARK Flexibility Score: inf
ROOT
ATOM      1  C   UNL     1     -13.521  81.761 -13.264  1.00  0.00     0.044 C 
ATOM      2  C   UNL     1     -12.838  82.078 -11.966  1.00  0.00    -0.047 A 
ATOM      3  C   UNL     1     -13.503  82.819 -10.980  1.00  0.00     0.049 A 
ATOM      4  C   UNL     1     -12.859  83.152  -9.779  1.00  0.00     0.119 A 
ATOM      5  C   UNL     1     -11.522  82.748  -9.557  1.00  0.00    -0.004 A 
ATOM      6  C   UNL     1     -10.860  82.021 -10.564  1.00  0.00     0.008 A 
ATOM      7  C   UNL     1     -11.508  81.695 -11.757  1.00  0.00     0.004 A 
ENDROOT
BRANCH   4   8
ATOM      8  O   UNL     1     -13.553  83.883  -8.814  1.00  0.00    -0.508 OA
ATOM      9  H   UNL     1     -13.119  84.645  -8.309  1.00  0.00     0.293 HD
ENDBRANCH   4   8
BRANCH   5  10
ATOM     10  C   UNL     1     -10.770  83.078  -8.274  1.00  0.00     0.017 C 
ATOM     11  C   UNL     1      -9.309  83.457  -8.551  1.00  0.00     0.012 C 
ATOM     12  C   UNL     1     -10.872  81.943  -7.246  1.00  0.00     0.012 C 
ENDBRANCH   5  10
TORSDOF 2
ENDMDL
MODEL 3
REMARK VINA RESULT:    -4.110      8.530      9.852
REMARK INTER + INTRA:          -4.657
REMARK INTER:                  -4.466
REMARK INTRA:                  -0.191
REMARK UNBOUND:                -0.186
REMARK SMILES Cc1ccc(C(C)C)c(O)c1
REMARK SMILES IDX 1 1 2 2 11 3 9 4 5 5 4 6 3 7 10 8 6 10 7 11 8 12
REMARK H PARENT 10 9
REMARK Flexibility Score: inf
ROOT
ATOM      1  C   UNL     1      -6.061  86.924 -10.437  1.00  0.00     0.044 C 
ATOM      2  C   UNL     1      -5.335  85.780  -9.793  1.00  0.00    -0.047 A 
ATOM      3  C   UNL     1      -4.124  85.999  -9.122  1.00  0.00     0.049 A 
ATOM      4  C   UNL     1      -3.420  84.929  -8.549  1.00  0.00     0.119 A 
ATOM      5  C   UNL     1      -3.926  83.612  -8.653  1.00  0.00    -0.004 A 
ATOM      6  C   UNL     1      -5.133  83.405  -9.346  1.00  0.00     0.008 A 
ATOM      7  C   UNL     1      -5.826  84.476  -9.915  1.00  0.00     0.004 A 
ENDROOT
BRANCH   4   8
ATOM      8  O   UNL     1      -2.223  85.182  -7.880  1.00  0.00    -0.508 OA
ATOM      9  H   UNL     1      -1.900  84.592  -7.123  1.00  0.00     0.293 HD
ENDBRANCH   4   8
BRANCH   5  10
ATOM     10  C   UNL     1      -3.209  82.411  -8.051  1.00  0.00     0.017 C 
ATOM     11  C   UNL     1      -2.814  81.387  -9.124  1.00  0.00     0.012 C 
ATOM     12  C   UNL     1      -4.028  81.763  -6.927  1.00  0.00     0.012 C 
ENDBRANCH   5  10
TORSDOF 2
ENDMDL
MODEL 4
REMARK VINA RESULT:    -4.044      8.058      9.436
REMARK INTER + INTRA:          -4.585
REMARK INTER:                  -4.394
REMARK INTRA:                  -0.191
REMARK UNBOUND:                -0.186
REMARK SMILES Cc1ccc(C(C)C)c(O)c1
REMARK SMILES IDX 1 1 2 2 11 3 9 4 5 5 4 6 3 7 10 8 6 10 7 11 8 12
REMARK H PARENT 10 9
REMARK Flexibility Score: inf
ROOT
ATOM      1  C   UNL     1      -7.871  84.474  -9.425  1.00  0.00     0.044 C 
ATOM      2  C   UNL     1      -6.552  83.870  -9.042  1.00  0.00    -0.047 A 
ATOM      3  C   UNL     1      -5.658  83.438 -10.031  1.00  0.00     0.049 A 
ATOM      4  C   UNL     1      -4.439  82.838  -9.681  1.00  0.00     0.119 A 
ATOM      5  C   UNL     1      -4.106  82.654  -8.319  1.00  0.00    -0.004 A 
ATOM      6  C   UNL     1      -5.022  83.075  -7.336  1.00  0.00     0.008 A 
ATOM      7  C   UNL     1      -6.234  83.670  -7.694  1.00  0.00     0.004 A 
ENDROOT
BRANCH   4   8
ATOM      8  O   UNL     1      -3.568  82.428 -10.690  1.00  0.00    -0.508 OA
ATOM      9  H   UNL     1      -2.990  83.088 -11.196  1.00  0.00     0.293 HD
ENDBRANCH   4   8
BRANCH   5  10
ATOM     10  C   UNL     1      -2.799  82.010  -7.877  1.00  0.00     0.017 C 
ATOM     11  C   UNL     1      -3.040  80.764  -7.014  1.00  0.00     0.012 C 
ATOM     12  C   UNL     1      -1.880  83.015  -7.170  1.00  0.00     0.012 C 
ENDBRANCH   5  10
TORSDOF 2
ENDMDL
MODEL 5
REMARK VINA RESULT:    -4.040      1.814      4.130
REMARK INTER + INTRA:          -4.581
REMARK INTER:                  -4.384
REMARK INTRA:                  -0.196
REMARK UNBOUND:                -0.186
REMARK SMILES Cc1ccc(C(C)C)c(O)c1
REMARK SMILES IDX 1 1 2 2 11 3 9 4 5 5 4 6 3 7 10 8 6 10 7 11 8 12
REMARK H PARENT 10 9
REMARK Flexibility Score: inf
ROOT
ATOM      1  C   UNL     1     -13.469  81.681 -13.244  1.00  0.00     0.044 C 
ATOM      2  C   UNL     1     -13.012  82.235 -11.927  1.00  0.00    -0.047 A 
ATOM      3  C   UNL     1     -11.837  81.760 -11.329  1.00  0.00     0.049 A 
ATOM      4  C   UNL     1     -11.422  82.246 -10.080  1.00  0.00     0.119 A 
ATOM      5  C   UNL     1     -12.198  83.218  -9.406  1.00  0.00    -0.004 A 
ATOM      6  C   UNL     1     -13.386  83.672 -10.009  1.00  0.00     0.008 A 
ATOM      7  C   UNL     1     -13.792  83.181 -11.252  1.00  0.00     0.004 A 
ENDROOT
BRANCH   4   8
ATOM      8  O   UNL     1     -10.242  81.760  -9.518  1.00  0.00    -0.508 OA
ATOM      9  H   UNL     1      -9.668  81.074  -9.993  1.00  0.00     0.293 HD
ENDBRANCH   4   8
BRANCH   5  10
ATOM     10  C   UNL     1     -11.800  83.785  -8.050  1.00  0.00     0.017 C 
ATOM     11  C   UNL     1     -13.013  83.959  -7.126  1.00  0.00     0.012 C 
ATOM     12  C   UNL     1     -11.005  85.090  -8.188  1.00  0.00     0.012 C 
ENDBRANCH   5  10
TORSDOF 2
ENDMDL
MODEL 6
REMARK VINA RESULT:    -3.788      9.374     10.263
REMARK INTER + INTRA:          -4.307
REMARK INTER:                  -4.153
REMARK INTRA:                  -0.154
REMARK UNBOUND:                -0.186
REMARK SMILES Cc1ccc(C(C)C)c(O)c1
REMARK SMILES IDX 1 1 2 2 11 3 9 4 5 5 4 6 3 7 10 8 6 10 7 11 8 12
REMARK H PARENT 10 9
REMARK Flexibility Score: inf
ROOT
ATOM      1  C   UNL     1      -4.091  89.507  -8.262  1.00  0.00     0.044 C 
ATOM      2  C   UNL     1      -4.109  88.015  -8.421  1.00  0.00    -0.047 A 
ATOM      3  C   UNL     1      -3.004  87.249  -8.027  1.00  0.00     0.049 A 
ATOM      4  C   UNL     1      -2.997  85.857  -8.206  1.00  0.00     0.119 A 
ATOM      5  C   UNL     1      -4.109  85.215  -8.799  1.00  0.00    -0.004 A 
ATOM      6  C   UNL     1      -5.204  85.999  -9.208  1.00  0.00     0.008 A 
ATOM      7  C   UNL     1      -5.201  87.384  -9.027  1.00  0.00     0.004 A 
ENDROOT
BRANCH   4   8
ATOM      8  O   UNL     1      -1.886  85.123  -7.793  1.00  0.00    -0.508 OA
ATOM      9  H   UNL     1      -1.141  84.878  -8.434  1.00  0.00     0.293 HD
ENDBRANCH   4   8
BRANCH   5  10
ATOM     10  C   UNL     1      -4.162  83.709  -9.019  1.00  0.00     0.017 C 
ATOM     11  C   UNL     1      -5.121  83.332 -10.156  1.00  0.00     0.012 C 
ATOM     12  C   UNL     1      -4.498  82.956  -7.726  1.00  0.00     0.012 C 
ENDBRANCH   5  10
TORSDOF 2
ENDMDL
MODEL 7
REMARK VINA RESULT:    -3.785      8.589      9.932
REMARK INTER + INTRA:          -4.303
REMARK INTER:                  -4.107
REMARK INTRA:                  -0.195
REMARK UNBOUND:                -0.186
REMARK SMILES Cc1ccc(C(C)C)c(O)c1
REMARK SMILES IDX 1 1 2 2 11 3 9 4 5 5 4 6 3 7 10 8 6 10 7 11 8 12
REMARK H PARENT 10 9
REMARK Flexibility Score: inf
ROOT
ATOM      1  C   UNL     1      -3.379  81.783  -9.343  1.00  0.00     0.044 C 
ATOM      2  C   UNL     1      -3.904  83.188  -9.391  1.00  0.00    -0.047 A 
ATOM      3  C   UNL     1      -3.186  84.232  -8.793  1.00  0.00     0.049 A 
ATOM      4  C   UNL     1      -3.687  85.542  -8.801  1.00  0.00     0.119 A 
ATOM      5  C   UNL     1      -4.935  85.819  -9.408  1.00  0.00    -0.004 A 
ATOM      6  C   UNL     1      -5.654  84.758  -9.988  1.00  0.00     0.008 A 
ATOM      7  C   UNL     1      -5.148  83.456  -9.974  1.00  0.00     0.004 A 
ENDROOT
BRANCH   4   8
ATOM      8  O   UNL     1      -2.943  86.560  -8.206  1.00  0.00    -0.508 OA
ATOM      9  H   UNL     1      -2.380  87.199  -8.753  1.00  0.00     0.293 HD
ENDBRANCH   4   8
BRANCH   5  10
ATOM     10  C   UNL     1      -5.531  87.220  -9.450  1.00  0.00     0.017 C 
ATOM     11  C   UNL     1      -6.385  87.513  -8.209  1.00  0.00     0.012 C 
ATOM     12  C   UNL     1      -6.315  87.467 -10.745  1.00  0.00     0.012 C 
ENDBRANCH   5  10
TORSDOF 2
ENDMDL
MODEL 8
REMARK VINA RESULT:    -3.758      9.854     10.899
REMARK INTER + INTRA:          -4.274
REMARK INTER:                  -4.244
REMARK INTRA:                  -0.030
REMARK UNBOUND:                -0.186
REMARK SMILES Cc1ccc(C(C)C)c(O)c1
REMARK SMILES IDX 1 1 2 2 11 3 9 4 5 5 4 6 3 7 10 8 6 10 7 11 8 12
REMARK H PARENT 10 9
REMARK Flexibility Score: inf
ROOT
ATOM      1  C   UNL     1      -1.965  87.762  -7.275  1.00  0.00     0.044 C 
ATOM      2  C   UNL     1      -2.446  86.383  -7.617  1.00  0.00    -0.047 A 
ATOM      3  C   UNL     1      -3.389  86.196  -8.636  1.00  0.00     0.049 A 
ATOM      4  C   UNL     1      -3.873  84.914  -8.937  1.00  0.00     0.119 A 
ATOM      5  C   UNL     1      -3.416  83.794  -8.202  1.00  0.00    -0.004 A 
ATOM      6  C   UNL     1      -2.483  83.999  -7.169  1.00  0.00     0.008 A 
ATOM      7  C   UNL     1      -2.008  85.280  -6.875  1.00  0.00     0.004 A 
ENDROOT
BRANCH   4   8
ATOM      8  O   UNL     1      -4.804  84.761  -9.964  1.00  0.00    -0.508 OA
ATOM      9  H   UNL     1      -4.864  85.418 -10.732  1.00  0.00     0.293 HD
ENDBRANCH   4   8
BRANCH   5  10
ATOM     10  C   UNL     1      -3.902  82.379  -8.483  1.00  0.00     0.017 C 
ATOM     11  C   UNL     1      -3.488  81.403  -7.373  1.00  0.00     0.012 C 
ATOM     12  C   UNL     1      -3.452  81.885  -9.864  1.00  0.00     0.012 C 
ENDBRANCH   5  10
TORSDOF 2
ENDMDL
MODEL 9
REMARK VINA RESULT:    -3.739     12.120     12.956
REMARK INTER + INTRA:          -4.253
REMARK INTER:                  -4.056
REMARK INTRA:                  -0.196
REMARK UNBOUND:                -0.186
REMARK SMILES Cc1ccc(C(C)C)c(O)c1
REMARK SMILES IDX 1 1 2 2 11 3 9 4 5 5 4 6 3 7 10 8 6 10 7 11 8 12
REMARK H PARENT 10 9
REMARK Flexibility Score: inf
ROOT
ATOM      1  C   UNL     1      -7.044  89.328 -13.032  1.00  0.00     0.044 C 
ATOM      2  C   UNL     1      -6.737  90.211 -14.206  1.00  0.00    -0.047 A 
ATOM      3  C   UNL     1      -5.709  89.872 -15.095  1.00  0.00     0.049 A 
ATOM      4  C   UNL     1      -5.391  90.711 -16.175  1.00  0.00     0.119 A 
ATOM      5  C   UNL     1      -6.105  91.917 -16.368  1.00  0.00    -0.004 A 
ATOM      6  C   UNL     1      -7.123  92.253 -15.456  1.00  0.00     0.008 A 
ATOM      7  C   UNL     1      -7.431  91.413 -14.384  1.00  0.00     0.004 A 
ENDROOT
BRANCH   4   8
ATOM      8  O   UNL     1      -4.368  90.340 -17.047  1.00  0.00    -0.508 OA
ATOM      9  H   UNL     1      -3.715  91.017 -17.421  1.00  0.00     0.293 HD
ENDBRANCH   4   8
BRANCH   5  10
ATOM     10  C   UNL     1      -5.808  92.867 -17.521  1.00  0.00     0.017 C 
ATOM     11  C   UNL     1      -4.854  93.993 -17.099  1.00  0.00     0.012 C 
ATOM     12  C   UNL     1      -7.093  93.422 -18.147  1.00  0.00     0.012 C 
ENDBRANCH   5  10
TORSDOF 2
ENDMDL
