MODEL 1
REMARK VINA RESULT:    26.483      0.000      0.000
REMARK INTER + INTRA:          28.805
REMARK INTER:                  28.805
REMARK INTRA:                   0.000
REMARK UNBOUND:                 0.000
REMARK SMILES Cc1cc(O)c2c(c1)C(=O)c1cc(O)cc(O)c1C2=O
REMARK SMILES IDX 1 1 2 2 8 3 7 4 6 5 4 6 3 7 19 8 20 9 18 10 11 11 9 12 10 13
REMARK SMILES IDX 12 14 13 15 15 16 16 17 5 18 17 20 14 22
REMARK H PARENT 5 19 17 21 14 23
REMARK Flexibility Score: inf
ROOT
ATOM      1  C   UNL     1       7.831  18.288   2.075  1.00  0.00     0.044 C 
ATOM      2  C   UNL     1       8.823  17.346   1.460  1.00  0.00    -0.047 A 
ATOM      3  C   UNL     1       8.551  16.745   0.225  1.00  0.00     0.016 A 
ATOM      4  C   UNL     1       9.486  15.883  -0.373  1.00  0.00     0.038 A 
ATOM      5  C   UNL     1      10.713  15.619   0.274  1.00  0.00     0.076 A 
ATOM      6  C   UNL     1      11.018  16.296   1.484  1.00  0.00     0.127 A 
ATOM      7  C   UNL     1      10.063  17.133   2.070  1.00  0.00     0.050 A 
ATOM      8  C   UNL     1      11.611  14.590  -0.313  1.00  0.00     0.201 C 
ATOM      9  O   UNL     1      12.367  13.916   0.436  1.00  0.00    -0.288 OA
ATOM     10  C   UNL     1      11.478  14.230  -1.748  1.00  0.00     0.076 A 
ATOM     11  C   UNL     1      10.251  14.499  -2.394  1.00  0.00     0.041 A 
ATOM     12  C   UNL     1       9.194  15.258  -1.685  1.00  0.00     0.194 C 
ATOM     13  O   UNL     1       8.053  15.392  -2.208  1.00  0.00    -0.289 OA
ATOM     14  C   UNL     1      10.039  14.050  -3.709  1.00  0.00     0.059 A 
ATOM     15  C   UNL     1      11.041  13.352  -4.389  1.00  0.00     0.120 A 
ATOM     16  C   UNL     1      12.268  13.119  -3.770  1.00  0.00     0.093 A 
ATOM     17  C   UNL     1      12.511  13.574  -2.469  1.00  0.00     0.131 A 
ENDROOT
BRANCH   6  18
ATOM     18  O   UNL     1      12.260  16.195   2.113  1.00  0.00    -0.507 OA
ATOM     19  H   UNL     1      12.463  16.599   3.016  1.00  0.00     0.293 HD
ENDBRANCH   6  18
BRANCH  17  20
ATOM     20  O   UNL     1      13.794  13.385  -1.950  1.00  0.00    -0.507 OA
ATOM     21  H   UNL     1      13.983  13.237  -0.968  1.00  0.00     0.293 HD
ENDBRANCH  17  20
BRANCH  15  22
ATOM     22  O   UNL     1      10.830  12.894  -5.689  1.00  0.00    -0.508 OA
ATOM     23  H   UNL     1      11.027  13.476  -6.494  1.00  0.00     0.293 HD
ENDBRANCH  15  22
TORSDOF 3
ENDMDL
MODEL 2
REMARK VINA RESULT:    28.783     13.959     14.738
REMARK INTER + INTRA:          31.307
REMARK INTER:                  31.307
REMARK INTRA:                   0.000
REMARK UNBOUND:                 0.000
REMARK SMILES Cc1cc(O)c2c(c1)C(=O)c1cc(O)cc(O)c1C2=O
REMARK SMILES IDX 1 1 2 2 8 3 7 4 6 5 4 6 3 7 19 8 20 9 18 10 11 11 9 12 10 13
REMARK SMILES IDX 12 14 13 15 15 16 16 17 5 18 17 20 14 22
REMARK H PARENT 5 19 17 21 14 23
REMARK Flexibility Score: inf
ROOT
ATOM      1  C   UNL     1      19.799  22.279 -12.448  1.00  0.00     0.044 C 
ATOM      2  C   UNL     1      19.857  20.781 -12.388  1.00  0.00    -0.047 A 
ATOM      3  C   UNL     1      18.699  20.022 -12.595  1.00  0.00     0.016 A 
ATOM      4  C   UNL     1      18.749  18.619 -12.568  1.00  0.00     0.038 A 
ATOM      5  C   UNL     1      19.977  17.963 -12.331  1.00  0.00     0.076 A 
ATOM      6  C   UNL     1      21.162  18.735 -12.206  1.00  0.00     0.127 A 
ATOM      7  C   UNL     1      21.084  20.131 -12.216  1.00  0.00     0.050 A 
ATOM      8  C   UNL     1      19.965  16.486 -12.162  1.00  0.00     0.201 C 
ATOM      9  O   UNL     1      20.823  15.933 -11.424  1.00  0.00    -0.288 OA
ATOM     10  C   UNL     1      18.835  15.692 -12.709  1.00  0.00     0.076 A 
ATOM     11  C   UNL     1      17.608  16.351 -12.947  1.00  0.00     0.041 A 
ATOM     12  C   UNL     1      17.520  17.823 -12.796  1.00  0.00     0.194 C 
ATOM     13  O   UNL     1      16.401  18.401 -12.885  1.00  0.00    -0.289 OA
ATOM     14  C   UNL     1      16.479  15.609 -13.334  1.00  0.00     0.059 A 
ATOM     15  C   UNL     1      16.563  14.224 -13.497  1.00  0.00     0.120 A 
ATOM     16  C   UNL     1      17.781  13.575 -13.302  1.00  0.00     0.093 A 
ATOM     17  C   UNL     1      18.925  14.293 -12.938  1.00  0.00     0.131 A 
ENDROOT
BRANCH   6  18
ATOM     18  O   UNL     1      22.430  18.161 -12.108  1.00  0.00    -0.507 OA
ATOM     19  H   UNL     1      22.719  17.350 -12.637  1.00  0.00     0.293 HD
ENDBRANCH   6  18
BRANCH  17  20
ATOM     20  O   UNL     1      20.128  13.588 -12.850  1.00  0.00    -0.507 OA
ATOM     21  H   UNL     1      20.521  13.058 -13.615  1.00  0.00     0.293 HD
ENDBRANCH  17  20
BRANCH  15  22
ATOM     22  O   UNL     1      15.442  13.483 -13.867  1.00  0.00    -0.508 OA
ATOM     23  H   UNL     1      15.426  12.937 -14.720  1.00  0.00     0.293 HD
ENDBRANCH  15  22
TORSDOF 3
ENDMDL
MODEL 3
REMARK VINA RESULT:    29.198     14.087     15.799
REMARK INTER + INTRA:          31.759
REMARK INTER:                  31.759
REMARK INTRA:                   0.000
REMARK UNBOUND:                 0.000
REMARK SMILES Cc1cc(O)c2c(c1)C(=O)c1cc(O)cc(O)c1C2=O
REMARK SMILES IDX 1 1 2 2 8 3 7 4 6 5 4 6 3 7 19 8 20 9 18 10 11 11 9 12 10 13
REMARK SMILES IDX 12 14 13 15 15 16 16 17 5 18 17 20 14 22
REMARK H PARENT 5 19 17 21 14 23
REMARK Flexibility Score: inf
ROOT
ATOM      1  C   UNL     1      19.719  12.875 -12.987  1.00  0.00     0.044 C 
ATOM      2  C   UNL     1      19.277  14.304 -12.868  1.00  0.00    -0.047 A 
ATOM      3  C   UNL     1      20.197  15.300 -12.521  1.00  0.00     0.016 A 
ATOM      4  C   UNL     1      19.798  16.644 -12.435  1.00  0.00     0.038 A 
ATOM      5  C   UNL     1      18.457  16.999 -12.702  1.00  0.00     0.076 A 
ATOM      6  C   UNL     1      17.549  15.997 -13.136  1.00  0.00     0.127 A 
ATOM      7  C   UNL     1      17.964  14.662 -13.194  1.00  0.00     0.050 A 
ATOM      8  C   UNL     1      18.038  18.403 -12.458  1.00  0.00     0.201 C 
ATOM      9  O   UNL     1      16.851  18.654 -12.120  1.00  0.00    -0.288 OA
ATOM     10  C   UNL     1      19.060  19.481 -12.427  1.00  0.00     0.076 A 
ATOM     11  C   UNL     1      20.401  19.124 -12.163  1.00  0.00     0.041 A 
ATOM     12  C   UNL     1      20.780  17.694 -12.075  1.00  0.00     0.194 C 
ATOM     13  O   UNL     1      21.946  17.370 -11.716  1.00  0.00    -0.289 OA
ATOM     14  C   UNL     1      21.371  20.126 -11.991  1.00  0.00     0.059 A 
ATOM     15  C   UNL     1      21.022  21.475 -12.092  1.00  0.00     0.120 A 
ATOM     16  C   UNL     1      19.708  21.831 -12.393  1.00  0.00     0.093 A 
ATOM     17  C   UNL     1      18.728  20.853 -12.590  1.00  0.00     0.131 A 
ENDROOT
BRANCH   6  18
ATOM     18  O   UNL     1      16.248  16.286 -13.550  1.00  0.00    -0.507 OA
ATOM     19  H   UNL     1      15.937  16.212 -14.508  1.00  0.00     0.293 HD
ENDBRANCH   6  18
BRANCH  17  20
ATOM     20  O   UNL     1      17.457  21.283 -12.978  1.00  0.00    -0.507 OA
ATOM     21  H   UNL     1      16.741  20.662 -13.330  1.00  0.00     0.293 HD
ENDBRANCH  17  20
BRANCH  15  22
ATOM     22  O   UNL     1      21.979  22.472 -11.909  1.00  0.00    -0.508 OA
ATOM     23  H   UNL     1      21.803  23.432 -12.183  1.00  0.00     0.293 HD
ENDBRANCH  15  22
TORSDOF 3
ENDMDL
