MODEL 1
REMARK VINA RESULT:    -4.161      0.000      0.000
REMARK INTER + INTRA:          -4.421
REMARK INTER:                  -4.404
REMARK INTRA:                  -0.016
REMARK UNBOUND:                -0.016
REMARK SMILES O=C([O-])c1cccnc1
REMARK SMILES IDX 4 1 5 2 9 3 6 4 8 5 7 6 2 7 1 8 3 9
REMARK H PARENT
REMARK Flexibility Score: inf
ROOT
ATOM      1  C   UNL     1      31.567  13.194  14.825  1.00  0.00     0.016 A 
ATOM      2  C   UNL     1      32.886  12.871  15.183  1.00  0.00     0.013 A 
ATOM      3  C   UNL     1      31.257  14.539  14.559  1.00  0.00     0.120 A 
ATOM      4  C   UNL     1      33.854  13.873  15.268  1.00  0.00     0.021 A 
ATOM      5  N   UNL     1      32.219  15.495  14.649  1.00  0.00    -0.264 NA
ATOM      6  C   UNL     1      33.498  15.194  14.994  1.00  0.00     0.111 A 
ENDROOT
BRANCH   1   7
ATOM      7  C   UNL     1      30.532  12.140  14.732  1.00  0.00     0.073 C 
ATOM      8  O   UNL     1      30.119  11.746  13.609  1.00  0.00    -0.545 OA
ATOM      9  O   UNL     1      30.002  11.570  15.884  1.00  0.00    -0.545 OA
ENDBRANCH   1   7
TORSDOF 1
ENDMDL
MODEL 2
REMARK VINA RESULT:    -4.079      8.389      9.480
REMARK INTER + INTRA:          -4.333
REMARK INTER:                  -4.314
REMARK INTRA:                  -0.019
REMARK UNBOUND:                -0.016
REMARK SMILES O=C([O-])c1cccnc1
REMARK SMILES IDX 4 1 5 2 9 3 6 4 8 5 7 6 2 7 1 8 3 9
REMARK H PARENT
REMARK Flexibility Score: inf
ROOT
ATOM      1  C   UNL     1      38.690  18.130  11.493  1.00  0.00     0.016 A 
ATOM      2  C   UNL     1      39.947  18.145  12.118  1.00  0.00     0.013 A 
ATOM      3  C   UNL     1      38.635  18.304  10.099  1.00  0.00     0.120 A 
ATOM      4  C   UNL     1      41.105  18.329  11.360  1.00  0.00     0.021 A 
ATOM      5  N   UNL     1      39.777  18.482   9.384  1.00  0.00    -0.264 NA
ATOM      6  C   UNL     1      40.999  18.498   9.979  1.00  0.00     0.111 A 
ENDROOT
BRANCH   1   7
ATOM      7  C   UNL     1      37.456  17.935  12.287  1.00  0.00     0.073 C 
ATOM      8  O   UNL     1      37.233  18.642  13.306  1.00  0.00    -0.545 OA
ATOM      9  O   UNL     1      36.527  16.970  11.918  1.00  0.00    -0.545 OA
ENDBRANCH   1   7
TORSDOF 1
ENDMDL
MODEL 3
REMARK VINA RESULT:    -4.061      6.753      7.548
REMARK INTER + INTRA:          -4.315
REMARK INTER:                  -4.299
REMARK INTRA:                  -0.016
REMARK UNBOUND:                -0.016
REMARK SMILES O=C([O-])c1cccnc1
REMARK SMILES IDX 4 1 5 2 9 3 6 4 8 5 7 6 2 7 1 8 3 9
REMARK H PARENT
REMARK Flexibility Score: inf
ROOT
ATOM      1  C   UNL     1      35.742  18.487  11.819  1.00  0.00     0.016 A 
ATOM      2  C   UNL     1      36.665  18.569  12.874  1.00  0.00     0.013 A 
ATOM      3  C   UNL     1      36.217  18.140  10.542  1.00  0.00     0.120 A 
ATOM      4  C   UNL     1      38.018  18.310  12.645  1.00  0.00     0.021 A 
ATOM      5  N   UNL     1      37.539  17.893  10.345  1.00  0.00    -0.264 NA
ATOM      6  C   UNL     1      38.441  17.970  11.359  1.00  0.00     0.111 A 
ENDROOT
BRANCH   1   7
ATOM      7  C   UNL     1      34.307  18.759  12.051  1.00  0.00     0.073 C 
ATOM      8  O   UNL     1      33.840  19.918  11.884  1.00  0.00    -0.545 OA
ATOM      9  O   UNL     1      33.453  17.740  12.456  1.00  0.00    -0.545 OA
ENDBRANCH   1   7
TORSDOF 1
ENDMDL
MODEL 4
REMARK VINA RESULT:    -4.050      8.048      9.031
REMARK INTER + INTRA:          -4.304
REMARK INTER:                  -4.283
REMARK INTRA:                  -0.021
REMARK UNBOUND:                -0.016
REMARK SMILES O=C([O-])c1cccnc1
REMARK SMILES IDX 4 1 5 2 9 3 6 4 8 5 7 6 2 7 1 8 3 9
REMARK H PARENT
REMARK Flexibility Score: inf
ROOT
ATOM      1  C   UNL     1      37.854  18.053  10.701  1.00  0.00     0.016 A 
ATOM      2  C   UNL     1      38.223  18.233  12.044  1.00  0.00     0.013 A 
ATOM      3  C   UNL     1      36.490  18.129  10.368  1.00  0.00     0.120 A 
ATOM      4  C   UNL     1      37.249  18.483  13.012  1.00  0.00     0.021 A 
ATOM      5  N   UNL     1      35.561  18.373  11.330  1.00  0.00    -0.264 NA
ATOM      6  C   UNL     1      35.908  18.550  12.632  1.00  0.00     0.111 A 
ENDROOT
BRANCH   1   7
ATOM      7  C   UNL     1      38.878  17.787   9.667  1.00  0.00     0.073 C 
ATOM      8  O   UNL     1      38.614  17.050   8.680  1.00  0.00    -0.545 OA
ATOM      9  O   UNL     1      40.145  18.349   9.771  1.00  0.00    -0.545 OA
ENDBRANCH   1   7
TORSDOF 1
ENDMDL
MODEL 5
REMARK VINA RESULT:    -4.028      2.668      3.495
REMARK INTER + INTRA:          -4.280
REMARK INTER:                  -4.263
REMARK INTRA:                  -0.018
REMARK UNBOUND:                -0.016
REMARK SMILES O=C([O-])c1cccnc1
REMARK SMILES IDX 4 1 5 2 9 3 6 4 8 5 7 6 2 7 1 8 3 9
REMARK H PARENT
REMARK Flexibility Score: inf
ROOT
ATOM      1  C   UNL     1      32.238  13.617  15.115  1.00  0.00     0.016 A 
ATOM      2  C   UNL     1      32.106  12.220  15.132  1.00  0.00     0.013 A 
ATOM      3  C   UNL     1      31.248  14.374  14.463  1.00  0.00     0.120 A 
ATOM      4  C   UNL     1      31.013  11.610  14.515  1.00  0.00     0.021 A 
ATOM      5  N   UNL     1      30.193  13.756  13.869  1.00  0.00    -0.264 NA
ATOM      6  C   UNL     1      30.055  12.404  13.881  1.00  0.00     0.111 A 
ENDROOT
BRANCH   1   7
ATOM      7  C   UNL     1      33.393  14.274  15.766  1.00  0.00     0.073 C 
ATOM      8  O   UNL     1      34.564  14.070  15.348  1.00  0.00    -0.545 OA
ATOM      9  O   UNL     1      33.201  15.124  16.849  1.00  0.00    -0.545 OA
ENDBRANCH   1   7
TORSDOF 1
ENDMDL
MODEL 6
REMARK VINA RESULT:    -4.006      6.786      7.690
REMARK INTER + INTRA:          -4.257
REMARK INTER:                  -4.241
REMARK INTRA:                  -0.016
REMARK UNBOUND:                -0.016
REMARK SMILES O=C([O-])c1cccnc1
REMARK SMILES IDX 4 1 5 2 9 3 6 4 8 5 7 6 2 7 1 8 3 9
REMARK H PARENT
REMARK Flexibility Score: inf
ROOT
ATOM      1  C   UNL     1      35.838  18.523  11.869  1.00  0.00     0.016 A 
ATOM      2  C   UNL     1      36.348  18.179  10.607  1.00  0.00     0.013 A 
ATOM      3  C   UNL     1      36.730  18.599  12.953  1.00  0.00     0.120 A 
ATOM      4  C   UNL     1      37.711  17.921  10.449  1.00  0.00     0.021 A 
ATOM      5  N   UNL     1      38.052  18.342  12.772  1.00  0.00    -0.264 NA
ATOM      6  C   UNL     1      38.557  18.008  11.555  1.00  0.00     0.111 A 
ENDROOT
BRANCH   1   7
ATOM      7  C   UNL     1      34.395  18.799  12.048  1.00  0.00     0.073 C 
ATOM      8  O   UNL     1      33.597  17.867  12.337  1.00  0.00    -0.545 OA
ATOM      9  O   UNL     1      33.901  20.089  11.901  1.00  0.00    -0.545 OA
ENDBRANCH   1   7
TORSDOF 1
ENDMDL
MODEL 7
REMARK VINA RESULT:    -3.987      8.287      9.045
REMARK INTER + INTRA:          -4.236
REMARK INTER:                  -4.216
REMARK INTRA:                  -0.020
REMARK UNBOUND:                -0.016
REMARK SMILES O=C([O-])c1cccnc1
REMARK SMILES IDX 4 1 5 2 9 3 6 4 8 5 7 6 2 7 1 8 3 9
REMARK H PARENT
REMARK Flexibility Score: inf
ROOT
ATOM      1  C   UNL     1      37.456  18.101  10.265  1.00  0.00     0.016 A 
ATOM      2  C   UNL     1      36.152  18.268  10.759  1.00  0.00     0.013 A 
ATOM      3  C   UNL     1      38.523  18.110  11.180  1.00  0.00     0.120 A 
ATOM      4  C   UNL     1      35.937  18.438  12.128  1.00  0.00     0.021 A 
ATOM      5  N   UNL     1      38.287  18.278  12.508  1.00  0.00    -0.264 NA
ATOM      6  C   UNL     1      37.029  18.440  12.997  1.00  0.00     0.111 A 
ENDROOT
BRANCH   1   7
ATOM      7  C   UNL     1      37.695  17.920   8.816  1.00  0.00     0.073 C 
ATOM      8  O   UNL     1      38.585  17.127   8.409  1.00  0.00    -0.545 OA
ATOM      9  O   UNL     1      36.940  18.623   7.885  1.00  0.00    -0.545 OA
ENDBRANCH   1   7
TORSDOF 1
ENDMDL
MODEL 8
REMARK VINA RESULT:    -3.958      7.358      8.106
REMARK INTER + INTRA:          -4.205
REMARK INTER:                  -4.189
REMARK INTRA:                  -0.016
REMARK UNBOUND:                -0.016
REMARK SMILES O=C([O-])c1cccnc1
REMARK SMILES IDX 4 1 5 2 9 3 6 4 8 5 7 6 2 7 1 8 3 9
REMARK H PARENT
REMARK Flexibility Score: inf
ROOT
ATOM      1  C   UNL     1      36.192  18.297  11.316  1.00  0.00     0.016 A 
ATOM      2  C   UNL     1      35.243  18.868  12.179  1.00  0.00     0.013 A 
ATOM      3  C   UNL     1      36.107  18.587   9.942  1.00  0.00     0.120 A 
ATOM      4  C   UNL     1      34.245  19.701  11.671  1.00  0.00     0.021 A 
ATOM      5  N   UNL     1      35.124  19.401   9.473  1.00  0.00    -0.264 NA
ATOM      6  C   UNL     1      34.201  19.959  10.300  1.00  0.00     0.111 A 
ENDROOT
BRANCH   1   7
ATOM      7  C   UNL     1      37.255  17.413  11.843  1.00  0.00     0.073 C 
ATOM      8  O   UNL     1      37.099  16.162  11.853  1.00  0.00    -0.545 OA
ATOM      9  O   UNL     1      38.438  17.950  12.335  1.00  0.00    -0.545 OA
ENDBRANCH   1   7
TORSDOF 1
ENDMDL
MODEL 9
REMARK VINA RESULT:    -3.921      6.155      7.286
REMARK INTER + INTRA:          -4.167
REMARK INTER:                  -4.149
REMARK INTRA:                  -0.018
REMARK UNBOUND:                -0.016
REMARK SMILES O=C([O-])c1cccnc1
REMARK SMILES IDX 4 1 5 2 9 3 6 4 8 5 7 6 2 7 1 8 3 9
REMARK H PARENT
REMARK Flexibility Score: inf
ROOT
ATOM      1  C   UNL     1      35.435  18.094  12.350  1.00  0.00     0.016 A 
ATOM      2  C   UNL     1      34.862  19.285  11.876  1.00  0.00     0.013 A 
ATOM      3  C   UNL     1      34.578  17.059  12.763  1.00  0.00     0.120 A 
ATOM      4  C   UNL     1      33.474  19.423  11.823  1.00  0.00     0.021 A 
ATOM      5  N   UNL     1      33.229  17.219  12.702  1.00  0.00    -0.264 NA
ATOM      6  C   UNL     1      32.665  18.367  12.244  1.00  0.00     0.111 A 
ENDROOT
BRANCH   1   7
ATOM      7  C   UNL     1      36.905  17.937  12.411  1.00  0.00     0.073 C 
ATOM      8  O   UNL     1      37.608  18.746  13.073  1.00  0.00    -0.545 OA
ATOM      9  O   UNL     1      37.530  16.893  11.739  1.00  0.00    -0.545 OA
ENDBRANCH   1   7
TORSDOF 1
ENDMDL
