MODEL 1
REMARK VINA RESULT:    -3.096      0.000      0.000
REMARK INTER + INTRA:          -8.791
REMARK INTER:                  -5.992
REMARK INTRA:                  -2.798
REMARK UNBOUND:                -2.798
REMARK SMILES CCCCCCCCCCCCCCCCCC(=O)[O-]
REMARK SMILES IDX 10 1 11 2 12 3 13 4 14 5 15 6 16 7 17 8 18 9 19 10 20 11
REMARK SMILES IDX 9 12 8 13 7 14 6 15 5 16 4 17 3 18 2 19 1 20
REMARK H PARENT
REMARK Flexibility Score: inf
ROOT
ATOM      1  C   UNL     1      71.247  14.786  78.542  1.00  0.00     0.000 C 
ENDROOT
BRANCH   1   2
ATOM      2  C   UNL     1      71.302  14.422  77.042  1.00  0.00     0.000 C 
BRANCH   2   3
ATOM      3  C   UNL     1      70.224  15.126  76.196  1.00  0.00     0.000 C 
BRANCH   3   4
ATOM      4  C   UNL     1      68.812  14.526  76.319  1.00  0.00     0.000 C 
BRANCH   4   5
ATOM      5  C   UNL     1      67.661  15.550  76.245  1.00  0.00     0.000 C 
BRANCH   5   6
ATOM      6  C   UNL     1      67.798  16.760  77.191  1.00  0.00     0.000 C 
BRANCH   6   7
ATOM      7  C   UNL     1      67.975  18.122  76.490  1.00  0.00     0.006 C 
BRANCH   7   8
ATOM      8  C   UNL     1      69.435  18.588  76.368  1.00  0.00     0.053 C 
BRANCH   8   9
ATOM      9  C   UNL     1      69.739  19.724  77.297  1.00  0.00     0.041 C 
ATOM     10  O   UNL     1      70.480  20.668  76.920  1.00  0.00    -0.550 OA
ATOM     11  O   UNL     1      69.178  19.754  78.568  1.00  0.00    -0.550 OA
ENDBRANCH   8   9
ENDBRANCH   7   8
ENDBRANCH   6   7
ENDBRANCH   5   6
ENDBRANCH   4   5
ENDBRANCH   3   4
ENDBRANCH   2   3
ENDBRANCH   1   2
BRANCH   1  12
ATOM     12  C   UNL     1      71.104  16.301  78.772  1.00  0.00     0.000 C 
BRANCH  12  13
ATOM     13  C   UNL     1      70.161  16.636  79.939  1.00  0.00    -0.000 C 
BRANCH  13  14
ATOM     14  C   UNL     1      69.236  15.467  80.308  1.00  0.00    -0.000 C 
BRANCH  14  15
ATOM     15  C   UNL     1      68.120  15.926  81.256  1.00  0.00    -0.000 C 
BRANCH  15  16
ATOM     16  C   UNL     1      67.474  17.227  80.756  1.00  0.00    -0.000 C 
BRANCH  16  17
ATOM     17  C   UNL     1      65.940  17.146  80.709  1.00  0.00    -0.000 C 
BRANCH  17  18
ATOM     18  C   UNL     1      65.433  15.819  80.125  1.00  0.00    -0.000 C 
BRANCH  18  19
ATOM     19  C   UNL     1      64.585  16.061  78.870  1.00  0.00    -0.003 C 
ATOM     20  C   UNL     1      64.531  14.814  77.993  1.00  0.00     0.004 C 
ENDBRANCH  18  19
ENDBRANCH  17  18
ENDBRANCH  16  17
ENDBRANCH  15  16
ENDBRANCH  14  15
ENDBRANCH  13  14
ENDBRANCH  12  13
ENDBRANCH   1  12
TORSDOF 16
ENDMDL
MODEL 2
REMARK VINA RESULT:    -3.084      2.755      5.386
REMARK INTER + INTRA:          -8.766
REMARK INTER:                  -6.207
REMARK INTRA:                  -2.559
REMARK UNBOUND:                -2.798
REMARK SMILES CCCCCCCCCCCCCCCCCC(=O)[O-]
REMARK SMILES IDX 10 1 11 2 12 3 13 4 14 5 15 6 16 7 17 8 18 9 19 10 20 11
REMARK SMILES IDX 9 12 8 13 7 14 6 15 5 16 4 17 3 18 2 19 1 20
REMARK H PARENT
REMARK Flexibility Score: inf
ROOT
ATOM      1  C   UNL     1      71.213  16.575  80.025  1.00  0.00     0.000 C 
ENDROOT
BRANCH   1   2
ATOM      2  C   UNL     1      69.936  15.812  80.439  1.00  0.00     0.000 C 
BRANCH   2   3
ATOM      3  C   UNL     1      68.646  16.643  80.299  1.00  0.00     0.000 C 
BRANCH   3   4
ATOM      4  C   UNL     1      67.349  15.816  80.234  1.00  0.00     0.000 C 
BRANCH   4   5
ATOM      5  C   UNL     1      66.189  16.486  79.469  1.00  0.00     0.000 C 
BRANCH   5   6
ATOM      6  C   UNL     1      64.789  15.916  79.772  1.00  0.00     0.000 C 
BRANCH   6   7
ATOM      7  C   UNL     1      64.185  15.036  78.658  1.00  0.00     0.006 C 
BRANCH   7   8
ATOM      8  C   UNL     1      64.799  15.262  77.268  1.00  0.00     0.053 C 
BRANCH   8   9
ATOM      9  C   UNL     1      64.818  14.005  76.452  1.00  0.00     0.041 C 
ATOM     10  O   UNL     1      65.911  13.524  76.057  1.00  0.00    -0.550 OA
ATOM     11  O   UNL     1      63.630  13.349  76.157  1.00  0.00    -0.550 OA
ENDBRANCH   8   9
ENDBRANCH   7   8
ENDBRANCH   6   7
ENDBRANCH   5   6
ENDBRANCH   4   5
ENDBRANCH   3   4
ENDBRANCH   2   3
ENDBRANCH   1   2
BRANCH   1  12
ATOM     12  C   UNL     1      71.973  15.869  78.888  1.00  0.00     0.000 C 
BRANCH  12  13
ATOM     13  C   UNL     1      71.191  14.683  78.300  1.00  0.00    -0.000 C 
BRANCH  13  14
ATOM     14  C   UNL     1      70.690  14.953  76.873  1.00  0.00    -0.000 C 
BRANCH  14  15
ATOM     15  C   UNL     1      69.180  14.706  76.764  1.00  0.00    -0.000 C 
BRANCH  15  16
ATOM     16  C   UNL     1      68.412  16.032  76.652  1.00  0.00    -0.000 C 
BRANCH  16  17
ATOM     17  C   UNL     1      69.340  17.257  76.665  1.00  0.00    -0.000 C 
BRANCH  17  18
ATOM     18  C   UNL     1      68.587  18.574  76.424  1.00  0.00    -0.000 C 
BRANCH  18  19
ATOM     19  C   UNL     1      69.425  19.775  76.879  1.00  0.00    -0.003 C 
ATOM     20  C   UNL     1      70.226  19.443  78.135  1.00  0.00     0.004 C 
ENDBRANCH  18  19
ENDBRANCH  17  18
ENDBRANCH  16  17
ENDBRANCH  15  16
ENDBRANCH  14  15
ENDBRANCH  13  14
ENDBRANCH  12  13
ENDBRANCH   1  12
TORSDOF 16
ENDMDL
MODEL 3
REMARK VINA RESULT:    -3.075      1.214      2.172
REMARK INTER + INTRA:          -8.749
REMARK INTER:                  -6.142
REMARK INTRA:                  -2.607
REMARK UNBOUND:                -2.798
REMARK SMILES CCCCCCCCCCCCCCCCCC(=O)[O-]
REMARK SMILES IDX 10 1 11 2 12 3 13 4 14 5 15 6 16 7 17 8 18 9 19 10 20 11
REMARK SMILES IDX 9 12 8 13 7 14 6 15 5 16 4 17 3 18 2 19 1 20
REMARK H PARENT
REMARK Flexibility Score: inf
ROOT
ATOM      1  C   UNL     1      71.077  15.943  80.299  1.00  0.00     0.000 C 
ENDROOT
BRANCH   1   2
ATOM      2  C   UNL     1      71.746  15.796  78.915  1.00  0.00     0.000 C 
BRANCH   2   3
ATOM      3  C   UNL     1      71.259  14.569  78.120  1.00  0.00     0.000 C 
BRANCH   3   4
ATOM      4  C   UNL     1      70.683  14.887  76.728  1.00  0.00     0.000 C 
BRANCH   4   5
ATOM      5  C   UNL     1      69.144  14.855  76.637  1.00  0.00     0.000 C 
BRANCH   5   6
ATOM      6  C   UNL     1      68.470  16.228  76.441  1.00  0.00     0.000 C 
BRANCH   6   7
ATOM      7  C   UNL     1      69.379  17.446  76.701  1.00  0.00     0.006 C 
BRANCH   7   8
ATOM      8  C   UNL     1      68.662  18.803  76.613  1.00  0.00     0.053 C 
BRANCH   8   9
ATOM      9  C   UNL     1      69.599  19.948  76.850  1.00  0.00     0.041 C 
ATOM     10  O   UNL     1      70.105  20.563  75.876  1.00  0.00    -0.550 OA
ATOM     11  O   UNL     1      69.888  20.355  78.146  1.00  0.00    -0.550 OA
ENDBRANCH   8   9
ENDBRANCH   7   8
ENDBRANCH   6   7
ENDBRANCH   5   6
ENDBRANCH   4   5
ENDBRANCH   3   4
ENDBRANCH   2   3
ENDBRANCH   1   2
BRANCH   1  12
ATOM     12  C   UNL     1      69.688  16.599  80.211  1.00  0.00     0.000 C 
BRANCH  12  13
ATOM     13  C   UNL     1      68.581  15.729  80.830  1.00  0.00    -0.000 C 
BRANCH  13  14
ATOM     14  C   UNL     1      67.352  15.596  79.918  1.00  0.00    -0.000 C 
BRANCH  14  15
ATOM     15  C   UNL     1      66.826  16.974  79.498  1.00  0.00    -0.000 C 
BRANCH  15  16
ATOM     16  C   UNL     1      65.484  16.851  78.763  1.00  0.00    -0.000 C 
BRANCH  16  17
ATOM     17  C   UNL     1      65.241  15.439  78.205  1.00  0.00    -0.000 C 
BRANCH  17  18
ATOM     18  C   UNL     1      64.996  15.435  76.688  1.00  0.00    -0.000 C 
BRANCH  18  19
ATOM     19  C   UNL     1      65.434  14.104  76.066  1.00  0.00    -0.003 C 
ATOM     20  C   UNL     1      64.602  12.944  76.605  1.00  0.00     0.004 C 
ENDBRANCH  18  19
ENDBRANCH  17  18
ENDBRANCH  16  17
ENDBRANCH  15  16
ENDBRANCH  14  15
ENDBRANCH  13  14
ENDBRANCH  12  13
ENDBRANCH   1  12
TORSDOF 16
ENDMDL
MODEL 4
REMARK VINA RESULT:    -3.048      2.228      4.605
REMARK INTER + INTRA:          -8.697
REMARK INTER:                  -6.112
REMARK INTRA:                  -2.586
REMARK UNBOUND:                -2.798
REMARK SMILES CCCCCCCCCCCCCCCCCC(=O)[O-]
REMARK SMILES IDX 10 1 11 2 12 3 13 4 14 5 15 6 16 7 17 8 18 9 19 10 20 11
REMARK SMILES IDX 9 12 8 13 7 14 6 15 5 16 4 17 3 18 2 19 1 20
REMARK H PARENT
REMARK Flexibility Score: inf
ROOT
ATOM      1  C   UNL     1      69.581  14.830  76.209  1.00  0.00     0.000 C 
ENDROOT
BRANCH   1   2
ATOM      2  C   UNL     1      68.125  14.414  75.905  1.00  0.00     0.000 C 
BRANCH   2   3
ATOM      3  C   UNL     1      67.108  15.560  76.067  1.00  0.00     0.000 C 
BRANCH   3   4
ATOM      4  C   UNL     1      66.284  15.513  77.367  1.00  0.00     0.000 C 
BRANCH   4   5
ATOM      5  C   UNL     1      66.741  16.497  78.464  1.00  0.00     0.000 C 
BRANCH   5   6
ATOM      6  C   UNL     1      66.103  16.276  79.850  1.00  0.00     0.000 C 
BRANCH   6   7
ATOM      7  C   UNL     1      66.803  17.002  81.016  1.00  0.00     0.006 C 
BRANCH   7   8
ATOM      8  C   UNL     1      67.661  16.091  81.908  1.00  0.00     0.053 C 
BRANCH   8   9
ATOM      9  C   UNL     1      68.229  16.829  83.081  1.00  0.00     0.041 C 
ATOM     10  O   UNL     1      69.378  17.337  83.013  1.00  0.00    -0.550 OA
ATOM     11  O   UNL     1      67.475  16.985  84.238  1.00  0.00    -0.550 OA
ENDBRANCH   8   9
ENDBRANCH   7   8
ENDBRANCH   6   7
ENDBRANCH   5   6
ENDBRANCH   4   5
ENDBRANCH   3   4
ENDBRANCH   2   3
ENDBRANCH   1   2
BRANCH   1  12
ATOM     12  C   UNL     1      69.912  14.744  77.709  1.00  0.00     0.000 C 
BRANCH  12  13
ATOM     13  C   UNL     1      71.388  15.054  78.009  1.00  0.00    -0.000 C 
BRANCH  13  14
ATOM     14  C   UNL     1      71.570  15.907  79.273  1.00  0.00    -0.000 C 
BRANCH  14  15
ATOM     15  C   UNL     1      70.335  16.778  79.532  1.00  0.00    -0.000 C 
BRANCH  15  16
ATOM     16  C   UNL     1      70.615  18.248  79.186  1.00  0.00    -0.000 C 
BRANCH  16  17
ATOM     17  C   UNL     1      69.542  18.856  78.269  1.00  0.00    -0.000 C 
BRANCH  17  18
ATOM     18  C   UNL     1      69.724  18.456  76.797  1.00  0.00    -0.000 C 
BRANCH  18  19
ATOM     19  C   UNL     1      68.914  19.376  75.876  1.00  0.00    -0.003 C 
ATOM     20  C   UNL     1      67.420  19.269  76.164  1.00  0.00     0.004 C 
ENDBRANCH  18  19
ENDBRANCH  17  18
ENDBRANCH  16  17
ENDBRANCH  15  16
ENDBRANCH  14  15
ENDBRANCH  13  14
ENDBRANCH  12  13
ENDBRANCH   1  12
TORSDOF 16
ENDMDL
MODEL 5
REMARK VINA RESULT:    -3.043      2.178      4.984
REMARK INTER + INTRA:          -8.688
REMARK INTER:                  -5.552
REMARK INTRA:                  -3.136
REMARK UNBOUND:                -2.798
REMARK SMILES CCCCCCCCCCCCCCCCCC(=O)[O-]
REMARK SMILES IDX 10 1 11 2 12 3 13 4 14 5 15 6 16 7 17 8 18 9 19 10 20 11
REMARK SMILES IDX 9 12 8 13 7 14 6 15 5 16 4 17 3 18 2 19 1 20
REMARK H PARENT
REMARK Flexibility Score: inf
ROOT
ATOM      1  C   UNL     1      71.298  14.899  78.459  1.00  0.00     0.000 C 
ENDROOT
BRANCH   1   2
ATOM      2  C   UNL     1      71.104  16.426  78.587  1.00  0.00     0.000 C 
BRANCH   2   3
ATOM      3  C   UNL     1      70.260  16.841  79.807  1.00  0.00     0.000 C 
BRANCH   3   4
ATOM      4  C   UNL     1      69.250  15.782  80.285  1.00  0.00     0.000 C 
BRANCH   4   5
ATOM      5  C   UNL     1      68.011  16.345  81.011  1.00  0.00     0.000 C 
BRANCH   5   6
ATOM      6  C   UNL     1      66.654  15.868  80.457  1.00  0.00     0.000 C 
BRANCH   6   7
ATOM      7  C   UNL     1      65.733  16.987  79.930  1.00  0.00     0.006 C 
BRANCH   7   8
ATOM      8  C   UNL     1      64.322  16.518  79.540  1.00  0.00     0.053 C 
BRANCH   8   9
ATOM      9  C   UNL     1      64.193  16.299  78.064  1.00  0.00     0.041 C 
ATOM     10  O   UNL     1      64.172  15.130  77.597  1.00  0.00    -0.550 OA
ATOM     11  O   UNL     1      64.064  17.384  77.207  1.00  0.00    -0.550 OA
ENDBRANCH   8   9
ENDBRANCH   7   8
ENDBRANCH   6   7
ENDBRANCH   5   6
ENDBRANCH   4   5
ENDBRANCH   3   4
ENDBRANCH   2   3
ENDBRANCH   1   2
BRANCH   1  12
ATOM     12  C   UNL     1      71.210  14.418  76.999  1.00  0.00     0.000 C 
BRANCH  12  13
ATOM     13  C   UNL     1      70.127  15.157  76.197  1.00  0.00    -0.000 C 
BRANCH  13  14
ATOM     14  C   UNL     1      68.769  14.440  76.234  1.00  0.00    -0.000 C 
BRANCH  14  15
ATOM     15  C   UNL     1      67.725  15.276  76.985  1.00  0.00    -0.000 C 
BRANCH  15  16
ATOM     16  C   UNL     1      67.443  16.594  76.248  1.00  0.00    -0.000 C 
BRANCH  16  17
ATOM     17  C   UNL     1      67.849  17.830  77.067  1.00  0.00    -0.000 C 
BRANCH  17  18
ATOM     18  C   UNL     1      68.993  18.623  76.417  1.00  0.00    -0.000 C 
BRANCH  18  19
ATOM     19  C   UNL     1      69.530  19.694  77.375  1.00  0.00    -0.003 C 
ATOM     20  C   UNL     1      68.622  19.850  78.591  1.00  0.00     0.004 C 
ENDBRANCH  18  19
ENDBRANCH  17  18
ENDBRANCH  16  17
ENDBRANCH  15  16
ENDBRANCH  14  15
ENDBRANCH  13  14
ENDBRANCH  12  13
ENDBRANCH   1  12
TORSDOF 16
ENDMDL
MODEL 6
REMARK VINA RESULT:    -3.035      2.400      5.212
REMARK INTER + INTRA:          -8.671
REMARK INTER:                  -5.805
REMARK INTRA:                  -2.866
REMARK UNBOUND:                -2.798
REMARK SMILES CCCCCCCCCCCCCCCCCC(=O)[O-]
REMARK SMILES IDX 10 1 11 2 12 3 13 4 14 5 15 6 16 7 17 8 18 9 19 10 20 11
REMARK SMILES IDX 9 12 8 13 7 14 6 15 5 16 4 17 3 18 2 19 1 20
REMARK H PARENT
REMARK Flexibility Score: inf
ROOT
ATOM      1  C   UNL     1      70.004  16.376  79.412  1.00  0.00     0.000 C 
ENDROOT
BRANCH   1   2
ATOM      2  C   UNL     1      70.128  14.996  78.730  1.00  0.00     0.000 C 
BRANCH   2   3
ATOM      3  C   UNL     1      70.880  15.035  77.386  1.00  0.00     0.000 C 
BRANCH   3   4
ATOM      4  C   UNL     1      69.986  14.881  76.142  1.00  0.00     0.000 C 
BRANCH   4   5
ATOM      5  C   UNL     1      68.530  14.464  76.434  1.00  0.00     0.000 C 
BRANCH   5   6
ATOM      6  C   UNL     1      67.483  15.585  76.279  1.00  0.00     0.000 C 
BRANCH   6   7
ATOM      7  C   UNL     1      66.316  15.535  77.285  1.00  0.00     0.006 C 
BRANCH   7   8
ATOM      8  C   UNL     1      66.476  16.473  78.491  1.00  0.00     0.053 C 
BRANCH   8   9
ATOM      9  C   UNL     1      66.042  15.822  79.769  1.00  0.00     0.041 C 
ATOM     10  O   UNL     1      66.872  15.634  80.696  1.00  0.00    -0.550 OA
ATOM     11  O   UNL     1      64.715  15.454  79.948  1.00  0.00    -0.550 OA
ENDBRANCH   8   9
ENDBRANCH   7   8
ENDBRANCH   6   7
ENDBRANCH   5   6
ENDBRANCH   4   5
ENDBRANCH   3   4
ENDBRANCH   2   3
ENDBRANCH   1   2
BRANCH   1  12
ATOM     12  C   UNL     1      70.723  17.484  78.622  1.00  0.00     0.000 C 
BRANCH  12  13
ATOM     13  C   UNL     1      69.758  18.562  78.102  1.00  0.00    -0.000 C 
BRANCH  13  14
ATOM     14  C   UNL     1      69.628  18.553  76.572  1.00  0.00    -0.000 C 
BRANCH  14  15
ATOM     15  C   UNL     1      68.311  19.202  76.127  1.00  0.00    -0.000 C 
BRANCH  15  16
ATOM     16  C   UNL     1      67.860  20.275  77.129  1.00  0.00    -0.000 C 
BRANCH  16  17
ATOM     17  C   UNL     1      68.238  21.697  76.684  1.00  0.00    -0.000 C 
BRANCH  17  18
ATOM     18  C   UNL     1      69.139  22.417  77.699  1.00  0.00    -0.000 C 
BRANCH  18  19
ATOM     19  C   UNL     1      70.618  22.104  77.437  1.00  0.00    -0.003 C 
ATOM     20  C   UNL     1      70.921  22.089  75.942  1.00  0.00     0.004 C 
ENDBRANCH  18  19
ENDBRANCH  17  18
ENDBRANCH  16  17
ENDBRANCH  15  16
ENDBRANCH  14  15
ENDBRANCH  13  14
ENDBRANCH  12  13
ENDBRANCH   1  12
TORSDOF 16
ENDMDL
MODEL 7
REMARK VINA RESULT:    -2.995      2.679      4.415
REMARK INTER + INTRA:          -8.595
REMARK INTER:                  -5.814
REMARK INTRA:                  -2.781
REMARK UNBOUND:                -2.798
REMARK SMILES CCCCCCCCCCCCCCCCCC(=O)[O-]
REMARK SMILES IDX 10 1 11 2 12 3 13 4 14 5 15 6 16 7 17 8 18 9 19 10 20 11
REMARK SMILES IDX 9 12 8 13 7 14 6 15 5 16 4 17 3 18 2 19 1 20
REMARK H PARENT
REMARK Flexibility Score: inf
ROOT
ATOM      1  C   UNL     1      71.055  17.548  79.643  1.00  0.00     0.000 C 
ENDROOT
BRANCH   1   2
ATOM      2  C   UNL     1      71.827  16.284  79.204  1.00  0.00     0.000 C 
BRANCH   2   3
ATOM      3  C   UNL     1      70.914  15.124  78.763  1.00  0.00     0.000 C 
BRANCH   3   4
ATOM      4  C   UNL     1      71.204  14.574  77.354  1.00  0.00     0.000 C 
BRANCH   4   5
ATOM      5  C   UNL     1      70.228  15.046  76.258  1.00  0.00     0.000 C 
BRANCH   5   6
ATOM      6  C   UNL     1      68.841  14.374  76.281  1.00  0.00     0.000 C 
BRANCH   6   7
ATOM      7  C   UNL     1      67.645  15.336  76.136  1.00  0.00     0.006 C 
BRANCH   7   8
ATOM      8  C   UNL     1      66.993  15.744  77.467  1.00  0.00     0.053 C 
BRANCH   8   9
ATOM      9  C   UNL     1      65.521  15.466  77.478  1.00  0.00     0.041 C 
ATOM     10  O   UNL     1      64.951  15.124  78.546  1.00  0.00    -0.550 OA
ATOM     11  O   UNL     1      64.774  15.619  76.317  1.00  0.00    -0.550 OA
ENDBRANCH   8   9
ENDBRANCH   7   8
ENDBRANCH   6   7
ENDBRANCH   5   6
ENDBRANCH   4   5
ENDBRANCH   3   4
ENDBRANCH   2   3
ENDBRANCH   1   2
BRANCH   1  12
ATOM     12  C   UNL     1      69.775  17.768  78.818  1.00  0.00     0.000 C 
BRANCH  12  13
ATOM     13  C   UNL     1      69.908  18.926  77.816  1.00  0.00    -0.000 C 
BRANCH  13  14
ATOM     14  C   UNL     1      69.562  18.509  76.378  1.00  0.00    -0.000 C 
BRANCH  14  15
ATOM     15  C   UNL     1      68.234  19.133  75.930  1.00  0.00    -0.000 C 
BRANCH  15  16
ATOM     16  C   UNL     1      68.026  20.510  76.577  1.00  0.00    -0.000 C 
BRANCH  16  17
ATOM     17  C   UNL     1      66.620  20.678  77.175  1.00  0.00    -0.000 C 
BRANCH  17  18
ATOM     18  C   UNL     1      66.030  19.354  77.683  1.00  0.00    -0.000 C 
BRANCH  18  19
ATOM     19  C   UNL     1      66.353  19.144  79.167  1.00  0.00    -0.003 C 
ATOM     20  C   UNL     1      65.234  18.384  79.873  1.00  0.00     0.004 C 
ENDBRANCH  18  19
ENDBRANCH  17  18
ENDBRANCH  16  17
ENDBRANCH  15  16
ENDBRANCH  14  15
ENDBRANCH  13  14
ENDBRANCH  12  13
ENDBRANCH   1  12
TORSDOF 16
ENDMDL
MODEL 8
REMARK VINA RESULT:    -2.990      2.774      5.966
REMARK INTER + INTRA:          -8.585
REMARK INTER:                  -5.646
REMARK INTRA:                  -2.939
REMARK UNBOUND:                -2.798
REMARK SMILES CCCCCCCCCCCCCCCCCC(=O)[O-]
REMARK SMILES IDX 10 1 11 2 12 3 13 4 14 5 15 6 16 7 17 8 18 9 19 10 20 11
REMARK SMILES IDX 9 12 8 13 7 14 6 15 5 16 4 17 3 18 2 19 1 20
REMARK H PARENT
REMARK Flexibility Score: inf
ROOT
ATOM      1  C   UNL     1      65.900  14.966  76.483  1.00  0.00     0.000 C 
ENDROOT
BRANCH   1   2
ATOM      2  C   UNL     1      65.424  15.945  77.578  1.00  0.00     0.000 C 
BRANCH   2   3
ATOM      3  C   UNL     1      66.338  17.173  77.749  1.00  0.00     0.000 C 
BRANCH   3   4
ATOM      4  C   UNL     1      67.018  17.286  79.126  1.00  0.00     0.000 C 
BRANCH   4   5
ATOM      5  C   UNL     1      67.363  15.940  79.794  1.00  0.00     0.000 C 
BRANCH   5   6
ATOM      6  C   UNL     1      67.124  15.882  81.316  1.00  0.00     0.000 C 
BRANCH   6   7
ATOM      7  C   UNL     1      65.714  16.307  81.773  1.00  0.00     0.006 C 
BRANCH   7   8
ATOM      8  C   UNL     1      64.580  15.412  81.250  1.00  0.00     0.053 C 
BRANCH   8   9
ATOM      9  C   UNL     1      63.464  16.213  80.651  1.00  0.00     0.041 C 
ATOM     10  O   UNL     1      62.334  15.689  80.473  1.00  0.00    -0.550 OA
ATOM     11  O   UNL     1      63.664  17.547  80.321  1.00  0.00    -0.550 OA
ENDBRANCH   8   9
ENDBRANCH   7   8
ENDBRANCH   6   7
ENDBRANCH   5   6
ENDBRANCH   4   5
ENDBRANCH   3   4
ENDBRANCH   2   3
ENDBRANCH   1   2
BRANCH   1  12
ATOM     12  C   UNL     1      67.272  15.357  75.905  1.00  0.00     0.000 C 
BRANCH  12  13
ATOM     13  C   UNL     1      68.308  14.228  76.021  1.00  0.00    -0.000 C 
BRANCH  13  14
ATOM     14  C   UNL     1      69.726  14.750  76.299  1.00  0.00    -0.000 C 
BRANCH  14  15
ATOM     15  C   UNL     1      69.697  16.224  76.719  1.00  0.00    -0.000 C 
BRANCH  15  16
ATOM     16  C   UNL     1      70.598  16.467  77.940  1.00  0.00    -0.000 C 
BRANCH  16  17
ATOM     17  C   UNL     1      70.775  15.209  78.805  1.00  0.00    -0.000 C 
BRANCH  17  18
ATOM     18  C   UNL     1      70.987  15.537  80.291  1.00  0.00    -0.000 C 
BRANCH  18  19
ATOM     19  C   UNL     1      71.293  17.027  80.485  1.00  0.00    -0.003 C 
ATOM     20  C   UNL     1      70.375  17.645  81.536  1.00  0.00     0.004 C 
ENDBRANCH  18  19
ENDBRANCH  17  18
ENDBRANCH  16  17
ENDBRANCH  15  16
ENDBRANCH  14  15
ENDBRANCH  13  14
ENDBRANCH  12  13
ENDBRANCH   1  12
TORSDOF 16
ENDMDL
MODEL 9
REMARK VINA RESULT:    -2.930      1.547      4.217
REMARK INTER + INTRA:          -8.468
REMARK INTER:                  -6.173
REMARK INTRA:                  -2.295
REMARK UNBOUND:                -2.798
REMARK SMILES CCCCCCCCCCCCCCCCCC(=O)[O-]
REMARK SMILES IDX 10 1 11 2 12 3 13 4 14 5 15 6 16 7 17 8 18 9 19 10 20 11
REMARK SMILES IDX 9 12 8 13 7 14 6 15 5 16 4 17 3 18 2 19 1 20
REMARK H PARENT
REMARK Flexibility Score: inf
ROOT
ATOM      1  C   UNL     1      66.123  15.169  76.445  1.00  0.00     0.000 C 
ENDROOT
BRANCH   1   2
ATOM      2  C   UNL     1      67.566  15.607  76.114  1.00  0.00     0.000 C 
BRANCH   2   3
ATOM      3  C   UNL     1      68.585  14.451  76.143  1.00  0.00     0.000 C 
BRANCH   3   4
ATOM      4  C   UNL     1      70.040  14.879  76.410  1.00  0.00     0.000 C 
BRANCH   4   5
ATOM      5  C   UNL     1      70.440  14.930  77.899  1.00  0.00     0.000 C 
BRANCH   5   6
ATOM      6  C   UNL     1      70.860  16.320  78.418  1.00  0.00     0.000 C 
BRANCH   6   7
ATOM      7  C   UNL     1      69.699  17.230  78.865  1.00  0.00     0.006 C 
BRANCH   7   8
ATOM      8  C   UNL     1      69.768  18.664  78.315  1.00  0.00     0.053 C 
BRANCH   8   9
ATOM      9  C   UNL     1      69.143  18.773  76.958  1.00  0.00     0.041 C 
ATOM     10  O   UNL     1      69.814  18.503  75.928  1.00  0.00    -0.550 OA
ATOM     11  O   UNL     1      67.809  19.143  76.833  1.00  0.00    -0.550 OA
ENDBRANCH   8   9
ENDBRANCH   7   8
ENDBRANCH   6   7
ENDBRANCH   5   6
ENDBRANCH   4   5
ENDBRANCH   3   4
ENDBRANCH   2   3
ENDBRANCH   1   2
BRANCH   1  12
ATOM     12  C   UNL     1      65.797  13.768  75.897  1.00  0.00     0.000 C 
BRANCH  12  13
ATOM     13  C   UNL     1      64.396  13.283  76.306  1.00  0.00    -0.000 C 
BRANCH  13  14
ATOM     14  C   UNL     1      63.334  14.388  76.206  1.00  0.00    -0.000 C 
BRANCH  14  15
ATOM     15  C   UNL     1      62.465  14.432  77.469  1.00  0.00    -0.000 C 
BRANCH  15  16
ATOM     16  C   UNL     1      63.321  14.257  78.732  1.00  0.00    -0.000 C 
BRANCH  16  17
ATOM     17  C   UNL     1      63.808  15.596  79.307  1.00  0.00    -0.000 C 
BRANCH  17  18
ATOM     18  C   UNL     1      64.868  15.419  80.406  1.00  0.00    -0.000 C 
BRANCH  18  19
ATOM     19  C   UNL     1      66.199  16.058  79.990  1.00  0.00    -0.003 C 
ATOM     20  C   UNL     1      65.974  17.401  79.301  1.00  0.00     0.004 C 
ENDBRANCH  18  19
ENDBRANCH  17  18
ENDBRANCH  16  17
ENDBRANCH  15  16
ENDBRANCH  14  15
ENDBRANCH  13  14
ENDBRANCH  12  13
ENDBRANCH   1  12
TORSDOF 16
ENDMDL
