MODEL 1
REMARK VINA RESULT:    -4.445      0.000      0.000
REMARK INTER + INTRA:          -5.026
REMARK INTER:                  -4.835
REMARK INTRA:                  -0.191
REMARK UNBOUND:                -0.191
REMARK SMILES Cc1ccc(C(C)C)c(O)c1
REMARK SMILES IDX 1 1 2 2 11 3 9 4 5 5 4 6 3 7 10 8 6 10 7 11 8 12
REMARK H PARENT 10 9
REMARK Flexibility Score: inf
ROOT
ATOM      1  C   UNL     1     175.071 179.935 188.334  1.00  0.00     0.044 C 
ATOM      2  C   UNL     1     175.305 179.319 186.985  1.00  0.00    -0.047 A 
ATOM      3  C   UNL     1     176.165 178.224 186.850  1.00  0.00     0.049 A 
ATOM      4  C   UNL     1     176.356 177.610 185.606  1.00  0.00     0.119 A 
ATOM      5  C   UNL     1     175.706 178.126 184.451  1.00  0.00    -0.004 A 
ATOM      6  C   UNL     1     174.792 179.188 184.621  1.00  0.00     0.008 A 
ATOM      7  C   UNL     1     174.597 179.779 185.870  1.00  0.00     0.004 A 
ENDROOT
BRANCH   4   8
ATOM      8  O   UNL     1     177.179 176.480 185.570  1.00  0.00    -0.508 OA
ATOM      9  H   UNL     1     176.955 175.602 186.017  1.00  0.00     0.293 HD
ENDBRANCH   4   8
BRANCH   5  10
ATOM     10  C   UNL     1     175.920 177.511 183.072  1.00  0.00     0.017 C 
ATOM     11  C   UNL     1     174.888 176.408 182.818  1.00  0.00     0.012 C 
ATOM     12  C   UNL     1     175.902 178.545 181.934  1.00  0.00     0.012 C 
ENDBRANCH   5  10
TORSDOF 2
ENDMDL
MODEL 2
REMARK VINA RESULT:    -4.397     12.164     12.760
REMARK INTER + INTRA:          -4.973
REMARK INTER:                  -4.784
REMARK INTRA:                  -0.190
REMARK UNBOUND:                -0.191
REMARK SMILES Cc1ccc(C(C)C)c(O)c1
REMARK SMILES IDX 1 1 2 2 11 3 9 4 5 5 4 6 3 7 10 8 6 10 7 11 8 12
REMARK H PARENT 10 9
REMARK Flexibility Score: inf
ROOT
ATOM      1  C   UNL     1     161.166 177.837 188.224  1.00  0.00     0.044 C 
ATOM      2  C   UNL     1     161.853 177.845 186.889  1.00  0.00    -0.047 A 
ATOM      3  C   UNL     1     163.164 178.322 186.773  1.00  0.00     0.049 A 
ATOM      4  C   UNL     1     163.834 178.291 185.544  1.00  0.00     0.119 A 
ATOM      5  C   UNL     1     163.167 177.811 184.384  1.00  0.00    -0.004 A 
ATOM      6  C   UNL     1     161.871 177.272 184.535  1.00  0.00     0.008 A 
ATOM      7  C   UNL     1     161.222 177.293 185.770  1.00  0.00     0.004 A 
ENDROOT
BRANCH   4   8
ATOM      8  O   UNL     1     165.163 178.725 185.530  1.00  0.00    -0.508 OA
ATOM      9  H   UNL     1     165.901 178.272 185.009  1.00  0.00     0.293 HD
ENDBRANCH   4   8
BRANCH   5  10
ATOM     10  C   UNL     1     163.849 177.800 183.019  1.00  0.00     0.017 C 
ATOM     11  C   UNL     1     164.602 176.482 182.814  1.00  0.00     0.012 C 
ATOM     12  C   UNL     1     162.881 178.059 181.853  1.00  0.00     0.012 C 
ENDBRANCH   5  10
TORSDOF 2
ENDMDL
MODEL 3
REMARK VINA RESULT:    -4.284     19.186     20.179
REMARK INTER + INTRA:          -4.850
REMARK INTER:                  -4.665
REMARK INTRA:                  -0.185
REMARK UNBOUND:                -0.191
REMARK SMILES Cc1ccc(C(C)C)c(O)c1
REMARK SMILES IDX 1 1 2 2 11 3 9 4 5 5 4 6 3 7 10 8 6 10 7 11 8 12
REMARK H PARENT 10 9
REMARK Flexibility Score: inf
ROOT
ATOM      1  C   UNL     1     159.876 165.488 187.708  1.00  0.00     0.044 C 
ATOM      2  C   UNL     1     161.072 164.583 187.663  1.00  0.00    -0.047 A 
ATOM      3  C   UNL     1     160.906 163.202 187.500  1.00  0.00     0.049 A 
ATOM      4  C   UNL     1     162.013 162.351 187.409  1.00  0.00     0.119 A 
ATOM      5  C   UNL     1     163.328 162.881 187.526  1.00  0.00    -0.004 A 
ATOM      6  C   UNL     1     163.476 164.281 187.622  1.00  0.00     0.008 A 
ATOM      7  C   UNL     1     162.363 165.119 187.693  1.00  0.00     0.004 A 
ENDROOT
BRANCH   4   8
ATOM      8  O   UNL     1     161.761 160.995 187.180  1.00  0.00    -0.508 OA
ATOM      9  H   UNL     1     162.131 160.246 187.748  1.00  0.00     0.293 HD
ENDBRANCH   4   8
BRANCH   5  10
ATOM     10  C   UNL     1     164.559 161.980 187.473  1.00  0.00     0.017 C 
ATOM     11  C   UNL     1     165.278 162.145 186.131  1.00  0.00     0.012 C 
ATOM     12  C   UNL     1     165.531 162.209 188.642  1.00  0.00     0.012 C 
ENDBRANCH   5  10
TORSDOF 2
ENDMDL
MODEL 4
REMARK VINA RESULT:    -4.189     18.932     20.338
REMARK INTER + INTRA:          -4.747
REMARK INTER:                  -4.554
REMARK INTRA:                  -0.192
REMARK UNBOUND:                -0.191
REMARK SMILES Cc1ccc(C(C)C)c(O)c1
REMARK SMILES IDX 1 1 2 2 11 3 9 4 5 5 4 6 3 7 10 8 6 10 7 11 8 12
REMARK H PARENT 10 9
REMARK Flexibility Score: inf
ROOT
ATOM      1  C   UNL     1     166.157 162.994 187.978  1.00  0.00     0.044 C 
ATOM      2  C   UNL     1     164.676 163.134 187.781  1.00  0.00    -0.047 A 
ATOM      3  C   UNL     1     163.875 161.997 187.619  1.00  0.00     0.049 A 
ATOM      4  C   UNL     1     162.486 162.110 187.482  1.00  0.00     0.119 A 
ATOM      5  C   UNL     1     161.876 163.394 187.462  1.00  0.00    -0.004 A 
ATOM      6  C   UNL     1     162.692 164.523 187.694  1.00  0.00     0.008 A 
ATOM      7  C   UNL     1     164.072 164.394 187.847  1.00  0.00     0.004 A 
ENDROOT
BRANCH   4   8
ATOM      8  O   UNL     1     161.754 160.922 187.393  1.00  0.00    -0.508 OA
ATOM      9  H   UNL     1     162.018 160.058 187.846  1.00  0.00     0.293 HD
ENDBRANCH   4   8
BRANCH   5  10
ATOM     10  C   UNL     1     160.371 163.560 187.274  1.00  0.00     0.017 C 
ATOM     11  C   UNL     1     159.875 164.793 188.034  1.00  0.00     0.012 C 
ATOM     12  C   UNL     1     159.946 163.624 185.797  1.00  0.00     0.012 C 
ENDBRANCH   5  10
TORSDOF 2
ENDMDL
MODEL 5
REMARK VINA RESULT:    -4.181     14.482     15.112
REMARK INTER + INTRA:          -4.738
REMARK INTER:                  -4.555
REMARK INTRA:                  -0.183
REMARK UNBOUND:                -0.191
REMARK SMILES Cc1ccc(C(C)C)c(O)c1
REMARK SMILES IDX 1 1 2 2 11 3 9 4 5 5 4 6 3 7 10 8 6 10 7 11 8 12
REMARK H PARENT 10 9
REMARK Flexibility Score: inf
ROOT
ATOM      1  C   UNL     1     161.381 177.574 187.677  1.00  0.00     0.044 C 
ATOM      2  C   UNL     1     161.421 176.075 187.606  1.00  0.00    -0.047 A 
ATOM      3  C   UNL     1     162.638 175.396 187.731  1.00  0.00     0.049 A 
ATOM      4  C   UNL     1     162.685 173.996 187.715  1.00  0.00     0.119 A 
ATOM      5  C   UNL     1     161.491 173.248 187.526  1.00  0.00    -0.004 A 
ATOM      6  C   UNL     1     160.267 173.948 187.470  1.00  0.00     0.008 A 
ATOM      7  C   UNL     1     160.233 175.343 187.506  1.00  0.00     0.004 A 
ENDROOT
BRANCH   4   8
ATOM      8  O   UNL     1     163.932 173.396 187.912  1.00  0.00    -0.508 OA
ATOM      9  H   UNL     1     164.812 173.816 187.645  1.00  0.00     0.293 HD
ENDBRANCH   4   8
BRANCH   5  10
ATOM     10  C   UNL     1     161.506 171.723 187.462  1.00  0.00     0.017 C 
ATOM     11  C   UNL     1     160.752 171.135 188.658  1.00  0.00     0.012 C 
ATOM     12  C   UNL     1     160.952 171.164 186.141  1.00  0.00     0.012 C 
ENDBRANCH   5  10
TORSDOF 2
ENDMDL
MODEL 6
REMARK VINA RESULT:    -4.174     14.356     15.143
REMARK INTER + INTRA:          -4.730
REMARK INTER:                  -4.546
REMARK INTRA:                  -0.184
REMARK UNBOUND:                -0.191
REMARK SMILES Cc1ccc(C(C)C)c(O)c1
REMARK SMILES IDX 1 1 2 2 11 3 9 4 5 5 4 6 3 7 10 8 6 10 7 11 8 12
REMARK H PARENT 10 9
REMARK Flexibility Score: inf
ROOT
ATOM      1  C   UNL     1     160.973 171.268 187.989  1.00  0.00     0.044 C 
ATOM      2  C   UNL     1     161.125 172.744 187.765  1.00  0.00    -0.047 A 
ATOM      3  C   UNL     1     162.398 173.324 187.733  1.00  0.00     0.049 A 
ATOM      4  C   UNL     1     162.558 174.692 187.477  1.00  0.00     0.119 A 
ATOM      5  C   UNL     1     161.416 175.518 187.290  1.00  0.00    -0.004 A 
ATOM      6  C   UNL     1     160.146 174.902 187.259  1.00  0.00     0.008 A 
ATOM      7  C   UNL     1     160.003 173.535 187.497  1.00  0.00     0.004 A 
ENDROOT
BRANCH   4   8
ATOM      8  O   UNL     1     163.866 175.179 187.396  1.00  0.00    -0.508 OA
ATOM      9  H   UNL     1     164.433 175.142 186.561  1.00  0.00     0.293 HD
ENDBRANCH   4   8
BRANCH   5  10
ATOM     10  C   UNL     1     161.547 177.019 187.050  1.00  0.00     0.017 C 
ATOM     11  C   UNL     1     160.799 177.419 185.774  1.00  0.00     0.012 C 
ATOM     12  C   UNL     1     161.079 177.869 188.243  1.00  0.00     0.012 C 
ENDBRANCH   5  10
TORSDOF 2
ENDMDL
MODEL 7
REMARK VINA RESULT:    -4.148      4.582      5.652
REMARK INTER + INTRA:          -4.702
REMARK INTER:                  -4.517
REMARK INTRA:                  -0.185
REMARK UNBOUND:                -0.191
REMARK SMILES Cc1ccc(C(C)C)c(O)c1
REMARK SMILES IDX 1 1 2 2 11 3 9 4 5 5 4 6 3 7 10 8 6 10 7 11 8 12
REMARK H PARENT 10 9
REMARK Flexibility Score: inf
ROOT
ATOM      1  C   UNL     1     174.923 179.215 187.844  1.00  0.00     0.044 C 
ATOM      2  C   UNL     1     173.480 178.833 187.694  1.00  0.00    -0.047 A 
ATOM      3  C   UNL     1     173.086 177.497 187.831  1.00  0.00     0.049 A 
ATOM      4  C   UNL     1     171.737 177.133 187.740  1.00  0.00     0.119 A 
ATOM      5  C   UNL     1     170.752 178.120 187.461  1.00  0.00    -0.004 A 
ATOM      6  C   UNL     1     171.161 179.469 187.393  1.00  0.00     0.008 A 
ATOM      7  C   UNL     1     172.506 179.820 187.504  1.00  0.00     0.004 A 
ENDROOT
BRANCH   4   8
ATOM      8  O   UNL     1     171.422 175.788 187.955  1.00  0.00    -0.508 OA
ATOM      9  H   UNL     1     170.512 175.458 188.244  1.00  0.00     0.293 HD
ENDBRANCH   4   8
BRANCH   5  10
ATOM     10  C   UNL     1     169.277 177.756 187.314  1.00  0.00     0.017 C 
ATOM     11  C   UNL     1     168.489 178.233 188.537  1.00  0.00     0.012 C 
ATOM     12  C   UNL     1     168.645 178.290 186.017  1.00  0.00     0.012 C 
ENDBRANCH   5  10
TORSDOF 2
ENDMDL
MODEL 8
REMARK VINA RESULT:    -4.145     14.281     15.381
REMARK INTER + INTRA:          -4.700
REMARK INTER:                  -4.535
REMARK INTRA:                  -0.165
REMARK UNBOUND:                -0.191
REMARK SMILES Cc1ccc(C(C)C)c(O)c1
REMARK SMILES IDX 1 1 2 2 11 3 9 4 5 5 4 6 3 7 10 8 6 10 7 11 8 12
REMARK H PARENT 10 9
REMARK Flexibility Score: inf
ROOT
ATOM      1  C   UNL     1     160.482 175.725 182.149  1.00  0.00     0.044 C 
ATOM      2  C   UNL     1     160.586 176.159 183.582  1.00  0.00    -0.047 A 
ATOM      3  C   UNL     1     160.896 175.228 184.579  1.00  0.00     0.049 A 
ATOM      4  C   UNL     1     161.043 175.626 185.914  1.00  0.00     0.119 A 
ATOM      5  C   UNL     1     160.834 176.985 186.276  1.00  0.00    -0.004 A 
ATOM      6  C   UNL     1     160.588 177.919 185.247  1.00  0.00     0.008 A 
ATOM      7  C   UNL     1     160.463 177.511 183.919  1.00  0.00     0.004 A 
ENDROOT
BRANCH   4   8
ATOM      8  O   UNL     1     161.419 174.645 186.836  1.00  0.00    -0.508 OA
ATOM      9  H   UNL     1     162.361 174.294 186.938  1.00  0.00     0.293 HD
ENDBRANCH   4   8
BRANCH   5  10
ATOM     10  C   UNL     1     160.944 177.450 187.725  1.00  0.00     0.017 C 
ATOM     11  C   UNL     1     162.412 177.679 188.097  1.00  0.00     0.012 C 
ATOM     12  C   UNL     1     160.105 178.703 188.028  1.00  0.00     0.012 C 
ENDBRANCH   5  10
TORSDOF 2
ENDMDL
MODEL 9
REMARK VINA RESULT:    -4.089      2.451      4.286
REMARK INTER + INTRA:          -4.638
REMARK INTER:                  -4.447
REMARK INTRA:                  -0.190
REMARK UNBOUND:                -0.191
REMARK SMILES Cc1ccc(C(C)C)c(O)c1
REMARK SMILES IDX 1 1 2 2 11 3 9 4 5 5 4 6 3 7 10 8 6 10 7 11 8 12
REMARK H PARENT 10 9
REMARK Flexibility Score: inf
ROOT
ATOM      1  C   UNL     1     175.136 173.433 186.576  1.00  0.00     0.044 C 
ATOM      2  C   UNL     1     175.253 174.916 186.774  1.00  0.00    -0.047 A 
ATOM      3  C   UNL     1     176.495 175.548 186.650  1.00  0.00     0.049 A 
ATOM      4  C   UNL     1     176.612 176.937 186.785  1.00  0.00     0.119 A 
ATOM      5  C   UNL     1     175.466 177.719 187.096  1.00  0.00    -0.004 A 
ATOM      6  C   UNL     1     174.212 177.072 187.150  1.00  0.00     0.008 A 
ATOM      7  C   UNL     1     174.109 175.689 186.995  1.00  0.00     0.004 A 
ENDROOT
BRANCH   4   8
ATOM      8  O   UNL     1     177.877 177.495 186.580  1.00  0.00    -0.508 OA
ATOM      9  H   UNL     1     178.089 178.169 185.858  1.00  0.00     0.293 HD
ENDBRANCH   4   8
BRANCH   5  10
ATOM     10  C   UNL     1     175.559 179.229 187.291  1.00  0.00     0.017 C 
ATOM     11  C   UNL     1     175.228 179.954 185.984  1.00  0.00     0.012 C 
ATOM     12  C   UNL     1     174.679 179.750 188.440  1.00  0.00     0.012 C 
ENDBRANCH   5  10
TORSDOF 2
ENDMDL
