MODEL 1
REMARK VINA RESULT:    -4.020      0.000      0.000
REMARK INTER + INTRA:          -4.388
REMARK INTER:                  -4.372
REMARK INTRA:                  -0.016
REMARK UNBOUND:                -0.016
REMARK SMILES OCc1ccco1
REMARK SMILES IDX 2 1 3 2 5 3 6 4 4 5 7 6 1 7
REMARK H PARENT 1 8
REMARK Flexibility Score: inf
ROOT
ATOM      1  C   UNL     1       5.875 -13.462  21.154  1.00  0.00     0.231 C 
ENDROOT
BRANCH   1   2
ATOM      2  C   UNL     1       6.239 -12.111  20.626  1.00  0.00     0.129 A 
ATOM      3  C   UNL     1       6.461 -10.354  19.325  1.00  0.00     0.042 A 
ATOM      4  C   UNL     1       7.125 -10.176  20.522  1.00  0.00     0.195 A 
ATOM      5  C   UNL     1       5.890 -11.608  19.389  1.00  0.00     0.048 A 
ATOM      6  O   UNL     1       6.977 -11.241  21.276  1.00  0.00    -0.467 OA
ENDBRANCH   1   2
BRANCH   1   7
ATOM      7  O   UNL     1       7.020 -14.264  21.253  1.00  0.00    -0.388 OA
ATOM      8  H   UNL     1       7.281 -14.502  20.324  1.00  0.00     0.211 HD
ENDBRANCH   1   7
TORSDOF 2
ENDMDL
MODEL 2
REMARK VINA RESULT:    -3.700     17.793     18.123
REMARK INTER + INTRA:          -4.041
REMARK INTER:                  -4.020
REMARK INTRA:                  -0.020
REMARK UNBOUND:                -0.016
REMARK SMILES OCc1ccco1
REMARK SMILES IDX 2 1 3 2 5 3 6 4 4 5 7 6 1 7
REMARK H PARENT 1 8
REMARK Flexibility Score: inf
ROOT
ATOM      1  C   UNL     1      20.833 -15.043  11.756  1.00  0.00     0.231 C 
ENDROOT
BRANCH   1   2
ATOM      2  C   UNL     1      22.018 -14.900  12.658  1.00  0.00     0.129 A 
ATOM      3  C   UNL     1      23.338 -14.316  14.314  1.00  0.00     0.042 A 
ATOM      4  C   UNL     1      24.016 -15.073  13.379  1.00  0.00     0.195 A 
ATOM      5  C   UNL     1      22.046 -14.201  13.847  1.00  0.00     0.048 A 
ATOM      6  O   UNL     1      23.203 -15.404  12.402  1.00  0.00    -0.467 OA
ENDBRANCH   1   2
BRANCH   1   7
ATOM      7  O   UNL     1      21.251 -15.114  10.421  1.00  0.00    -0.388 OA
ATOM      8  H   UNL     1      21.835 -14.326  10.264  1.00  0.00     0.211 HD
ENDBRANCH   1   7
TORSDOF 2
ENDMDL
MODEL 3
REMARK VINA RESULT:    -3.695     12.764     13.781
REMARK INTER + INTRA:          -4.035
REMARK INTER:                  -4.020
REMARK INTRA:                  -0.015
REMARK UNBOUND:                -0.016
REMARK SMILES OCc1ccco1
REMARK SMILES IDX 2 1 3 2 5 3 6 4 4 5 7 6 1 7
REMARK H PARENT 1 8
REMARK Flexibility Score: inf
ROOT
ATOM      1  C   UNL     1      13.408  -5.585  12.661  1.00  0.00     0.231 C 
ENDROOT
BRANCH   1   2
ATOM      2  C   UNL     1      14.215  -5.568  11.401  1.00  0.00     0.129 A 
ATOM      3  C   UNL     1      14.807  -5.591   9.286  1.00  0.00     0.042 A 
ATOM      4  C   UNL     1      15.913  -5.575  10.113  1.00  0.00     0.195 A 
ATOM      5  C   UNL     1      13.708  -5.590  10.118  1.00  0.00     0.048 A 
ATOM      6  O   UNL     1      15.528  -5.564  11.369  1.00  0.00    -0.467 OA
ENDBRANCH   1   2
BRANCH   1   7
ATOM      7  O   UNL     1      13.446  -6.860  13.239  1.00  0.00    -0.388 OA
ATOM      8  H   UNL     1      13.449  -7.512  12.489  1.00  0.00     0.211 HD
ENDBRANCH   1   7
TORSDOF 2
ENDMDL
MODEL 4
REMARK VINA RESULT:    -3.669     13.354     13.692
REMARK INTER + INTRA:          -4.007
REMARK INTER:                  -3.993
REMARK INTRA:                  -0.014
REMARK UNBOUND:                -0.016
REMARK SMILES OCc1ccco1
REMARK SMILES IDX 2 1 3 2 5 3 6 4 4 5 7 6 1 7
REMARK H PARENT 1 8
REMARK Flexibility Score: inf
ROOT
ATOM      1  C   UNL     1      17.348  -5.033  15.560  1.00  0.00     0.231 C 
ENDROOT
BRANCH   1   2
ATOM      2  C   UNL     1      16.999  -4.021  16.605  1.00  0.00     0.129 A 
ATOM      3  C   UNL     1      17.091  -2.680  18.343  1.00  0.00     0.042 A 
ATOM      4  C   UNL     1      15.846  -2.640  17.747  1.00  0.00     0.195 A 
ATOM      5  C   UNL     1      17.838  -3.575  17.606  1.00  0.00     0.048 A 
ATOM      6  O   UNL     1      15.821  -3.453  16.716  1.00  0.00    -0.467 OA
ENDBRANCH   1   2
BRANCH   1   7
ATOM      7  O   UNL     1      17.407  -6.311  16.129  1.00  0.00    -0.388 OA
ATOM      8  H   UNL     1      17.640  -6.185  17.087  1.00  0.00     0.211 HD
ENDBRANCH   1   7
TORSDOF 2
ENDMDL
MODEL 5
REMARK VINA RESULT:    -3.639     12.216     12.730
REMARK INTER + INTRA:          -3.974
REMARK INTER:                  -3.960
REMARK INTRA:                  -0.014
REMARK UNBOUND:                -0.016
REMARK SMILES OCc1ccco1
REMARK SMILES IDX 2 1 3 2 5 3 6 4 4 5 7 6 1 7
REMARK H PARENT 1 8
REMARK Flexibility Score: inf
ROOT
ATOM      1  C   UNL     1      16.851  -5.377  15.151  1.00  0.00     0.231 C 
ENDROOT
BRANCH   1   2
ATOM      2  C   UNL     1      15.901  -4.504  15.908  1.00  0.00     0.129 A 
ATOM      3  C   UNL     1      14.072  -3.541  16.652  1.00  0.00     0.042 A 
ATOM      4  C   UNL     1      15.198  -2.980  17.222  1.00  0.00     0.195 A 
ATOM      5  C   UNL     1      14.526  -4.525  15.799  1.00  0.00     0.048 A 
ATOM      6  O   UNL     1      16.273  -3.573  16.757  1.00  0.00    -0.467 OA
ENDBRANCH   1   2
BRANCH   1   7
ATOM      7  O   UNL     1      17.344  -6.388  15.987  1.00  0.00    -0.388 OA
ATOM      8  H   UNL     1      16.615  -6.610  16.624  1.00  0.00     0.211 HD
ENDBRANCH   1   7
TORSDOF 2
ENDMDL
MODEL 6
REMARK VINA RESULT:    -3.621     12.957     13.942
REMARK INTER + INTRA:          -3.954
REMARK INTER:                  -3.940
REMARK INTRA:                  -0.014
REMARK UNBOUND:                -0.016
REMARK SMILES OCc1ccco1
REMARK SMILES IDX 2 1 3 2 5 3 6 4 4 5 7 6 1 7
REMARK H PARENT 1 8
REMARK Flexibility Score: inf
ROOT
ATOM      1  C   UNL     1      14.350  -5.657  13.359  1.00  0.00     0.231 C 
ENDROOT
BRANCH   1   2
ATOM      2  C   UNL     1      15.439  -5.749  12.336  1.00  0.00     0.129 A 
ATOM      3  C   UNL     1      17.395  -5.996  11.368  1.00  0.00     0.042 A 
ATOM      4  C   UNL     1      16.423  -5.656  10.449  1.00  0.00     0.195 A 
ATOM      5  C   UNL     1      16.760  -6.054  12.591  1.00  0.00     0.048 A 
ATOM      6  O   UNL     1      15.267  -5.512  11.056  1.00  0.00    -0.467 OA
ENDBRANCH   1   2
BRANCH   1   7
ATOM      7  O   UNL     1      13.514  -6.777  13.272  1.00  0.00    -0.388 OA
ATOM      8  H   UNL     1      12.701  -6.487  12.781  1.00  0.00     0.211 HD
ENDBRANCH   1   7
TORSDOF 2
ENDMDL
MODEL 7
REMARK VINA RESULT:    -3.590     16.003     16.780
REMARK INTER + INTRA:          -3.921
REMARK INTER:                  -3.906
REMARK INTRA:                  -0.015
REMARK UNBOUND:                -0.016
REMARK SMILES OCc1ccco1
REMARK SMILES IDX 2 1 3 2 5 3 6 4 4 5 7 6 1 7
REMARK H PARENT 1 8
REMARK Flexibility Score: inf
ROOT
ATOM      1  C   UNL     1      15.032  -1.039  12.279  1.00  0.00     0.231 C 
ENDROOT
BRANCH   1   2
ATOM      2  C   UNL     1      16.371  -1.510  12.754  1.00  0.00     0.129 A 
ATOM      3  C   UNL     1      18.443  -1.559  13.482  1.00  0.00     0.042 A 
ATOM      4  C   UNL     1      17.969  -2.833  13.238  1.00  0.00     0.195 A 
ATOM      5  C   UNL     1      17.410  -0.702  13.166  1.00  0.00     0.048 A 
ATOM      6  O   UNL     1      16.732  -2.772  12.802  1.00  0.00    -0.467 OA
ENDBRANCH   1   2
BRANCH   1   7
ATOM      7  O   UNL     1      15.187   0.037  11.397  1.00  0.00    -0.388 OA
ATOM      8  H   UNL     1      16.005   0.524  11.683  1.00  0.00     0.211 HD
ENDBRANCH   1   7
TORSDOF 2
ENDMDL
MODEL 8
REMARK VINA RESULT:    -3.581     13.684     15.043
REMARK INTER + INTRA:          -3.911
REMARK INTER:                  -3.895
REMARK INTRA:                  -0.016
REMARK UNBOUND:                -0.016
REMARK SMILES OCc1ccco1
REMARK SMILES IDX 2 1 3 2 5 3 6 4 4 5 7 6 1 7
REMARK H PARENT 1 8
REMARK Flexibility Score: inf
ROOT
ATOM      1  C   UNL     1      15.629  -1.105  12.109  1.00  0.00     0.231 C 
ENDROOT
BRANCH   1   2
ATOM      2  C   UNL     1      14.565  -1.754  12.936  1.00  0.00     0.129 A 
ATOM      3  C   UNL     1      12.627  -2.282  13.826  1.00  0.00     0.042 A 
ATOM      4  C   UNL     1      13.655  -2.996  14.409  1.00  0.00     0.195 A 
ATOM      5  C   UNL     1      13.215  -1.476  12.875  1.00  0.00     0.048 A 
ATOM      6  O   UNL     1      14.799  -2.657  13.860  1.00  0.00    -0.467 OA
ENDBRANCH   1   2
BRANCH   1   7
ATOM      7  O   UNL     1      15.095  -0.014  11.410  1.00  0.00    -0.388 OA
ATOM      8  H   UNL     1      15.773   0.248  10.733  1.00  0.00     0.211 HD
ENDBRANCH   1   7
TORSDOF 2
ENDMDL
MODEL 9
REMARK VINA RESULT:    -3.573     12.243     13.251
REMARK INTER + INTRA:          -3.902
REMARK INTER:                  -3.887
REMARK INTRA:                  -0.015
REMARK UNBOUND:                -0.016
REMARK SMILES OCc1ccco1
REMARK SMILES IDX 2 1 3 2 5 3 6 4 4 5 7 6 1 7
REMARK H PARENT 1 8
REMARK Flexibility Score: inf
ROOT
ATOM      1  C   UNL     1      17.428  -2.993  17.522  1.00  0.00     0.231 C 
ENDROOT
BRANCH   1   2
ATOM      2  C   UNL     1      16.124  -3.421  16.927  1.00  0.00     0.129 A 
ATOM      3  C   UNL     1      13.980  -3.635  16.502  1.00  0.00     0.042 A 
ATOM      4  C   UNL     1      14.731  -4.492  15.722  1.00  0.00     0.195 A 
ATOM      5  C   UNL     1      14.880  -2.943  17.284  1.00  0.00     0.048 A 
ATOM      6  O   UNL     1      16.006  -4.343  16.001  1.00  0.00    -0.467 OA
ENDBRANCH   1   2
BRANCH   1   7
ATOM      7  O   UNL     1      17.246  -2.620  18.860  1.00  0.00    -0.388 OA
ATOM      8  H   UNL     1      17.787  -1.800  19.003  1.00  0.00     0.211 HD
ENDBRANCH   1   7
TORSDOF 2
ENDMDL
