MODEL 1
REMARK VINA RESULT:    -6.689      0.000      0.000
REMARK INTER + INTRA:          -7.479
REMARK INTER:                  -7.471
REMARK INTRA:                  -0.007
REMARK UNBOUND:                -0.007
REMARK SMILES CC1(C)CC[C@@]2(C(=O)[O-])[C@H](O)C[C@@]3(C)C(=CC[C@@H]4[C@@]5(C)CC[C@H](O)C(C)(C)[C@@H]5CC[C@@]43C)[C@H]2C1
REMARK SMILES IDX 6 1 5 2 33 3 10 4 4 5 34 6 15 7 12 8 2 9 16 10 13 11 1 12
REMARK SMILES IDX 3 13 17 14 31 15 14 16 18 17 30 18 32 19 19 20 29 21 21 22
REMARK SMILES IDX 20 23 28 24 22 25 25 26 23 27 26 28 27 29 7 30 8 31 9 32
REMARK SMILES IDX 11 33 24 35
REMARK H PARENT 11 34 24 36
REMARK Flexibility Score: inf
ROOT
ATOM      1  C   UNL     1       2.274 -58.696 -29.609  1.00  0.00     0.042 C 
ATOM      2  C   UNL     1       2.027 -58.681 -31.166  1.00  0.00     0.017 C 
ATOM      3  C   UNL     1       2.574 -60.168 -29.143  1.00  0.00     0.030 C 
ATOM      4  C   UNL     1       1.001 -58.114 -28.907  1.00  0.00     0.127 C 
ATOM      5  C   UNL     1       2.862 -59.740 -31.903  1.00  0.00     0.007 C 
ATOM      6  C   UNL     1       1.897 -61.234 -30.032  1.00  0.00     0.015 C 
ATOM      7  C   UNL     1       2.350 -60.374 -27.636  1.00  0.00    -0.063 C 
ATOM      8  C   UNL     1       0.913 -58.409 -27.388  1.00  0.00     0.044 C 
ATOM      9  C   UNL     1       2.445 -61.192 -31.498  1.00  0.00    -0.035 C 
ATOM     10  C   UNL     1       3.443 -60.659 -26.915  1.00  0.00    -0.027 C 
ATOM     11  C   UNL     1       1.046 -59.921 -26.970  1.00  0.00    -0.003 C 
ATOM     12  C   UNL     1       3.670 -62.125 -31.628  1.00  0.00     0.011 C 
ATOM     13  C   UNL     1       1.350 -61.706 -32.459  1.00  0.00     0.011 C 
ATOM     14  C   UNL     1       3.543 -60.566 -25.439  1.00  0.00     0.032 C 
ATOM     15  C   UNL     1       1.037 -60.115 -25.346  1.00  0.00    -0.020 C 
ATOM     16  C   UNL     1      -0.146 -60.744 -27.569  1.00  0.00     0.017 C 
ATOM     17  C   UNL     1       2.435 -59.742 -24.705  1.00  0.00     0.006 C 
ATOM     18  C   UNL     1       0.739 -61.621 -24.944  1.00  0.00     0.008 C 
ATOM     19  C   UNL     1      -0.106 -59.174 -24.800  1.00  0.00     0.012 C 
ATOM     20  C   UNL     1       2.538 -59.921 -23.091  1.00  0.00    -0.025 C 
ATOM     21  C   UNL     1       1.298 -62.125 -23.573  1.00  0.00     0.005 C 
ATOM     22  C   UNL     1       2.221 -58.590 -22.348  1.00  0.00     0.010 C 
ATOM     23  C   UNL     1       4.009 -60.300 -22.703  1.00  0.00     0.012 C 
ATOM     24  C   UNL     1       1.485 -60.970 -22.575  1.00  0.00     0.003 C 
ATOM     25  C   UNL     1       2.214 -58.735 -20.802  1.00  0.00     0.033 C 
ATOM     26  C   UNL     1       1.475 -61.277 -21.027  1.00  0.00    -0.006 C 
ATOM     27  C   UNL     1       1.321 -59.895 -20.280  1.00  0.00     0.120 C 
ATOM     28  C   UNL     1       2.705 -62.095 -20.543  1.00  0.00     0.014 C 
ATOM     29  C   UNL     1       0.215 -62.121 -20.668  1.00  0.00     0.014 C 
ENDROOT
BRANCH   1  30
ATOM     30  C   UNL     1       3.479 -57.818 -29.254  1.00  0.00     0.051 C 
ATOM     31  O   UNL     1       4.380 -58.229 -28.475  1.00  0.00    -0.549 OA
ATOM     32  O   UNL     1       3.630 -56.565 -29.836  1.00  0.00    -0.549 OA
ENDBRANCH   1  30
BRANCH   4  33
ATOM     33  O   UNL     1       0.942 -56.718 -29.084  1.00  0.00    -0.392 OA
ATOM     34  H   UNL     1       0.171 -56.527 -29.679  1.00  0.00     0.210 HD
ENDBRANCH   4  33
BRANCH  27  35
ATOM     35  O   UNL     1       1.444 -60.039 -18.884  1.00  0.00    -0.393 OA
ATOM     36  H   UNL     1       2.408 -60.015 -18.654  1.00  0.00     0.210 HD
ENDBRANCH  27  35
TORSDOF 3
ENDMDL
MODEL 2
REMARK VINA RESULT:    -5.567      3.230      9.603
REMARK INTER + INTRA:          -6.225
REMARK INTER:                  -6.220
REMARK INTRA:                  -0.006
REMARK UNBOUND:                -0.007
REMARK SMILES CC1(C)CC[C@@]2(C(=O)[O-])[C@H](O)C[C@@]3(C)C(=CC[C@@H]4[C@@]5(C)CC[C@H](O)C(C)(C)[C@@H]5CC[C@@]43C)[C@H]2C1
REMARK SMILES IDX 6 1 5 2 33 3 10 4 4 5 34 6 15 7 12 8 2 9 16 10 13 11 1 12
REMARK SMILES IDX 3 13 17 14 31 15 14 16 18 17 30 18 32 19 19 20 29 21 21 22
REMARK SMILES IDX 20 23 28 24 22 25 25 26 23 27 26 28 27 29 7 30 8 31 9 32
REMARK SMILES IDX 11 33 24 35
REMARK H PARENT 11 34 24 36
REMARK Flexibility Score: inf
ROOT
ATOM      1  C   UNL     1       4.315 -59.561 -17.414  1.00  0.00     0.042 C 
ATOM      2  C   UNL     1       5.249 -59.253 -16.182  1.00  0.00     0.017 C 
ATOM      3  C   UNL     1       5.095 -60.449 -18.452  1.00  0.00     0.030 C 
ATOM      4  C   UNL     1       3.866 -58.197 -18.039  1.00  0.00     0.127 C 
ATOM      5  C   UNL     1       6.219 -60.406 -15.880  1.00  0.00     0.007 C 
ATOM      6  C   UNL     1       6.620 -60.214 -18.422  1.00  0.00     0.015 C 
ATOM      7  C   UNL     1       4.479 -60.399 -19.860  1.00  0.00    -0.063 C 
ATOM      8  C   UNL     1       3.271 -58.308 -19.466  1.00  0.00     0.044 C 
ATOM      9  C   UNL     1       7.239 -60.628 -17.045  1.00  0.00    -0.035 C 
ATOM     10  C   UNL     1       3.958 -61.548 -20.313  1.00  0.00    -0.027 C 
ATOM     11  C   UNL     1       4.160 -59.057 -20.528  1.00  0.00    -0.003 C 
ATOM     12  C   UNL     1       7.652 -62.116 -17.080  1.00  0.00     0.011 C 
ATOM     13  C   UNL     1       8.509 -59.786 -16.792  1.00  0.00     0.011 C 
ATOM     14  C   UNL     1       3.030 -61.674 -21.462  1.00  0.00     0.032 C 
ATOM     15  C   UNL     1       3.403 -59.205 -21.970  1.00  0.00    -0.020 C 
ATOM     16  C   UNL     1       5.496 -58.268 -20.753  1.00  0.00     0.017 C 
ATOM     17  C   UNL     1       2.328 -60.365 -21.950  1.00  0.00     0.006 C 
ATOM     18  C   UNL     1       4.430 -59.557 -23.130  1.00  0.00     0.008 C 
ATOM     19  C   UNL     1       2.727 -57.809 -22.254  1.00  0.00     0.012 C 
ATOM     20  C   UNL     1       1.531 -60.609 -23.347  1.00  0.00    -0.025 C 
ATOM     21  C   UNL     1       3.878 -60.337 -24.368  1.00  0.00     0.005 C 
ATOM     22  C   UNL     1       0.188 -59.821 -23.385  1.00  0.00     0.010 C 
ATOM     23  C   UNL     1       1.152 -62.125 -23.472  1.00  0.00     0.012 C 
ATOM     24  C   UNL     1       2.374 -60.092 -24.571  1.00  0.00     0.003 C 
ATOM     25  C   UNL     1      -0.562 -59.947 -24.738  1.00  0.00     0.033 C 
ATOM     26  C   UNL     1       1.747 -60.281 -26.008  1.00  0.00    -0.006 C 
ATOM     27  C   UNL     1       0.314 -59.622 -25.980  1.00  0.00     0.120 C 
ATOM     28  C   UNL     1       1.727 -61.758 -26.492  1.00  0.00     0.014 C 
ATOM     29  C   UNL     1       2.584 -59.485 -27.054  1.00  0.00     0.014 C 
ENDROOT
BRANCH   1  30
ATOM     30  C   UNL     1       3.069 -60.327 -16.957  1.00  0.00     0.051 C 
ATOM     31  O   UNL     1       3.128 -61.174 -16.026  1.00  0.00    -0.549 OA
ATOM     32  O   UNL     1       1.830 -60.057 -17.526  1.00  0.00    -0.549 OA
ENDBRANCH   1  30
BRANCH   4  33
ATOM     33  O   UNL     1       2.909 -57.573 -17.215  1.00  0.00    -0.392 OA
ATOM     34  H   UNL     1       2.028 -57.981 -17.422  1.00  0.00     0.210 HD
ENDBRANCH   4  33
BRANCH  27  35
ATOM     35  O   UNL     1      -0.394 -59.859 -27.174  1.00  0.00    -0.393 OA
ATOM     36  H   UNL     1      -0.373 -60.833 -27.359  1.00  0.00     0.210 HD
ENDBRANCH  27  35
TORSDOF 3
ENDMDL
MODEL 3
REMARK VINA RESULT:    -5.302      2.883      9.429
REMARK INTER + INTRA:          -5.929
REMARK INTER:                  -5.914
REMARK INTRA:                  -0.015
REMARK UNBOUND:                -0.007
REMARK SMILES CC1(C)CC[C@@]2(C(=O)[O-])[C@H](O)C[C@@]3(C)C(=CC[C@@H]4[C@@]5(C)CC[C@H](O)C(C)(C)[C@@H]5CC[C@@]43C)[C@H]2C1
REMARK SMILES IDX 6 1 5 2 33 3 10 4 4 5 34 6 15 7 12 8 2 9 16 10 13 11 1 12
REMARK SMILES IDX 3 13 17 14 31 15 14 16 18 17 30 18 32 19 19 20 29 21 21 22
REMARK SMILES IDX 20 23 28 24 22 25 25 26 23 27 26 28 27 29 7 30 8 31 9 32
REMARK SMILES IDX 11 33 24 35
REMARK H PARENT 11 34 24 36
REMARK Flexibility Score: inf
ROOT
ATOM      1  C   UNL     1       3.701 -59.703 -18.006  1.00  0.00     0.042 C 
ATOM      2  C   UNL     1       4.322 -59.388 -16.591  1.00  0.00     0.017 C 
ATOM      3  C   UNL     1       4.782 -60.405 -18.906  1.00  0.00     0.030 C 
ATOM      4  C   UNL     1       3.209 -58.355 -18.634  1.00  0.00     0.127 C 
ATOM      5  C   UNL     1       5.356 -60.438 -16.158  1.00  0.00     0.007 C 
ATOM      6  C   UNL     1       6.226 -59.996 -18.547  1.00  0.00     0.015 C 
ATOM      7  C   UNL     1       4.458 -60.316 -20.406  1.00  0.00    -0.063 C 
ATOM      8  C   UNL     1       2.930 -58.421 -20.158  1.00  0.00     0.044 C 
ATOM      9  C   UNL     1       6.608 -60.443 -17.096  1.00  0.00    -0.035 C 
ATOM     10  C   UNL     1       4.194 -61.477 -21.019  1.00  0.00    -0.027 C 
ATOM     11  C   UNL     1       4.104 -58.971 -21.051  1.00  0.00    -0.003 C 
ATOM     12  C   UNL     1       7.213 -61.864 -17.126  1.00  0.00     0.011 C 
ATOM     13  C   UNL     1       7.679 -59.480 -16.538  1.00  0.00     0.011 C 
ATOM     14  C   UNL     1       3.539 -61.619 -22.341  1.00  0.00     0.032 C 
ATOM     15  C   UNL     1       3.676 -59.090 -22.625  1.00  0.00    -0.020 C 
ATOM     16  C   UNL     1       5.341 -58.014 -20.950  1.00  0.00     0.017 C 
ATOM     17  C   UNL     1       2.781 -60.367 -22.892  1.00  0.00     0.006 C 
ATOM     18  C   UNL     1       4.950 -59.223 -23.563  1.00  0.00     0.008 C 
ATOM     19  C   UNL     1       2.891 -57.765 -22.966  1.00  0.00     0.012 C 
ATOM     20  C   UNL     1       2.318 -60.590 -24.436  1.00  0.00    -0.025 C 
ATOM     21  C   UNL     1       4.764 -59.960 -24.930  1.00  0.00     0.005 C 
ATOM     22  C   UNL     1       0.917 -59.966 -24.708  1.00  0.00     0.010 C 
ATOM     23  C   UNL     1       2.175 -62.125 -24.720  1.00  0.00     0.012 C 
ATOM     24  C   UNL     1       3.312 -59.880 -25.428  1.00  0.00     0.003 C 
ATOM     25  C   UNL     1       0.475 -60.070 -26.193  1.00  0.00     0.033 C 
ATOM     26  C   UNL     1       3.014 -60.025 -26.971  1.00  0.00    -0.006 C 
ATOM     27  C   UNL     1       1.530 -59.544 -27.206  1.00  0.00     0.120 C 
ATOM     28  C   UNL     1       3.287 -61.450 -27.530  1.00  0.00     0.014 C 
ATOM     29  C   UNL     1       3.931 -59.054 -27.775  1.00  0.00     0.014 C 
ENDROOT
BRANCH   1  30
ATOM     30  C   UNL     1       2.501 -60.646 -17.860  1.00  0.00     0.051 C 
ATOM     31  O   UNL     1       2.425 -61.463 -16.904  1.00  0.00    -0.549 OA
ATOM     32  O   UNL     1       1.440 -60.575 -18.754  1.00  0.00    -0.549 OA
ENDBRANCH   1  30
BRANCH   4  33
ATOM     33  O   UNL     1       2.033 -57.919 -17.994  1.00  0.00    -0.392 OA
ATOM     34  H   UNL     1       1.654 -57.182 -18.540  1.00  0.00     0.210 HD
ENDBRANCH   4  33
BRANCH  27  35
ATOM     35  O   UNL     1       1.112 -59.766 -28.532  1.00  0.00    -0.393 OA
ATOM     36  H   UNL     1       0.895 -58.888 -28.939  1.00  0.00     0.210 HD
ENDBRANCH  27  35
TORSDOF 3
ENDMDL
MODEL 4
REMARK VINA RESULT:    -4.966      7.437      9.919
REMARK INTER + INTRA:          -5.554
REMARK INTER:                  -5.506
REMARK INTRA:                  -0.047
REMARK UNBOUND:                -0.007
REMARK SMILES CC1(C)CC[C@@]2(C(=O)[O-])[C@H](O)C[C@@]3(C)C(=CC[C@@H]4[C@@]5(C)CC[C@H](O)C(C)(C)[C@@H]5CC[C@@]43C)[C@H]2C1
REMARK SMILES IDX 6 1 5 2 33 3 10 4 4 5 34 6 15 7 12 8 2 9 16 10 13 11 1 12
REMARK SMILES IDX 3 13 17 14 31 15 14 16 18 17 30 18 32 19 19 20 29 21 21 22
REMARK SMILES IDX 20 23 28 24 22 25 25 26 23 27 26 28 27 29 7 30 8 31 9 32
REMARK SMILES IDX 11 33 24 35
REMARK H PARENT 11 34 24 36
REMARK Flexibility Score: inf
ROOT
ATOM      1  C   UNL     1       6.909 -58.285 -18.759  1.00  0.00     0.042 C 
ATOM      2  C   UNL     1       8.443 -58.434 -19.089  1.00  0.00     0.017 C 
ATOM      3  C   UNL     1       6.504 -59.347 -17.672  1.00  0.00     0.030 C 
ATOM      4  C   UNL     1       6.103 -58.478 -20.088  1.00  0.00     0.127 C 
ATOM      5  C   UNL     1       9.265 -58.880 -17.870  1.00  0.00     0.007 C 
ATOM      6  C   UNL     1       7.369 -60.625 -17.723  1.00  0.00     0.015 C 
ATOM      7  C   UNL     1       4.990 -59.615 -17.635  1.00  0.00    -0.063 C 
ATOM      8  C   UNL     1       4.589 -58.747 -19.888  1.00  0.00     0.044 C 
ATOM      9  C   UNL     1       8.868 -60.317 -17.396  1.00  0.00    -0.035 C 
ATOM     10  C   UNL     1       4.356 -59.245 -16.514  1.00  0.00    -0.027 C 
ATOM     11  C   UNL     1       4.221 -59.934 -18.922  1.00  0.00    -0.003 C 
ATOM     12  C   UNL     1       9.110 -60.434 -15.875  1.00  0.00     0.011 C 
ATOM     13  C   UNL     1       9.761 -61.362 -18.103  1.00  0.00     0.011 C 
ATOM     14  C   UNL     1       2.889 -59.086 -16.371  1.00  0.00     0.032 C 
ATOM     15  C   UNL     1       2.606 -60.072 -18.704  1.00  0.00    -0.020 C 
ATOM     16  C   UNL     1       4.753 -61.285 -19.513  1.00  0.00     0.017 C 
ATOM     17  C   UNL     1       2.058 -58.987 -17.692  1.00  0.00     0.006 C 
ATOM     18  C   UNL     1       2.221 -61.490 -18.102  1.00  0.00     0.008 C 
ATOM     19  C   UNL     1       1.955 -59.898 -20.130  1.00  0.00     0.012 C 
ATOM     20  C   UNL     1       0.460 -59.051 -17.388  1.00  0.00    -0.025 C 
ATOM     21  C   UNL     1       0.907 -61.583 -17.259  1.00  0.00     0.005 C 
ATOM     22  C   UNL     1      -0.338 -58.095 -18.323  1.00  0.00     0.010 C 
ATOM     23  C   UNL     1       0.188 -58.560 -15.925  1.00  0.00     0.012 C 
ATOM     24  C   UNL     1      -0.103 -60.496 -17.658  1.00  0.00     0.003 C 
ATOM     25  C   UNL     1      -1.876 -58.193 -18.136  1.00  0.00     0.033 C 
ATOM     26  C   UNL     1      -1.640 -60.730 -17.384  1.00  0.00    -0.006 C 
ATOM     27  C   UNL     1      -2.431 -59.643 -18.210  1.00  0.00     0.120 C 
ATOM     28  C   UNL     1      -2.013 -60.737 -15.875  1.00  0.00     0.014 C 
ATOM     29  C   UNL     1      -2.067 -62.119 -17.950  1.00  0.00     0.014 C 
ENDROOT
BRANCH   1  30
ATOM     30  C   UNL     1       6.619 -56.886 -18.205  1.00  0.00     0.051 C 
ATOM     31  O   UNL     1       6.066 -56.729 -17.084  1.00  0.00    -0.549 OA
ATOM     32  O   UNL     1       7.018 -55.756 -18.909  1.00  0.00    -0.549 OA
ENDBRANCH   1  30
BRANCH   4  33
ATOM     33  O   UNL     1       6.239 -57.344 -20.911  1.00  0.00    -0.392 OA
ATOM     34  H   UNL     1       6.414 -56.567 -20.319  1.00  0.00     0.210 HD
ENDBRANCH   4  33
BRANCH  27  35
ATOM     35  O   UNL     1      -3.810 -59.672 -17.926  1.00  0.00    -0.393 OA
ATOM     36  H   UNL     1      -4.152 -60.576 -18.144  1.00  0.00     0.210 HD
ENDBRANCH  27  35
TORSDOF 3
ENDMDL
MODEL 5
REMARK VINA RESULT:    -4.924      7.068      9.495
REMARK INTER + INTRA:          -5.507
REMARK INTER:                  -5.523
REMARK INTRA:                   0.017
REMARK UNBOUND:                -0.007
REMARK SMILES CC1(C)CC[C@@]2(C(=O)[O-])[C@H](O)C[C@@]3(C)C(=CC[C@@H]4[C@@]5(C)CC[C@H](O)C(C)(C)[C@@H]5CC[C@@]43C)[C@H]2C1
REMARK SMILES IDX 6 1 5 2 33 3 10 4 4 5 34 6 15 7 12 8 2 9 16 10 13 11 1 12
REMARK SMILES IDX 3 13 17 14 31 15 14 16 18 17 30 18 32 19 19 20 29 21 21 22
REMARK SMILES IDX 20 23 28 24 22 25 25 26 23 27 26 28 27 29 7 30 8 31 9 32
REMARK SMILES IDX 11 33 24 35
REMARK H PARENT 11 34 24 36
REMARK Flexibility Score: inf
ROOT
ATOM      1  C   UNL     1       4.833 -59.009 -19.974  1.00  0.00     0.042 C 
ATOM      2  C   UNL     1       6.408 -58.967 -20.027  1.00  0.00     0.017 C 
ATOM      3  C   UNL     1       4.348 -58.582 -18.540  1.00  0.00     0.030 C 
ATOM      4  C   UNL     1       4.370 -60.460 -20.336  1.00  0.00     0.127 C 
ATOM      5  C   UNL     1       6.997 -57.864 -19.133  1.00  0.00     0.007 C 
ATOM      6  C   UNL     1       5.368 -58.920 -17.432  1.00  0.00     0.015 C 
ATOM      7  C   UNL     1       2.913 -59.043 -18.234  1.00  0.00    -0.063 C 
ATOM      8  C   UNL     1       2.900 -60.778 -19.960  1.00  0.00     0.044 C 
ATOM      9  C   UNL     1       6.705 -58.127 -17.620  1.00  0.00    -0.035 C 
ATOM     10  C   UNL     1       2.006 -58.070 -18.075  1.00  0.00    -0.027 C 
ATOM     11  C   UNL     1       2.494 -60.500 -18.465  1.00  0.00    -0.003 C 
ATOM     12  C   UNL     1       6.622 -56.774 -16.878  1.00  0.00     0.011 C 
ATOM     13  C   UNL     1       7.863 -58.940 -17.000  1.00  0.00     0.011 C 
ATOM     14  C   UNL     1       0.536 -58.254 -18.113  1.00  0.00     0.032 C 
ATOM     15  C   UNL     1       0.904 -60.775 -18.197  1.00  0.00    -0.020 C 
ATOM     16  C   UNL     1       3.321 -61.426 -17.509  1.00  0.00     0.017 C 
ATOM     17  C   UNL     1       0.007 -59.588 -18.734  1.00  0.00     0.006 C 
ATOM     18  C   UNL     1       0.594 -60.913 -16.646  1.00  0.00     0.008 C 
ATOM     19  C   UNL     1       0.563 -62.125 -18.937  1.00  0.00     0.012 C 
ATOM     20  C   UNL     1      -1.594 -59.754 -18.497  1.00  0.00    -0.025 C 
ATOM     21  C   UNL     1      -0.848 -60.544 -16.163  1.00  0.00     0.005 C 
ATOM     22  C   UNL     1      -2.292 -60.396 -19.733  1.00  0.00     0.010 C 
ATOM     23  C   UNL     1      -2.244 -58.339 -18.314  1.00  0.00     0.012 C 
ATOM     24  C   UNL     1      -1.885 -60.716 -17.285  1.00  0.00     0.003 C 
ATOM     25  C   UNL     1      -3.806 -60.663 -19.517  1.00  0.00     0.033 C 
ATOM     26  C   UNL     1      -3.398 -60.961 -16.908  1.00  0.00    -0.006 C 
ATOM     27  C   UNL     1      -4.130 -61.452 -18.217  1.00  0.00     0.120 C 
ATOM     28  C   UNL     1      -4.087 -59.732 -16.252  1.00  0.00     0.014 C 
ATOM     29  C   UNL     1      -3.499 -62.125 -15.877  1.00  0.00     0.014 C 
ENDROOT
BRANCH   1  30
ATOM     30  C   UNL     1       4.242 -58.033 -20.998  1.00  0.00     0.051 C 
ATOM     31  O   UNL     1       4.958 -57.161 -21.559  1.00  0.00    -0.549 OA
ATOM     32  O   UNL     1       2.907 -58.131 -21.372  1.00  0.00    -0.549 OA
ENDBRANCH   1  30
BRANCH   4  33
ATOM     33  O   UNL     1       4.528 -60.693 -21.715  1.00  0.00    -0.392 OA
ATOM     34  H   UNL     1       3.770 -61.264 -22.009  1.00  0.00     0.210 HD
ENDBRANCH   4  33
BRANCH  27  35
ATOM     35  O   UNL     1      -5.520 -61.566 -18.028  1.00  0.00    -0.393 OA
ATOM     36  H   UNL     1      -5.944 -61.692 -18.915  1.00  0.00     0.210 HD
ENDBRANCH  27  35
TORSDOF 3
ENDMDL
MODEL 6
REMARK VINA RESULT:    -4.290      2.133      8.235
REMARK INTER + INTRA:          -4.798
REMARK INTER:                  -4.808
REMARK INTRA:                   0.009
REMARK UNBOUND:                -0.007
REMARK SMILES CC1(C)CC[C@@]2(C(=O)[O-])[C@H](O)C[C@@]3(C)C(=CC[C@@H]4[C@@]5(C)CC[C@H](O)C(C)(C)[C@@H]5CC[C@@]43C)[C@H]2C1
REMARK SMILES IDX 6 1 5 2 33 3 10 4 4 5 34 6 15 7 12 8 2 9 16 10 13 11 1 12
REMARK SMILES IDX 3 13 17 14 31 15 14 16 18 17 30 18 32 19 19 20 29 21 21 22
REMARK SMILES IDX 20 23 28 24 22 25 25 26 23 27 26 28 27 29 7 30 8 31 9 32
REMARK SMILES IDX 11 33 24 35
REMARK H PARENT 11 34 24 36
REMARK Flexibility Score: inf
ROOT
ATOM      1  C   UNL     1       3.644 -58.730 -21.634  1.00  0.00     0.042 C 
ATOM      2  C   UNL     1       4.161 -58.742 -20.145  1.00  0.00     0.017 C 
ATOM      3  C   UNL     1       3.208 -60.183 -22.047  1.00  0.00     0.030 C 
ATOM      4  C   UNL     1       4.796 -58.189 -22.546  1.00  0.00     0.127 C 
ATOM      5  C   UNL     1       3.428 -59.777 -19.277  1.00  0.00     0.007 C 
ATOM      6  C   UNL     1       3.987 -61.284 -21.296  1.00  0.00     0.015 C 
ATOM      7  C   UNL     1       3.155 -60.379 -23.571  1.00  0.00    -0.063 C 
ATOM      8  C   UNL     1       4.604 -58.469 -24.059  1.00  0.00     0.044 C 
ATOM      9  C   UNL     1       3.707 -61.239 -19.756  1.00  0.00    -0.035 C 
ATOM     10  C   UNL     1       1.941 -60.613 -24.089  1.00  0.00    -0.027 C 
ATOM     11  C   UNL     1       4.338 -59.970 -24.454  1.00  0.00    -0.003 C 
ATOM     12  C   UNL     1       2.488 -62.125 -19.417  1.00  0.00     0.011 C 
ATOM     13  C   UNL     1       4.933 -61.806 -19.006  1.00  0.00     0.011 C 
ATOM     14  C   UNL     1       1.587 -60.498 -25.524  1.00  0.00     0.032 C 
ATOM     15  C   UNL     1       4.054 -60.144 -26.055  1.00  0.00    -0.020 C 
ATOM     16  C   UNL     1       5.583 -60.846 -24.079  1.00  0.00     0.017 C 
ATOM     17  C   UNL     1       2.581 -59.710 -26.437  1.00  0.00     0.006 C 
ATOM     18  C   UNL     1       4.215 -61.656 -26.511  1.00  0.00     0.008 C 
ATOM     19  C   UNL     1       5.120 -59.242 -26.789  1.00  0.00     0.012 C 
ATOM     20  C   UNL     1       2.188 -59.865 -28.009  1.00  0.00    -0.025 C 
ATOM     21  C   UNL     1       3.404 -62.121 -27.765  1.00  0.00     0.005 C 
ATOM     22  C   UNL     1       2.423 -58.539 -28.790  1.00  0.00     0.010 C 
ATOM     23  C   UNL     1       0.658 -60.182 -28.134  1.00  0.00     0.012 C 
ATOM     24  C   UNL     1       3.091 -60.948 -28.708  1.00  0.00     0.003 C 
ATOM     25  C   UNL     1       2.153 -58.665 -30.314  1.00  0.00     0.033 C 
ATOM     26  C   UNL     1       2.816 -61.237 -30.235  1.00  0.00    -0.006 C 
ATOM     27  C   UNL     1       2.891 -59.853 -30.991  1.00  0.00     0.120 C 
ATOM     28  C   UNL     1       1.488 -62.001 -30.499  1.00  0.00     0.014 C 
ATOM     29  C   UNL     1       3.958 -62.125 -30.815  1.00  0.00     0.014 C 
ENDROOT
BRANCH   1  30
ATOM     30  C   UNL     1       2.432 -57.801 -21.767  1.00  0.00     0.051 C 
ATOM     31  O   UNL     1       2.173 -57.216 -22.852  1.00  0.00    -0.549 OA
ATOM     32  O   UNL     1       1.557 -57.633 -20.700  1.00  0.00    -0.549 OA
ENDBRANCH   1  30
BRANCH   4  33
ATOM     33  O   UNL     1       4.942 -56.799 -22.376  1.00  0.00    -0.392 OA
ATOM     34  H   UNL     1       4.071 -56.445 -22.055  1.00  0.00     0.210 HD
ENDBRANCH   4  33
BRANCH  27  35
ATOM     35  O   UNL     1       2.520 -59.975 -32.344  1.00  0.00    -0.393 OA
ATOM     36  H   UNL     1       2.826 -60.860 -32.670  1.00  0.00     0.210 HD
ENDBRANCH  27  35
TORSDOF 3
ENDMDL
