MODEL 1
REMARK VINA RESULT:    -3.998      0.000      0.000
REMARK INTER + INTRA:          -8.949
REMARK INTER:                  -7.504
REMARK INTRA:                  -1.445
REMARK UNBOUND:                -1.445
REMARK SMILES O=C([O-])CCCCCCCCCCCCCCC(=O)[O-]
REMARK SMILES IDX 10 1 9 2 8 3 7 4 6 5 5 6 4 7 2 8 1 9 3 10 11 11 12 12 13 13
REMARK SMILES IDX 14 14 15 15 16 16 17 17 18 18 19 19 20 20
REMARK H PARENT
REMARK Flexibility Score: inf
ROOT
ATOM      1  C   UNL     1      44.710  26.474   3.455  1.00  0.00     0.000 C 
ENDROOT
BRANCH   1   2
ATOM      2  C   UNL     1      46.242  26.452   3.320  1.00  0.00     0.000 C 
BRANCH   2   3
ATOM      3  C   UNL     1      46.931  27.548   4.151  1.00  0.00     0.000 C 
BRANCH   3   4
ATOM      4  C   UNL     1      46.014  28.185   5.217  1.00  0.00     0.000 C 
BRANCH   4   5
ATOM      5  C   UNL     1      46.536  27.957   6.644  1.00  0.00     0.000 C 
BRANCH   5   6
ATOM      6  C   UNL     1      46.222  26.535   7.124  1.00  0.00     0.006 C 
BRANCH   6   7
ATOM      7  C   UNL     1      47.108  26.149   8.313  1.00  0.00     0.053 C 
BRANCH   7   8
ATOM      8  C   UNL     1      46.273  25.918   9.532  1.00  0.00     0.041 C 
ATOM      9  O   UNL     1      46.694  25.174  10.457  1.00  0.00    -0.550 OA
ATOM     10  O   UNL     1      45.051  26.563   9.670  1.00  0.00    -0.550 OA
ENDBRANCH   7   8
ENDBRANCH   6   7
ENDBRANCH   5   6
ENDBRANCH   4   5
ENDBRANCH   3   4
ENDBRANCH   2   3
ENDBRANCH   1   2
BRANCH   1  11
ATOM     11  C   UNL     1      44.014  26.990   2.185  1.00  0.00     0.000 C 
BRANCH  11  12
ATOM     12  C   UNL     1      42.906  28.010   2.496  1.00  0.00     0.000 C 
BRANCH  12  13
ATOM     13  C   UNL     1      43.321  29.457   2.178  1.00  0.00     0.000 C 
BRANCH  13  14
ATOM     14  C   UNL     1      44.825  29.661   1.903  1.00  0.00     0.000 C 
BRANCH  14  15
ATOM     15  C   UNL     1      45.190  29.940   0.431  1.00  0.00     0.000 C 
BRANCH  15  16
ATOM     16  C   UNL     1      46.054  28.854  -0.242  1.00  0.00     0.006 C 
BRANCH  16  17
ATOM     17  C   UNL     1      46.511  29.202  -1.668  1.00  0.00     0.053 C 
BRANCH  17  18
ATOM     18  C   UNL     1      46.027  28.201  -2.672  1.00  0.00     0.041 C 
ATOM     19  O   UNL     1      46.198  26.970  -2.471  1.00  0.00    -0.550 OA
ATOM     20  O   UNL     1      45.418  28.629  -3.845  1.00  0.00    -0.550 OA
ENDBRANCH  17  18
ENDBRANCH  16  17
ENDBRANCH  15  16
ENDBRANCH  14  15
ENDBRANCH  13  14
ENDBRANCH  12  13
ENDBRANCH  11  12
ENDBRANCH   1  11
TORSDOF 15
ENDMDL
MODEL 2
REMARK VINA RESULT:    -3.826      1.295      2.376
REMARK INTER + INTRA:          -8.626
REMARK INTER:                  -7.683
REMARK INTRA:                  -0.943
REMARK UNBOUND:                -1.445
REMARK SMILES O=C([O-])CCCCCCCCCCCCCCC(=O)[O-]
REMARK SMILES IDX 10 1 9 2 8 3 7 4 6 5 5 6 4 7 2 8 1 9 3 10 11 11 12 12 13 13
REMARK SMILES IDX 14 14 15 15 16 16 17 17 18 18 19 19 20 20
REMARK H PARENT
REMARK Flexibility Score: inf
ROOT
ATOM      1  C   UNL     1      43.894  27.104   2.077  1.00  0.00     0.000 C 
ENDROOT
BRANCH   1   2
ATOM      2  C   UNL     1      44.379  26.372   3.340  1.00  0.00     0.000 C 
BRANCH   2   3
ATOM      3  C   UNL     1      45.884  26.561   3.598  1.00  0.00     0.000 C 
BRANCH   3   4
ATOM      4  C   UNL     1      46.258  26.587   5.095  1.00  0.00     0.000 C 
BRANCH   4   5
ATOM      5  C   UNL     1      46.394  28.020   5.635  1.00  0.00     0.000 C 
BRANCH   5   6
ATOM      6  C   UNL     1      46.058  28.079   7.130  1.00  0.00     0.006 C 
BRANCH   6   7
ATOM      7  C   UNL     1      46.130  26.686   7.764  1.00  0.00     0.053 C 
BRANCH   7   8
ATOM      8  C   UNL     1      45.643  26.730   9.177  1.00  0.00     0.041 C 
ATOM      9  O   UNL     1      44.958  27.705   9.582  1.00  0.00    -0.550 OA
ATOM     10  O   UNL     1      45.907  25.670  10.036  1.00  0.00    -0.550 OA
ENDBRANCH   7   8
ENDBRANCH   6   7
ENDBRANCH   5   6
ENDBRANCH   4   5
ENDBRANCH   3   4
ENDBRANCH   2   3
ENDBRANCH   1   2
BRANCH   1  11
ATOM     11  C   UNL     1      43.867  28.630   2.255  1.00  0.00     0.000 C 
BRANCH  11  12
ATOM     12  C   UNL     1      44.885  29.345   1.350  1.00  0.00     0.000 C 
BRANCH  12  13
ATOM     13  C   UNL     1      45.592  28.387   0.374  1.00  0.00     0.000 C 
BRANCH  13  14
ATOM     14  C   UNL     1      46.568  29.061  -0.612  1.00  0.00     0.000 C 
BRANCH  14  15
ATOM     15  C   UNL     1      46.115  29.059  -2.086  1.00  0.00     0.000 C 
BRANCH  15  16
ATOM     16  C   UNL     1      46.560  27.827  -2.902  1.00  0.00     0.006 C 
BRANCH  16  17
ATOM     17  C   UNL     1      45.462  27.229  -3.796  1.00  0.00     0.053 C 
BRANCH  17  18
ATOM     18  C   UNL     1      45.675  27.558  -5.242  1.00  0.00     0.041 C 
ATOM     19  O   UNL     1      44.726  27.445  -6.062  1.00  0.00    -0.550 OA
ATOM     20  O   UNL     1      46.928  27.957  -5.689  1.00  0.00    -0.550 OA
ENDBRANCH  17  18
ENDBRANCH  16  17
ENDBRANCH  15  16
ENDBRANCH  14  15
ENDBRANCH  13  14
ENDBRANCH  12  13
ENDBRANCH  11  12
ENDBRANCH   1  11
TORSDOF 15
ENDMDL
MODEL 3
REMARK VINA RESULT:    -3.819      0.697      8.575
REMARK INTER + INTRA:          -8.614
REMARK INTER:                  -6.835
REMARK INTRA:                  -1.779
REMARK UNBOUND:                -1.445
REMARK SMILES O=C([O-])CCCCCCCCCCCCCCC(=O)[O-]
REMARK SMILES IDX 10 1 9 2 8 3 7 4 6 5 5 6 4 7 2 8 1 9 3 10 11 11 12 12 13 13
REMARK SMILES IDX 14 14 15 15 16 16 17 17 18 18 19 19 20 20
REMARK H PARENT
REMARK Flexibility Score: inf
ROOT
ATOM      1  C   UNL     1      43.217  28.013   2.637  1.00  0.00     0.000 C 
ENDROOT
BRANCH   1   2
ATOM      2  C   UNL     1      43.654  29.292   1.903  1.00  0.00     0.000 C 
BRANCH   2   3
ATOM      3  C   UNL     1      44.839  29.996   2.585  1.00  0.00     0.000 C 
BRANCH   3   4
ATOM      4  C   UNL     1      46.173  29.842   1.824  1.00  0.00     0.000 C 
BRANCH   4   5
ATOM      5  C   UNL     1      45.991  29.958   0.303  1.00  0.00     0.000 C 
BRANCH   5   6
ATOM      6  C   UNL     1      46.544  28.721  -0.414  1.00  0.00     0.006 C 
BRANCH   6   7
ATOM      7  C   UNL     1      46.918  29.048  -1.863  1.00  0.00     0.053 C 
BRANCH   7   8
ATOM      8  C   UNL     1      46.166  28.166  -2.808  1.00  0.00     0.041 C 
ATOM      9  O   UNL     1      46.279  26.915  -2.735  1.00  0.00    -0.550 OA
ATOM     10  O   UNL     1      45.301  28.726  -3.741  1.00  0.00    -0.550 OA
ENDBRANCH   7   8
ENDBRANCH   6   7
ENDBRANCH   5   6
ENDBRANCH   4   5
ENDBRANCH   3   4
ENDBRANCH   2   3
ENDBRANCH   1   2
BRANCH   1  11
ATOM     11  C   UNL     1      44.106  26.806   2.297  1.00  0.00     0.000 C 
BRANCH  11  12
ATOM     12  C   UNL     1      44.878  26.282   3.519  1.00  0.00     0.000 C 
BRANCH  12  13
ATOM     13  C   UNL     1      46.404  26.410   3.361  1.00  0.00     0.000 C 
BRANCH  13  14
ATOM     14  C   UNL     1      47.099  27.287   4.422  1.00  0.00     0.000 C 
BRANCH  14  15
ATOM     15  C   UNL     1      46.151  28.013   5.397  1.00  0.00     0.000 C 
BRANCH  15  16
ATOM     16  C   UNL     1      46.524  27.883   6.888  1.00  0.00     0.006 C 
BRANCH  16  17
ATOM     17  C   UNL     1      45.998  26.607   7.565  1.00  0.00     0.053 C 
BRANCH  17  18
ATOM     18  C   UNL     1      45.576  26.857   8.981  1.00  0.00     0.041 C 
ATOM     19  O   UNL     1      45.594  25.918   9.820  1.00  0.00    -0.550 OA
ATOM     20  O   UNL     1      45.133  28.115   9.364  1.00  0.00    -0.550 OA
ENDBRANCH  17  18
ENDBRANCH  16  17
ENDBRANCH  15  16
ENDBRANCH  14  15
ENDBRANCH  13  14
ENDBRANCH  12  13
ENDBRANCH  11  12
ENDBRANCH   1  11
TORSDOF 15
ENDMDL
MODEL 4
REMARK VINA RESULT:    -3.719      1.874      3.189
REMARK INTER + INTRA:          -8.425
REMARK INTER:                  -7.775
REMARK INTRA:                  -0.650
REMARK UNBOUND:                -1.445
REMARK SMILES O=C([O-])CCCCCCCCCCCCCCC(=O)[O-]
REMARK SMILES IDX 10 1 9 2 8 3 7 4 6 5 5 6 4 7 2 8 1 9 3 10 11 11 12 12 13 13
REMARK SMILES IDX 14 14 15 15 16 16 17 17 18 18 19 19 20 20
REMARK H PARENT
REMARK Flexibility Score: inf
ROOT
ATOM      1  C   UNL     1      44.373  27.567   1.381  1.00  0.00     0.000 C 
ENDROOT
BRANCH   1   2
ATOM      2  C   UNL     1      44.088  27.123   2.826  1.00  0.00     0.000 C 
BRANCH   2   3
ATOM      3  C   UNL     1      45.318  26.509   3.516  1.00  0.00     0.000 C 
BRANCH   3   4
ATOM      4  C   UNL     1      46.011  27.463   4.512  1.00  0.00     0.000 C 
BRANCH   4   5
ATOM      5  C   UNL     1      46.729  26.703   5.639  1.00  0.00     0.000 C 
BRANCH   5   6
ATOM      6  C   UNL     1      46.301  27.226   7.015  1.00  0.00     0.006 C 
BRANCH   6   7
ATOM      7  C   UNL     1      46.556  26.179   8.104  1.00  0.00     0.053 C 
BRANCH   7   8
ATOM      8  C   UNL     1      45.855  26.559   9.369  1.00  0.00     0.041 C 
ATOM      9  O   UNL     1      45.122  27.582   9.405  1.00  0.00    -0.550 OA
ATOM     10  O   UNL     1      45.975  25.758  10.498  1.00  0.00    -0.550 OA
ENDBRANCH   7   8
ENDBRANCH   6   7
ENDBRANCH   5   6
ENDBRANCH   4   5
ENDBRANCH   3   4
ENDBRANCH   2   3
ENDBRANCH   1   2
BRANCH   1  11
ATOM     11  C   UNL     1      44.845  29.027   1.296  1.00  0.00     0.000 C 
BRANCH  11  12
ATOM     12  C   UNL     1      46.047  29.202   0.353  1.00  0.00     0.000 C 
BRANCH  12  13
ATOM     13  C   UNL     1      46.008  28.240  -0.848  1.00  0.00     0.000 C 
BRANCH  13  14
ATOM     14  C   UNL     1      46.074  28.918  -2.231  1.00  0.00     0.000 C 
BRANCH  14  15
ATOM     15  C   UNL     1      45.815  27.985  -3.431  1.00  0.00     0.000 C 
BRANCH  15  16
ATOM     16  C   UNL     1      45.483  28.703  -4.755  1.00  0.00     0.006 C 
BRANCH  16  17
ATOM     17  C   UNL     1      44.061  29.284  -4.822  1.00  0.00     0.053 C 
BRANCH  17  18
ATOM     18  C   UNL     1      43.134  28.408  -5.608  1.00  0.00     0.041 C 
ATOM     19  O   UNL     1      41.916  28.337  -5.297  1.00  0.00    -0.550 OA
ATOM     20  O   UNL     1      43.621  27.646  -6.662  1.00  0.00    -0.550 OA
ENDBRANCH  17  18
ENDBRANCH  16  17
ENDBRANCH  15  16
ENDBRANCH  14  15
ENDBRANCH  13  14
ENDBRANCH  12  13
ENDBRANCH  11  12
ENDBRANCH   1  11
TORSDOF 15
ENDMDL
MODEL 5
REMARK VINA RESULT:    -3.711      1.839      9.874
REMARK INTER + INTRA:          -8.411
REMARK INTER:                  -7.648
REMARK INTRA:                  -0.763
REMARK UNBOUND:                -1.445
REMARK SMILES O=C([O-])CCCCCCCCCCCCCCC(=O)[O-]
REMARK SMILES IDX 10 1 9 2 8 3 7 4 6 5 5 6 4 7 2 8 1 9 3 10 11 11 12 12 13 13
REMARK SMILES IDX 14 14 15 15 16 16 17 17 18 18 19 19 20 20
REMARK H PARENT
REMARK Flexibility Score: inf
ROOT
ATOM      1  C   UNL     1      44.829  29.033   1.369  1.00  0.00     0.000 C 
ENDROOT
BRANCH   1   2
ATOM      2  C   UNL     1      45.807  29.536   0.293  1.00  0.00     0.000 C 
BRANCH   2   3
ATOM      3  C   UNL     1      46.075  28.493  -0.805  1.00  0.00     0.000 C 
BRANCH   3   4
ATOM      4  C   UNL     1      46.129  29.090  -2.227  1.00  0.00     0.000 C 
BRANCH   4   5
ATOM      5  C   UNL     1      45.742  28.062  -3.303  1.00  0.00     0.000 C 
BRANCH   5   6
ATOM      6  C   UNL     1      45.463  28.750  -4.645  1.00  0.00     0.006 C 
BRANCH   6   7
ATOM      7  C   UNL     1      44.025  29.275  -4.704  1.00  0.00     0.053 C 
BRANCH   7   8
ATOM      8  C   UNL     1      43.152  28.325  -5.460  1.00  0.00     0.041 C 
ATOM      9  O   UNL     1      43.660  27.351  -6.076  1.00  0.00    -0.550 OA
ATOM     10  O   UNL     1      41.772  28.486  -5.445  1.00  0.00    -0.550 OA
ENDBRANCH   7   8
ENDBRANCH   6   7
ENDBRANCH   5   6
ENDBRANCH   4   5
ENDBRANCH   3   4
ENDBRANCH   2   3
ENDBRANCH   1   2
BRANCH   1  11
ATOM     11  C   UNL     1      45.016  27.539   1.681  1.00  0.00     0.000 C 
BRANCH  11  12
ATOM     12  C   UNL     1      44.315  27.119   2.984  1.00  0.00     0.000 C 
BRANCH  12  13
ATOM     13  C   UNL     1      45.067  26.004   3.733  1.00  0.00     0.000 C 
BRANCH  13  14
ATOM     14  C   UNL     1      46.446  26.408   4.293  1.00  0.00     0.000 C 
BRANCH  14  15
ATOM     15  C   UNL     1      46.516  27.820   4.909  1.00  0.00     0.000 C 
BRANCH  15  16
ATOM     16  C   UNL     1      46.241  27.883   6.425  1.00  0.00     0.006 C 
BRANCH  16  17
ATOM     17  C   UNL     1      46.282  26.519   7.134  1.00  0.00     0.053 C 
BRANCH  17  18
ATOM     18  C   UNL     1      45.895  26.625   8.578  1.00  0.00     0.041 C 
ATOM     19  O   UNL     1      46.110  25.665   9.362  1.00  0.00    -0.550 OA
ATOM     20  O   UNL     1      45.268  27.771   9.048  1.00  0.00    -0.550 OA
ENDBRANCH  17  18
ENDBRANCH  16  17
ENDBRANCH  15  16
ENDBRANCH  14  15
ENDBRANCH  13  14
ENDBRANCH  12  13
ENDBRANCH  11  12
ENDBRANCH   1  11
TORSDOF 15
ENDMDL
MODEL 6
REMARK VINA RESULT:    -3.684      1.286      9.451
REMARK INTER + INTRA:          -8.360
REMARK INTER:                  -7.237
REMARK INTRA:                  -1.123
REMARK UNBOUND:                -1.445
REMARK SMILES O=C([O-])CCCCCCCCCCCCCCC(=O)[O-]
REMARK SMILES IDX 10 1 9 2 8 3 7 4 6 5 5 6 4 7 2 8 1 9 3 10 11 11 12 12 13 13
REMARK SMILES IDX 14 14 15 15 16 16 17 17 18 18 19 19 20 20
REMARK H PARENT
REMARK Flexibility Score: inf
ROOT
ATOM      1  C   UNL     1      44.294  27.329   1.496  1.00  0.00     0.000 C 
ENDROOT
BRANCH   1   2
ATOM      2  C   UNL     1      44.982  28.665   1.168  1.00  0.00     0.000 C 
BRANCH   2   3
ATOM      3  C   UNL     1      46.514  28.547   1.099  1.00  0.00     0.000 C 
BRANCH   3   4
ATOM      4  C   UNL     1      47.125  29.132  -0.192  1.00  0.00     0.000 C 
BRANCH   4   5
ATOM      5  C   UNL     1      46.169  29.016  -1.390  1.00  0.00     0.000 C 
BRANCH   5   6
ATOM      6  C   UNL     1      46.793  28.178  -2.512  1.00  0.00     0.006 C 
BRANCH   6   7
ATOM      7  C   UNL     1      45.739  27.297  -3.190  1.00  0.00     0.053 C 
BRANCH   7   8
ATOM      8  C   UNL     1      45.416  27.824  -4.552  1.00  0.00     0.041 C 
ATOM      9  O   UNL     1      44.861  28.947  -4.682  1.00  0.00    -0.550 OA
ATOM     10  O   UNL     1      45.770  27.096  -5.681  1.00  0.00    -0.550 OA
ENDBRANCH   7   8
ENDBRANCH   6   7
ENDBRANCH   5   6
ENDBRANCH   4   5
ENDBRANCH   3   4
ENDBRANCH   2   3
ENDBRANCH   1   2
BRANCH   1  11
ATOM     11  C   UNL     1      44.084  27.132   3.006  1.00  0.00     0.000 C 
BRANCH  11  12
ATOM     12  C   UNL     1      44.905  25.957   3.565  1.00  0.00     0.000 C 
BRANCH  12  13
ATOM     13  C   UNL     1      46.175  26.415   4.304  1.00  0.00     0.000 C 
BRANCH  13  14
ATOM     14  C   UNL     1      46.183  27.897   4.733  1.00  0.00     0.000 C 
BRANCH  14  15
ATOM     15  C   UNL     1      46.945  28.196   6.040  1.00  0.00     0.000 C 
BRANCH  15  16
ATOM     16  C   UNL     1      46.107  28.062   7.328  1.00  0.00     0.006 C 
BRANCH  16  17
ATOM     17  C   UNL     1      46.078  26.644   7.921  1.00  0.00     0.053 C 
BRANCH  17  18
ATOM     18  C   UNL     1      45.632  26.643   9.351  1.00  0.00     0.041 C 
ATOM     19  O   UNL     1      44.933  27.590   9.796  1.00  0.00    -0.550 OA
ATOM     20  O   UNL     1      46.017  25.613  10.199  1.00  0.00    -0.550 OA
ENDBRANCH  17  18
ENDBRANCH  16  17
ENDBRANCH  15  16
ENDBRANCH  14  15
ENDBRANCH  13  14
ENDBRANCH  12  13
ENDBRANCH  11  12
ENDBRANCH   1  11
TORSDOF 15
ENDMDL
MODEL 7
REMARK VINA RESULT:    -3.595      2.771      4.773
REMARK INTER + INTRA:          -8.194
REMARK INTER:                  -7.369
REMARK INTRA:                  -0.825
REMARK UNBOUND:                -1.445
REMARK SMILES O=C([O-])CCCCCCCCCCCCCCC(=O)[O-]
REMARK SMILES IDX 10 1 9 2 8 3 7 4 6 5 5 6 4 7 2 8 1 9 3 10 11 11 12 12 13 13
REMARK SMILES IDX 14 14 15 15 16 16 17 17 18 18 19 19 20 20
REMARK H PARENT
REMARK Flexibility Score: inf
ROOT
ATOM      1  C   UNL     1      45.437  28.255   0.239  1.00  0.00     0.000 C 
ENDROOT
BRANCH   1   2
ATOM      2  C   UNL     1      44.923  29.321   1.223  1.00  0.00     0.000 C 
BRANCH   2   3
ATOM      3  C   UNL     1      44.443  28.721   2.555  1.00  0.00     0.000 C 
BRANCH   3   4
ATOM      4  C   UNL     1      44.016  27.241   2.451  1.00  0.00     0.000 C 
BRANCH   4   5
ATOM      5  C   UNL     1      44.770  26.348   3.449  1.00  0.00     0.000 C 
BRANCH   5   6
ATOM      6  C   UNL     1      46.156  26.924   3.765  1.00  0.00     0.006 C 
BRANCH   6   7
ATOM      7  C   UNL     1      46.735  26.294   5.035  1.00  0.00     0.053 C 
BRANCH   7   8
ATOM      8  C   UNL     1      46.344  27.090   6.239  1.00  0.00     0.041 C 
ATOM      9  O   UNL     1      46.015  26.508   7.306  1.00  0.00    -0.550 OA
ATOM     10  O   UNL     1      46.387  28.479   6.198  1.00  0.00    -0.550 OA
ENDBRANCH   7   8
ENDBRANCH   6   7
ENDBRANCH   5   6
ENDBRANCH   4   5
ENDBRANCH   3   4
ENDBRANCH   2   3
ENDBRANCH   1   2
BRANCH   1  11
ATOM     11  C   UNL     1      46.653  28.738  -0.568  1.00  0.00     0.000 C 
BRANCH  11  12
ATOM     12  C   UNL     1      46.409  28.683  -2.086  1.00  0.00     0.000 C 
BRANCH  12  13
ATOM     13  C   UNL     1      45.999  27.281  -2.574  1.00  0.00     0.000 C 
BRANCH  13  14
ATOM     14  C   UNL     1      45.572  27.203  -4.054  1.00  0.00     0.000 C 
BRANCH  14  15
ATOM     15  C   UNL     1      44.885  28.469  -4.605  1.00  0.00     0.000 C 
BRANCH  15  16
ATOM     16  C   UNL     1      44.299  28.326  -6.025  1.00  0.00     0.006 C 
BRANCH  16  17
ATOM     17  C   UNL     1      43.354  29.465  -6.439  1.00  0.00     0.053 C 
BRANCH  17  18
ATOM     18  C   UNL     1      41.922  29.143  -6.141  1.00  0.00     0.041 C 
ATOM     19  O   UNL     1      40.999  29.801  -6.689  1.00  0.00    -0.550 OA
ATOM     20  O   UNL     1      41.608  28.140  -5.234  1.00  0.00    -0.550 OA
ENDBRANCH  17  18
ENDBRANCH  16  17
ENDBRANCH  15  16
ENDBRANCH  14  15
ENDBRANCH  13  14
ENDBRANCH  12  13
ENDBRANCH  11  12
ENDBRANCH   1  11
TORSDOF 15
ENDMDL
MODEL 8
REMARK VINA RESULT:    -3.584      1.840      9.567
REMARK INTER + INTRA:          -8.173
REMARK INTER:                  -7.602
REMARK INTRA:                  -0.571
REMARK UNBOUND:                -1.445
REMARK SMILES O=C([O-])CCCCCCCCCCCCCCC(=O)[O-]
REMARK SMILES IDX 10 1 9 2 8 3 7 4 6 5 5 6 4 7 2 8 1 9 3 10 11 11 12 12 13 13
REMARK SMILES IDX 14 14 15 15 16 16 17 17 18 18 19 19 20 20
REMARK H PARENT
REMARK Flexibility Score: inf
ROOT
ATOM      1  C   UNL     1      43.753  27.145   2.671  1.00  0.00     0.000 C 
ENDROOT
BRANCH   1   2
ATOM      2  C   UNL     1      44.350  28.334   1.897  1.00  0.00     0.000 C 
BRANCH   2   3
ATOM      3  C   UNL     1      45.234  27.895   0.718  1.00  0.00     0.000 C 
BRANCH   3   4
ATOM      4  C   UNL     1      45.848  29.072  -0.069  1.00  0.00     0.000 C 
BRANCH   4   5
ATOM      5  C   UNL     1      46.872  28.601  -1.113  1.00  0.00     0.000 C 
BRANCH   5   6
ATOM      6  C   UNL     1      46.273  28.631  -2.524  1.00  0.00     0.006 C 
BRANCH   6   7
ATOM      7  C   UNL     1      46.329  27.245  -3.174  1.00  0.00     0.053 C 
BRANCH   7   8
ATOM      8  C   UNL     1      45.658  27.267  -4.510  1.00  0.00     0.041 C 
ATOM      9  O   UNL     1      44.435  26.984  -4.611  1.00  0.00    -0.550 OA
ATOM     10  O   UNL     1      46.372  27.645  -5.641  1.00  0.00    -0.550 OA
ENDBRANCH   7   8
ENDBRANCH   6   7
ENDBRANCH   5   6
ENDBRANCH   4   5
ENDBRANCH   3   4
ENDBRANCH   2   3
ENDBRANCH   1   2
BRANCH   1  11
ATOM     11  C   UNL     1      44.828  26.303   3.376  1.00  0.00     0.000 C 
BRANCH  11  12
ATOM     12  C   UNL     1      45.811  27.164   4.188  1.00  0.00     0.000 C 
BRANCH  12  13
ATOM     13  C   UNL     1      46.620  26.345   5.209  1.00  0.00     0.000 C 
BRANCH  13  14
ATOM     14  C   UNL     1      47.114  27.136   6.437  1.00  0.00     0.000 C 
BRANCH  14  15
ATOM     15  C   UNL     1      46.930  26.424   7.792  1.00  0.00     0.000 C 
BRANCH  15  16
ATOM     16  C   UNL     1      45.570  26.669   8.477  1.00  0.00     0.006 C 
BRANCH  16  17
ATOM     17  C   UNL     1      45.609  27.705   9.612  1.00  0.00     0.053 C 
BRANCH  17  18
ATOM     18  C   UNL     1      45.095  29.041   9.169  1.00  0.00     0.041 C 
ATOM     19  O   UNL     1      45.281  29.430   7.986  1.00  0.00    -0.550 OA
ATOM     20  O   UNL     1      44.442  29.869  10.072  1.00  0.00    -0.550 OA
ENDBRANCH  17  18
ENDBRANCH  16  17
ENDBRANCH  15  16
ENDBRANCH  14  15
ENDBRANCH  13  14
ENDBRANCH  12  13
ENDBRANCH  11  12
ENDBRANCH   1  11
TORSDOF 15
ENDMDL
MODEL 9
REMARK VINA RESULT:    -3.486      4.609     10.019
REMARK INTER + INTRA:          -7.987
REMARK INTER:                  -6.581
REMARK INTRA:                  -1.407
REMARK UNBOUND:                -1.445
REMARK SMILES O=C([O-])CCCCCCCCCCCCCCC(=O)[O-]
REMARK SMILES IDX 10 1 9 2 8 3 7 4 6 5 5 6 4 7 2 8 1 9 3 10 11 11 12 12 13 13
REMARK SMILES IDX 14 14 15 15 16 16 17 17 18 18 19 19 20 20
REMARK H PARENT
REMARK Flexibility Score: inf
ROOT
ATOM      1  C   UNL     1      45.845  27.417  -3.020  1.00  0.00     0.000 C 
ENDROOT
BRANCH   1   2
ATOM      2  C   UNL     1      45.629  27.092  -4.508  1.00  0.00     0.000 C 
BRANCH   2   3
ATOM      3  C   UNL     1      46.520  27.934  -5.438  1.00  0.00     0.000 C 
BRANCH   3   4
ATOM      4  C   UNL     1      45.917  28.154  -6.842  1.00  0.00     0.000 C 
BRANCH   4   5
ATOM      5  C   UNL     1      44.478  28.690  -6.778  1.00  0.00     0.000 C 
BRANCH   5   6
ATOM      6  C   UNL     1      44.408  29.982  -5.955  1.00  0.00     0.006 C 
BRANCH   6   7
ATOM      7  C   UNL     1      43.260  29.926  -4.942  1.00  0.00     0.053 C 
BRANCH   7   8
ATOM      8  C   UNL     1      42.030  29.360  -5.578  1.00  0.00     0.041 C 
ATOM      9  O   UNL     1      41.629  28.208  -5.268  1.00  0.00    -0.550 OA
ATOM     10  O   UNL     1      41.299  30.125  -6.479  1.00  0.00    -0.550 OA
ENDBRANCH   7   8
ENDBRANCH   6   7
ENDBRANCH   5   6
ENDBRANCH   4   5
ENDBRANCH   3   4
ENDBRANCH   2   3
ENDBRANCH   1   2
BRANCH   1  11
ATOM     11  C   UNL     1      46.661  28.703  -2.811  1.00  0.00     0.000 C 
BRANCH  11  12
ATOM     12  C   UNL     1      45.907  29.746  -1.970  1.00  0.00     0.000 C 
BRANCH  12  13
ATOM     13  C   UNL     1      46.627  30.084  -0.652  1.00  0.00     0.000 C 
BRANCH  13  14
ATOM     14  C   UNL     1      45.843  29.733   0.629  1.00  0.00     0.000 C 
BRANCH  14  15
ATOM     15  C   UNL     1      45.883  28.246   1.035  1.00  0.00     0.000 C 
BRANCH  15  16
ATOM     16  C   UNL     1      44.529  27.512   0.953  1.00  0.00     0.006 C 
BRANCH  16  17
ATOM     17  C   UNL     1      43.775  27.421   2.290  1.00  0.00     0.053 C 
BRANCH  17  18
ATOM     18  C   UNL     1      42.656  28.414   2.371  1.00  0.00     0.041 C 
ATOM     19  O   UNL     1      42.901  29.648   2.332  1.00  0.00    -0.550 OA
ATOM     20  O   UNL     1      41.346  27.977   2.524  1.00  0.00    -0.550 OA
ENDBRANCH  17  18
ENDBRANCH  16  17
ENDBRANCH  15  16
ENDBRANCH  14  15
ENDBRANCH  13  14
ENDBRANCH  12  13
ENDBRANCH  11  12
ENDBRANCH   1  11
TORSDOF 15
ENDMDL
