MODEL 1
REMARK VINA RESULT:    -4.512      0.000      0.000
REMARK INTER + INTRA:         -15.678
REMARK INTER:                 -11.371
REMARK INTRA:                  -4.307
REMARK UNBOUND:                -4.307
REMARK SMILES CCCCCCCCCCCCCCCCCCCCCCCCCCCC(=O)[O-]
REMARK SMILES IDX 15 1 16 2 17 3 18 4 19 5 20 6 21 7 22 8 23 9 24 10 25 11
REMARK SMILES IDX 26 12 27 13 28 14 29 15 30 16 14 17 13 18 12 19 11 20 10 21
REMARK SMILES IDX 9 22 8 23 7 24 6 25 5 26 4 27 3 28 2 29 1 30
REMARK H PARENT
REMARK Flexibility Score: inf
ROOT
ATOM      1  C   UNL     1      11.389  15.344  24.489  1.00  0.00     0.000 C 
ENDROOT
BRANCH   1   2
ATOM      2  C   UNL     1      11.473  15.668  22.988  1.00  0.00     0.000 C 
BRANCH   2   3
ATOM      3  C   UNL     1      10.121  15.525  22.260  1.00  0.00     0.000 C 
BRANCH   3   4
ATOM      4  C   UNL     1       9.370  14.206  22.532  1.00  0.00     0.000 C 
BRANCH   4   5
ATOM      5  C   UNL     1       7.860  14.302  22.257  1.00  0.00     0.000 C 
BRANCH   5   6
ATOM      6  C   UNL     1       7.064  13.420  23.226  1.00  0.00     0.000 C 
BRANCH   6   7
ATOM      7  C   UNL     1       6.545  12.160  22.521  1.00  0.00     0.000 C 
BRANCH   7   8
ATOM      8  C   UNL     1       7.309  10.914  22.984  1.00  0.00     0.000 C 
BRANCH   8   9
ATOM      9  C   UNL     1       8.367  10.499  21.949  1.00  0.00     0.000 C 
BRANCH   9  10
ATOM     10  C   UNL     1       8.081  11.066  20.549  1.00  0.00     0.000 C 
BRANCH  10  11
ATOM     11  C   UNL     1       9.361  11.436  19.786  1.00  0.00     0.000 C 
BRANCH  11  12
ATOM     12  C   UNL     1      10.595  11.306  20.692  1.00  0.00     0.006 C 
BRANCH  12  13
ATOM     13  C   UNL     1      11.767  12.169  20.206  1.00  0.00     0.053 C 
BRANCH  13  14
ATOM     14  C   UNL     1      12.632  12.621  21.343  1.00  0.00     0.041 C 
ATOM     15  O   UNL     1      13.653  13.324  21.121  1.00  0.00    -0.550 OA
ATOM     16  O   UNL     1      12.331  12.236  22.644  1.00  0.00    -0.550 OA
ENDBRANCH  13  14
ENDBRANCH  12  13
ENDBRANCH  11  12
ENDBRANCH  10  11
ENDBRANCH   9  10
ENDBRANCH   8   9
ENDBRANCH   7   8
ENDBRANCH   6   7
ENDBRANCH   5   6
ENDBRANCH   4   5
ENDBRANCH   3   4
ENDBRANCH   2   3
ENDBRANCH   1   2
BRANCH   1  17
ATOM     17  C   UNL     1      12.497  16.022  25.314  1.00  0.00     0.000 C 
BRANCH  17  18
ATOM     18  C   UNL     1      13.529  16.802  24.474  1.00  0.00     0.000 C 
BRANCH  18  19
ATOM     19  C   UNL     1      13.596  18.294  24.854  1.00  0.00     0.000 C 
BRANCH  19  20
ATOM     20  C   UNL     1      12.257  18.824  25.393  1.00  0.00     0.000 C 
BRANCH  20  21
ATOM     21  C   UNL     1      11.389  19.444  24.286  1.00  0.00     0.000 C 
BRANCH  21  22
ATOM     22  C   UNL     1      12.257  19.942  23.120  1.00  0.00    -0.000 C 
BRANCH  22  23
ATOM     23  C   UNL     1      12.021  19.145  21.826  1.00  0.00    -0.000 C 
BRANCH  23  24
ATOM     24  C   UNL     1      13.328  18.611  21.218  1.00  0.00    -0.000 C 
BRANCH  24  25
ATOM     25  C   UNL     1      14.489  19.581  21.467  1.00  0.00    -0.000 C 
BRANCH  25  26
ATOM     26  C   UNL     1      15.462  19.586  20.280  1.00  0.00    -0.000 C 
BRANCH  26  27
ATOM     27  C   UNL     1      14.794  20.146  19.019  1.00  0.00    -0.000 C 
BRANCH  27  28
ATOM     28  C   UNL     1      14.266  21.564  19.263  1.00  0.00    -0.000 C 
BRANCH  28  29
ATOM     29  C   UNL     1      12.751  21.634  19.041  1.00  0.00    -0.003 C 
ATOM     30  C   UNL     1      12.079  22.502  20.102  1.00  0.00     0.004 C 
ENDBRANCH  28  29
ENDBRANCH  27  28
ENDBRANCH  26  27
ENDBRANCH  25  26
ENDBRANCH  24  25
ENDBRANCH  23  24
ENDBRANCH  22  23
ENDBRANCH  21  22
ENDBRANCH  20  21
ENDBRANCH  19  20
ENDBRANCH  18  19
ENDBRANCH  17  18
ENDBRANCH   1  17
TORSDOF 26
ENDMDL
MODEL 2
REMARK VINA RESULT:    -4.485      2.477      3.253
REMARK INTER + INTRA:         -15.610
REMARK INTER:                 -12.196
REMARK INTRA:                  -3.414
REMARK UNBOUND:                -4.307
REMARK SMILES CCCCCCCCCCCCCCCCCCCCCCCCCCCC(=O)[O-]
REMARK SMILES IDX 15 1 16 2 17 3 18 4 19 5 20 6 21 7 22 8 23 9 24 10 25 11
REMARK SMILES IDX 26 12 27 13 28 14 29 15 30 16 14 17 13 18 12 19 11 20 10 21
REMARK SMILES IDX 9 22 8 23 7 24 6 25 5 26 4 27 3 28 2 29 1 30
REMARK H PARENT
REMARK Flexibility Score: inf
ROOT
ATOM      1  C   UNL     1      11.497  13.916  22.638  1.00  0.00     0.000 C 
ENDROOT
BRANCH   1   2
ATOM      2  C   UNL     1      10.065  13.355  22.584  1.00  0.00     0.000 C 
BRANCH   2   3
ATOM      3  C   UNL     1       9.005  14.427  22.261  1.00  0.00     0.000 C 
BRANCH   3   4
ATOM      4  C   UNL     1       7.591  13.883  21.980  1.00  0.00     0.000 C 
BRANCH   4   5
ATOM      5  C   UNL     1       6.882  13.360  23.240  1.00  0.00     0.000 C 
BRANCH   5   6
ATOM      6  C   UNL     1       6.335  11.945  23.022  1.00  0.00     0.000 C 
BRANCH   6   7
ATOM      7  C   UNL     1       6.787  11.386  21.667  1.00  0.00     0.000 C 
BRANCH   7   8
ATOM      8  C   UNL     1       7.757  10.212  21.850  1.00  0.00     0.000 C 
BRANCH   8   9
ATOM      9  C   UNL     1       8.947  10.324  20.882  1.00  0.00     0.000 C 
BRANCH   9  10
ATOM     10  C   UNL     1       8.645  11.223  19.673  1.00  0.00     0.000 C 
BRANCH  10  11
ATOM     11  C   UNL     1       9.892  11.947  19.145  1.00  0.00     0.000 C 
BRANCH  11  12
ATOM     12  C   UNL     1      10.319  11.378  17.784  1.00  0.00     0.006 C 
BRANCH  12  13
ATOM     13  C   UNL     1      10.612  12.481  16.758  1.00  0.00     0.053 C 
BRANCH  13  14
ATOM     14  C   UNL     1      10.256  12.054  15.367  1.00  0.00     0.041 C 
ATOM     15  O   UNL     1       9.888  10.871  15.142  1.00  0.00    -0.550 OA
ATOM     16  O   UNL     1      10.363  12.953  14.312  1.00  0.00    -0.550 OA
ENDBRANCH  13  14
ENDBRANCH  12  13
ENDBRANCH  11  12
ENDBRANCH  10  11
ENDBRANCH   9  10
ENDBRANCH   8   9
ENDBRANCH   7   8
ENDBRANCH   6   7
ENDBRANCH   5   6
ENDBRANCH   4   5
ENDBRANCH   3   4
ENDBRANCH   2   3
ENDBRANCH   1   2
BRANCH   1  17
ATOM     17  C   UNL     1      12.010  14.117  24.074  1.00  0.00     0.000 C 
BRANCH  17  18
ATOM     18  C   UNL     1      11.492  15.396  24.763  1.00  0.00     0.000 C 
BRANCH  18  19
ATOM     19  C   UNL     1      11.531  16.626  23.836  1.00  0.00     0.000 C 
BRANCH  19  20
ATOM     20  C   UNL     1      11.744  17.938  24.609  1.00  0.00     0.000 C 
BRANCH  20  21
ATOM     21  C   UNL     1      13.176  18.066  25.154  1.00  0.00     0.000 C 
BRANCH  21  22
ATOM     22  C   UNL     1      14.210  17.832  24.041  1.00  0.00    -0.000 C 
BRANCH  22  23
ATOM     23  C   UNL     1      14.633  19.137  23.345  1.00  0.00    -0.000 C 
BRANCH  23  24
ATOM     24  C   UNL     1      14.715  18.987  21.817  1.00  0.00    -0.000 C 
BRANCH  24  25
ATOM     25  C   UNL     1      13.866  17.805  21.332  1.00  0.00    -0.000 C 
BRANCH  25  26
ATOM     26  C   UNL     1      12.755  18.281  20.387  1.00  0.00    -0.000 C 
BRANCH  26  27
ATOM     27  C   UNL     1      11.750  19.176  21.122  1.00  0.00    -0.000 C 
BRANCH  27  28
ATOM     28  C   UNL     1      11.569  20.510  20.390  1.00  0.00    -0.000 C 
BRANCH  28  29
ATOM     29  C   UNL     1      11.547  21.682  21.378  1.00  0.00    -0.003 C 
ATOM     30  C   UNL     1      11.450  23.018  20.645  1.00  0.00     0.004 C 
ENDBRANCH  28  29
ENDBRANCH  27  28
ENDBRANCH  26  27
ENDBRANCH  25  26
ENDBRANCH  24  25
ENDBRANCH  23  24
ENDBRANCH  22  23
ENDBRANCH  21  22
ENDBRANCH  20  21
ENDBRANCH  19  20
ENDBRANCH  18  19
ENDBRANCH  17  18
ENDBRANCH   1  17
TORSDOF 26
ENDMDL
MODEL 3
REMARK VINA RESULT:    -4.485      4.743      8.065
REMARK INTER + INTRA:         -15.608
REMARK INTER:                 -10.367
REMARK INTRA:                  -5.241
REMARK UNBOUND:                -4.307
REMARK SMILES CCCCCCCCCCCCCCCCCCCCCCCCCCCC(=O)[O-]
REMARK SMILES IDX 15 1 16 2 17 3 18 4 19 5 20 6 21 7 22 8 23 9 24 10 25 11
REMARK SMILES IDX 26 12 27 13 28 14 29 15 30 16 14 17 13 18 12 19 11 20 10 21
REMARK SMILES IDX 9 22 8 23 7 24 6 25 5 26 4 27 3 28 2 29 1 30
REMARK H PARENT
REMARK Flexibility Score: inf
ROOT
ATOM      1  C   UNL     1      12.099  18.049  20.733  1.00  0.00     0.000 C 
ENDROOT
BRANCH   1   2
ATOM      2  C   UNL     1      10.949  17.765  21.715  1.00  0.00     0.000 C 
BRANCH   2   3
ATOM      3  C   UNL     1      11.301  16.694  22.767  1.00  0.00     0.000 C 
BRANCH   3   4
ATOM      4  C   UNL     1      11.498  17.227  24.200  1.00  0.00     0.000 C 
BRANCH   4   5
ATOM      5  C   UNL     1      12.793  16.727  24.859  1.00  0.00     0.000 C 
BRANCH   5   6
ATOM      6  C   UNL     1      14.030  17.291  24.150  1.00  0.00     0.000 C 
BRANCH   6   7
ATOM      7  C   UNL     1      14.035  18.825  24.194  1.00  0.00     0.000 C 
BRANCH   7   8
ATOM      8  C   UNL     1      14.550  19.414  22.875  1.00  0.00     0.000 C 
BRANCH   8   9
ATOM      9  C   UNL     1      13.870  20.759  22.570  1.00  0.00     0.000 C 
BRANCH   9  10
ATOM     10  C   UNL     1      12.408  20.805  23.041  1.00  0.00     0.000 C 
BRANCH  10  11
ATOM     11  C   UNL     1      11.742  22.163  22.777  1.00  0.00     0.000 C 
BRANCH  11  12
ATOM     12  C   UNL     1      11.297  22.278  21.312  1.00  0.00     0.006 C 
BRANCH  12  13
ATOM     13  C   UNL     1      11.340  23.724  20.801  1.00  0.00     0.053 C 
BRANCH  13  14
ATOM     14  C   UNL     1       9.971  24.327  20.726  1.00  0.00     0.041 C 
ATOM     15  O   UNL     1       9.807  25.466  20.213  1.00  0.00    -0.550 OA
ATOM     16  O   UNL     1       8.879  23.648  21.256  1.00  0.00    -0.550 OA
ENDBRANCH  13  14
ENDBRANCH  12  13
ENDBRANCH  11  12
ENDBRANCH  10  11
ENDBRANCH   9  10
ENDBRANCH   8   9
ENDBRANCH   7   8
ENDBRANCH   6   7
ENDBRANCH   5   6
ENDBRANCH   4   5
ENDBRANCH   3   4
ENDBRANCH   2   3
ENDBRANCH   1   2
BRANCH   1  17
ATOM     17  C   UNL     1      11.760  19.150  19.713  1.00  0.00     0.000 C 
BRANCH  17  18
ATOM     18  C   UNL     1      12.982  19.723  18.965  1.00  0.00     0.000 C 
BRANCH  18  19
ATOM     19  C   UNL     1      14.202  18.783  19.016  1.00  0.00     0.000 C 
BRANCH  19  20
ATOM     20  C   UNL     1      15.522  19.546  19.209  1.00  0.00     0.000 C 
BRANCH  20  21
ATOM     21  C   UNL     1      15.302  21.060  19.363  1.00  0.00     0.000 C 
BRANCH  21  22
ATOM     22  C   UNL     1      15.884  21.825  18.165  1.00  0.00    -0.000 C 
BRANCH  22  23
ATOM     23  C   UNL     1      15.315  23.250  18.042  1.00  0.00    -0.000 C 
BRANCH  23  24
ATOM     24  C   UNL     1      13.781  23.264  17.959  1.00  0.00    -0.000 C 
BRANCH  24  25
ATOM     25  C   UNL     1      13.293  22.636  16.647  1.00  0.00    -0.000 C 
BRANCH  25  26
ATOM     26  C   UNL     1      11.809  22.947  16.411  1.00  0.00    -0.000 C 
BRANCH  26  27
ATOM     27  C   UNL     1      10.937  22.373  17.533  1.00  0.00    -0.000 C 
BRANCH  27  28
ATOM     28  C   UNL     1       9.483  22.837  17.389  1.00  0.00    -0.000 C 
BRANCH  28  29
ATOM     29  C   UNL     1       8.512  21.659  17.528  1.00  0.00    -0.003 C 
ATOM     30  C   UNL     1       8.726  20.922  18.847  1.00  0.00     0.004 C 
ENDBRANCH  28  29
ENDBRANCH  27  28
ENDBRANCH  26  27
ENDBRANCH  25  26
ENDBRANCH  24  25
ENDBRANCH  23  24
ENDBRANCH  22  23
ENDBRANCH  21  22
ENDBRANCH  20  21
ENDBRANCH  19  20
ENDBRANCH  18  19
ENDBRANCH  17  18
ENDBRANCH   1  17
TORSDOF 26
ENDMDL
MODEL 4
REMARK VINA RESULT:    -4.459      1.217      2.016
REMARK INTER + INTRA:         -15.544
REMARK INTER:                 -11.563
REMARK INTRA:                  -3.981
REMARK UNBOUND:                -4.307
REMARK SMILES CCCCCCCCCCCCCCCCCCCCCCCCCCCC(=O)[O-]
REMARK SMILES IDX 15 1 16 2 17 3 18 4 19 5 20 6 21 7 22 8 23 9 24 10 25 11
REMARK SMILES IDX 26 12 27 13 28 14 29 15 30 16 14 17 13 18 12 19 11 20 10 21
REMARK SMILES IDX 9 22 8 23 7 24 6 25 5 26 4 27 3 28 2 29 1 30
REMARK H PARENT
REMARK Flexibility Score: inf
ROOT
ATOM      1  C   UNL     1      11.481  15.219  22.844  1.00  0.00     0.000 C 
ENDROOT
BRANCH   1   2
ATOM      2  C   UNL     1      10.076  15.173  22.219  1.00  0.00     0.000 C 
BRANCH   2   3
ATOM      3  C   UNL     1       9.276  13.917  22.619  1.00  0.00     0.000 C 
BRANCH   3   4
ATOM      4  C   UNL     1       7.803  13.909  22.163  1.00  0.00     0.000 C 
BRANCH   4   5
ATOM      5  C   UNL     1       6.837  13.402  23.246  1.00  0.00     0.000 C 
BRANCH   5   6
ATOM      6  C   UNL     1       6.316  12.000  22.910  1.00  0.00     0.000 C 
BRANCH   6   7
ATOM      7  C   UNL     1       6.877  11.513  21.568  1.00  0.00     0.000 C 
BRANCH   7   8
ATOM      8  C   UNL     1       7.675  10.215  21.741  1.00  0.00     0.000 C 
BRANCH   8   9
ATOM      9  C   UNL     1       8.821  10.132  20.719  1.00  0.00     0.000 C 
BRANCH   9  10
ATOM     10  C   UNL     1       8.737  11.227  19.645  1.00  0.00     0.000 C 
BRANCH  10  11
ATOM     11  C   UNL     1      10.046  12.016  19.498  1.00  0.00     0.000 C 
BRANCH  11  12
ATOM     12  C   UNL     1      11.068  11.582  20.559  1.00  0.00     0.006 C 
BRANCH  12  13
ATOM     13  C   UNL     1      12.427  12.269  20.375  1.00  0.00     0.053 C 
BRANCH  13  14
ATOM     14  C   UNL     1      13.411  11.843  21.420  1.00  0.00     0.041 C 
ATOM     15  O   UNL     1      14.172  12.691  21.957  1.00  0.00    -0.550 OA
ATOM     16  O   UNL     1      13.514  10.504  21.778  1.00  0.00    -0.550 OA
ENDBRANCH  13  14
ENDBRANCH  12  13
ENDBRANCH  11  12
ENDBRANCH  10  11
ENDBRANCH   9  10
ENDBRANCH   8   9
ENDBRANCH   7   8
ENDBRANCH   6   7
ENDBRANCH   5   6
ENDBRANCH   4   5
ENDBRANCH   3   4
ENDBRANCH   2   3
ENDBRANCH   1   2
BRANCH   1  17
ATOM     17  C   UNL     1      11.460  15.127  24.379  1.00  0.00     0.000 C 
BRANCH  17  18
ATOM     18  C   UNL     1      11.708  16.467  25.102  1.00  0.00     0.000 C 
BRANCH  18  19
ATOM     19  C   UNL     1      11.256  17.682  24.268  1.00  0.00     0.000 C 
BRANCH  19  20
ATOM     20  C   UNL     1      12.086  18.941  24.568  1.00  0.00     0.000 C 
BRANCH  20  21
ATOM     21  C   UNL     1      13.551  18.608  24.898  1.00  0.00     0.000 C 
BRANCH  21  22
ATOM     22  C   UNL     1      14.317  18.190  23.635  1.00  0.00    -0.000 C 
BRANCH  22  23
ATOM     23  C   UNL     1      14.413  19.325  22.601  1.00  0.00    -0.000 C 
BRANCH  23  24
ATOM     24  C   UNL     1      14.213  18.826  21.161  1.00  0.00    -0.000 C 
BRANCH  24  25
ATOM     25  C   UNL     1      12.878  18.084  21.014  1.00  0.00    -0.000 C 
BRANCH  25  26
ATOM     26  C   UNL     1      11.726  19.070  20.784  1.00  0.00    -0.000 C 
BRANCH  26  27
ATOM     27  C   UNL     1      12.202  20.307  20.014  1.00  0.00    -0.000 C 
BRANCH  27  28
ATOM     28  C   UNL     1      11.520  21.576  20.539  1.00  0.00    -0.000 C 
BRANCH  28  29
ATOM     29  C   UNL     1      11.591  21.648  22.068  1.00  0.00    -0.003 C 
ATOM     30  C   UNL     1      10.936  22.923  22.590  1.00  0.00     0.004 C 
ENDBRANCH  28  29
ENDBRANCH  27  28
ENDBRANCH  26  27
ENDBRANCH  25  26
ENDBRANCH  24  25
ENDBRANCH  23  24
ENDBRANCH  22  23
ENDBRANCH  21  22
ENDBRANCH  20  21
ENDBRANCH  19  20
ENDBRANCH  18  19
ENDBRANCH  17  18
ENDBRANCH   1  17
TORSDOF 26
ENDMDL
MODEL 5
REMARK VINA RESULT:    -4.448      2.654      8.249
REMARK INTER + INTRA:         -15.517
REMARK INTER:                 -11.477
REMARK INTRA:                  -4.040
REMARK UNBOUND:                -4.307
REMARK SMILES CCCCCCCCCCCCCCCCCCCCCCCCCCCC(=O)[O-]
REMARK SMILES IDX 15 1 16 2 17 3 18 4 19 5 20 6 21 7 22 8 23 9 24 10 25 11
REMARK SMILES IDX 26 12 27 13 28 14 29 15 30 16 14 17 13 18 12 19 11 20 10 21
REMARK SMILES IDX 9 22 8 23 7 24 6 25 5 26 4 27 3 28 2 29 1 30
REMARK H PARENT
REMARK Flexibility Score: inf
ROOT
ATOM      1  C   UNL     1      10.332  15.071  22.350  1.00  0.00     0.000 C 
ENDROOT
BRANCH   1   2
ATOM      2  C   UNL     1      11.458  14.753  23.349  1.00  0.00     0.000 C 
BRANCH   2   3
ATOM      3  C   UNL     1      11.352  15.558  24.659  1.00  0.00     0.000 C 
BRANCH   3   4
ATOM      4  C   UNL     1      12.696  16.044  25.237  1.00  0.00     0.000 C 
BRANCH   4   5
ATOM      5  C   UNL     1      12.631  17.472  25.802  1.00  0.00     0.000 C 
BRANCH   5   6
ATOM      6  C   UNL     1      12.868  18.514  24.702  1.00  0.00     0.000 C 
BRANCH   6   7
ATOM      7  C   UNL     1      14.309  18.443  24.181  1.00  0.00     0.000 C 
BRANCH   7   8
ATOM      8  C   UNL     1      14.351  18.562  22.653  1.00  0.00     0.000 C 
BRANCH   8   9
ATOM      9  C   UNL     1      13.651  17.366  21.987  1.00  0.00     0.000 C 
BRANCH   9  10
ATOM     10  C   UNL     1      12.756  17.784  20.810  1.00  0.00     0.000 C 
BRANCH  10  11
ATOM     11  C   UNL     1      11.594  18.690  21.240  1.00  0.00     0.000 C 
BRANCH  11  12
ATOM     12  C   UNL     1      11.466  19.897  20.300  1.00  0.00     0.006 C 
BRANCH  12  13
ATOM     13  C   UNL     1      12.379  21.059  20.713  1.00  0.00     0.053 C 
BRANCH  13  14
ATOM     14  C   UNL     1      11.878  21.750  21.944  1.00  0.00     0.041 C 
ATOM     15  O   UNL     1      12.453  21.571  23.050  1.00  0.00    -0.550 OA
ATOM     16  O   UNL     1      10.752  22.563  21.877  1.00  0.00    -0.550 OA
ENDBRANCH  13  14
ENDBRANCH  12  13
ENDBRANCH  11  12
ENDBRANCH  10  11
ENDBRANCH   9  10
ENDBRANCH   8   9
ENDBRANCH   7   8
ENDBRANCH   6   7
ENDBRANCH   5   6
ENDBRANCH   4   5
ENDBRANCH   3   4
ENDBRANCH   2   3
ENDBRANCH   1   2
BRANCH   1  17
ATOM     17  C   UNL     1       9.329  13.916  22.187  1.00  0.00     0.000 C 
BRANCH  17  18
ATOM     18  C   UNL     1       7.848  14.344  22.252  1.00  0.00     0.000 C 
BRANCH  18  19
ATOM     19  C   UNL     1       7.009  13.436  23.171  1.00  0.00     0.000 C 
BRANCH  19  20
ATOM     20  C   UNL     1       6.607  12.119  22.487  1.00  0.00     0.000 C 
BRANCH  20  21
ATOM     21  C   UNL     1       7.502  10.944  22.914  1.00  0.00     0.000 C 
BRANCH  21  22
ATOM     22  C   UNL     1       8.302  10.401  21.721  1.00  0.00    -0.000 C 
BRANCH  22  23
ATOM     23  C   UNL     1       7.993  11.151  20.413  1.00  0.00    -0.000 C 
BRANCH  23  24
ATOM     24  C   UNL     1       8.962  10.780  19.280  1.00  0.00    -0.000 C 
BRANCH  24  25
ATOM     25  C   UNL     1      10.080  11.822  19.146  1.00  0.00    -0.000 C 
BRANCH  25  26
ATOM     26  C   UNL     1      11.428  11.238  19.589  1.00  0.00    -0.000 C 
BRANCH  26  27
ATOM     27  C   UNL     1      12.042  12.064  20.724  1.00  0.00    -0.000 C 
BRANCH  27  28
ATOM     28  C   UNL     1      13.555  12.219  20.533  1.00  0.00    -0.000 C 
BRANCH  28  29
ATOM     29  C   UNL     1      14.018  13.629  20.917  1.00  0.00    -0.003 C 
ATOM     30  C   UNL     1      14.513  14.397  19.695  1.00  0.00     0.004 C 
ENDBRANCH  28  29
ENDBRANCH  27  28
ENDBRANCH  26  27
ENDBRANCH  25  26
ENDBRANCH  24  25
ENDBRANCH  23  24
ENDBRANCH  22  23
ENDBRANCH  21  22
ENDBRANCH  20  21
ENDBRANCH  19  20
ENDBRANCH  18  19
ENDBRANCH  17  18
ENDBRANCH   1  17
TORSDOF 26
ENDMDL
MODEL 6
REMARK VINA RESULT:    -4.419      2.358      8.069
REMARK INTER + INTRA:         -15.444
REMARK INTER:                 -10.990
REMARK INTRA:                  -4.454
REMARK UNBOUND:                -4.307
REMARK SMILES CCCCCCCCCCCCCCCCCCCCCCCCCCCC(=O)[O-]
REMARK SMILES IDX 15 1 16 2 17 3 18 4 19 5 20 6 21 7 22 8 23 9 24 10 25 11
REMARK SMILES IDX 26 12 27 13 28 14 29 15 30 16 14 17 13 18 12 19 11 20 10 21
REMARK SMILES IDX 9 22 8 23 7 24 6 25 5 26 4 27 3 28 2 29 1 30
REMARK H PARENT
REMARK Flexibility Score: inf
ROOT
ATOM      1  C   UNL     1       9.990  15.536  22.258  1.00  0.00     0.000 C 
ENDROOT
BRANCH   1   2
ATOM      2  C   UNL     1      11.522  15.453  22.367  1.00  0.00     0.000 C 
BRANCH   2   3
ATOM      3  C   UNL     1      12.010  15.078  23.780  1.00  0.00     0.000 C 
BRANCH   3   4
ATOM      4  C   UNL     1      13.190  15.918  24.307  1.00  0.00     0.000 C 
BRANCH   4   5
ATOM      5  C   UNL     1      12.874  16.645  25.625  1.00  0.00     0.000 C 
BRANCH   5   6
ATOM      6  C   UNL     1      12.782  18.160  25.414  1.00  0.00     0.000 C 
BRANCH   6   7
ATOM      7  C   UNL     1      11.381  18.562  24.935  1.00  0.00     0.000 C 
BRANCH   7   8
ATOM      8  C   UNL     1      11.431  19.842  24.091  1.00  0.00     0.000 C 
BRANCH   8   9
ATOM      9  C   UNL     1      12.767  19.952  23.337  1.00  0.00     0.000 C 
BRANCH   9  10
ATOM     10  C   UNL     1      12.582  20.023  21.812  1.00  0.00     0.000 C 
BRANCH  10  11
ATOM     11  C   UNL     1      12.545  18.637  21.154  1.00  0.00     0.000 C 
BRANCH  11  12
ATOM     12  C   UNL     1      13.923  17.963  21.219  1.00  0.00     0.006 C 
BRANCH  12  13
ATOM     13  C   UNL     1      14.779  18.264  19.981  1.00  0.00     0.053 C 
BRANCH  13  14
ATOM     14  C   UNL     1      15.691  19.430  20.206  1.00  0.00     0.041 C 
ATOM     15  O   UNL     1      16.237  19.600  21.328  1.00  0.00    -0.550 OA
ATOM     16  O   UNL     1      15.910  20.351  19.188  1.00  0.00    -0.550 OA
ENDBRANCH  13  14
ENDBRANCH  12  13
ENDBRANCH  11  12
ENDBRANCH  10  11
ENDBRANCH   9  10
ENDBRANCH   8   9
ENDBRANCH   7   8
ENDBRANCH   6   7
ENDBRANCH   5   6
ENDBRANCH   4   5
ENDBRANCH   3   4
ENDBRANCH   2   3
ENDBRANCH   1   2
BRANCH   1  17
ATOM     17  C   UNL     1       9.287  14.220  22.635  1.00  0.00     0.000 C 
BRANCH  17  18
ATOM     18  C   UNL     1       7.820  14.125  22.169  1.00  0.00     0.000 C 
BRANCH  18  19
ATOM     19  C   UNL     1       6.886  13.567  23.261  1.00  0.00     0.000 C 
BRANCH  19  20
ATOM     20  C   UNL     1       6.509  12.097  23.015  1.00  0.00     0.000 C 
BRANCH  20  21
ATOM     21  C   UNL     1       6.798  11.656  21.571  1.00  0.00     0.000 C 
BRANCH  21  22
ATOM     22  C   UNL     1       7.787  10.481  21.542  1.00  0.00    -0.000 C 
BRANCH  22  23
ATOM     23  C   UNL     1       8.626  10.384  22.828  1.00  0.00    -0.000 C 
BRANCH  23  24
ATOM     24  C   UNL     1      10.121  10.630  22.574  1.00  0.00    -0.000 C 
BRANCH  24  25
ATOM     25  C   UNL     1      10.382  10.975  21.102  1.00  0.00    -0.000 C 
BRANCH  25  26
ATOM     26  C   UNL     1      11.550  11.960  20.969  1.00  0.00    -0.000 C 
BRANCH  26  27
ATOM     27  C   UNL     1      12.730  11.542  21.853  1.00  0.00    -0.000 C 
BRANCH  27  28
ATOM     28  C   UNL     1      13.833  12.607  21.835  1.00  0.00    -0.000 C 
BRANCH  28  29
ATOM     29  C   UNL     1      14.326  12.867  20.407  1.00  0.00    -0.003 C 
ATOM     30  C   UNL     1      14.383  14.362  20.108  1.00  0.00     0.004 C 
ENDBRANCH  28  29
ENDBRANCH  27  28
ENDBRANCH  26  27
ENDBRANCH  25  26
ENDBRANCH  24  25
ENDBRANCH  23  24
ENDBRANCH  22  23
ENDBRANCH  21  22
ENDBRANCH  20  21
ENDBRANCH  19  20
ENDBRANCH  18  19
ENDBRANCH  17  18
ENDBRANCH   1  17
TORSDOF 26
ENDMDL
MODEL 7
REMARK VINA RESULT:    -4.409      2.309      5.108
REMARK INTER + INTRA:         -15.417
REMARK INTER:                 -11.409
REMARK INTRA:                  -4.008
REMARK UNBOUND:                -4.307
REMARK SMILES CCCCCCCCCCCCCCCCCCCCCCCCCCCC(=O)[O-]
REMARK SMILES IDX 15 1 16 2 17 3 18 4 19 5 20 6 21 7 22 8 23 9 24 10 25 11
REMARK SMILES IDX 26 12 27 13 28 14 29 15 30 16 14 17 13 18 12 19 11 20 10 21
REMARK SMILES IDX 9 22 8 23 7 24 6 25 5 26 4 27 3 28 2 29 1 30
REMARK H PARENT
REMARK Flexibility Score: inf
ROOT
ATOM      1  C   UNL     1      11.765  19.519  23.438  1.00  0.00     0.000 C 
ENDROOT
BRANCH   1   2
ATOM      2  C   UNL     1      10.989  19.663  24.759  1.00  0.00     0.000 C 
BRANCH   2   3
ATOM      3  C   UNL     1      11.652  18.921  25.936  1.00  0.00     0.000 C 
BRANCH   3   4
ATOM      4  C   UNL     1      12.932  18.141  25.578  1.00  0.00     0.000 C 
BRANCH   4   5
ATOM      5  C   UNL     1      12.848  16.646  25.927  1.00  0.00     0.000 C 
BRANCH   5   6
ATOM      6  C   UNL     1      12.235  15.842  24.774  1.00  0.00     0.000 C 
BRANCH   6   7
ATOM      7  C   UNL     1      13.045  16.027  23.485  1.00  0.00     0.000 C 
BRANCH   7   8
ATOM      8  C   UNL     1      12.188  15.739  22.247  1.00  0.00     0.000 C 
BRANCH   8   9
ATOM      9  C   UNL     1      10.732  16.178  22.470  1.00  0.00     0.000 C 
BRANCH   9  10
ATOM     10  C   UNL     1       9.731  15.024  22.297  1.00  0.00     0.000 C 
BRANCH  10  11
ATOM     11  C   UNL     1      10.418  13.657  22.174  1.00  0.00     0.000 C 
BRANCH  11  12
ATOM     12  C   UNL     1       9.438  12.521  22.503  1.00  0.00     0.006 C 
BRANCH  12  13
ATOM     13  C   UNL     1       8.131  12.629  21.705  1.00  0.00     0.053 C 
BRANCH  13  14
ATOM     14  C   UNL     1       6.929  12.526  22.591  1.00  0.00     0.041 C 
ATOM     15  O   UNL     1       6.738  13.375  23.502  1.00  0.00    -0.550 OA
ATOM     16  O   UNL     1       6.035  11.473  22.435  1.00  0.00    -0.550 OA
ENDBRANCH  13  14
ENDBRANCH  12  13
ENDBRANCH  11  12
ENDBRANCH  10  11
ENDBRANCH   9  10
ENDBRANCH   8   9
ENDBRANCH   7   8
ENDBRANCH   6   7
ENDBRANCH   5   6
ENDBRANCH   4   5
ENDBRANCH   3   4
ENDBRANCH   2   3
ENDBRANCH   1   2
BRANCH   1  17
ATOM     17  C   UNL     1      12.428  20.831  22.984  1.00  0.00     0.000 C 
BRANCH  17  18
ATOM     18  C   UNL     1      13.954  20.736  22.779  1.00  0.00     0.000 C 
BRANCH  18  19
ATOM     19  C   UNL     1      14.412  19.318  22.384  1.00  0.00     0.000 C 
BRANCH  19  20
ATOM     20  C   UNL     1      14.902  19.245  20.929  1.00  0.00     0.000 C 
BRANCH  20  21
ATOM     21  C   UNL     1      14.806  17.822  20.353  1.00  0.00     0.000 C 
BRANCH  21  22
ATOM     22  C   UNL     1      13.683  17.727  19.309  1.00  0.00    -0.000 C 
BRANCH  22  23
ATOM     23  C   UNL     1      13.280  19.102  18.749  1.00  0.00    -0.000 C 
BRANCH  23  24
ATOM     24  C   UNL     1      11.814  19.452  19.051  1.00  0.00    -0.000 C 
BRANCH  24  25
ATOM     25  C   UNL     1      11.338  20.627  18.188  1.00  0.00    -0.000 C 
BRANCH  25  26
ATOM     26  C   UNL     1      11.498  21.956  18.937  1.00  0.00    -0.000 C 
BRANCH  26  27
ATOM     27  C   UNL     1      10.726  21.941  20.261  1.00  0.00    -0.000 C 
BRANCH  27  28
ATOM     28  C   UNL     1      10.826  23.297  20.969  1.00  0.00    -0.000 C 
BRANCH  28  29
ATOM     29  C   UNL     1       9.510  23.653  21.668  1.00  0.00    -0.003 C 
ATOM     30  C   UNL     1       9.711  23.810  23.173  1.00  0.00     0.004 C 
ENDBRANCH  28  29
ENDBRANCH  27  28
ENDBRANCH  26  27
ENDBRANCH  25  26
ENDBRANCH  24  25
ENDBRANCH  23  24
ENDBRANCH  22  23
ENDBRANCH  21  22
ENDBRANCH  20  21
ENDBRANCH  19  20
ENDBRANCH  18  19
ENDBRANCH  17  18
ENDBRANCH   1  17
TORSDOF 26
ENDMDL
MODEL 8
REMARK VINA RESULT:    -4.366      1.510      4.115
REMARK INTER + INTRA:         -15.310
REMARK INTER:                 -10.971
REMARK INTRA:                  -4.339
REMARK UNBOUND:                -4.307
REMARK SMILES CCCCCCCCCCCCCCCCCCCCCCCCCCCC(=O)[O-]
REMARK SMILES IDX 15 1 16 2 17 3 18 4 19 5 20 6 21 7 22 8 23 9 24 10 25 11
REMARK SMILES IDX 26 12 27 13 28 14 29 15 30 16 14 17 13 18 12 19 11 20 10 21
REMARK SMILES IDX 9 22 8 23 7 24 6 25 5 26 4 27 3 28 2 29 1 30
REMARK H PARENT
REMARK Flexibility Score: inf
ROOT
ATOM      1  C   UNL     1       7.734  14.023  22.235  1.00  0.00     0.000 C 
ENDROOT
BRANCH   1   2
ATOM      2  C   UNL     1       6.862  13.400  23.338  1.00  0.00     0.000 C 
BRANCH   2   3
ATOM      3  C   UNL     1       6.281  12.026  22.948  1.00  0.00     0.000 C 
BRANCH   3   4
ATOM      4  C   UNL     1       6.756  11.479  21.588  1.00  0.00     0.000 C 
BRANCH   4   5
ATOM      5  C   UNL     1       7.752  10.315  21.718  1.00  0.00     0.000 C 
BRANCH   5   6
ATOM      6  C   UNL     1       8.582  10.151  20.439  1.00  0.00     0.000 C 
BRANCH   6   7
ATOM      7  C   UNL     1       8.940  11.517  19.839  1.00  0.00     0.000 C 
BRANCH   7   8
ATOM      8  C   UNL     1      10.438  11.809  19.983  1.00  0.00     0.000 C 
BRANCH   8   9
ATOM      9  C   UNL     1      11.234  10.512  20.204  1.00  0.00     0.000 C 
BRANCH   9  10
ATOM     10  C   UNL     1      12.209  10.609  21.387  1.00  0.00     0.000 C 
BRANCH  10  11
ATOM     11  C   UNL     1      12.169  11.978  22.080  1.00  0.00     0.000 C 
BRANCH  11  12
ATOM     12  C   UNL     1      13.546  12.656  22.031  1.00  0.00     0.006 C 
BRANCH  12  13
ATOM     13  C   UNL     1      14.492  11.985  21.027  1.00  0.00     0.053 C 
BRANCH  13  14
ATOM     14  C   UNL     1      15.813  11.650  21.647  1.00  0.00     0.041 C 
ATOM     15  O   UNL     1      15.870  10.879  22.641  1.00  0.00    -0.550 OA
ATOM     16  O   UNL     1      16.981  12.217  21.149  1.00  0.00    -0.550 OA
ENDBRANCH  13  14
ENDBRANCH  12  13
ENDBRANCH  11  12
ENDBRANCH  10  11
ENDBRANCH   9  10
ENDBRANCH   8   9
ENDBRANCH   7   8
ENDBRANCH   6   7
ENDBRANCH   5   6
ENDBRANCH   4   5
ENDBRANCH   3   4
ENDBRANCH   2   3
ENDBRANCH   1   2
BRANCH   1  17
ATOM     17  C   UNL     1       9.226  14.084  22.609  1.00  0.00     0.000 C 
BRANCH  17  18
ATOM     18  C   UNL     1       9.914  15.421  22.269  1.00  0.00     0.000 C 
BRANCH  18  19
ATOM     19  C   UNL     1      11.332  15.526  22.864  1.00  0.00     0.000 C 
BRANCH  19  20
ATOM     20  C   UNL     1      11.367  15.178  24.361  1.00  0.00     0.000 C 
BRANCH  20  21
ATOM     21  C   UNL     1      12.671  15.638  25.035  1.00  0.00     0.000 C 
BRANCH  21  22
ATOM     22  C   UNL     1      13.372  16.717  24.196  1.00  0.00    -0.000 C 
BRANCH  22  23
ATOM     23  C   UNL     1      13.556  18.036  24.967  1.00  0.00    -0.000 C 
BRANCH  23  24
ATOM     24  C   UNL     1      12.216  18.698  25.327  1.00  0.00    -0.000 C 
BRANCH  24  25
ATOM     25  C   UNL     1      11.441  19.099  24.065  1.00  0.00    -0.000 C 
BRANCH  25  26
ATOM     26  C   UNL     1      11.970  20.422  23.496  1.00  0.00    -0.000 C 
BRANCH  26  27
ATOM     27  C   UNL     1      12.152  20.337  21.977  1.00  0.00    -0.000 C 
BRANCH  27  28
ATOM     28  C   UNL     1      11.750  18.954  21.452  1.00  0.00    -0.000 C 
BRANCH  28  29
ATOM     29  C   UNL     1      12.960  18.207  20.880  1.00  0.00    -0.003 C 
ATOM     30  C   UNL     1      13.873  19.152  20.103  1.00  0.00     0.004 C 
ENDBRANCH  28  29
ENDBRANCH  27  28
ENDBRANCH  26  27
ENDBRANCH  25  26
ENDBRANCH  24  25
ENDBRANCH  23  24
ENDBRANCH  22  23
ENDBRANCH  21  22
ENDBRANCH  20  21
ENDBRANCH  19  20
ENDBRANCH  18  19
ENDBRANCH  17  18
ENDBRANCH   1  17
TORSDOF 26
ENDMDL
MODEL 9
REMARK VINA RESULT:    -4.335      1.315      2.834
REMARK INTER + INTRA:         -15.232
REMARK INTER:                 -10.959
REMARK INTRA:                  -4.273
REMARK UNBOUND:                -4.307
REMARK SMILES CCCCCCCCCCCCCCCCCCCCCCCCCCCC(=O)[O-]
REMARK SMILES IDX 15 1 16 2 17 3 18 4 19 5 20 6 21 7 22 8 23 9 24 10 25 11
REMARK SMILES IDX 26 12 27 13 28 14 29 15 30 16 14 17 13 18 12 19 11 20 10 21
REMARK SMILES IDX 9 22 8 23 7 24 6 25 5 26 4 27 3 28 2 29 1 30
REMARK H PARENT
REMARK Flexibility Score: inf
ROOT
ATOM      1  C   UNL     1       9.844  14.215  22.617  1.00  0.00     0.000 C 
ENDROOT
BRANCH   1   2
ATOM      2  C   UNL     1       8.382  14.576  22.302  1.00  0.00     0.000 C 
BRANCH   2   3
ATOM      3  C   UNL     1       7.541  13.364  21.857  1.00  0.00     0.000 C 
BRANCH   3   4
ATOM      4  C   UNL     1       6.939  12.529  23.005  1.00  0.00     0.000 C 
BRANCH   4   5
ATOM      5  C   UNL     1       7.185  11.020  22.850  1.00  0.00     0.000 C 
BRANCH   5   6
ATOM      6  C   UNL     1       8.656  10.669  23.103  1.00  0.00     0.000 C 
BRANCH   6   7
ATOM      7  C   UNL     1       9.278   9.994  21.873  1.00  0.00     0.000 C 
BRANCH   7   8
ATOM      8  C   UNL     1       8.348  10.095  20.658  1.00  0.00     0.000 C 
BRANCH   8   9
ATOM      9  C   UNL     1       9.047  10.803  19.486  1.00  0.00     0.000 C 
BRANCH   9  10
ATOM     10  C   UNL     1      10.171  11.745  19.948  1.00  0.00     0.000 C 
BRANCH  10  11
ATOM     11  C   UNL     1      11.456  11.583  19.124  1.00  0.00     0.000 C 
BRANCH  11  12
ATOM     12  C   UNL     1      12.644  11.227  20.028  1.00  0.00     0.006 C 
BRANCH  12  13
ATOM     13  C   UNL     1      12.454  11.728  21.466  1.00  0.00     0.053 C 
BRANCH  13  14
ATOM     14  C   UNL     1      13.301  12.930  21.752  1.00  0.00     0.041 C 
ATOM     15  O   UNL     1      13.779  13.608  20.805  1.00  0.00    -0.550 OA
ATOM     16  O   UNL     1      13.594  13.280  23.065  1.00  0.00    -0.550 OA
ENDBRANCH  13  14
ENDBRANCH  12  13
ENDBRANCH  11  12
ENDBRANCH  10  11
ENDBRANCH   9  10
ENDBRANCH   8   9
ENDBRANCH   7   8
ENDBRANCH   6   7
ENDBRANCH   5   6
ENDBRANCH   4   5
ENDBRANCH   3   4
ENDBRANCH   2   3
ENDBRANCH   1   2
BRANCH   1  17
ATOM     17  C   UNL     1      10.821  15.373  22.347  1.00  0.00     0.000 C 
BRANCH  17  18
ATOM     18  C   UNL     1      10.951  16.380  23.508  1.00  0.00     0.000 C 
BRANCH  18  19
ATOM     19  C   UNL     1      11.684  15.787  24.727  1.00  0.00     0.000 C 
BRANCH  19  20
ATOM     20  C   UNL     1      12.872  16.653  25.177  1.00  0.00     0.000 C 
BRANCH  20  21
ATOM     21  C   UNL     1      13.817  16.995  24.013  1.00  0.00     0.000 C 
BRANCH  21  22
ATOM     22  C   UNL     1      14.379  18.417  24.161  1.00  0.00    -0.000 C 
BRANCH  22  23
ATOM     23  C   UNL     1      13.968  19.338  22.999  1.00  0.00    -0.000 C 
BRANCH  23  24
ATOM     24  C   UNL     1      12.493  19.762  23.080  1.00  0.00    -0.000 C 
BRANCH  24  25
ATOM     25  C   UNL     1      11.787  19.566  21.733  1.00  0.00    -0.000 C 
BRANCH  25  26
ATOM     26  C   UNL     1      12.504  18.506  20.888  1.00  0.00    -0.000 C 
BRANCH  26  27
ATOM     27  C   UNL     1      12.493  18.882  19.402  1.00  0.00    -0.000 C 
BRANCH  27  28
ATOM     28  C   UNL     1      13.828  18.527  18.737  1.00  0.00    -0.000 C 
BRANCH  28  29
ATOM     29  C   UNL     1      14.990  18.652  19.730  1.00  0.00    -0.003 C 
ATOM     30  C   UNL     1      15.658  20.020  19.627  1.00  0.00     0.004 C 
ENDBRANCH  28  29
ENDBRANCH  27  28
ENDBRANCH  26  27
ENDBRANCH  25  26
ENDBRANCH  24  25
ENDBRANCH  23  24
ENDBRANCH  22  23
ENDBRANCH  21  22
ENDBRANCH  20  21
ENDBRANCH  19  20
ENDBRANCH  18  19
ENDBRANCH  17  18
ENDBRANCH   1  17
TORSDOF 26
ENDMDL
