MODEL 1
REMARK VINA RESULT:    -2.782      0.000      0.000
REMARK INTER + INTRA:          -5.173
REMARK INTER:                  -4.408
REMARK INTRA:                  -0.764
REMARK UNBOUND:                -0.764
REMARK SMILES CCCCCCCCCCCC(=O)[O-]
REMARK SMILES IDX 7 1 8 2 9 3 10 4 11 5 12 6 13 7 14 8 6 9 5 10 4 11 3 12 2 13
REMARK SMILES IDX 1 14
REMARK H PARENT
REMARK Flexibility Score: inf
ROOT
ATOM      1  C   UNL     1      -2.577 -10.576   3.760  1.00  0.00     0.000 C 
ENDROOT
BRANCH   1   2
ATOM      2  C   UNL     1      -3.881 -10.224   3.025  1.00  0.00     0.000 C 
BRANCH   2   3
ATOM      3  C   UNL     1      -3.983  -8.730   2.679  1.00  0.00     0.000 C 
BRANCH   3   4
ATOM      4  C   UNL     1      -4.982  -8.498   1.539  1.00  0.00     0.006 C 
BRANCH   4   5
ATOM      5  C   UNL     1      -5.567  -9.823   1.042  1.00  0.00     0.053 C 
BRANCH   5   6
ATOM      6  C   UNL     1      -6.161  -9.656  -0.321  1.00  0.00     0.041 C 
ATOM      7  O   UNL     1      -6.549  -8.523  -0.707  1.00  0.00    -0.550 OA
ATOM      8  O   UNL     1      -6.331 -10.761  -1.145  1.00  0.00    -0.550 OA
ENDBRANCH   5   6
ENDBRANCH   4   5
ENDBRANCH   3   4
ENDBRANCH   2   3
ENDBRANCH   1   2
BRANCH   1   9
ATOM      9  C   UNL     1      -1.325 -10.274   2.919  1.00  0.00     0.000 C 
BRANCH   9  10
ATOM     10  C   UNL     1      -0.378  -9.277   3.608  1.00  0.00    -0.000 C 
BRANCH  10  11
ATOM     11  C   UNL     1      -0.930  -8.769   4.950  1.00  0.00    -0.000 C 
BRANCH  11  12
ATOM     12  C   UNL     1      -1.381  -7.300   4.885  1.00  0.00    -0.000 C 
BRANCH  12  13
ATOM     13  C   UNL     1      -0.228  -6.314   5.125  1.00  0.00    -0.003 C 
ATOM     14  C   UNL     1      -0.647  -4.887   4.785  1.00  0.00     0.004 C 
ENDBRANCH  12  13
ENDBRANCH  11  12
ENDBRANCH  10  11
ENDBRANCH   9  10
ENDBRANCH   1   9
TORSDOF 10
ENDMDL
MODEL 2
REMARK VINA RESULT:    -2.637      2.889      3.612
REMARK INTER + INTRA:          -4.944
REMARK INTER:                  -4.231
REMARK INTRA:                  -0.712
REMARK UNBOUND:                -0.764
REMARK SMILES CCCCCCCCCCCC(=O)[O-]
REMARK SMILES IDX 7 1 8 2 9 3 10 4 11 5 12 6 13 7 14 8 6 9 5 10 4 11 3 12 2 13
REMARK SMILES IDX 1 14
REMARK H PARENT
REMARK Flexibility Score: inf
ROOT
ATOM      1  C   UNL     1      -3.448  -8.455   2.935  1.00  0.00     0.000 C 
ENDROOT
BRANCH   1   2
ATOM      2  C   UNL     1      -4.519  -9.192   2.116  1.00  0.00     0.000 C 
BRANCH   2   3
ATOM      3  C   UNL     1      -5.949  -8.830   2.545  1.00  0.00     0.000 C 
BRANCH   3   4
ATOM      4  C   UNL     1      -5.953  -8.149   3.919  1.00  0.00     0.006 C 
BRANCH   4   5
ATOM      5  C   UNL     1      -6.978  -7.012   3.967  1.00  0.00     0.053 C 
BRANCH   5   6
ATOM      6  C   UNL     1      -6.289  -5.688   4.068  1.00  0.00     0.041 C 
ATOM      7  O   UNL     1      -5.135  -5.537   3.588  1.00  0.00    -0.550 OA
ATOM      8  O   UNL     1      -6.900  -4.636   4.738  1.00  0.00    -0.550 OA
ENDBRANCH   5   6
ENDBRANCH   4   5
ENDBRANCH   3   4
ENDBRANCH   2   3
ENDBRANCH   1   2
BRANCH   1   9
ATOM      9  C   UNL     1      -2.179  -9.300   3.144  1.00  0.00     0.000 C 
BRANCH   9  10
ATOM     10  C   UNL     1      -1.512  -9.035   4.505  1.00  0.00    -0.000 C 
BRANCH  10  11
ATOM     11  C   UNL     1      -0.013  -8.717   4.376  1.00  0.00    -0.000 C 
BRANCH  11  12
ATOM     12  C   UNL     1       0.268  -7.206   4.332  1.00  0.00    -0.000 C 
BRANCH  12  13
ATOM     13  C   UNL     1      -0.845  -6.376   4.989  1.00  0.00    -0.003 C 
ATOM     14  C   UNL     1      -0.572  -4.882   4.847  1.00  0.00     0.004 C 
ENDBRANCH  12  13
ENDBRANCH  11  12
ENDBRANCH  10  11
ENDBRANCH   9  10
ENDBRANCH   1   9
TORSDOF 10
ENDMDL
MODEL 3
REMARK VINA RESULT:    -2.510      3.023      4.042
REMARK INTER + INTRA:          -4.742
REMARK INTER:                  -3.470
REMARK INTRA:                  -1.272
REMARK UNBOUND:                -0.764
REMARK SMILES CCCCCCCCCCCC(=O)[O-]
REMARK SMILES IDX 7 1 8 2 9 3 10 4 11 5 12 6 13 7 14 8 6 9 5 10 4 11 3 12 2 13
REMARK SMILES IDX 1 14
REMARK H PARENT
REMARK Flexibility Score: inf
ROOT
ATOM      1  C   UNL     1      -4.069 -10.296   2.496  1.00  0.00     0.000 C 
ENDROOT
BRANCH   1   2
ATOM      2  C   UNL     1      -4.158  -8.763   2.421  1.00  0.00     0.000 C 
BRANCH   2   3
ATOM      3  C   UNL     1      -5.438  -8.275   1.725  1.00  0.00     0.000 C 
BRANCH   3   4
ATOM      4  C   UNL     1      -6.530  -7.949   2.751  1.00  0.00     0.006 C 
BRANCH   4   5
ATOM      5  C   UNL     1      -5.928  -7.340   4.020  1.00  0.00     0.053 C 
BRANCH   5   6
ATOM      6  C   UNL     1      -5.975  -5.846   3.959  1.00  0.00     0.041 C 
ATOM      7  O   UNL     1      -7.011  -5.229   4.321  1.00  0.00    -0.550 OA
ATOM      8  O   UNL     1      -4.893  -5.137   3.452  1.00  0.00    -0.550 OA
ENDBRANCH   5   6
ENDBRANCH   4   5
ENDBRANCH   3   4
ENDBRANCH   2   3
ENDBRANCH   1   2
BRANCH   1   9
ATOM      9  C   UNL     1      -4.115 -10.821   3.941  1.00  0.00     0.000 C 
BRANCH   9  10
ATOM     10  C   UNL     1      -3.354  -9.913   4.923  1.00  0.00    -0.000 C 
BRANCH  10  11
ATOM     11  C   UNL     1      -1.834 -10.145   4.884  1.00  0.00    -0.000 C 
BRANCH  11  12
ATOM     12  C   UNL     1      -1.062  -8.915   4.379  1.00  0.00    -0.000 C 
BRANCH  12  13
ATOM     13  C   UNL     1      -0.500  -9.108   2.963  1.00  0.00    -0.003 C 
ATOM     14  C   UNL     1      -0.407 -10.588   2.607  1.00  0.00     0.004 C 
ENDBRANCH  12  13
ENDBRANCH  11  12
ENDBRANCH  10  11
ENDBRANCH   9  10
ENDBRANCH   1   9
TORSDOF 10
ENDMDL
MODEL 4
REMARK VINA RESULT:    -2.489      1.629      2.181
REMARK INTER + INTRA:          -4.709
REMARK INTER:                  -3.831
REMARK INTRA:                  -0.878
REMARK UNBOUND:                -0.764
REMARK SMILES CCCCCCCCCCCC(=O)[O-]
REMARK SMILES IDX 7 1 8 2 9 3 10 4 11 5 12 6 13 7 14 8 6 9 5 10 4 11 3 12 2 13
REMARK SMILES IDX 1 14
REMARK H PARENT
REMARK Flexibility Score: inf
ROOT
ATOM      1  C   UNL     1      -0.943 -10.815   2.855  1.00  0.00     0.000 C 
ENDROOT
BRANCH   1   2
ATOM      2  C   UNL     1      -2.480 -10.795   2.878  1.00  0.00     0.000 C 
BRANCH   2   3
ATOM      3  C   UNL     1      -3.050 -10.398   4.248  1.00  0.00     0.000 C 
BRANCH   3   4
ATOM      4  C   UNL     1      -3.843  -9.089   4.155  1.00  0.00     0.006 C 
BRANCH   4   5
ATOM      5  C   UNL     1      -4.018  -8.655   2.697  1.00  0.00     0.053 C 
BRANCH   5   6
ATOM      6  C   UNL     1      -5.465  -8.667   2.316  1.00  0.00     0.041 C 
ATOM      7  O   UNL     1      -6.200  -7.683   2.588  1.00  0.00    -0.550 OA
ATOM      8  O   UNL     1      -6.013  -9.788   1.706  1.00  0.00    -0.550 OA
ENDBRANCH   5   6
ENDBRANCH   4   5
ENDBRANCH   3   4
ENDBRANCH   2   3
ENDBRANCH   1   2
BRANCH   1   9
ATOM      9  C   UNL     1      -0.329  -9.459   3.244  1.00  0.00     0.000 C 
BRANCH   9  10
ATOM     10  C   UNL     1       0.346  -9.491   4.626  1.00  0.00    -0.000 C 
BRANCH  10  11
ATOM     11  C   UNL     1       0.736  -8.089   5.125  1.00  0.00    -0.000 C 
BRANCH  11  12
ATOM     12  C   UNL     1       0.204  -6.969   4.215  1.00  0.00    -0.000 C 
BRANCH  12  13
ATOM     13  C   UNL     1      -0.831  -6.078   4.915  1.00  0.00    -0.003 C 
ATOM     14  C   UNL     1      -0.394  -4.616   4.902  1.00  0.00     0.004 C 
ENDBRANCH  12  13
ENDBRANCH  11  12
ENDBRANCH  10  11
ENDBRANCH   9  10
ENDBRANCH   1   9
TORSDOF 10
ENDMDL
MODEL 5
REMARK VINA RESULT:    -2.462      1.278      2.411
REMARK INTER + INTRA:          -4.666
REMARK INTER:                  -3.839
REMARK INTRA:                  -0.827
REMARK UNBOUND:                -0.764
REMARK SMILES CCCCCCCCCCCC(=O)[O-]
REMARK SMILES IDX 7 1 8 2 9 3 10 4 11 5 12 6 13 7 14 8 6 9 5 10 4 11 3 12 2 13
REMARK SMILES IDX 1 14
REMARK H PARENT
REMARK Flexibility Score: inf
ROOT
ATOM      1  C   UNL     1      -4.153  -8.264   2.530  1.00  0.00     0.000 C 
ENDROOT
BRANCH   1   2
ATOM      2  C   UNL     1      -5.645  -8.636   2.507  1.00  0.00     0.000 C 
BRANCH   2   3
ATOM      3  C   UNL     1      -5.878 -10.154   2.497  1.00  0.00     0.000 C 
BRANCH   3   4
ATOM      4  C   UNL     1      -5.650 -10.735   1.097  1.00  0.00     0.006 C 
BRANCH   4   5
ATOM      5  C   UNL     1      -6.975 -10.903   0.348  1.00  0.00     0.053 C 
BRANCH   5   6
ATOM      6  C   UNL     1      -6.970 -10.102  -0.915  1.00  0.00     0.041 C 
ATOM      7  O   UNL     1      -7.125 -10.671  -2.027  1.00  0.00    -0.550 OA
ATOM      8  O   UNL     1      -6.743  -8.732  -0.868  1.00  0.00    -0.550 OA
ENDBRANCH   5   6
ENDBRANCH   4   5
ENDBRANCH   3   4
ENDBRANCH   2   3
ENDBRANCH   1   2
BRANCH   1   9
ATOM      9  C   UNL     1      -3.683  -7.794   3.917  1.00  0.00     0.000 C 
BRANCH   9  10
ATOM     10  C   UNL     1      -2.771  -8.822   4.610  1.00  0.00    -0.000 C 
BRANCH  10  11
ATOM     11  C   UNL     1      -1.937  -9.640   3.609  1.00  0.00    -0.000 C 
BRANCH  11  12
ATOM     12  C   UNL     1      -0.520  -9.074   3.420  1.00  0.00    -0.000 C 
BRANCH  12  13
ATOM     13  C   UNL     1      -0.003  -8.341   4.665  1.00  0.00    -0.003 C 
ATOM     14  C   UNL     1       0.380  -6.901   4.335  1.00  0.00     0.004 C 
ENDBRANCH  12  13
ENDBRANCH  11  12
ENDBRANCH  10  11
ENDBRANCH   9  10
ENDBRANCH   1   9
TORSDOF 10
ENDMDL
MODEL 6
REMARK VINA RESULT:    -2.412      3.168      3.633
REMARK INTER + INTRA:          -4.587
REMARK INTER:                  -3.517
REMARK INTRA:                  -1.070
REMARK UNBOUND:                -0.764
REMARK SMILES CCCCCCCCCCCC(=O)[O-]
REMARK SMILES IDX 7 1 8 2 9 3 10 4 11 5 12 6 13 7 14 8 6 9 5 10 4 11 3 12 2 13
REMARK SMILES IDX 1 14
REMARK H PARENT
REMARK Flexibility Score: inf
ROOT
ATOM      1  C   UNL     1      -4.196 -10.978   4.152  1.00  0.00     0.000 C 
ENDROOT
BRANCH   1   2
ATOM      2  C   UNL     1      -5.362 -10.136   4.695  1.00  0.00     0.000 C 
BRANCH   2   3
ATOM      3  C   UNL     1      -4.999  -8.652   4.856  1.00  0.00     0.000 C 
BRANCH   3   4
ATOM      4  C   UNL     1      -5.573  -7.819   3.704  1.00  0.00     0.006 C 
BRANCH   4   5
ATOM      5  C   UNL     1      -4.717  -6.576   3.444  1.00  0.00     0.053 C 
BRANCH   5   6
ATOM      6  C   UNL     1      -5.504  -5.332   3.707  1.00  0.00     0.041 C 
ATOM      7  O   UNL     1      -6.626  -5.401   4.275  1.00  0.00    -0.550 OA
ATOM      8  O   UNL     1      -5.022  -4.101   3.282  1.00  0.00    -0.550 OA
ENDBRANCH   5   6
ENDBRANCH   4   5
ENDBRANCH   3   4
ENDBRANCH   2   3
ENDBRANCH   1   2
BRANCH   1   9
ATOM      9  C   UNL     1      -2.824 -10.351   4.454  1.00  0.00     0.000 C 
BRANCH   9  10
ATOM     10  C   UNL     1      -2.031 -10.023   3.176  1.00  0.00    -0.000 C 
BRANCH  10  11
ATOM     11  C   UNL     1      -1.188  -8.745   3.317  1.00  0.00    -0.000 C 
BRANCH  11  12
ATOM     12  C   UNL     1      -1.243  -8.154   4.736  1.00  0.00    -0.000 C 
BRANCH  12  13
ATOM     13  C   UNL     1      -0.144  -7.111   4.986  1.00  0.00    -0.003 C 
ATOM     14  C   UNL     1      -0.675  -5.695   4.785  1.00  0.00     0.004 C 
ENDBRANCH  12  13
ENDBRANCH  11  12
ENDBRANCH  10  11
ENDBRANCH   9  10
ENDBRANCH   1   9
TORSDOF 10
ENDMDL
MODEL 7
REMARK VINA RESULT:    -2.402      3.639      6.590
REMARK INTER + INTRA:          -4.571
REMARK INTER:                  -3.694
REMARK INTRA:                  -0.877
REMARK UNBOUND:                -0.764
REMARK SMILES CCCCCCCCCCCC(=O)[O-]
REMARK SMILES IDX 7 1 8 2 9 3 10 4 11 5 12 6 13 7 14 8 6 9 5 10 4 11 3 12 2 13
REMARK SMILES IDX 1 14
REMARK H PARENT
REMARK Flexibility Score: inf
ROOT
ATOM      1  C   UNL     1      -3.843  -7.504   3.722  1.00  0.00     0.000 C 
ENDROOT
BRANCH   1   2
ATOM      2  C   UNL     1      -3.296  -8.804   3.112  1.00  0.00     0.000 C 
BRANCH   2   3
ATOM      3  C   UNL     1      -2.171  -9.428   3.952  1.00  0.00     0.000 C 
BRANCH   3   4
ATOM      4  C   UNL     1      -0.795  -8.977   3.448  1.00  0.00     0.006 C 
BRANCH   4   5
ATOM      5  C   UNL     1       0.014  -8.319   4.569  1.00  0.00     0.053 C 
BRANCH   5   6
ATOM      6  C   UNL     1       0.068  -6.836   4.377  1.00  0.00     0.041 C 
ATOM      7  O   UNL     1       0.922  -6.328   3.605  1.00  0.00    -0.550 OA
ATOM      8  O   UNL     1      -0.794  -6.012   5.089  1.00  0.00    -0.550 OA
ENDBRANCH   5   6
ENDBRANCH   4   5
ENDBRANCH   3   4
ENDBRANCH   2   3
ENDBRANCH   1   2
BRANCH   1   9
ATOM      9  C   UNL     1      -5.375  -7.516   3.862  1.00  0.00     0.000 C 
BRANCH   9  10
ATOM     10  C   UNL     1      -5.963  -8.936   3.788  1.00  0.00    -0.000 C 
BRANCH  10  11
ATOM     11  C   UNL     1      -6.957  -9.103   2.626  1.00  0.00    -0.000 C 
BRANCH  11  12
ATOM     12  C   UNL     1      -6.481 -10.132   1.586  1.00  0.00    -0.000 C 
BRANCH  12  13
ATOM     13  C   UNL     1      -5.645  -9.497   0.464  1.00  0.00    -0.003 C 
ATOM     14  C   UNL     1      -6.532  -8.734  -0.516  1.00  0.00     0.004 C 
ENDBRANCH  12  13
ENDBRANCH  11  12
ENDBRANCH  10  11
ENDBRANCH   9  10
ENDBRANCH   1   9
TORSDOF 10
ENDMDL
MODEL 8
REMARK VINA RESULT:    -2.375      3.120      6.200
REMARK INTER + INTRA:          -4.527
REMARK INTER:                  -3.782
REMARK INTRA:                  -0.746
REMARK UNBOUND:                -0.764
REMARK SMILES CCCCCCCCCCCC(=O)[O-]
REMARK SMILES IDX 7 1 8 2 9 3 10 4 11 5 12 6 13 7 14 8 6 9 5 10 4 11 3 12 2 13
REMARK SMILES IDX 1 14
REMARK H PARENT
REMARK Flexibility Score: inf
ROOT
ATOM      1  C   UNL     1      -2.317 -10.729   3.739  1.00  0.00     0.000 C 
ENDROOT
BRANCH   1   2
ATOM      2  C   UNL     1      -1.101 -10.207   2.957  1.00  0.00     0.000 C 
BRANCH   2   3
ATOM      3  C   UNL     1       0.141 -10.024   3.843  1.00  0.00     0.000 C 
BRANCH   3   4
ATOM      4  C   UNL     1      -0.207  -9.255   5.123  1.00  0.00     0.006 C 
BRANCH   4   5
ATOM      5  C   UNL     1       0.343  -7.827   5.075  1.00  0.00     0.053 C 
BRANCH   5   6
ATOM      6  C   UNL     1      -0.767  -6.843   4.882  1.00  0.00     0.041 C 
ATOM      7  O   UNL     1      -0.521  -5.608   4.855  1.00  0.00    -0.550 OA
ATOM      8  O   UNL     1      -2.079  -7.286   4.783  1.00  0.00    -0.550 OA
ENDBRANCH   5   6
ENDBRANCH   4   5
ENDBRANCH   3   4
ENDBRANCH   2   3
ENDBRANCH   1   2
BRANCH   1   9
ATOM      9  C   UNL     1      -3.526 -11.014   2.831  1.00  0.00     0.000 C 
BRANCH   9  10
ATOM     10  C   UNL     1      -4.739 -10.129   3.168  1.00  0.00    -0.000 C 
BRANCH  10  11
ATOM     11  C   UNL     1      -4.552  -8.673   2.712  1.00  0.00    -0.000 C 
BRANCH  11  12
ATOM     12  C   UNL     1      -4.932  -8.463   1.237  1.00  0.00    -0.000 C 
BRANCH  12  13
ATOM     13  C   UNL     1      -6.274  -9.114   0.872  1.00  0.00    -0.003 C 
ATOM     14  C   UNL     1      -6.624  -8.866  -0.592  1.00  0.00     0.004 C 
ENDBRANCH  12  13
ENDBRANCH  11  12
ENDBRANCH  10  11
ENDBRANCH   9  10
ENDBRANCH   1   9
TORSDOF 10
ENDMDL
MODEL 9
REMARK VINA RESULT:    -2.358      3.686      6.070
REMARK INTER + INTRA:          -4.500
REMARK INTER:                  -3.751
REMARK INTRA:                  -0.749
REMARK UNBOUND:                -0.764
REMARK SMILES CCCCCCCCCCCC(=O)[O-]
REMARK SMILES IDX 7 1 8 2 9 3 10 4 11 5 12 6 13 7 14 8 6 9 5 10 4 11 3 12 2 13
REMARK SMILES IDX 1 14
REMARK H PARENT
REMARK Flexibility Score: inf
ROOT
ATOM      1  C   UNL     1      -2.930  -9.796   3.092  1.00  0.00     0.000 C 
ENDROOT
BRANCH   1   2
ATOM      2  C   UNL     1      -1.545 -10.420   2.860  1.00  0.00     0.000 C 
BRANCH   2   3
ATOM      3  C   UNL     1      -0.397  -9.506   3.317  1.00  0.00     0.000 C 
BRANCH   3   4
ATOM      4  C   UNL     1      -0.702  -8.886   4.686  1.00  0.00     0.006 C 
BRANCH   4   5
ATOM      5  C   UNL     1       0.417  -7.935   5.120  1.00  0.00     0.053 C 
BRANCH   5   6
ATOM      6  C   UNL     1       0.211  -6.577   4.529  1.00  0.00     0.041 C 
ATOM      7  O   UNL     1      -0.623  -5.784   5.039  1.00  0.00    -0.550 OA
ATOM      8  O   UNL     1       0.903  -6.205   3.383  1.00  0.00    -0.550 OA
ENDBRANCH   5   6
ENDBRANCH   4   5
ENDBRANCH   3   4
ENDBRANCH   2   3
ENDBRANCH   1   2
BRANCH   1   9
ATOM      9  C   UNL     1      -4.076 -10.793   2.846  1.00  0.00     0.000 C 
BRANCH   9  10
ATOM     10  C   UNL     1      -4.981 -10.375   1.675  1.00  0.00    -0.000 C 
BRANCH  10  11
ATOM     11  C   UNL     1      -6.341  -9.831   2.145  1.00  0.00    -0.000 C 
BRANCH  11  12
ATOM     12  C   UNL     1      -6.395  -8.295   2.145  1.00  0.00    -0.000 C 
BRANCH  12  13
ATOM     13  C   UNL     1      -6.069  -7.690   3.519  1.00  0.00    -0.003 C 
ATOM     14  C   UNL     1      -4.965  -6.643   3.409  1.00  0.00     0.004 C 
ENDBRANCH  12  13
ENDBRANCH  11  12
ENDBRANCH  10  11
ENDBRANCH   9  10
ENDBRANCH   1   9
TORSDOF 10
ENDMDL
