MODEL 1
REMARK VINA RESULT:    -4.234      0.000      0.000
REMARK INTER + INTRA:          -5.807
REMARK INTER:                  -5.596
REMARK INTRA:                  -0.211
REMARK UNBOUND:                -0.211
REMARK SMILES C=CCC[C@@H](O)CCC
REMARK SMILES IDX 4 1 5 2 7 3 8 4 9 5 6 6 3 8 2 9 1 10
REMARK H PARENT 6 7
REMARK Flexibility Score: inf
ROOT
ATOM      1  C   UNL     1       5.310   2.475  19.152  1.00  0.00     0.036 C 
ENDROOT
BRANCH   1   2
ATOM      2  C   UNL     1       4.070   2.784  18.288  1.00  0.00     0.114 C 
BRANCH   2   3
ATOM      3  C   UNL     1       3.147   1.556  18.228  1.00  0.00     0.031 C 
BRANCH   3   4
ATOM      4  C   UNL     1       2.731   1.229  16.787  1.00  0.00    -0.001 C 
ATOM      5  C   UNL     1       1.690   0.113  16.754  1.00  0.00     0.004 C 
ENDBRANCH   3   4
ENDBRANCH   2   3
BRANCH   2   6
ATOM      6  O   UNL     1       4.473   3.125  16.984  1.00  0.00    -0.393 OA
ATOM      7  H   UNL     1       5.331   3.617  17.061  1.00  0.00     0.210 HD
ENDBRANCH   2   6
ENDBRANCH   1   2
BRANCH   1   8
ATOM      8  C   UNL     1       6.612   3.055  18.573  1.00  0.00     0.029 C 
BRANCH   8   9
ATOM      9  C   UNL     1       7.655   1.997  18.325  1.00  0.00    -0.035 C 
ATOM     10  C   UNL     1       7.958   1.581  17.092  1.00  0.00     0.004 C 
ENDBRANCH   8   9
ENDBRANCH   1   8
TORSDOF 6
ENDMDL
MODEL 2
REMARK VINA RESULT:    -3.912      9.637     10.245
REMARK INTER + INTRA:          -5.381
REMARK INTER:                  -5.178
REMARK INTRA:                  -0.203
REMARK UNBOUND:                -0.211
REMARK SMILES C=CCC[C@@H](O)CCC
REMARK SMILES IDX 4 1 5 2 7 3 8 4 9 5 6 6 3 8 2 9 1 10
REMARK H PARENT 6 7
REMARK Flexibility Score: inf
ROOT
ATOM      1  C   UNL     1       8.325  -5.830  25.136  1.00  0.00     0.036 C 
ENDROOT
BRANCH   1   2
ATOM      2  C   UNL     1       8.122  -5.876  23.607  1.00  0.00     0.114 C 
BRANCH   2   3
ATOM      3  C   UNL     1       6.678  -5.485  23.252  1.00  0.00     0.031 C 
BRANCH   3   4
ATOM      4  C   UNL     1       6.589  -4.858  21.853  1.00  0.00    -0.001 C 
ATOM      5  C   UNL     1       6.530  -3.335  21.936  1.00  0.00     0.004 C 
ENDBRANCH   3   4
ENDBRANCH   2   3
BRANCH   2   6
ATOM      6  O   UNL     1       8.380  -7.175  23.132  1.00  0.00    -0.393 OA
ATOM      7  H   UNL     1       7.691  -7.772  23.524  1.00  0.00     0.210 HD
ENDBRANCH   2   6
ENDBRANCH   1   2
BRANCH   1   8
ATOM      8  C   UNL     1       9.760  -5.458  25.546  1.00  0.00     0.029 C 
BRANCH   8   9
ATOM      9  C   UNL     1      10.173  -4.104  25.034  1.00  0.00    -0.035 C 
ATOM     10  C   UNL     1      11.399  -3.615  25.244  1.00  0.00     0.004 C 
ENDBRANCH   8   9
ENDBRANCH   1   8
TORSDOF 6
ENDMDL
MODEL 3
REMARK VINA RESULT:    -3.846      2.311      3.832
REMARK INTER + INTRA:          -5.294
REMARK INTER:                  -5.114
REMARK INTRA:                  -0.180
REMARK UNBOUND:                -0.211
REMARK SMILES C=CCC[C@@H](O)CCC
REMARK SMILES IDX 4 1 5 2 7 3 8 4 9 5 6 6 3 8 2 9 1 10
REMARK H PARENT 6 7
REMARK Flexibility Score: inf
ROOT
ATOM      1  C   UNL     1       2.457   0.469  18.280  1.00  0.00     0.036 C 
ENDROOT
BRANCH   1   2
ATOM      2  C   UNL     1       1.759  -0.181  17.068  1.00  0.00     0.114 C 
BRANCH   2   3
ATOM      3  C   UNL     1       1.298  -1.605  17.422  1.00  0.00     0.031 C 
BRANCH   3   4
ATOM      4  C   UNL     1       0.971  -1.738  18.916  1.00  0.00    -0.001 C 
ATOM      5  C   UNL     1       1.550  -3.028  19.493  1.00  0.00     0.004 C 
ENDBRANCH   3   4
ENDBRANCH   2   3
BRANCH   2   6
ATOM      6  O   UNL     1       2.649  -0.239  15.981  1.00  0.00    -0.393 OA
ATOM      7  H   UNL     1       2.101  -0.268  15.154  1.00  0.00     0.210 HD
ENDBRANCH   2   6
ENDBRANCH   1   2
BRANCH   1   8
ATOM      8  C   UNL     1       3.185   1.778  17.930  1.00  0.00     0.029 C 
BRANCH   8   9
ATOM      9  C   UNL     1       3.952   2.342  19.097  1.00  0.00    -0.035 C 
ATOM     10  C   UNL     1       5.288   2.355  19.121  1.00  0.00     0.004 C 
ENDBRANCH   8   9
ENDBRANCH   1   8
TORSDOF 6
ENDMDL
MODEL 4
REMARK VINA RESULT:    -3.715     17.161     17.919
REMARK INTER + INTRA:          -5.121
REMARK INTER:                  -4.727
REMARK INTRA:                  -0.394
REMARK UNBOUND:                -0.211
REMARK SMILES C=CCC[C@@H](O)CCC
REMARK SMILES IDX 4 1 5 2 7 3 8 4 9 5 6 6 3 8 2 9 1 10
REMARK H PARENT 6 7
REMARK Flexibility Score: inf
ROOT
ATOM      1  C   UNL     1       8.805  -8.792  30.019  1.00  0.00     0.036 C 
ENDROOT
BRANCH   1   2
ATOM      2  C   UNL     1       9.978  -8.726  31.019  1.00  0.00     0.114 C 
BRANCH   2   3
ATOM      3  C   UNL     1       9.586  -9.404  32.342  1.00  0.00     0.031 C 
BRANCH   3   4
ATOM      4  C   UNL     1       8.922 -10.768  32.104  1.00  0.00    -0.001 C 
ATOM      5  C   UNL     1       9.966 -11.876  31.994  1.00  0.00     0.004 C 
ENDBRANCH   3   4
ENDBRANCH   2   3
BRANCH   2   6
ATOM      6  O   UNL     1      10.314  -7.383  31.269  1.00  0.00    -0.393 OA
ATOM      7  H   UNL     1      11.098  -7.166  30.700  1.00  0.00     0.210 HD
ENDBRANCH   2   6
ENDBRANCH   1   2
BRANCH   1   8
ATOM      8  C   UNL     1       9.261  -8.799  28.550  1.00  0.00     0.029 C 
BRANCH   8   9
ATOM      9  C   UNL     1      10.383  -9.772  28.299  1.00  0.00    -0.035 C 
ATOM     10  C   UNL     1      11.183  -9.665  27.233  1.00  0.00     0.004 C 
ENDBRANCH   8   9
ENDBRANCH   1   8
TORSDOF 6
ENDMDL
MODEL 5
REMARK VINA RESULT:    -3.660     17.236     18.037
REMARK INTER + INTRA:          -5.048
REMARK INTER:                  -4.786
REMARK INTRA:                  -0.262
REMARK UNBOUND:                -0.211
REMARK SMILES C=CCC[C@@H](O)CCC
REMARK SMILES IDX 4 1 5 2 7 3 8 4 9 5 6 6 3 8 2 9 1 10
REMARK H PARENT 6 7
REMARK Flexibility Score: inf
ROOT
ATOM      1  C   UNL     1       8.885  -9.546  31.431  1.00  0.00     0.036 C 
ENDROOT
BRANCH   1   2
ATOM      2  C   UNL     1       9.330  -8.520  30.368  1.00  0.00     0.114 C 
BRANCH   2   3
ATOM      3  C   UNL     1       9.953  -9.243  29.162  1.00  0.00     0.031 C 
BRANCH   3   4
ATOM      4  C   UNL     1       9.584  -8.558  27.838  1.00  0.00    -0.001 C 
ATOM      5  C   UNL     1      10.676  -7.585  27.400  1.00  0.00     0.004 C 
ENDBRANCH   3   4
ENDBRANCH   2   3
BRANCH   2   6
ATOM      6  O   UNL     1      10.279  -7.642  30.922  1.00  0.00    -0.393 OA
ATOM      7  H   UNL     1      10.358  -6.869  30.305  1.00  0.00     0.210 HD
ENDBRANCH   2   6
ENDBRANCH   1   2
BRANCH   1   8
ATOM      8  C   UNL     1       9.960  -9.818  32.498  1.00  0.00     0.029 C 
BRANCH   8   9
ATOM      9  C   UNL     1      10.127 -11.286  32.787  1.00  0.00    -0.035 C 
ATOM     10  C   UNL     1      10.092 -12.204  31.817  1.00  0.00     0.004 C 
ENDBRANCH   8   9
ENDBRANCH   1   8
TORSDOF 6
ENDMDL
MODEL 6
REMARK VINA RESULT:    -3.650     14.329     15.324
REMARK INTER + INTRA:          -5.035
REMARK INTER:                  -4.643
REMARK INTRA:                  -0.392
REMARK UNBOUND:                -0.211
REMARK SMILES C=CCC[C@@H](O)CCC
REMARK SMILES IDX 4 1 5 2 7 3 8 4 9 5 6 6 3 8 2 9 1 10
REMARK H PARENT 6 7
REMARK Flexibility Score: inf
ROOT
ATOM      1  C   UNL     1       8.532  -8.015  28.029  1.00  0.00     0.036 C 
ENDROOT
BRANCH   1   2
ATOM      2  C   UNL     1      10.032  -8.146  28.363  1.00  0.00     0.114 C 
BRANCH   2   3
ATOM      3  C   UNL     1      10.525  -9.566  28.041  1.00  0.00     0.031 C 
BRANCH   3   4
ATOM      4  C   UNL     1      11.374  -9.595  26.762  1.00  0.00    -0.001 C 
ATOM      5  C   UNL     1      12.363 -10.757  26.784  1.00  0.00     0.004 C 
ENDBRANCH   3   4
ENDBRANCH   2   3
BRANCH   2   6
ATOM      6  O   UNL     1      10.240  -7.883  29.729  1.00  0.00    -0.393 OA
ATOM      7  H   UNL     1       9.345  -7.793  30.149  1.00  0.00     0.210 HD
ENDBRANCH   2   6
ENDBRANCH   1   2
BRANCH   1   8
ATOM      8  C   UNL     1       8.200  -6.752  27.215  1.00  0.00     0.029 C 
BRANCH   8   9
ATOM      9  C   UNL     1       9.352  -6.301  26.356  1.00  0.00    -0.035 C 
ATOM     10  C   UNL     1       9.427  -6.610  25.058  1.00  0.00     0.004 C 
ENDBRANCH   8   9
ENDBRANCH   1   8
TORSDOF 6
ENDMDL
MODEL 7
REMARK VINA RESULT:    -3.594     18.070     18.830
REMARK INTER + INTRA:          -4.961
REMARK INTER:                  -4.682
REMARK INTRA:                  -0.279
REMARK UNBOUND:                -0.211
REMARK SMILES C=CCC[C@@H](O)CCC
REMARK SMILES IDX 4 1 5 2 7 3 8 4 9 5 6 6 3 8 2 9 1 10
REMARK H PARENT 6 7
REMARK Flexibility Score: inf
ROOT
ATOM      1  C   UNL     1      10.668  -8.765  32.670  1.00  0.00     0.036 C 
ENDROOT
BRANCH   1   2
ATOM      2  C   UNL     1       9.657  -8.746  31.505  1.00  0.00     0.114 C 
BRANCH   2   3
ATOM      3  C   UNL     1       8.760  -9.995  31.562  1.00  0.00     0.031 C 
BRANCH   3   4
ATOM      4  C   UNL     1       9.413 -11.125  32.370  1.00  0.00    -0.001 C 
ATOM      5  C   UNL     1      10.027 -12.176  31.449  1.00  0.00     0.004 C 
ENDBRANCH   3   4
ENDBRANCH   2   3
BRANCH   2   6
ATOM      6  O   UNL     1      10.345  -8.726  30.278  1.00  0.00    -0.393 OA
ATOM      7  H   UNL     1      10.113  -9.564  29.798  1.00  0.00     0.210 HD
ENDBRANCH   2   6
ENDBRANCH   1   2
BRANCH   1   8
ATOM      8  C   UNL     1      10.645  -7.478  33.512  1.00  0.00     0.029 C 
BRANCH   8   9
ATOM      9  C   UNL     1      10.910  -6.245  32.689  1.00  0.00    -0.035 C 
ATOM     10  C   UNL     1      10.630  -5.020  33.145  1.00  0.00     0.004 C 
ENDBRANCH   8   9
ENDBRANCH   1   8
TORSDOF 6
ENDMDL
MODEL 8
REMARK VINA RESULT:    -3.582     16.492     17.469
REMARK INTER + INTRA:          -4.945
REMARK INTER:                  -4.489
REMARK INTRA:                  -0.456
REMARK UNBOUND:                -0.211
REMARK SMILES C=CCC[C@@H](O)CCC
REMARK SMILES IDX 4 1 5 2 7 3 8 4 9 5 6 6 3 8 2 9 1 10
REMARK H PARENT 6 7
REMARK Flexibility Score: inf
ROOT
ATOM      1  C   UNL     1      12.636 -11.436  26.055  1.00  0.00     0.036 C 
ENDROOT
BRANCH   1   2
ATOM      2  C   UNL     1      12.515 -12.973  26.000  1.00  0.00     0.114 C 
BRANCH   2   3
ATOM      3  C   UNL     1      11.735 -13.398  24.744  1.00  0.00     0.031 C 
BRANCH   3   4
ATOM      4  C   UNL     1      12.190 -12.615  23.503  1.00  0.00    -0.001 C 
ATOM      5  C   UNL     1      11.003 -11.967  22.796  1.00  0.00     0.004 C 
ENDBRANCH   3   4
ENDBRANCH   2   3
BRANCH   2   6
ATOM      6  O   UNL     1      11.841 -13.439  27.142  1.00  0.00    -0.393 OA
ATOM      7  H   UNL     1      11.264 -14.194  26.855  1.00  0.00     0.210 HD
ENDBRANCH   2   6
ENDBRANCH   1   2
BRANCH   1   8
ATOM      8  C   UNL     1      11.819 -10.805  27.196  1.00  0.00     0.029 C 
BRANCH   8   9
ATOM      9  C   UNL     1      11.164  -9.512  26.789  1.00  0.00    -0.035 C 
ATOM     10  C   UNL     1      11.033  -9.161  25.507  1.00  0.00     0.004 C 
ENDBRANCH   8   9
ENDBRANCH   1   8
TORSDOF 6
ENDMDL
MODEL 9
REMARK VINA RESULT:    -3.508     10.333     11.644
REMARK INTER + INTRA:          -4.847
REMARK INTER:                  -4.174
REMARK INTRA:                  -0.673
REMARK UNBOUND:                -0.211
REMARK SMILES C=CCC[C@@H](O)CCC
REMARK SMILES IDX 4 1 5 2 7 3 8 4 9 5 6 6 3 8 2 9 1 10
REMARK H PARENT 6 7
REMARK Flexibility Score: inf
ROOT
ATOM      1  C   UNL     1      14.213   0.350  25.833  1.00  0.00     0.036 C 
ENDROOT
BRANCH   1   2
ATOM      2  C   UNL     1      14.383   0.303  24.300  1.00  0.00     0.114 C 
BRANCH   2   3
ATOM      3  C   UNL     1      13.469   1.346  23.634  1.00  0.00     0.031 C 
BRANCH   3   4
ATOM      4  C   UNL     1      13.236   2.559  24.545  1.00  0.00    -0.001 C 
ATOM      5  C   UNL     1      11.746   2.801  24.769  1.00  0.00     0.004 C 
ENDBRANCH   3   4
ENDBRANCH   2   3
BRANCH   2   6
ATOM      6  O   UNL     1      14.050  -0.977  23.823  1.00  0.00    -0.393 OA
ATOM      7  H   UNL     1      14.422  -1.635  24.466  1.00  0.00     0.210 HD
ENDBRANCH   2   6
ENDBRANCH   1   2
BRANCH   1   8
ATOM      8  C   UNL     1      13.438  -0.855  26.393  1.00  0.00     0.029 C 
BRANCH   8   9
ATOM      9  C   UNL     1      11.987  -0.541  26.643  1.00  0.00    -0.035 C 
ATOM     10  C   UNL     1      11.043  -0.796  25.732  1.00  0.00     0.004 C 
ENDBRANCH   8   9
ENDBRANCH   1   8
TORSDOF 6
ENDMDL
