MODEL 1
REMARK VINA RESULT:    -5.079      0.000      0.000
REMARK INTER + INTRA:          -5.742
REMARK INTER:                  -5.673
REMARK INTRA:                  -0.069
REMARK UNBOUND:                -0.069
REMARK SMILES COc1cc2ccc(=O)oc2c(O)c1O
REMARK SMILES IDX 3 1 14 2 12 3 11 4 5 5 4 6 6 7 7 8 8 9 9 10 10 11 2 12 1 13
REMARK SMILES IDX 15 14 13 16
REMARK H PARENT 15 15 13 17
REMARK Flexibility Score: inf
ROOT
ATOM      1  C   UNL     1      14.354  -8.133  19.840  1.00  0.00     0.165 A 
ATOM      2  C   UNL     1      13.602  -7.687  20.940  1.00  0.00     0.204 A 
ATOM      3  C   UNL     1      12.189  -7.607  20.848  1.00  0.00     0.205 A 
ATOM      4  C   UNL     1      11.551  -7.977  19.656  1.00  0.00     0.184 A 
ATOM      5  C   UNL     1      12.310  -8.423  18.554  1.00  0.00     0.025 A 
ATOM      6  C   UNL     1      13.702  -8.501  18.648  1.00  0.00     0.062 A 
ATOM      7  C   UNL     1      11.638  -8.783  17.381  1.00  0.00     0.020 A 
ATOM      8  C   UNL     1      10.248  -8.691  17.332  1.00  0.00     0.094 A 
ATOM      9  C   UNL     1       9.560  -8.239  18.462  1.00  0.00     0.336 A 
ATOM     10  O   UNL     1       8.305  -8.147  18.439  1.00  0.00    -0.246 OA
ATOM     11  O   UNL     1      10.224  -7.904  19.564  1.00  0.00    -0.419 OA
ENDROOT
BRANCH   1  12
ATOM     12  O   UNL     1      15.751  -8.197  19.973  1.00  0.00    -0.493 OA
ATOM     13  C   UNL     1      16.489  -9.398  20.175  1.00  0.00     0.278 C 
ENDBRANCH   1  12
BRANCH   2  14
ATOM     14  O   UNL     1      14.295  -7.334  22.100  1.00  0.00    -0.502 OA
ATOM     15  H   UNL     1      15.275  -7.091  22.126  1.00  0.00     0.293 HD
ENDBRANCH   2  14
BRANCH   3  16
ATOM     16  O   UNL     1      11.391  -7.171  21.909  1.00  0.00    -0.502 OA
ATOM     17  H   UNL     1      10.897  -7.785  22.538  1.00  0.00     0.293 HD
ENDBRANCH   3  16
TORSDOF 3
ENDMDL
MODEL 2
REMARK VINA RESULT:    -4.590     11.355     13.297
REMARK INTER + INTRA:          -5.195
REMARK INTER:                  -5.127
REMARK INTRA:                  -0.069
REMARK UNBOUND:                -0.069
REMARK SMILES COc1cc2ccc(=O)oc2c(O)c1O
REMARK SMILES IDX 3 1 14 2 12 3 11 4 5 5 4 6 6 7 7 8 8 9 9 10 10 11 2 12 1 13
REMARK SMILES IDX 15 14 13 16
REMARK H PARENT 15 15 13 17
REMARK Flexibility Score: inf
ROOT
ATOM      1  C   UNL     1      12.096  -2.801  30.107  1.00  0.00     0.165 A 
ATOM      2  C   UNL     1      12.914  -2.235  29.115  1.00  0.00     0.204 A 
ATOM      3  C   UNL     1      12.901  -0.834  28.899  1.00  0.00     0.205 A 
ATOM      4  C   UNL     1      12.068  -0.021  29.680  1.00  0.00     0.184 A 
ATOM      5  C   UNL     1      11.248  -0.593  30.674  1.00  0.00     0.025 A 
ATOM      6  C   UNL     1      11.264  -1.975  30.885  1.00  0.00     0.062 A 
ATOM      7  C   UNL     1      10.430   0.251  31.433  1.00  0.00     0.020 A 
ATOM      8  C   UNL     1      10.447   1.623  31.190  1.00  0.00     0.094 A 
ATOM      9  C   UNL     1      11.284   2.121  30.187  1.00  0.00     0.336 A 
ATOM     10  O   UNL     1      11.315   3.357  29.950  1.00  0.00    -0.246 OA
ATOM     11  O   UNL     1      12.052   1.296  29.481  1.00  0.00    -0.419 OA
ENDROOT
BRANCH   1  12
ATOM     12  O   UNL     1      12.139  -4.193  30.290  1.00  0.00    -0.493 OA
ATOM     13  C   UNL     1      12.620  -4.840  31.464  1.00  0.00     0.278 C 
ENDBRANCH   1  12
BRANCH   2  14
ATOM     14  O   UNL     1      13.722  -3.097  28.371  1.00  0.00    -0.502 OA
ATOM     15  H   UNL     1      14.543  -3.562  28.732  1.00  0.00     0.293 HD
ENDBRANCH   2  14
BRANCH   3  16
ATOM     16  O   UNL     1      13.693  -0.217  27.927  1.00  0.00    -0.502 OA
ATOM     17  H   UNL     1      13.815  -0.567  26.988  1.00  0.00     0.293 HD
ENDBRANCH   3  16
TORSDOF 3
ENDMDL
MODEL 3
REMARK VINA RESULT:    -4.558      1.428      4.814
REMARK INTER + INTRA:          -5.160
REMARK INTER:                  -5.108
REMARK INTRA:                  -0.052
REMARK UNBOUND:                -0.069
REMARK SMILES COc1cc2ccc(=O)oc2c(O)c1O
REMARK SMILES IDX 3 1 14 2 12 3 11 4 5 5 4 6 6 7 7 8 8 9 9 10 10 11 2 12 1 13
REMARK SMILES IDX 15 14 13 16
REMARK H PARENT 15 15 13 17
REMARK Flexibility Score: inf
ROOT
ATOM      1  C   UNL     1      12.502  -7.990  18.352  1.00  0.00     0.165 A 
ATOM      2  C   UNL     1      11.815  -7.756  19.554  1.00  0.00     0.204 A 
ATOM      3  C   UNL     1      12.505  -7.825  20.790  1.00  0.00     0.205 A 
ATOM      4  C   UNL     1      13.874  -8.127  20.803  1.00  0.00     0.184 A 
ATOM      5  C   UNL     1      14.560  -8.362  19.594  1.00  0.00     0.025 A 
ATOM      6  C   UNL     1      13.876  -8.293  18.376  1.00  0.00     0.062 A 
ATOM      7  C   UNL     1      15.925  -8.662  19.646  1.00  0.00     0.020 A 
ATOM      8  C   UNL     1      16.567  -8.720  20.882  1.00  0.00     0.094 A 
ATOM      9  C   UNL     1      15.824  -8.477  22.041  1.00  0.00     0.336 A 
ATOM     10  O   UNL     1      16.384  -8.524  23.168  1.00  0.00    -0.246 OA
ATOM     11  O   UNL     1      14.527  -8.194  21.962  1.00  0.00    -0.419 OA
ENDROOT
BRANCH   1  12
ATOM     12  O   UNL     1      11.781  -7.911  17.148  1.00  0.00    -0.493 OA
ATOM     13  C   UNL     1      12.299  -8.268  15.870  1.00  0.00     0.278 C 
ENDBRANCH   1  12
BRANCH   2  14
ATOM     14  O   UNL     1      10.452  -7.459  19.476  1.00  0.00    -0.502 OA
ATOM     15  H   UNL     1       9.833  -7.415  20.273  1.00  0.00     0.293 HD
ENDBRANCH   2  14
BRANCH   3  16
ATOM     16  O   UNL     1      11.873  -7.602  22.017  1.00  0.00    -0.502 OA
ATOM     17  H   UNL     1      10.904  -7.810  22.202  1.00  0.00     0.293 HD
ENDBRANCH   3  16
TORSDOF 3
ENDMDL
MODEL 4
REMARK VINA RESULT:    -4.555     12.661     14.707
REMARK INTER + INTRA:          -5.157
REMARK INTER:                  -5.088
REMARK INTRA:                  -0.069
REMARK UNBOUND:                -0.069
REMARK SMILES COc1cc2ccc(=O)oc2c(O)c1O
REMARK SMILES IDX 3 1 14 2 12 3 11 4 5 5 4 6 6 7 7 8 8 9 9 10 10 11 2 12 1 13
REMARK SMILES IDX 15 14 13 16
REMARK H PARENT 15 15 13 17
REMARK Flexibility Score: inf
ROOT
ATOM      1  C   UNL     1      11.435   1.318  32.172  1.00  0.00     0.165 A 
ATOM      2  C   UNL     1      10.310   0.826  31.490  1.00  0.00     0.204 A 
ATOM      3  C   UNL     1      10.312  -0.497  30.981  1.00  0.00     0.205 A 
ATOM      4  C   UNL     1      11.440  -1.307  31.164  1.00  0.00     0.184 A 
ATOM      5  C   UNL     1      12.568  -0.810  31.849  1.00  0.00     0.025 A 
ATOM      6  C   UNL     1      12.563   0.496  32.350  1.00  0.00     0.062 A 
ATOM      7  C   UNL     1      13.676  -1.648  32.011  1.00  0.00     0.020 A 
ATOM      8  C   UNL     1      13.637  -2.943  31.496  1.00  0.00     0.094 A 
ATOM      9  C   UNL     1      12.487  -3.369  30.827  1.00  0.00     0.336 A 
ATOM     10  O   UNL     1      12.430  -4.534  30.353  1.00  0.00    -0.246 OA
ATOM     11  O   UNL     1      11.447  -2.552  30.687  1.00  0.00    -0.419 OA
ENDROOT
BRANCH   1  12
ATOM     12  O   UNL     1      11.392   2.635  32.662  1.00  0.00    -0.493 OA
ATOM     13  C   UNL     1      12.049   3.744  32.056  1.00  0.00     0.278 C 
ENDBRANCH   1  12
BRANCH   2  14
ATOM     14  O   UNL     1       9.216   1.681  31.341  1.00  0.00    -0.502 OA
ATOM     15  H   UNL     1       8.899   2.051  30.456  1.00  0.00     0.293 HD
ENDBRANCH   2  14
BRANCH   3  16
ATOM     16  O   UNL     1       9.222  -1.039  30.294  1.00  0.00    -0.502 OA
ATOM     17  H   UNL     1       9.287  -1.798  29.634  1.00  0.00     0.293 HD
ENDBRANCH   3  16
TORSDOF 3
ENDMDL
MODEL 5
REMARK VINA RESULT:    -4.490     11.924     12.710
REMARK INTER + INTRA:          -5.084
REMARK INTER:                  -5.028
REMARK INTRA:                  -0.056
REMARK UNBOUND:                -0.069
REMARK SMILES COc1cc2ccc(=O)oc2c(O)c1O
REMARK SMILES IDX 3 1 14 2 12 3 11 4 5 5 4 6 6 7 7 8 8 9 9 10 10 11 2 12 1 13
REMARK SMILES IDX 15 14 13 16
REMARK H PARENT 15 15 13 17
REMARK Flexibility Score: inf
ROOT
ATOM      1  C   UNL     1      12.165  -2.794  30.153  1.00  0.00     0.165 A 
ATOM      2  C   UNL     1      11.255  -1.726  30.071  1.00  0.00     0.204 A 
ATOM      3  C   UNL     1      11.661  -0.491  29.507  1.00  0.00     0.205 A 
ATOM      4  C   UNL     1      12.971  -0.342  29.034  1.00  0.00     0.184 A 
ATOM      5  C   UNL     1      13.882  -1.416  29.119  1.00  0.00     0.025 A 
ATOM      6  C   UNL     1      13.479  -2.633  29.675  1.00  0.00     0.062 A 
ATOM      7  C   UNL     1      15.182  -1.230  28.637  1.00  0.00     0.020 A 
ATOM      8  C   UNL     1      15.541   0.001  28.090  1.00  0.00     0.094 A 
ATOM      9  C   UNL     1      14.587   1.021  28.039  1.00  0.00     0.336 A 
ATOM     10  O   UNL     1      14.890   2.141  27.549  1.00  0.00    -0.246 OA
ATOM     11  O   UNL     1      13.358   0.817  28.504  1.00  0.00    -0.419 OA
ENDROOT
BRANCH   1  12
ATOM     12  O   UNL     1      11.723  -4.002  30.718  1.00  0.00    -0.493 OA
ATOM     13  C   UNL     1      12.541  -4.888  31.475  1.00  0.00     0.278 C 
ENDBRANCH   1  12
BRANCH   2  14
ATOM     14  O   UNL     1       9.963  -1.936  30.558  1.00  0.00    -0.502 OA
ATOM     15  H   UNL     1       9.736  -2.064  31.534  1.00  0.00     0.293 HD
ENDBRANCH   2  14
BRANCH   3  16
ATOM     16  O   UNL     1      10.799   0.604  29.400  1.00  0.00    -0.502 OA
ATOM     17  H   UNL     1       9.798   0.552  29.514  1.00  0.00     0.293 HD
ENDBRANCH   3  16
TORSDOF 3
ENDMDL
MODEL 6
REMARK VINA RESULT:    -4.417     12.919     15.194
REMARK INTER + INTRA:          -5.002
REMARK INTER:                  -4.937
REMARK INTRA:                  -0.066
REMARK UNBOUND:                -0.069
REMARK SMILES COc1cc2ccc(=O)oc2c(O)c1O
REMARK SMILES IDX 3 1 14 2 12 3 11 4 5 5 4 6 6 7 7 8 8 9 9 10 10 11 2 12 1 13
REMARK SMILES IDX 15 14 13 16
REMARK H PARENT 15 15 13 17
REMARK Flexibility Score: inf
ROOT
ATOM      1  C   UNL     1       9.905   0.270  32.647  1.00  0.00     0.165 A 
ATOM      2  C   UNL     1       9.597  -0.408  31.456  1.00  0.00     0.204 A 
ATOM      3  C   UNL     1      10.611  -1.111  30.758  1.00  0.00     0.205 A 
ATOM      4  C   UNL     1      11.918  -1.125  31.264  1.00  0.00     0.184 A 
ATOM      5  C   UNL     1      12.223  -0.443  32.459  1.00  0.00     0.025 A 
ATOM      6  C   UNL     1      11.221   0.249  33.146  1.00  0.00     0.062 A 
ATOM      7  C   UNL     1      13.539  -0.479  32.934  1.00  0.00     0.020 A 
ATOM      8  C   UNL     1      14.506  -1.183  32.218  1.00  0.00     0.094 A 
ATOM      9  C   UNL     1      14.133  -1.835  31.039  1.00  0.00     0.336 A 
ATOM     10  O   UNL     1      14.990  -2.476  30.376  1.00  0.00    -0.246 OA
ATOM     11  O   UNL     1      12.874  -1.785  30.612  1.00  0.00    -0.419 OA
ENDROOT
BRANCH   1  12
ATOM     12  O   UNL     1       8.872   0.954  33.308  1.00  0.00    -0.493 OA
ATOM     13  C   UNL     1       8.466   0.705  34.651  1.00  0.00     0.278 C 
ENDBRANCH   1  12
BRANCH   2  14
ATOM     14  O   UNL     1       8.277  -0.358  31.003  1.00  0.00    -0.502 OA
ATOM     15  H   UNL     1       7.493  -0.772  31.487  1.00  0.00     0.293 HD
ENDBRANCH   2  14
BRANCH   3  16
ATOM     16  O   UNL     1      10.362  -1.802  29.569  1.00  0.00    -0.502 OA
ATOM     17  H   UNL     1      10.379  -2.807  29.482  1.00  0.00     0.293 HD
ENDBRANCH   3  16
TORSDOF 3
ENDMDL
MODEL 7
REMARK VINA RESULT:    -4.389     11.835     14.037
REMARK INTER + INTRA:          -4.971
REMARK INTER:                  -4.911
REMARK INTRA:                  -0.061
REMARK UNBOUND:                -0.069
REMARK SMILES COc1cc2ccc(=O)oc2c(O)c1O
REMARK SMILES IDX 3 1 14 2 12 3 11 4 5 5 4 6 6 7 7 8 8 9 9 10 10 11 2 12 1 13
REMARK SMILES IDX 15 14 13 16
REMARK H PARENT 15 15 13 17
REMARK Flexibility Score: inf
ROOT
ATOM      1  C   UNL     1       9.645  -0.234  31.634  1.00  0.00     0.165 A 
ATOM      2  C   UNL     1      10.379   0.745  30.943  1.00  0.00     0.204 A 
ATOM      3  C   UNL     1      11.525   0.376  30.195  1.00  0.00     0.205 A 
ATOM      4  C   UNL     1      11.920  -0.968  30.151  1.00  0.00     0.184 A 
ATOM      5  C   UNL     1      11.181  -1.948  30.846  1.00  0.00     0.025 A 
ATOM      6  C   UNL     1      10.050  -1.581  31.582  1.00  0.00     0.062 A 
ATOM      7  C   UNL     1      11.605  -3.279  30.779  1.00  0.00     0.020 A 
ATOM      8  C   UNL     1      12.738  -3.601  30.032  1.00  0.00     0.094 A 
ATOM      9  C   UNL     1      13.422  -2.578  29.369  1.00  0.00     0.336 A 
ATOM     10  O   UNL     1      14.448  -2.846  28.690  1.00  0.00    -0.246 OA
ATOM     11  O   UNL     1      12.996  -1.321  29.450  1.00  0.00    -0.419 OA
ENDROOT
BRANCH   1  12
ATOM     12  O   UNL     1       8.515   0.174  32.362  1.00  0.00    -0.493 OA
ATOM     13  C   UNL     1       8.215  -0.244  33.691  1.00  0.00     0.278 C 
ENDBRANCH   1  12
BRANCH   2  14
ATOM     14  O   UNL     1       9.936   2.067  31.025  1.00  0.00    -0.502 OA
ATOM     15  H   UNL     1      10.173   2.789  30.360  1.00  0.00     0.293 HD
ENDBRANCH   2  14
BRANCH   3  16
ATOM     16  O   UNL     1      12.293   1.306  29.489  1.00  0.00    -0.502 OA
ATOM     17  H   UNL     1      13.255   1.525  29.699  1.00  0.00     0.293 HD
ENDBRANCH   3  16
TORSDOF 3
ENDMDL
MODEL 8
REMARK VINA RESULT:    -4.375      1.874      2.663
REMARK INTER + INTRA:          -4.956
REMARK INTER:                  -4.903
REMARK INTRA:                  -0.053
REMARK UNBOUND:                -0.069
REMARK SMILES COc1cc2ccc(=O)oc2c(O)c1O
REMARK SMILES IDX 3 1 14 2 12 3 11 4 5 5 4 6 6 7 7 8 8 9 9 10 10 11 2 12 1 13
REMARK SMILES IDX 15 14 13 16
REMARK H PARENT 15 15 13 17
REMARK Flexibility Score: inf
ROOT
ATOM      1  C   UNL     1      13.824  -8.038  20.773  1.00  0.00     0.165 A 
ATOM      2  C   UNL     1      12.447  -7.761  20.736  1.00  0.00     0.204 A 
ATOM      3  C   UNL     1      11.760  -7.744  19.497  1.00  0.00     0.205 A 
ATOM      4  C   UNL     1      12.462  -8.004  18.312  1.00  0.00     0.184 A 
ATOM      5  C   UNL     1      13.844  -8.281  18.353  1.00  0.00     0.025 A 
ATOM      6  C   UNL     1      14.519  -8.298  19.577  1.00  0.00     0.062 A 
ATOM      7  C   UNL     1      14.511  -8.537  17.150  1.00  0.00     0.020 A 
ATOM      8  C   UNL     1      13.798  -8.510  15.952  1.00  0.00     0.094 A 
ATOM      9  C   UNL     1      12.429  -8.227  15.986  1.00  0.00     0.336 A 
ATOM     10  O   UNL     1      11.767  -8.198  14.917  1.00  0.00    -0.246 OA
ATOM     11  O   UNL     1      11.820  -7.989  17.144  1.00  0.00    -0.419 OA
ENDROOT
BRANCH   1  12
ATOM     12  O   UNL     1      14.467  -8.046  22.022  1.00  0.00    -0.493 OA
ATOM     13  C   UNL     1      15.699  -8.708  22.293  1.00  0.00     0.278 C 
ENDBRANCH   1  12
BRANCH   2  14
ATOM     14  O   UNL     1      11.803  -7.510  21.950  1.00  0.00    -0.502 OA
ATOM     15  H   UNL     1      10.872  -7.829  22.177  1.00  0.00     0.293 HD
ENDBRANCH   2  14
BRANCH   3  16
ATOM     16  O   UNL     1      10.392  -7.474  19.401  1.00  0.00    -0.502 OA
ATOM     17  H   UNL     1       9.915  -7.258  18.538  1.00  0.00     0.293 HD
ENDBRANCH   3  16
TORSDOF 3
ENDMDL
MODEL 9
REMARK VINA RESULT:    -4.296     11.560     13.373
REMARK INTER + INTRA:          -4.868
REMARK INTER:                  -4.810
REMARK INTRA:                  -0.057
REMARK UNBOUND:                -0.069
REMARK SMILES COc1cc2ccc(=O)oc2c(O)c1O
REMARK SMILES IDX 3 1 14 2 12 3 11 4 5 5 4 6 6 7 7 8 8 9 9 10 10 11 2 12 1 13
REMARK SMILES IDX 15 14 13 16
REMARK H PARENT 15 15 13 17
REMARK Flexibility Score: inf
ROOT
ATOM      1  C   UNL     1      13.121  -0.501  28.875  1.00  0.00     0.165 A 
ATOM      2  C   UNL     1      12.680  -1.806  29.149  1.00  0.00     0.204 A 
ATOM      3  C   UNL     1      11.568  -2.014  30.004  1.00  0.00     0.205 A 
ATOM      4  C   UNL     1      10.914  -0.911  30.570  1.00  0.00     0.184 A 
ATOM      5  C   UNL     1      11.360   0.398  30.292  1.00  0.00     0.025 A 
ATOM      6  C   UNL     1      12.457   0.599  29.448  1.00  0.00     0.062 A 
ATOM      7  C   UNL     1      10.683   1.474  30.875  1.00  0.00     0.020 A 
ATOM      8  C   UNL     1       9.594   1.227  31.709  1.00  0.00     0.094 A 
ATOM      9  C   UNL     1       9.207  -0.096  31.941  1.00  0.00     0.336 A 
ATOM     10  O   UNL     1       8.227  -0.342  32.692  1.00  0.00    -0.246 OA
ATOM     11  O   UNL     1       9.869  -1.100  31.373  1.00  0.00    -0.419 OA
ENDROOT
BRANCH   1  12
ATOM     12  O   UNL     1      14.226  -0.339  28.022  1.00  0.00    -0.493 OA
ATOM     13  C   UNL     1      15.232   0.657  28.182  1.00  0.00     0.278 C 
ENDBRANCH   1  12
BRANCH   2  14
ATOM     14  O   UNL     1      13.372  -2.864  28.555  1.00  0.00    -0.502 OA
ATOM     15  H   UNL     1      13.255  -3.151  27.593  1.00  0.00     0.293 HD
ENDBRANCH   2  14
BRANCH   3  16
ATOM     16  O   UNL     1      11.086  -3.289  30.312  1.00  0.00    -0.502 OA
ATOM     17  H   UNL     1      10.684  -3.922  29.638  1.00  0.00     0.293 HD
ENDBRANCH   3  16
TORSDOF 3
ENDMDL
