MODEL 1
REMARK VINA RESULT:    -3.957      0.000      0.000
REMARK INTER + INTRA:          -6.706
REMARK INTER:                  -6.039
REMARK INTRA:                  -0.667
REMARK UNBOUND:                -0.667
REMARK SMILES O=C([O-])CCCCCCCCC(=O)[O-]
REMARK SMILES IDX 7 1 6 2 5 3 4 4 2 5 1 6 3 7 8 8 9 9 10 10 11 11 12 12 13 13
REMARK SMILES IDX 14 14
REMARK H PARENT
REMARK Flexibility Score: inf
ROOT
ATOM      1  C   UNL     1     127.408 145.008 104.818  1.00  0.00     0.000 C 
ENDROOT
BRANCH   1   2
ATOM      2  C   UNL     1     127.210 146.014 105.965  1.00  0.00     0.000 C 
BRANCH   2   3
ATOM      3  C   UNL     1     126.955 145.350 107.333  1.00  0.00     0.006 C 
BRANCH   3   4
ATOM      4  C   UNL     1     127.488 146.196 108.498  1.00  0.00     0.053 C 
BRANCH   4   5
ATOM      5  C   UNL     1     128.894 145.807 108.827  1.00  0.00     0.041 C 
ATOM      6  O   UNL     1     129.367 144.721 108.400  1.00  0.00    -0.550 OA
ATOM      7  O   UNL     1     129.667 146.619 109.646  1.00  0.00    -0.550 OA
ENDBRANCH   4   5
ENDBRANCH   3   4
ENDBRANCH   2   3
ENDBRANCH   1   2
BRANCH   1   8
ATOM      8  C   UNL     1     127.420 143.551 105.298  1.00  0.00     0.000 C 
BRANCH   8   9
ATOM      9  C   UNL     1     128.845 142.985 105.304  1.00  0.00     0.000 C 
BRANCH   9  10
ATOM     10  C   UNL     1     128.933 141.723 106.169  1.00  0.00     0.006 C 
BRANCH  10  11
ATOM     11  C   UNL     1     127.539 141.172 106.482  1.00  0.00     0.053 C 
BRANCH  11  12
ATOM     12  C   UNL     1     127.582 139.682 106.612  1.00  0.00     0.041 C 
ATOM     13  O   UNL     1     127.296 139.134 107.709  1.00  0.00    -0.550 OA
ATOM     14  O   UNL     1     127.985 138.901 105.537  1.00  0.00    -0.550 OA
ENDBRANCH  11  12
ENDBRANCH  10  11
ENDBRANCH   9  10
ENDBRANCH   8   9
ENDBRANCH   1   8
TORSDOF 9
ENDMDL
MODEL 2
REMARK VINA RESULT:    -3.951      3.328      4.959
REMARK INTER + INTRA:          -6.696
REMARK INTER:                  -6.047
REMARK INTRA:                  -0.649
REMARK UNBOUND:                -0.667
REMARK SMILES O=C([O-])CCCCCCCCC(=O)[O-]
REMARK SMILES IDX 7 1 6 2 5 3 4 4 2 5 1 6 3 7 8 8 9 9 10 10 11 11 12 12 13 13
REMARK SMILES IDX 14 14
REMARK H PARENT
REMARK Flexibility Score: inf
ROOT
ATOM      1  C   UNL     1     130.548 144.709 106.169  1.00  0.00     0.000 C 
ENDROOT
BRANCH   1   2
ATOM      2  C   UNL     1     130.605 146.228 105.932  1.00  0.00     0.000 C 
BRANCH   2   3
ATOM      3  C   UNL     1     132.039 146.796 105.902  1.00  0.00     0.006 C 
BRANCH   3   4
ATOM      4  C   UNL     1     133.048 145.859 106.581  1.00  0.00     0.053 C 
BRANCH   4   5
ATOM      5  C   UNL     1     133.688 146.536 107.750  1.00  0.00     0.041 C 
ATOM      6  O   UNL     1     132.975 147.056 108.649  1.00  0.00    -0.550 OA
ATOM      7  O   UNL     1     135.071 146.637 107.826  1.00  0.00    -0.550 OA
ENDBRANCH   4   5
ENDBRANCH   3   4
ENDBRANCH   2   3
ENDBRANCH   1   2
BRANCH   1   8
ATOM      8  C   UNL     1     129.172 144.107 105.855  1.00  0.00     0.000 C 
BRANCH   8   9
ATOM      9  C   UNL     1     128.202 145.183 105.356  1.00  0.00     0.000 C 
BRANCH   9  10
ATOM     10  C   UNL     1     127.003 145.326 106.301  1.00  0.00     0.006 C 
BRANCH  10  11
ATOM     11  C   UNL     1     127.177 144.450 107.546  1.00  0.00     0.053 C 
BRANCH  11  12
ATOM     12  C   UNL     1     127.321 145.301 108.768  1.00  0.00     0.041 C 
ATOM     13  O   UNL     1     126.879 144.897 109.875  1.00  0.00    -0.550 OA
ATOM     14  O   UNL     1     127.900 146.560 108.675  1.00  0.00    -0.550 OA
ENDBRANCH  11  12
ENDBRANCH  10  11
ENDBRANCH   9  10
ENDBRANCH   8   9
ENDBRANCH   1   8
TORSDOF 9
ENDMDL
MODEL 3
REMARK VINA RESULT:    -3.936      0.662      5.321
REMARK INTER + INTRA:          -6.673
REMARK INTER:                  -6.006
REMARK INTRA:                  -0.667
REMARK UNBOUND:                -0.667
REMARK SMILES O=C([O-])CCCCCCCCC(=O)[O-]
REMARK SMILES IDX 7 1 6 2 5 3 4 4 2 5 1 6 3 7 8 8 9 9 10 10 11 11 12 12 13 13
REMARK SMILES IDX 14 14
REMARK H PARENT
REMARK Flexibility Score: inf
ROOT
ATOM      1  C   UNL     1     127.442 143.658 105.364  1.00  0.00     0.000 C 
ENDROOT
BRANCH   1   2
ATOM      2  C   UNL     1     128.844 143.025 105.366  1.00  0.00     0.000 C 
BRANCH   2   3
ATOM      3  C   UNL     1     128.933 141.719 106.183  1.00  0.00     0.006 C 
BRANCH   3   4
ATOM      4  C   UNL     1     127.568 141.291 106.741  1.00  0.00     0.053 C 
BRANCH   4   5
ATOM      5  C   UNL     1     127.733 140.184 107.733  1.00  0.00     0.041 C 
ATOM      6  O   UNL     1     127.260 139.042 107.493  1.00  0.00    -0.550 OA
ATOM      7  O   UNL     1     128.365 140.425 108.946  1.00  0.00    -0.550 OA
ENDBRANCH   4   5
ENDBRANCH   3   4
ENDBRANCH   2   3
ENDBRANCH   1   2
BRANCH   1   8
ATOM      8  C   UNL     1     127.444 145.113 104.877  1.00  0.00     0.000 C 
BRANCH   8   9
ATOM      9  C   UNL     1     127.028 146.070 106.000  1.00  0.00     0.000 C 
BRANCH   9  10
ATOM     10  C   UNL     1     126.948 145.338 107.345  1.00  0.00     0.006 C 
BRANCH  10  11
ATOM     11  C   UNL     1     127.487 146.213 108.480  1.00  0.00     0.053 C 
BRANCH  11  12
ATOM     12  C   UNL     1     128.900 145.840 108.802  1.00  0.00     0.041 C 
ATOM     13  O   UNL     1     129.395 144.778 108.341  1.00  0.00    -0.550 OA
ATOM     14  O   UNL     1     129.655 146.640 109.650  1.00  0.00    -0.550 OA
ENDBRANCH  11  12
ENDBRANCH  10  11
ENDBRANCH   9  10
ENDBRANCH   8   9
ENDBRANCH   1   8
TORSDOF 9
ENDMDL
MODEL 4
REMARK VINA RESULT:    -3.920      1.853      2.100
REMARK INTER + INTRA:          -6.650
REMARK INTER:                  -5.620
REMARK INTRA:                  -1.030
REMARK UNBOUND:                -0.667
REMARK SMILES O=C([O-])CCCCCCCCC(=O)[O-]
REMARK SMILES IDX 7 1 6 2 5 3 4 4 2 5 1 6 3 7 8 8 9 9 10 10 11 11 12 12 13 13
REMARK SMILES IDX 14 14
REMARK H PARENT
REMARK Flexibility Score: inf
ROOT
ATOM      1  C   UNL     1     128.112 145.453 105.762  1.00  0.00     0.000 C 
ENDROOT
BRANCH   1   2
ATOM      2  C   UNL     1     127.049 145.892 106.783  1.00  0.00     0.000 C 
BRANCH   2   3
ATOM      3  C   UNL     1     127.592 146.026 108.222  1.00  0.00     0.006 C 
BRANCH   3   4
ATOM      4  C   UNL     1     129.106 145.782 108.295  1.00  0.00     0.053 C 
BRANCH   4   5
ATOM      5  C   UNL     1     129.583 145.879 109.709  1.00  0.00     0.041 C 
ATOM      6  O   UNL     1     129.256 145.001 110.549  1.00  0.00    -0.550 OA
ATOM      7  O   UNL     1     130.350 146.965 110.112  1.00  0.00    -0.550 OA
ENDBRANCH   4   5
ENDBRANCH   3   4
ENDBRANCH   2   3
ENDBRANCH   1   2
BRANCH   1   8
ATOM      8  C   UNL     1     127.794 144.097 105.116  1.00  0.00     0.000 C 
BRANCH   8   9
ATOM      9  C   UNL     1     128.905 143.079 105.398  1.00  0.00     0.000 C 
BRANCH   9  10
ATOM     10  C   UNL     1     128.339 141.813 106.052  1.00  0.00     0.006 C 
BRANCH  10  11
ATOM     11  C   UNL     1     127.288 142.164 107.110  1.00  0.00     0.053 C 
BRANCH  11  12
ATOM     12  C   UNL     1     127.916 142.247 108.465  1.00  0.00     0.041 C 
ATOM     13  O   UNL     1     127.261 142.700 109.440  1.00  0.00    -0.550 OA
ATOM     14  O   UNL     1     129.241 141.870 108.642  1.00  0.00    -0.550 OA
ENDBRANCH  11  12
ENDBRANCH  10  11
ENDBRANCH   9  10
ENDBRANCH   8   9
ENDBRANCH   1   8
TORSDOF 9
ENDMDL
MODEL 5
REMARK VINA RESULT:    -3.838      3.086      5.581
REMARK INTER + INTRA:          -6.524
REMARK INTER:                  -5.855
REMARK INTRA:                  -0.669
REMARK UNBOUND:                -0.667
REMARK SMILES O=C([O-])CCCCCCCCC(=O)[O-]
REMARK SMILES IDX 7 1 6 2 5 3 4 4 2 5 1 6 3 7 8 8 9 9 10 10 11 11 12 12 13 13
REMARK SMILES IDX 14 14
REMARK H PARENT
REMARK Flexibility Score: inf
ROOT
ATOM      1  C   UNL     1     129.712 143.199 105.969  1.00  0.00     0.000 C 
ENDROOT
BRANCH   1   2
ATOM      2  C   UNL     1     128.513 143.836 105.245  1.00  0.00     0.000 C 
BRANCH   2   3
ATOM      3  C   UNL     1     127.219 143.849 106.085  1.00  0.00     0.006 C 
BRANCH   3   4
ATOM      4  C   UNL     1     126.956 145.220 106.724  1.00  0.00     0.053 C 
BRANCH   4   5
ATOM      5  C   UNL     1     127.379 145.220 108.158  1.00  0.00     0.041 C 
ATOM      6  O   UNL     1     127.247 144.180 108.856  1.00  0.00    -0.550 OA
ATOM      7  O   UNL     1     127.875 146.380 108.738  1.00  0.00    -0.550 OA
ENDBRANCH   4   5
ENDBRANCH   3   4
ENDBRANCH   2   3
ENDBRANCH   1   2
BRANCH   1   8
ATOM      8  C   UNL     1     130.933 144.127 106.031  1.00  0.00     0.000 C 
BRANCH   8   9
ATOM      9  C   UNL     1     130.504 145.598 106.068  1.00  0.00     0.000 C 
BRANCH   9  10
ATOM     10  C   UNL     1     131.723 146.526 106.135  1.00  0.00     0.006 C 
BRANCH  10  11
ATOM     11  C   UNL     1     132.956 145.777 106.650  1.00  0.00     0.053 C 
BRANCH  11  12
ATOM     12  C   UNL     1     133.594 146.532 107.774  1.00  0.00     0.041 C 
ATOM     13  O   UNL     1     132.885 147.016 108.694  1.00  0.00    -0.550 OA
ATOM     14  O   UNL     1     134.967 146.742 107.780  1.00  0.00    -0.550 OA
ENDBRANCH  11  12
ENDBRANCH  10  11
ENDBRANCH   9  10
ENDBRANCH   8   9
ENDBRANCH   1   8
TORSDOF 9
ENDMDL
MODEL 6
REMARK VINA RESULT:    -3.833      2.825      3.548
REMARK INTER + INTRA:          -6.517
REMARK INTER:                  -5.862
REMARK INTRA:                  -0.655
REMARK UNBOUND:                -0.667
REMARK SMILES O=C([O-])CCCCCCCCC(=O)[O-]
REMARK SMILES IDX 7 1 6 2 5 3 4 4 2 5 1 6 3 7 8 8 9 9 10 10 11 11 12 12 13 13
REMARK SMILES IDX 14 14
REMARK H PARENT
REMARK Flexibility Score: inf
ROOT
ATOM      1  C   UNL     1     128.501 145.634 105.690  1.00  0.00     0.000 C 
ENDROOT
BRANCH   1   2
ATOM      2  C   UNL     1     129.880 145.033 106.015  1.00  0.00     0.000 C 
BRANCH   2   3
ATOM      3  C   UNL     1     130.764 145.949 106.886  1.00  0.00     0.006 C 
BRANCH   3   4
ATOM      4  C   UNL     1     132.259 145.648 106.712  1.00  0.00     0.053 C 
BRANCH   4   5
ATOM      5  C   UNL     1     133.070 146.443 107.684  1.00  0.00     0.041 C 
ATOM      6  O   UNL     1     134.295 146.645 107.471  1.00  0.00    -0.550 OA
ATOM      7  O   UNL     1     132.487 146.922 108.850  1.00  0.00    -0.550 OA
ENDBRANCH   4   5
ENDBRANCH   3   4
ENDBRANCH   2   3
ENDBRANCH   1   2
BRANCH   1   8
ATOM      8  C   UNL     1     127.545 144.621 105.045  1.00  0.00     0.000 C 
BRANCH   8   9
ATOM      9  C   UNL     1     128.078 143.191 105.193  1.00  0.00     0.000 C 
BRANCH   9  10
ATOM     10  C   UNL     1     127.250 142.398 106.210  1.00  0.00     0.006 C 
BRANCH  10  11
ATOM     11  C   UNL     1     128.125 141.906 107.368  1.00  0.00     0.053 C 
BRANCH  11  12
ATOM     12  C   UNL     1     127.782 142.634 108.629  1.00  0.00     0.041 C 
ATOM     13  O   UNL     1     127.953 142.080 109.746  1.00  0.00    -0.550 OA
ATOM     14  O   UNL     1     127.229 143.907 108.569  1.00  0.00    -0.550 OA
ENDBRANCH  11  12
ENDBRANCH  10  11
ENDBRANCH   9  10
ENDBRANCH   8   9
ENDBRANCH   1   8
TORSDOF 9
ENDMDL
MODEL 7
REMARK VINA RESULT:    -3.810      2.938      5.545
REMARK INTER + INTRA:          -6.482
REMARK INTER:                  -5.913
REMARK INTRA:                  -0.569
REMARK UNBOUND:                -0.667
REMARK SMILES O=C([O-])CCCCCCCCC(=O)[O-]
REMARK SMILES IDX 7 1 6 2 5 3 4 4 2 5 1 6 3 7 8 8 9 9 10 10 11 11 12 12 13 13
REMARK SMILES IDX 14 14
REMARK H PARENT
REMARK Flexibility Score: inf
ROOT
ATOM      1  C   UNL     1     127.834 144.618 105.136  1.00  0.00     0.000 C 
ENDROOT
BRANCH   1   2
ATOM      2  C   UNL     1     128.163 143.134 105.377  1.00  0.00     0.000 C 
BRANCH   2   3
ATOM      3  C   UNL     1     127.140 142.413 106.280  1.00  0.00     0.006 C 
BRANCH   3   4
ATOM      4  C   UNL     1     127.818 141.637 107.418  1.00  0.00     0.053 C 
BRANCH   4   5
ATOM      5  C   UNL     1     127.775 142.425 108.688  1.00  0.00     0.041 C 
ATOM      6  O   UNL     1     128.213 141.927 109.758  1.00  0.00    -0.550 OA
ATOM      7  O   UNL     1     127.207 143.692 108.701  1.00  0.00    -0.550 OA
ENDBRANCH   4   5
ENDBRANCH   3   4
ENDBRANCH   2   3
ENDBRANCH   1   2
BRANCH   1   8
ATOM      8  C   UNL     1     128.592 145.559 106.082  1.00  0.00     0.000 C 
BRANCH   8   9
ATOM      9  C   UNL     1     130.062 145.141 106.210  1.00  0.00     0.000 C 
BRANCH   9  10
ATOM     10  C   UNL     1     130.995 146.340 106.001  1.00  0.00     0.006 C 
BRANCH  10  11
ATOM     11  C   UNL     1     132.460 145.938 106.200  1.00  0.00     0.053 C 
BRANCH  11  12
ATOM     12  C   UNL     1     132.976 146.468 107.501  1.00  0.00     0.041 C 
ATOM     13  O   UNL     1     132.176 146.752 108.430  1.00  0.00    -0.550 OA
ATOM     14  O   UNL     1     134.336 146.694 107.669  1.00  0.00    -0.550 OA
ENDBRANCH  11  12
ENDBRANCH  10  11
ENDBRANCH   9  10
ENDBRANCH   8   9
ENDBRANCH   1   8
TORSDOF 9
ENDMDL
MODEL 8
REMARK VINA RESULT:    -3.806      2.803      4.752
REMARK INTER + INTRA:          -6.476
REMARK INTER:                  -5.739
REMARK INTRA:                  -0.737
REMARK UNBOUND:                -0.667
REMARK SMILES O=C([O-])CCCCCCCCC(=O)[O-]
REMARK SMILES IDX 7 1 6 2 5 3 4 4 2 5 1 6 3 7 8 8 9 9 10 10 11 11 12 12 13 13
REMARK SMILES IDX 14 14
REMARK H PARENT
REMARK Flexibility Score: inf
ROOT
ATOM      1  C   UNL     1     129.901 143.088 106.150  1.00  0.00     0.000 C 
ENDROOT
BRANCH   1   2
ATOM      2  C   UNL     1     131.295 143.701 105.934  1.00  0.00     0.000 C 
BRANCH   2   3
ATOM      3  C   UNL     1     131.342 145.227 106.157  1.00  0.00     0.006 C 
BRANCH   3   4
ATOM      4  C   UNL     1     132.777 145.772 106.142  1.00  0.00     0.053 C 
BRANCH   4   5
ATOM      5  C   UNL     1     133.101 146.429 107.446  1.00  0.00     0.041 C 
ATOM      6  O   UNL     1     134.292 146.727 107.725  1.00  0.00    -0.550 OA
ATOM      7  O   UNL     1     132.096 146.669 108.373  1.00  0.00    -0.550 OA
ENDBRANCH   4   5
ENDBRANCH   3   4
ENDBRANCH   2   3
ENDBRANCH   1   2
BRANCH   1   8
ATOM      8  C   UNL     1     128.944 143.354 104.979  1.00  0.00     0.000 C 
BRANCH   8   9
ATOM      9  C   UNL     1     127.600 143.896 105.480  1.00  0.00     0.000 C 
BRANCH   9  10
ATOM     10  C   UNL     1     127.640 145.422 105.621  1.00  0.00     0.006 C 
BRANCH  10  11
ATOM     11  C   UNL     1     126.892 145.877 106.878  1.00  0.00     0.053 C 
BRANCH  11  12
ATOM     12  C   UNL     1     127.643 145.474 108.108  1.00  0.00     0.041 C 
ATOM     13  O   UNL     1     128.703 146.074 108.428  1.00  0.00    -0.550 OA
ATOM     14  O   UNL     1     127.198 144.405 108.876  1.00  0.00    -0.550 OA
ENDBRANCH  11  12
ENDBRANCH  10  11
ENDBRANCH   9  10
ENDBRANCH   8   9
ENDBRANCH   1   8
TORSDOF 9
ENDMDL
MODEL 9
REMARK VINA RESULT:    -3.743      4.429      6.195
REMARK INTER + INTRA:          -6.380
REMARK INTER:                  -5.797
REMARK INTRA:                  -0.583
REMARK UNBOUND:                -0.667
REMARK SMILES O=C([O-])CCCCCCCCC(=O)[O-]
REMARK SMILES IDX 7 1 6 2 5 3 4 4 2 5 1 6 3 7 8 8 9 9 10 10 11 11 12 12 13 13
REMARK SMILES IDX 14 14
REMARK H PARENT
REMARK Flexibility Score: inf
ROOT
ATOM      1  C   UNL     1     130.630 144.819 106.191  1.00  0.00     0.000 C 
ENDROOT
BRANCH   1   2
ATOM      2  C   UNL     1     129.216 144.364 105.791  1.00  0.00     0.000 C 
BRANCH   2   3
ATOM      3  C   UNL     1     128.210 145.525 105.645  1.00  0.00     0.006 C 
BRANCH   3   4
ATOM      4  C   UNL     1     126.979 145.342 106.544  1.00  0.00     0.053 C 
BRANCH   4   5
ATOM      5  C   UNL     1     127.384 145.290 107.982  1.00  0.00     0.041 C 
ATOM      6  O   UNL     1     127.135 144.267 108.674  1.00  0.00    -0.550 OA
ATOM      7  O   UNL     1     127.994 146.388 108.574  1.00  0.00    -0.550 OA
ENDBRANCH   4   5
ENDBRANCH   3   4
ENDBRANCH   2   3
ENDBRANCH   1   2
BRANCH   1   8
ATOM      8  C   UNL     1     130.820 146.338 106.085  1.00  0.00     0.000 C 
BRANCH   8   9
ATOM      9  C   UNL     1     132.308 146.705 106.051  1.00  0.00     0.000 C 
BRANCH   9  10
ATOM     10  C   UNL     1     133.167 145.486 105.695  1.00  0.00     0.006 C 
BRANCH  10  11
ATOM     11  C   UNL     1     134.452 145.909 104.976  1.00  0.00     0.053 C 
BRANCH  11  12
ATOM     12  C   UNL     1     135.632 145.765 105.885  1.00  0.00     0.041 C 
ATOM     13  O   UNL     1     136.370 144.748 105.808  1.00  0.00    -0.550 OA
ATOM     14  O   UNL     1     135.888 146.731 106.850  1.00  0.00    -0.550 OA
ENDBRANCH  11  12
ENDBRANCH  10  11
ENDBRANCH   9  10
ENDBRANCH   8   9
ENDBRANCH   1   8
TORSDOF 9
ENDMDL
