MODEL 1
REMARK VINA RESULT:    -4.205      0.000      0.000
REMARK INTER + INTRA:          -5.323
REMARK INTER:                  -5.066
REMARK INTRA:                  -0.258
REMARK UNBOUND:                -0.258
REMARK SMILES C=CCc1ccc(O)c(OC)c1
REMARK SMILES IDX 9 1 7 2 6 3 5 4 4 5 12 6 10 7 11 8 8 9 3 11 2 12 1 13
REMARK H PARENT 8 10
REMARK Flexibility Score: inf
ROOT
ATOM      1  C   UNL     1      49.745 -28.607 -31.402  1.00  0.00     0.160 A 
ATOM      2  C   UNL     1      48.904 -28.260 -32.475  1.00  0.00     0.157 A 
ATOM      3  C   UNL     1      47.536 -28.545 -32.414  1.00  0.00     0.050 A 
ATOM      4  C   UNL     1      46.994 -29.171 -31.290  1.00  0.00     0.008 A 
ATOM      5  C   UNL     1      47.815 -29.513 -30.206  1.00  0.00    -0.040 A 
ATOM      6  C   UNL     1      49.190 -29.237 -30.269  1.00  0.00     0.054 A 
ENDROOT
BRANCH   1   7
ATOM      7  O   UNL     1      51.115 -28.316 -31.493  1.00  0.00    -0.493 OA
ATOM      8  C   UNL     1      52.105 -29.224 -31.965  1.00  0.00     0.278 C 
ENDBRANCH   1   7
BRANCH   2   9
ATOM      9  O   UNL     1      49.410 -27.635 -33.614  1.00  0.00    -0.504 OA
ATOM     10  H   UNL     1      50.337 -27.830 -33.971  1.00  0.00     0.293 HD
ENDBRANCH   2   9
BRANCH   5  11
ATOM     11  C   UNL     1      47.232 -30.214 -29.009  1.00  0.00     0.062 C 
BRANCH  11  12
ATOM     12  C   UNL     1      46.257 -31.276 -29.436  1.00  0.00    -0.030 C 
ATOM     13  C   UNL     1      46.527 -32.577 -29.294  1.00  0.00     0.004 C 
ENDBRANCH  11  12
ENDBRANCH   5  11
TORSDOF 4
ENDMDL
MODEL 2
REMARK VINA RESULT:    -4.154      1.325      1.571
REMARK INTER + INTRA:          -5.262
REMARK INTER:                  -5.019
REMARK INTRA:                  -0.242
REMARK UNBOUND:                -0.258
REMARK SMILES C=CCc1ccc(O)c(OC)c1
REMARK SMILES IDX 9 1 7 2 6 3 5 4 4 5 12 6 10 7 11 8 8 9 3 11 2 12 1 13
REMARK H PARENT 8 10
REMARK Flexibility Score: inf
ROOT
ATOM      1  C   UNL     1      48.506 -28.325 -31.473  1.00  0.00     0.160 A 
ATOM      2  C   UNL     1      47.252 -27.861 -31.911  1.00  0.00     0.157 A 
ATOM      3  C   UNL     1      46.079 -28.415 -31.388  1.00  0.00     0.050 A 
ATOM      4  C   UNL     1      46.142 -29.426 -30.429  1.00  0.00     0.008 A 
ATOM      5  C   UNL     1      47.382 -29.893 -29.972  1.00  0.00    -0.040 A 
ATOM      6  C   UNL     1      48.562 -29.345 -30.502  1.00  0.00     0.054 A 
ENDROOT
BRANCH   1   7
ATOM      7  O   UNL     1      49.668 -27.756 -32.020  1.00  0.00    -0.493 OA
ATOM      8  C   UNL     1      50.550 -26.888 -31.317  1.00  0.00     0.278 C 
ENDBRANCH   1   7
BRANCH   2   9
ATOM      9  O   UNL     1      47.151 -26.853 -32.868  1.00  0.00    -0.504 OA
ATOM     10  H   UNL     1      46.323 -26.275 -32.960  1.00  0.00     0.293 HD
ENDBRANCH   2   9
BRANCH   5  11
ATOM     11  C   UNL     1      47.445 -31.004 -28.958  1.00  0.00     0.062 C 
BRANCH  11  12
ATOM     12  C   UNL     1      46.413 -32.055 -29.257  1.00  0.00    -0.030 C 
ATOM     13  C   UNL     1      46.750 -33.332 -29.461  1.00  0.00     0.004 C 
ENDBRANCH  11  12
ENDBRANCH   5  11
TORSDOF 4
ENDMDL
MODEL 3
REMARK VINA RESULT:    -4.063      1.005      1.245
REMARK INTER + INTRA:          -5.152
REMARK INTER:                  -4.931
REMARK INTRA:                  -0.221
REMARK UNBOUND:                -0.258
REMARK SMILES C=CCc1ccc(O)c(OC)c1
REMARK SMILES IDX 9 1 7 2 6 3 5 4 4 5 12 6 10 7 11 8 8 9 3 11 2 12 1 13
REMARK H PARENT 8 10
REMARK Flexibility Score: inf
ROOT
ATOM      1  C   UNL     1      50.146 -28.670 -30.978  1.00  0.00     0.160 A 
ATOM      2  C   UNL     1      50.047 -28.112 -32.266  1.00  0.00     0.157 A 
ATOM      3  C   UNL     1      48.816 -28.096 -32.929  1.00  0.00     0.050 A 
ATOM      4  C   UNL     1      47.678 -28.629 -32.321  1.00  0.00     0.008 A 
ATOM      5  C   UNL     1      47.756 -29.178 -31.033  1.00  0.00    -0.040 A 
ATOM      6  C   UNL     1      48.993 -29.204 -30.369  1.00  0.00     0.054 A 
ENDROOT
BRANCH   1   7
ATOM      7  O   UNL     1      51.396 -28.679 -30.338  1.00  0.00    -0.493 OA
ATOM      8  C   UNL     1      52.236 -29.822 -30.222  1.00  0.00     0.278 C 
ENDBRANCH   1   7
BRANCH   2   9
ATOM      9  O   UNL     1      51.162 -27.571 -32.905  1.00  0.00    -0.504 OA
ATOM     10  H   UNL     1      52.099 -27.924 -32.747  1.00  0.00     0.293 HD
ENDBRANCH   2   9
BRANCH   5  11
ATOM     11  C   UNL     1      46.533 -29.778 -30.393  1.00  0.00     0.062 C 
BRANCH  11  12
ATOM     12  C   UNL     1      46.920 -30.788 -29.349  1.00  0.00    -0.030 C 
ATOM     13  C   UNL     1      46.467 -32.045 -29.385  1.00  0.00     0.004 C 
ENDBRANCH  11  12
ENDBRANCH   5  11
TORSDOF 4
ENDMDL
MODEL 4
REMARK VINA RESULT:    -4.036     13.701     15.996
REMARK INTER + INTRA:          -5.119
REMARK INTER:                  -4.907
REMARK INTRA:                  -0.212
REMARK UNBOUND:                -0.258
REMARK SMILES C=CCc1ccc(O)c(OC)c1
REMARK SMILES IDX 9 1 7 2 6 3 5 4 4 5 12 6 10 7 11 8 8 9 3 11 2 12 1 13
REMARK H PARENT 8 10
REMARK Flexibility Score: inf
ROOT
ATOM      1  C   UNL     1      39.023 -42.370 -27.809  1.00  0.00     0.160 A 
ATOM      2  C   UNL     1      38.813 -42.775 -29.140  1.00  0.00     0.157 A 
ATOM      3  C   UNL     1      38.662 -41.817 -30.148  1.00  0.00     0.050 A 
ATOM      4  C   UNL     1      38.721 -40.456 -29.844  1.00  0.00     0.008 A 
ATOM      5  C   UNL     1      38.942 -40.034 -28.525  1.00  0.00    -0.040 A 
ATOM      6  C   UNL     1      39.085 -40.994 -27.510  1.00  0.00     0.054 A 
ENDROOT
BRANCH   1   7
ATOM      7  O   UNL     1      39.165 -43.353 -26.816  1.00  0.00    -0.493 OA
ATOM      8  C   UNL     1      38.679 -43.232 -25.484  1.00  0.00     0.278 C 
ENDBRANCH   1   7
BRANCH   2   9
ATOM      9  O   UNL     1      38.747 -44.125 -29.480  1.00  0.00    -0.504 OA
ATOM     10  H   UNL     1      38.117 -44.473 -30.194  1.00  0.00     0.293 HD
ENDBRANCH   2   9
BRANCH   5  11
ATOM     11  C   UNL     1      38.977 -38.566 -28.197  1.00  0.00     0.062 C 
BRANCH  11  12
ATOM     12  C   UNL     1      38.436 -37.753 -29.340  1.00  0.00    -0.030 C 
ATOM     13  C   UNL     1      38.604 -36.428 -29.403  1.00  0.00     0.004 C 
ENDBRANCH  11  12
ENDBRANCH   5  11
TORSDOF 4
ENDMDL
MODEL 5
REMARK VINA RESULT:    -4.022      1.935      4.596
REMARK INTER + INTRA:          -5.103
REMARK INTER:                  -4.879
REMARK INTRA:                  -0.224
REMARK UNBOUND:                -0.258
REMARK SMILES C=CCc1ccc(O)c(OC)c1
REMARK SMILES IDX 9 1 7 2 6 3 5 4 4 5 12 6 10 7 11 8 8 9 3 11 2 12 1 13
REMARK H PARENT 8 10
REMARK Flexibility Score: inf
ROOT
ATOM      1  C   UNL     1      47.610 -28.941 -30.883  1.00  0.00     0.160 A 
ATOM      2  C   UNL     1      47.332 -28.239 -32.070  1.00  0.00     0.157 A 
ATOM      3  C   UNL     1      48.380 -27.766 -32.866  1.00  0.00     0.050 A 
ATOM      4  C   UNL     1      49.706 -27.988 -32.493  1.00  0.00     0.008 A 
ATOM      5  C   UNL     1      50.003 -28.696 -31.320  1.00  0.00    -0.040 A 
ATOM      6  C   UNL     1      48.952 -29.164 -30.514  1.00  0.00     0.054 A 
ENDROOT
BRANCH   1   7
ATOM      7  O   UNL     1      46.539 -29.399 -30.099  1.00  0.00    -0.493 OA
ATOM      8  C   UNL     1      46.459 -30.696 -29.517  1.00  0.00     0.278 C 
ENDBRANCH   1   7
BRANCH   2   9
ATOM      9  O   UNL     1      46.019 -27.999 -32.473  1.00  0.00    -0.504 OA
ATOM     10  H   UNL     1      45.777 -27.240 -33.100  1.00  0.00     0.293 HD
ENDBRANCH   2   9
BRANCH   5  11
ATOM     11  C   UNL     1      51.434 -28.907 -30.906  1.00  0.00     0.062 C 
BRANCH  11  12
ATOM     12  C   UNL     1      52.358 -28.734 -32.080  1.00  0.00    -0.030 C 
ATOM     13  C   UNL     1      53.382 -27.876 -32.048  1.00  0.00     0.004 C 
ENDBRANCH  11  12
ENDBRANCH   5  11
TORSDOF 4
ENDMDL
MODEL 6
REMARK VINA RESULT:    -4.007     12.182     12.884
REMARK INTER + INTRA:          -5.084
REMARK INTER:                  -4.861
REMARK INTRA:                  -0.223
REMARK UNBOUND:                -0.258
REMARK SMILES C=CCc1ccc(O)c(OC)c1
REMARK SMILES IDX 9 1 7 2 6 3 5 4 4 5 12 6 10 7 11 8 8 9 3 11 2 12 1 13
REMARK H PARENT 8 10
REMARK Flexibility Score: inf
ROOT
ATOM      1  C   UNL     1      54.255 -41.046 -31.832  1.00  0.00     0.160 A 
ATOM      2  C   UNL     1      55.066 -40.899 -30.692  1.00  0.00     0.157 A 
ATOM      3  C   UNL     1      54.480 -40.766 -29.429  1.00  0.00     0.050 A 
ATOM      4  C   UNL     1      53.092 -40.781 -29.288  1.00  0.00     0.008 A 
ATOM      5  C   UNL     1      52.269 -40.938 -30.412  1.00  0.00    -0.040 A 
ATOM      6  C   UNL     1      52.854 -41.063 -31.683  1.00  0.00     0.054 A 
ENDROOT
BRANCH   1   7
ATOM      7  O   UNL     1      54.869 -41.171 -33.089  1.00  0.00    -0.493 OA
ATOM      8  C   UNL     1      54.995 -40.116 -34.036  1.00  0.00     0.278 C 
ENDBRANCH   1   7
BRANCH   2   9
ATOM      9  O   UNL     1      56.456 -40.879 -30.794  1.00  0.00    -0.504 OA
ATOM     10  H   UNL     1      57.033 -40.283 -30.212  1.00  0.00     0.293 HD
ENDBRANCH   2   9
BRANCH   5  11
ATOM     11  C   UNL     1      50.772 -40.925 -30.260  1.00  0.00     0.062 C 
BRANCH  11  12
ATOM     12  C   UNL     1      50.279 -42.240 -29.723  1.00  0.00    -0.030 C 
ATOM     13  C   UNL     1      49.316 -42.934 -30.337  1.00  0.00     0.004 C 
ENDBRANCH  11  12
ENDBRANCH   5  11
TORSDOF 4
ENDMDL
MODEL 7
REMARK VINA RESULT:    -3.947     12.663     13.456
REMARK INTER + INTRA:          -5.012
REMARK INTER:                  -4.783
REMARK INTRA:                  -0.229
REMARK UNBOUND:                -0.258
REMARK SMILES C=CCc1ccc(O)c(OC)c1
REMARK SMILES IDX 9 1 7 2 6 3 5 4 4 5 12 6 10 7 11 8 8 9 3 11 2 12 1 13
REMARK H PARENT 8 10
REMARK Flexibility Score: inf
ROOT
ATOM      1  C   UNL     1      55.265 -41.568 -30.973  1.00  0.00     0.160 A 
ATOM      2  C   UNL     1      54.925 -40.791 -32.096  1.00  0.00     0.157 A 
ATOM      3  C   UNL     1      53.582 -40.621 -32.449  1.00  0.00     0.050 A 
ATOM      4  C   UNL     1      52.572 -41.216 -31.692  1.00  0.00     0.008 A 
ATOM      5  C   UNL     1      52.892 -41.983 -30.563  1.00  0.00    -0.040 A 
ATOM      6  C   UNL     1      54.239 -42.163 -30.211  1.00  0.00     0.054 A 
ENDROOT
BRANCH   1   7
ATOM      7  O   UNL     1      56.621 -41.727 -30.645  1.00  0.00    -0.493 OA
ATOM      8  C   UNL     1      57.294 -41.008 -29.618  1.00  0.00     0.278 C 
ENDBRANCH   1   7
BRANCH   2   9
ATOM      9  O   UNL     1      55.907 -40.183 -32.875  1.00  0.00    -0.504 OA
ATOM     10  H   UNL     1      56.329 -40.646 -33.672  1.00  0.00     0.293 HD
ENDBRANCH   2   9
BRANCH   5  11
ATOM     11  C   UNL     1      51.800 -42.646 -29.766  1.00  0.00     0.062 C 
BRANCH  11  12
ATOM     12  C   UNL     1      50.779 -43.268 -30.678  1.00  0.00    -0.030 C 
ATOM     13  C   UNL     1      49.475 -43.252 -30.386  1.00  0.00     0.004 C 
ENDBRANCH  11  12
ENDBRANCH   5  11
TORSDOF 4
ENDMDL
MODEL 8
REMARK VINA RESULT:    -3.767     14.416     14.674
REMARK INTER + INTRA:          -4.796
REMARK INTER:                  -4.585
REMARK INTRA:                  -0.210
REMARK UNBOUND:                -0.258
REMARK SMILES C=CCc1ccc(O)c(OC)c1
REMARK SMILES IDX 9 1 7 2 6 3 5 4 4 5 12 6 10 7 11 8 8 9 3 11 2 12 1 13
REMARK H PARENT 8 10
REMARK Flexibility Score: inf
ROOT
ATOM      1  C   UNL     1      55.748 -40.574 -24.554  1.00  0.00     0.160 A 
ATOM      2  C   UNL     1      56.432 -39.624 -23.774  1.00  0.00     0.157 A 
ATOM      3  C   UNL     1      55.785 -39.000 -22.703  1.00  0.00     0.050 A 
ATOM      4  C   UNL     1      54.460 -39.315 -22.399  1.00  0.00     0.008 A 
ATOM      5  C   UNL     1      53.766 -40.267 -23.158  1.00  0.00    -0.040 A 
ATOM      6  C   UNL     1      54.411 -40.889 -24.239  1.00  0.00     0.054 A 
ENDROOT
BRANCH   1   7
ATOM      7  O   UNL     1      56.421 -41.181 -25.627  1.00  0.00    -0.493 OA
ATOM      8  C   UNL     1      56.325 -40.760 -26.983  1.00  0.00     0.278 C 
ENDBRANCH   1   7
BRANCH   2   9
ATOM      9  O   UNL     1      57.756 -39.285 -24.049  1.00  0.00    -0.504 OA
ATOM     10  H   UNL     1      58.023 -38.788 -24.891  1.00  0.00     0.293 HD
ENDBRANCH   2   9
BRANCH   5  11
ATOM     11  C   UNL     1      52.328 -40.582 -22.844  1.00  0.00     0.062 C 
BRANCH  11  12
ATOM     12  C   UNL     1      51.760 -41.540 -23.854  1.00  0.00    -0.030 C 
ATOM     13  C   UNL     1      50.786 -42.399 -23.538  1.00  0.00     0.004 C 
ENDBRANCH  11  12
ENDBRANCH   5  11
TORSDOF 4
ENDMDL
MODEL 9
REMARK VINA RESULT:    -3.747     12.989     14.448
REMARK INTER + INTRA:          -4.771
REMARK INTER:                  -4.485
REMARK INTRA:                  -0.286
REMARK UNBOUND:                -0.258
REMARK SMILES C=CCc1ccc(O)c(OC)c1
REMARK SMILES IDX 9 1 7 2 6 3 5 4 4 5 12 6 10 7 11 8 8 9 3 11 2 12 1 13
REMARK H PARENT 8 10
REMARK Flexibility Score: inf
ROOT
ATOM      1  C   UNL     1      55.305 -41.299 -30.735  1.00  0.00     0.160 A 
ATOM      2  C   UNL     1      56.264 -40.270 -30.752  1.00  0.00     0.157 A 
ATOM      3  C   UNL     1      57.250 -40.216 -29.761  1.00  0.00     0.050 A 
ATOM      4  C   UNL     1      57.292 -41.180 -28.753  1.00  0.00     0.008 A 
ATOM      5  C   UNL     1      56.351 -42.219 -28.728  1.00  0.00    -0.040 A 
ATOM      6  C   UNL     1      55.355 -42.270 -29.716  1.00  0.00     0.054 A 
ENDROOT
BRANCH   1   7
ATOM      7  O   UNL     1      54.322 -41.325 -31.738  1.00  0.00    -0.493 OA
ATOM      8  C   UNL     1      52.939 -41.067 -31.522  1.00  0.00     0.278 C 
ENDBRANCH   1   7
BRANCH   2   9
ATOM      9  O   UNL     1      56.253 -39.289 -31.743  1.00  0.00    -0.504 OA
ATOM     10  H   UNL     1      55.570 -39.285 -32.491  1.00  0.00     0.293 HD
ENDBRANCH   2   9
BRANCH   5  11
ATOM     11  C   UNL     1      56.383 -43.240 -27.622  1.00  0.00     0.062 C 
BRANCH  11  12
ATOM     12  C   UNL     1      56.104 -42.594 -26.293  1.00  0.00    -0.030 C 
ATOM     13  C   UNL     1      54.864 -42.276 -25.913  1.00  0.00     0.004 C 
ENDBRANCH  11  12
ENDBRANCH   5  11
TORSDOF 4
ENDMDL
