MODEL 1
REMARK VINA RESULT:    -2.196      0.000      0.000
REMARK INTER + INTRA:          -2.603
REMARK INTER:                  -2.581
REMARK INTRA:                  -0.022
REMARK UNBOUND:                -0.022
REMARK SMILES CCCCC(=O)[O-]
REMARK SMILES IDX 4 1 5 2 6 3 7 4 3 5 2 6 1 7
REMARK H PARENT
REMARK Flexibility Score: inf
ROOT
ATOM      1  C   UNL     1      12.350  -6.623   0.618  1.00  0.00     0.053 C 
ENDROOT
BRANCH   1   2
ATOM      2  C   UNL     1      12.844  -7.949   1.102  1.00  0.00     0.041 C 
ATOM      3  O   UNL     1      13.018  -8.896   0.290  1.00  0.00    -0.550 OA
ATOM      4  O   UNL     1      13.068  -8.155   2.458  1.00  0.00    -0.550 OA
ENDBRANCH   1   2
BRANCH   1   5
ATOM      5  C   UNL     1      12.894  -5.494   1.498  1.00  0.00     0.006 C 
BRANCH   5   6
ATOM      6  C   UNL     1      12.029  -4.234   1.372  1.00  0.00    -0.003 C 
ATOM      7  C   UNL     1      12.399  -3.204   2.436  1.00  0.00     0.004 C 
ENDBRANCH   5   6
ENDBRANCH   1   5
TORSDOF 3
ENDMDL
MODEL 2
REMARK VINA RESULT:    -2.195      1.856      2.408
REMARK INTER + INTRA:          -2.602
REMARK INTER:                  -2.549
REMARK INTRA:                  -0.053
REMARK UNBOUND:                -0.022
REMARK SMILES CCCCC(=O)[O-]
REMARK SMILES IDX 4 1 5 2 6 3 7 4 3 5 2 6 1 7
REMARK H PARENT
REMARK Flexibility Score: inf
ROOT
ATOM      1  C   UNL     1      13.125  -4.863   1.765  1.00  0.00     0.053 C 
ENDROOT
BRANCH   1   2
ATOM      2  C   UNL     1      12.439  -5.888   0.918  1.00  0.00     0.041 C 
ATOM      3  O   UNL     1      11.621  -5.530   0.029  1.00  0.00    -0.550 OA
ATOM      4  O   UNL     1      12.666  -7.240   1.141  1.00  0.00    -0.550 OA
ENDBRANCH   1   2
BRANCH   1   5
ATOM      5  C   UNL     1      12.181  -3.694   2.063  1.00  0.00     0.006 C 
BRANCH   5   6
ATOM      6  C   UNL     1      12.338  -3.217   3.512  1.00  0.00    -0.003 C 
ATOM      7  C   UNL     1      13.035  -4.271   4.366  1.00  0.00     0.004 C 
ENDBRANCH   5   6
ENDBRANCH   1   5
TORSDOF 3
ENDMDL
MODEL 3
REMARK VINA RESULT:    -2.118      2.604      4.136
REMARK INTER + INTRA:          -2.512
REMARK INTER:                  -2.488
REMARK INTRA:                  -0.024
REMARK UNBOUND:                -0.022
REMARK SMILES CCCCC(=O)[O-]
REMARK SMILES IDX 4 1 5 2 6 3 7 4 3 5 2 6 1 7
REMARK H PARENT
REMARK Flexibility Score: inf
ROOT
ATOM      1  C   UNL     1      12.435  -5.037   1.208  1.00  0.00     0.053 C 
ENDROOT
BRANCH   1   2
ATOM      2  C   UNL     1      12.668  -4.082   2.336  1.00  0.00     0.041 C 
ATOM      3  O   UNL     1      12.610  -2.840   2.136  1.00  0.00    -0.550 OA
ATOM      4  O   UNL     1      12.996  -4.562   3.597  1.00  0.00    -0.550 OA
ENDBRANCH   1   2
BRANCH   1   5
ATOM      5  C   UNL     1      13.112  -6.381   1.496  1.00  0.00     0.006 C 
BRANCH   5   6
ATOM      6  C   UNL     1      12.414  -7.519   0.742  1.00  0.00    -0.003 C 
ATOM      7  C   UNL     1      12.837  -8.880   1.287  1.00  0.00     0.004 C 
ENDBRANCH   5   6
ENDBRANCH   1   5
TORSDOF 3
ENDMDL
MODEL 4
REMARK VINA RESULT:    -2.095     18.094     18.479
REMARK INTER + INTRA:          -2.485
REMARK INTER:                  -2.400
REMARK INTRA:                  -0.085
REMARK UNBOUND:                -0.022
REMARK SMILES CCCCC(=O)[O-]
REMARK SMILES IDX 4 1 5 2 6 3 7 4 3 5 2 6 1 7
REMARK H PARENT
REMARK Flexibility Score: inf
ROOT
ATOM      1  C   UNL     1      -4.250  -8.359   2.235  1.00  0.00     0.053 C 
ENDROOT
BRANCH   1   2
ATOM      2  C   UNL     1      -5.087  -7.379   2.996  1.00  0.00     0.041 C 
ATOM      3  O   UNL     1      -4.564  -6.340   3.478  1.00  0.00    -0.550 OA
ATOM      4  O   UNL     1      -6.434  -7.637   3.214  1.00  0.00    -0.550 OA
ENDBRANCH   1   2
BRANCH   1   5
ATOM      5  C   UNL     1      -5.137  -9.272   1.383  1.00  0.00     0.006 C 
BRANCH   5   6
ATOM      6  C   UNL     1      -5.422  -8.640   0.015  1.00  0.00    -0.003 C 
ATOM      7  C   UNL     1      -6.845  -8.943  -0.445  1.00  0.00     0.004 C 
ENDBRANCH   5   6
ENDBRANCH   1   5
TORSDOF 3
ENDMDL
MODEL 5
REMARK VINA RESULT:    -2.054     13.761     14.245
REMARK INTER + INTRA:          -2.436
REMARK INTER:                  -2.363
REMARK INTRA:                  -0.073
REMARK UNBOUND:                -0.022
REMARK SMILES CCCCC(=O)[O-]
REMARK SMILES IDX 4 1 5 2 6 3 7 4 3 5 2 6 1 7
REMARK H PARENT
REMARK Flexibility Score: inf
ROOT
ATOM      1  C   UNL     1      -1.570  -7.468   4.965  1.00  0.00     0.053 C 
ENDROOT
BRANCH   1   2
ATOM      2  C   UNL     1      -0.364  -6.588   4.871  1.00  0.00     0.041 C 
ATOM      3  O   UNL     1       0.789  -7.094   4.827  1.00  0.00    -0.550 OA
ATOM      4  O   UNL     1      -0.508  -5.206   4.879  1.00  0.00    -0.550 OA
ENDBRANCH   1   2
BRANCH   1   5
ATOM      5  C   UNL     1      -1.196  -8.923   4.667  1.00  0.00     0.006 C 
BRANCH   5   6
ATOM      6  C   UNL     1      -1.457  -9.267   3.196  1.00  0.00    -0.003 C 
ATOM      7  C   UNL     1      -0.407 -10.237   2.662  1.00  0.00     0.004 C 
ENDBRANCH   5   6
ENDBRANCH   1   5
TORSDOF 3
ENDMDL
MODEL 6
REMARK VINA RESULT:    -2.051     18.224     18.608
REMARK INTER + INTRA:          -2.433
REMARK INTER:                  -2.327
REMARK INTRA:                  -0.106
REMARK UNBOUND:                -0.022
REMARK SMILES CCCCC(=O)[O-]
REMARK SMILES IDX 4 1 5 2 6 3 7 4 3 5 2 6 1 7
REMARK H PARENT
REMARK Flexibility Score: inf
ROOT
ATOM      1  C   UNL     1      -4.591  -8.473   1.764  1.00  0.00     0.053 C 
ENDROOT
BRANCH   1   2
ATOM      2  C   UNL     1      -5.226  -7.600   2.800  1.00  0.00     0.041 C 
ATOM      3  O   UNL     1      -6.471  -7.642   2.985  1.00  0.00    -0.550 OA
ATOM      4  O   UNL     1      -4.451  -6.707   3.527  1.00  0.00    -0.550 OA
ENDBRANCH   1   2
BRANCH   1   5
ATOM      5  C   UNL     1      -5.414  -9.748   1.559  1.00  0.00     0.006 C 
BRANCH   5   6
ATOM      6  C   UNL     1      -5.737  -9.961   0.075  1.00  0.00    -0.003 C 
ATOM      7  C   UNL     1      -6.587  -8.819  -0.473  1.00  0.00     0.004 C 
ENDBRANCH   5   6
ENDBRANCH   1   5
TORSDOF 3
ENDMDL
MODEL 7
REMARK VINA RESULT:    -1.990     16.079     16.422
REMARK INTER + INTRA:          -2.361
REMARK INTER:                  -2.327
REMARK INTRA:                  -0.034
REMARK UNBOUND:                -0.022
REMARK SMILES CCCCC(=O)[O-]
REMARK SMILES IDX 4 1 5 2 6 3 7 4 3 5 2 6 1 7
REMARK H PARENT
REMARK Flexibility Score: inf
ROOT
ATOM      1  C   UNL     1      -3.443  -8.388   3.773  1.00  0.00     0.053 C 
ENDROOT
BRANCH   1   2
ATOM      2  C   UNL     1      -4.451  -7.759   2.864  1.00  0.00     0.041 C 
ATOM      3  O   UNL     1      -4.666  -8.245   1.722  1.00  0.00    -0.550 OA
ATOM      4  O   UNL     1      -5.118  -6.606   3.258  1.00  0.00    -0.550 OA
ENDBRANCH   1   2
BRANCH   1   5
ATOM      5  C   UNL     1      -2.636  -9.453   3.023  1.00  0.00     0.006 C 
BRANCH   5   6
ATOM      6  C   UNL     1      -1.130  -9.229   3.203  1.00  0.00    -0.003 C 
ATOM      7  C   UNL     1      -0.327 -10.379   2.603  1.00  0.00     0.004 C 
ENDBRANCH   5   6
ENDBRANCH   1   5
TORSDOF 3
ENDMDL
MODEL 8
REMARK VINA RESULT:    -1.980      1.221      1.988
REMARK INTER + INTRA:          -2.350
REMARK INTER:                  -2.333
REMARK INTRA:                  -0.016
REMARK UNBOUND:                -0.022
REMARK SMILES CCCCC(=O)[O-]
REMARK SMILES IDX 4 1 5 2 6 3 7 4 3 5 2 6 1 7
REMARK H PARENT
REMARK Flexibility Score: inf
ROOT
ATOM      1  C   UNL     1      13.125  -8.072   1.582  1.00  0.00     0.053 C 
ENDROOT
BRANCH   1   2
ATOM      2  C   UNL     1      12.395  -9.296   1.126  1.00  0.00     0.041 C 
ATOM      3  O   UNL     1      11.288  -9.603   1.643  1.00  0.00    -0.550 OA
ATOM      4  O   UNL     1      12.958 -10.123   0.163  1.00  0.00    -0.550 OA
ENDBRANCH   1   2
BRANCH   1   5
ATOM      5  C   UNL     1      12.531  -6.820   0.930  1.00  0.00     0.006 C 
BRANCH   5   6
ATOM      6  C   UNL     1      13.123  -5.547   1.547  1.00  0.00    -0.003 C 
ATOM      7  C   UNL     1      12.132  -4.389   1.477  1.00  0.00     0.004 C 
ENDBRANCH   5   6
ENDBRANCH   1   5
TORSDOF 3
ENDMDL
MODEL 9
REMARK VINA RESULT:    -1.938     17.993     18.301
REMARK INTER + INTRA:          -2.300
REMARK INTER:                  -2.266
REMARK INTRA:                  -0.034
REMARK UNBOUND:                -0.022
REMARK SMILES CCCCC(=O)[O-]
REMARK SMILES IDX 4 1 5 2 6 3 7 4 3 5 2 6 1 7
REMARK H PARENT
REMARK Flexibility Score: inf
ROOT
ATOM      1  C   UNL     1      -5.413  -9.855   1.110  1.00  0.00     0.053 C 
ENDROOT
BRANCH   1   2
ATOM      2  C   UNL     1      -6.031  -9.934  -0.250  1.00  0.00     0.041 C 
ATOM      3  O   UNL     1      -5.894 -10.973  -0.948  1.00  0.00    -0.550 OA
ATOM      4  O   UNL     1      -6.719  -8.844  -0.766  1.00  0.00    -0.550 OA
ENDBRANCH   1   2
BRANCH   1   5
ATOM      5  C   UNL     1      -4.911  -8.434   1.388  1.00  0.00     0.006 C 
BRANCH   5   6
ATOM      6  C   UNL     1      -4.081  -8.388   2.677  1.00  0.00    -0.003 C 
ATOM      7  C   UNL     1      -3.238  -9.649   2.835  1.00  0.00     0.004 C 
ENDBRANCH   5   6
ENDBRANCH   1   5
TORSDOF 3
ENDMDL
