MODEL 1
REMARK VINA RESULT:    -4.034      0.000      0.000
REMARK INTER + INTRA:          -4.440
REMARK INTER:                  -4.388
REMARK INTRA:                  -0.052
REMARK UNBOUND:                -0.052
REMARK SMILES CCc1cccc(O)c1
REMARK SMILES IDX 3 1 9 2 7 3 6 4 5 5 4 6 2 7 1 8 8 9
REMARK H PARENT 8 10
REMARK Flexibility Score: inf
ROOT
ATOM      1  C   UNL     1      20.750   6.276 -34.082  1.00  0.00    -0.045 A 
ATOM      2  C   UNL     1      20.593   7.443 -33.316  1.00  0.00     0.049 A 
ATOM      3  C   UNL     1      21.399   7.663 -32.190  1.00  0.00     0.115 A 
ATOM      4  C   UNL     1      22.369   6.720 -31.833  1.00  0.00     0.046 A 
ATOM      5  C   UNL     1      22.538   5.563 -32.600  1.00  0.00     0.004 A 
ATOM      6  C   UNL     1      21.736   5.343 -33.723  1.00  0.00     0.004 A 
ENDROOT
BRANCH   1   7
ATOM      7  C   UNL     1      19.908   6.055 -35.311  1.00  0.00     0.032 C 
ATOM      8  C   UNL     1      19.199   7.342 -35.717  1.00  0.00     0.009 C 
ENDBRANCH   1   7
BRANCH   3   9
ATOM      9  O   UNL     1      21.245   8.814 -31.421  1.00  0.00    -0.508 OA
ATOM     10  H   UNL     1      22.003   9.475 -31.300  1.00  0.00     0.293 HD
ENDBRANCH   3   9
TORSDOF 2
ENDMDL
MODEL 2
REMARK VINA RESULT:    -4.002      1.948      2.355
REMARK INTER + INTRA:          -4.404
REMARK INTER:                  -4.330
REMARK INTRA:                  -0.074
REMARK UNBOUND:                -0.052
REMARK SMILES CCc1cccc(O)c1
REMARK SMILES IDX 3 1 9 2 7 3 6 4 5 5 4 6 2 7 1 8 8 9
REMARK H PARENT 8 10
REMARK Flexibility Score: inf
ROOT
ATOM      1  C   UNL     1      19.886   6.240 -34.216  1.00  0.00    -0.045 A 
ATOM      2  C   UNL     1      19.846   5.119 -33.370  1.00  0.00     0.049 A 
ATOM      3  C   UNL     1      20.592   5.102 -32.182  1.00  0.00     0.115 A 
ATOM      4  C   UNL     1      21.373   6.210 -31.836  1.00  0.00     0.046 A 
ATOM      5  C   UNL     1      21.406   7.333 -32.668  1.00  0.00     0.004 A 
ATOM      6  C   UNL     1      20.662   7.352 -33.851  1.00  0.00     0.004 A 
ENDROOT
BRANCH   1   7
ATOM      7  C   UNL     1      19.058   6.272 -35.474  1.00  0.00     0.032 C 
ATOM      8  C   UNL     1      19.525   7.392 -36.397  1.00  0.00     0.009 C 
ENDBRANCH   1   7
BRANCH   3   9
ATOM      9  O   UNL     1      20.563   3.992 -31.342  1.00  0.00    -0.508 OA
ATOM     10  H   UNL     1      19.861   3.895 -30.617  1.00  0.00     0.293 HD
ENDBRANCH   3   9
TORSDOF 2
ENDMDL
MODEL 3
REMARK VINA RESULT:    -3.988     17.889     19.666
REMARK INTER + INTRA:          -4.390
REMARK INTER:                  -4.339
REMARK INTRA:                  -0.051
REMARK UNBOUND:                -0.052
REMARK SMILES CCc1cccc(O)c1
REMARK SMILES IDX 3 1 9 2 7 3 6 4 5 5 4 6 2 7 1 8 8 9
REMARK H PARENT 8 10
REMARK Flexibility Score: inf
ROOT
ATOM      1  C   UNL     1      31.315  -6.224 -23.393  1.00  0.00    -0.045 A 
ATOM      2  C   UNL     1      30.591  -6.714 -24.493  1.00  0.00     0.049 A 
ATOM      3  C   UNL     1      31.032  -7.856 -25.178  1.00  0.00     0.115 A 
ATOM      4  C   UNL     1      32.193  -8.514 -24.759  1.00  0.00     0.046 A 
ATOM      5  C   UNL     1      32.909  -8.038 -23.657  1.00  0.00     0.004 A 
ATOM      6  C   UNL     1      32.471  -6.901 -22.972  1.00  0.00     0.004 A 
ENDROOT
BRANCH   1   7
ATOM      7  C   UNL     1      30.824  -5.018 -22.637  1.00  0.00     0.032 C 
ATOM      8  C   UNL     1      29.614  -4.402 -23.331  1.00  0.00     0.009 C 
ENDBRANCH   1   7
BRANCH   3   9
ATOM      9  O   UNL     1      30.324  -8.344 -26.273  1.00  0.00    -0.508 OA
ATOM     10  H   UNL     1      29.884  -9.256 -26.256  1.00  0.00     0.293 HD
ENDBRANCH   3   9
TORSDOF 2
ENDMDL
MODEL 4
REMARK VINA RESULT:    -3.779     17.999     19.741
REMARK INTER + INTRA:          -4.162
REMARK INTER:                  -4.086
REMARK INTRA:                  -0.075
REMARK UNBOUND:                -0.052
REMARK SMILES CCc1cccc(O)c1
REMARK SMILES IDX 3 1 9 2 7 3 6 4 5 5 4 6 2 7 1 8 8 9
REMARK H PARENT 8 10
REMARK Flexibility Score: inf
ROOT
ATOM      1  C   UNL     1      30.990  -6.067 -23.480  1.00  0.00    -0.045 A 
ATOM      2  C   UNL     1      32.264  -6.493 -23.069  1.00  0.00     0.049 A 
ATOM      3  C   UNL     1      32.864  -7.609 -23.669  1.00  0.00     0.115 A 
ATOM      4  C   UNL     1      32.193  -8.297 -24.687  1.00  0.00     0.046 A 
ATOM      5  C   UNL     1      30.931  -7.870 -25.108  1.00  0.00     0.004 A 
ATOM      6  C   UNL     1      30.332  -6.756 -24.512  1.00  0.00     0.004 A 
ENDROOT
BRANCH   1   7
ATOM      7  C   UNL     1      30.360  -4.848 -22.860  1.00  0.00     0.032 C 
ATOM      8  C   UNL     1      29.223  -4.326 -23.732  1.00  0.00     0.009 C 
ENDBRANCH   1   7
BRANCH   3   9
ATOM      9  O   UNL     1      34.124  -8.042 -23.264  1.00  0.00    -0.508 OA
ATOM     10  H   UNL     1      34.592  -7.633 -22.464  1.00  0.00     0.293 HD
ENDBRANCH   3   9
TORSDOF 2
ENDMDL
MODEL 5
REMARK VINA RESULT:    -3.756     17.027     18.755
REMARK INTER + INTRA:          -4.137
REMARK INTER:                  -4.072
REMARK INTRA:                  -0.064
REMARK UNBOUND:                -0.052
REMARK SMILES CCc1cccc(O)c1
REMARK SMILES IDX 3 1 9 2 7 3 6 4 5 5 4 6 2 7 1 8 8 9
REMARK H PARENT 8 10
REMARK Flexibility Score: inf
ROOT
ATOM      1  C   UNL     1      30.758  -7.115 -24.594  1.00  0.00    -0.045 A 
ATOM      2  C   UNL     1      29.385  -7.332 -24.798  1.00  0.00     0.049 A 
ATOM      3  C   UNL     1      28.469  -6.286 -24.612  1.00  0.00     0.115 A 
ATOM      4  C   UNL     1      28.926  -5.020 -24.229  1.00  0.00     0.046 A 
ATOM      5  C   UNL     1      30.292  -4.796 -24.038  1.00  0.00     0.004 A 
ATOM      6  C   UNL     1      31.207  -5.837 -24.224  1.00  0.00     0.004 A 
ENDROOT
BRANCH   1   7
ATOM      7  C   UNL     1      31.745  -8.228 -24.826  1.00  0.00     0.032 C 
ATOM      8  C   UNL     1      32.661  -8.398 -23.619  1.00  0.00     0.009 C 
ENDBRANCH   1   7
BRANCH   3   9
ATOM      9  O   UNL     1      27.106  -6.494 -24.805  1.00  0.00    -0.508 OA
ATOM     10  H   UNL     1      26.760  -7.079 -25.556  1.00  0.00     0.293 HD
ENDBRANCH   3   9
TORSDOF 2
ENDMDL
MODEL 6
REMARK VINA RESULT:    -3.707     18.069     19.732
REMARK INTER + INTRA:          -4.083
REMARK INTER:                  -4.009
REMARK INTRA:                  -0.074
REMARK UNBOUND:                -0.052
REMARK SMILES CCc1cccc(O)c1
REMARK SMILES IDX 3 1 9 2 7 3 6 4 5 5 4 6 2 7 1 8 8 9
REMARK H PARENT 8 10
REMARK Flexibility Score: inf
ROOT
ATOM      1  C   UNL     1      30.476  -7.131 -24.034  1.00  0.00    -0.045 A 
ATOM      2  C   UNL     1      31.649  -7.894 -23.911  1.00  0.00     0.049 A 
ATOM      3  C   UNL     1      32.784  -7.353 -23.291  1.00  0.00     0.115 A 
ATOM      4  C   UNL     1      32.744  -6.049 -22.785  1.00  0.00     0.046 A 
ATOM      5  C   UNL     1      31.575  -5.290 -22.892  1.00  0.00     0.004 A 
ATOM      6  C   UNL     1      30.443  -5.829 -23.509  1.00  0.00     0.004 A 
ENDROOT
BRANCH   1   7
ATOM      7  C   UNL     1      29.246  -7.724 -24.670  1.00  0.00     0.032 C 
ATOM      8  C   UNL     1      28.235  -6.634 -25.009  1.00  0.00     0.009 C 
ENDBRANCH   1   7
BRANCH   3   9
ATOM      9  O   UNL     1      33.952  -8.100 -23.171  1.00  0.00    -0.508 OA
ATOM     10  H   UNL     1      34.744  -7.763 -22.636  1.00  0.00     0.293 HD
ENDBRANCH   3   9
TORSDOF 2
ENDMDL
MODEL 7
REMARK VINA RESULT:    -3.691     20.557     20.989
REMARK INTER + INTRA:          -4.066
REMARK INTER:                  -3.995
REMARK INTRA:                  -0.072
REMARK UNBOUND:                -0.052
REMARK SMILES CCc1cccc(O)c1
REMARK SMILES IDX 3 1 9 2 7 3 6 4 5 5 4 6 2 7 1 8 8 9
REMARK H PARENT 8 10
REMARK Flexibility Score: inf
ROOT
ATOM      1  C   UNL     1      33.019  -6.213 -22.890  1.00  0.00    -0.045 A 
ATOM      2  C   UNL     1      33.684  -6.370 -24.117  1.00  0.00     0.049 A 
ATOM      3  C   UNL     1      33.416  -7.480 -24.931  1.00  0.00     0.115 A 
ATOM      4  C   UNL     1      32.476  -8.432 -24.522  1.00  0.00     0.046 A 
ATOM      5  C   UNL     1      31.801  -8.274 -23.307  1.00  0.00     0.004 A 
ATOM      6  C   UNL     1      32.066  -7.167 -22.496  1.00  0.00     0.004 A 
ENDROOT
BRANCH   1   7
ATOM      7  C   UNL     1      33.281  -5.004 -22.032  1.00  0.00     0.032 C 
ATOM      8  C   UNL     1      33.019  -5.318 -20.563  1.00  0.00     0.009 C 
ENDBRANCH   1   7
BRANCH   3   9
ATOM      9  O   UNL     1      34.076  -7.646 -26.146  1.00  0.00    -0.508 OA
ATOM     10  H   UNL     1      33.694  -8.229 -26.881  1.00  0.00     0.293 HD
ENDBRANCH   3   9
TORSDOF 2
ENDMDL
MODEL 8
REMARK VINA RESULT:    -3.662     16.881     18.749
REMARK INTER + INTRA:          -4.035
REMARK INTER:                  -3.961
REMARK INTRA:                  -0.075
REMARK UNBOUND:                -0.052
REMARK SMILES CCc1cccc(O)c1
REMARK SMILES IDX 3 1 9 2 7 3 6 4 5 5 4 6 2 7 1 8 8 9
REMARK H PARENT 8 10
REMARK Flexibility Score: inf
ROOT
ATOM      1  C   UNL     1      30.906  -6.578 -23.564  1.00  0.00    -0.045 A 
ATOM      2  C   UNL     1      30.502  -5.266 -23.265  1.00  0.00     0.049 A 
ATOM      3  C   UNL     1      29.304  -4.758 -23.789  1.00  0.00     0.115 A 
ATOM      4  C   UNL     1      28.505  -5.564 -24.606  1.00  0.00     0.046 A 
ATOM      5  C   UNL     1      28.896  -6.874 -24.896  1.00  0.00     0.004 A 
ATOM      6  C   UNL     1      30.089  -7.383 -24.374  1.00  0.00     0.004 A 
ENDROOT
BRANCH   1   7
ATOM      7  C   UNL     1      32.174  -7.135 -22.975  1.00  0.00     0.032 C 
ATOM      8  C   UNL     1      32.538  -8.461 -23.634  1.00  0.00     0.009 C 
ENDBRANCH   1   7
BRANCH   3   9
ATOM      9  O   UNL     1      28.899  -3.457 -23.502  1.00  0.00    -0.508 OA
ATOM     10  H   UNL     1      28.586  -3.191 -22.576  1.00  0.00     0.293 HD
ENDBRANCH   3   9
TORSDOF 2
ENDMDL
MODEL 9
REMARK VINA RESULT:    -3.618     19.534     20.293
REMARK INTER + INTRA:          -3.987
REMARK INTER:                  -3.935
REMARK INTRA:                  -0.052
REMARK UNBOUND:                -0.052
REMARK SMILES CCc1cccc(O)c1
REMARK SMILES IDX 3 1 9 2 7 3 6 4 5 5 4 6 2 7 1 8 8 9
REMARK H PARENT 8 10
REMARK Flexibility Score: inf
ROOT
ATOM      1  C   UNL     1      32.455  -6.602 -22.805  1.00  0.00    -0.045 A 
ATOM      2  C   UNL     1      32.965  -5.808 -23.845  1.00  0.00     0.049 A 
ATOM      3  C   UNL     1      33.535  -4.557 -23.565  1.00  0.00     0.115 A 
ATOM      4  C   UNL     1      33.601  -4.103 -22.243  1.00  0.00     0.046 A 
ATOM      5  C   UNL     1      33.106  -4.895 -21.204  1.00  0.00     0.004 A 
ATOM      6  C   UNL     1      32.539  -6.143 -21.480  1.00  0.00     0.004 A 
ENDROOT
BRANCH   1   7
ATOM      7  C   UNL     1      31.874  -7.960 -23.101  1.00  0.00     0.032 C 
ATOM      8  C   UNL     1      32.263  -8.419 -24.501  1.00  0.00     0.009 C 
ENDBRANCH   1   7
BRANCH   3   9
ATOM      9  O   UNL     1      34.038  -3.761 -24.590  1.00  0.00    -0.508 OA
ATOM     10  H   UNL     1      34.781  -3.092 -24.426  1.00  0.00     0.293 HD
ENDBRANCH   3   9
TORSDOF 2
ENDMDL
