MODEL 1
REMARK VINA RESULT:    -4.869      0.000      0.000
REMARK INTER + INTRA:         -14.651
REMARK INTER:                 -10.562
REMARK INTRA:                  -4.089
REMARK UNBOUND:                -4.089
REMARK SMILES CCCCCCCCCCCCCCCCCCCCCC(=O)[O-]
REMARK SMILES IDX 12 1 11 2 10 3 9 4 8 5 7 6 6 7 5 8 4 9 3 10 2 11 1 12 13 13
REMARK SMILES IDX 14 14 15 15 16 16 17 17 18 18 19 19 20 20 21 21 22 22 23 23
REMARK SMILES IDX 24 24
REMARK H PARENT
REMARK Flexibility Score: inf
ROOT
ATOM      1  C   UNL     1      -1.509  55.818  19.458  1.00  0.00     0.000 C 
ENDROOT
BRANCH   1   2
ATOM      2  C   UNL     1      -0.023  55.998  19.812  1.00  0.00     0.000 C 
BRANCH   2   3
ATOM      3  C   UNL     1       0.509  54.872  20.716  1.00  0.00     0.000 C 
BRANCH   3   4
ATOM      4  C   UNL     1       2.052  54.859  20.795  1.00  0.00    -0.000 C 
BRANCH   4   5
ATOM      5  C   UNL     1       2.692  53.603  20.176  1.00  0.00    -0.000 C 
BRANCH   5   6
ATOM      6  C   UNL     1       1.695  52.617  19.537  1.00  0.00    -0.000 C 
BRANCH   6   7
ATOM      7  C   UNL     1       1.783  52.498  18.001  1.00  0.00    -0.000 C 
BRANCH   7   8
ATOM      8  C   UNL     1       2.631  53.576  17.301  1.00  0.00    -0.000 C 
BRANCH   8   9
ATOM      9  C   UNL     1       1.789  54.540  16.449  1.00  0.00    -0.000 C 
BRANCH   9  10
ATOM     10  C   UNL     1       1.896  56.003  16.918  1.00  0.00    -0.000 C 
BRANCH  10  11
ATOM     11  C   UNL     1       3.195  56.356  17.664  1.00  0.00    -0.003 C 
ATOM     12  C   UNL     1       3.089  57.645  18.477  1.00  0.00     0.004 C 
ENDBRANCH  10  11
ENDBRANCH   9  10
ENDBRANCH   8   9
ENDBRANCH   7   8
ENDBRANCH   6   7
ENDBRANCH   5   6
ENDBRANCH   4   5
ENDBRANCH   3   4
ENDBRANCH   2   3
ENDBRANCH   1   2
BRANCH   1  13
ATOM     13  C   UNL     1      -1.718  55.331  18.014  1.00  0.00     0.000 C 
BRANCH  13  14
ATOM     14  C   UNL     1      -2.546  54.038  17.943  1.00  0.00     0.000 C 
BRANCH  14  15
ATOM     15  C   UNL     1      -1.783  52.887  17.262  1.00  0.00     0.000 C 
BRANCH  15  16
ATOM     16  C   UNL     1      -2.426  51.517  17.527  1.00  0.00     0.000 C 
BRANCH  16  17
ATOM     17  C   UNL     1      -1.776  50.780  18.711  1.00  0.00     0.000 C 
BRANCH  17  18
ATOM     18  C   UNL     1      -2.813  50.148  19.654  1.00  0.00     0.000 C 
BRANCH  18  19
ATOM     19  C   UNL     1      -2.898  50.872  21.006  1.00  0.00     0.000 C 
BRANCH  19  20
ATOM     20  C   UNL     1      -1.933  52.068  21.051  1.00  0.00     0.006 C 
BRANCH  20  21
ATOM     21  C   UNL     1      -2.346  53.110  22.099  1.00  0.00     0.053 C 
BRANCH  21  22
ATOM     22  C   UNL     1      -3.805  53.441  22.009  1.00  0.00     0.041 C 
ATOM     23  O   UNL     1      -4.247  54.092  21.026  1.00  0.00    -0.550 OA
ATOM     24  O   UNL     1      -4.670  53.059  23.027  1.00  0.00    -0.550 OA
ENDBRANCH  21  22
ENDBRANCH  20  21
ENDBRANCH  19  20
ENDBRANCH  18  19
ENDBRANCH  17  18
ENDBRANCH  16  17
ENDBRANCH  15  16
ENDBRANCH  14  15
ENDBRANCH  13  14
ENDBRANCH   1  13
TORSDOF 20
ENDMDL
MODEL 2
REMARK VINA RESULT:    -4.831      1.242      2.322
REMARK INTER + INTRA:         -14.568
REMARK INTER:                 -10.695
REMARK INTRA:                  -3.873
REMARK UNBOUND:                -4.089
REMARK SMILES CCCCCCCCCCCCCCCCCCCCCC(=O)[O-]
REMARK SMILES IDX 12 1 11 2 10 3 9 4 8 5 7 6 6 7 5 8 4 9 3 10 2 11 1 12 13 13
REMARK SMILES IDX 14 14 15 15 16 16 17 17 18 18 19 19 20 20 21 21 22 22 23 23
REMARK SMILES IDX 24 24
REMARK H PARENT
REMARK Flexibility Score: inf
ROOT
ATOM      1  C   UNL     1       0.722  55.086  20.677  1.00  0.00     0.000 C 
ENDROOT
BRANCH   1   2
ATOM      2  C   UNL     1       2.241  54.925  20.498  1.00  0.00     0.000 C 
BRANCH   2   3
ATOM      3  C   UNL     1       2.653  53.467  20.229  1.00  0.00     0.000 C 
BRANCH   3   4
ATOM      4  C   UNL     1       3.991  53.364  19.465  1.00  0.00    -0.000 C 
BRANCH   4   5
ATOM      5  C   UNL     1       3.831  52.945  17.992  1.00  0.00    -0.000 C 
BRANCH   5   6
ATOM      6  C   UNL     1       2.380  52.679  17.549  1.00  0.00    -0.000 C 
BRANCH   6   7
ATOM      7  C   UNL     1       1.809  53.691  16.533  1.00  0.00    -0.000 C 
BRANCH   7   8
ATOM      8  C   UNL     1       2.748  54.851  16.155  1.00  0.00    -0.000 C 
BRANCH   8   9
ATOM      9  C   UNL     1       2.459  56.137  16.947  1.00  0.00    -0.000 C 
BRANCH   9  10
ATOM     10  C   UNL     1       3.720  56.733  17.600  1.00  0.00    -0.000 C 
BRANCH  10  11
ATOM     11  C   UNL     1       5.020  56.548  16.798  1.00  0.00    -0.003 C 
ATOM     12  C   UNL     1       6.279  56.683  17.654  1.00  0.00     0.004 C 
ENDBRANCH  10  11
ENDBRANCH   9  10
ENDBRANCH   8   9
ENDBRANCH   7   8
ENDBRANCH   6   7
ENDBRANCH   5   6
ENDBRANCH   4   5
ENDBRANCH   3   4
ENDBRANCH   2   3
ENDBRANCH   1   2
BRANCH   1  13
ATOM     13  C   UNL     1       0.006  55.439  19.362  1.00  0.00     0.000 C 
BRANCH  13  14
ATOM     14  C   UNL     1      -1.515  55.570  19.537  1.00  0.00     0.000 C 
BRANCH  14  15
ATOM     15  C   UNL     1      -2.298  54.908  18.389  1.00  0.00     0.000 C 
BRANCH  15  16
ATOM     16  C   UNL     1      -1.459  53.872  17.624  1.00  0.00     0.000 C 
BRANCH  16  17
ATOM     17  C   UNL     1      -2.293  52.667  17.156  1.00  0.00     0.000 C 
BRANCH  17  18
ATOM     18  C   UNL     1      -2.177  51.464  18.105  1.00  0.00     0.000 C 
BRANCH  18  19
ATOM     19  C   UNL     1      -0.858  51.462  18.894  1.00  0.00     0.000 C 
BRANCH  19  20
ATOM     20  C   UNL     1      -1.101  51.812  20.371  1.00  0.00     0.006 C 
BRANCH  20  21
ATOM     21  C   UNL     1      -2.594  51.952  20.697  1.00  0.00     0.053 C 
BRANCH  21  22
ATOM     22  C   UNL     1      -2.823  52.830  21.889  1.00  0.00     0.041 C 
ATOM     23  O   UNL     1      -1.970  52.877  22.814  1.00  0.00    -0.550 OA
ATOM     24  O   UNL     1      -3.995  53.570  21.995  1.00  0.00    -0.550 OA
ENDBRANCH  21  22
ENDBRANCH  20  21
ENDBRANCH  19  20
ENDBRANCH  18  19
ENDBRANCH  17  18
ENDBRANCH  16  17
ENDBRANCH  15  16
ENDBRANCH  14  15
ENDBRANCH  13  14
ENDBRANCH   1  13
TORSDOF 20
ENDMDL
MODEL 3
REMARK VINA RESULT:    -4.802      3.069      5.933
REMARK INTER + INTRA:         -14.507
REMARK INTER:                 -10.829
REMARK INTRA:                  -3.677
REMARK UNBOUND:                -4.089
REMARK SMILES CCCCCCCCCCCCCCCCCCCCCC(=O)[O-]
REMARK SMILES IDX 12 1 11 2 10 3 9 4 8 5 7 6 6 7 5 8 4 9 3 10 2 11 1 12 13 13
REMARK SMILES IDX 14 14 15 15 16 16 17 17 18 18 19 19 20 20 21 21 22 22 23 23
REMARK SMILES IDX 24 24
REMARK H PARENT
REMARK Flexibility Score: inf
ROOT
ATOM      1  C   UNL     1      -3.669  52.112  21.487  1.00  0.00     0.000 C 
ENDROOT
BRANCH   1   2
ATOM      2  C   UNL     1      -2.233  51.575  21.598  1.00  0.00     0.000 C 
BRANCH   2   3
ATOM      3  C   UNL     1      -2.024  50.278  20.798  1.00  0.00     0.000 C 
BRANCH   3   4
ATOM      4  C   UNL     1      -2.960  50.182  19.573  1.00  0.00    -0.000 C 
BRANCH   4   5
ATOM      5  C   UNL     1      -2.246  50.413  18.229  1.00  0.00    -0.000 C 
BRANCH   5   6
ATOM      6  C   UNL     1      -2.477  51.802  17.604  1.00  0.00    -0.000 C 
BRANCH   6   7
ATOM      7  C   UNL     1      -1.195  52.602  17.288  1.00  0.00    -0.000 C 
BRANCH   7   8
ATOM      8  C   UNL     1       0.079  52.117  18.003  1.00  0.00    -0.000 C 
BRANCH   8   9
ATOM      9  C   UNL     1       0.457  52.992  19.210  1.00  0.00    -0.000 C 
BRANCH   9  10
ATOM     10  C   UNL     1       1.957  52.923  19.553  1.00  0.00    -0.000 C 
BRANCH  10  11
ATOM     11  C   UNL     1       2.516  54.153  20.289  1.00  0.00    -0.003 C 
ATOM     12  C   UNL     1       1.440  55.176  20.652  1.00  0.00     0.004 C 
ENDBRANCH  10  11
ENDBRANCH   9  10
ENDBRANCH   8   9
ENDBRANCH   7   8
ENDBRANCH   6   7
ENDBRANCH   5   6
ENDBRANCH   4   5
ENDBRANCH   3   4
ENDBRANCH   2   3
ENDBRANCH   1   2
BRANCH   1  13
ATOM     13  C   UNL     1      -3.722  53.646  21.381  1.00  0.00     0.000 C 
BRANCH  13  14
ATOM     14  C   UNL     1      -2.854  54.186  20.233  1.00  0.00     0.000 C 
BRANCH  14  15
ATOM     15  C   UNL     1      -3.521  55.359  19.493  1.00  0.00     0.000 C 
BRANCH  15  16
ATOM     16  C   UNL     1      -3.092  55.445  18.020  1.00  0.00     0.000 C 
BRANCH  16  17
ATOM     17  C   UNL     1      -2.931  56.897  17.537  1.00  0.00     0.000 C 
BRANCH  17  18
ATOM     18  C   UNL     1      -1.547  57.164  16.923  1.00  0.00     0.000 C 
BRANCH  18  19
ATOM     19  C   UNL     1      -0.465  56.226  17.479  1.00  0.00     0.000 C 
BRANCH  19  20
ATOM     20  C   UNL     1       0.917  56.581  16.907  1.00  0.00     0.006 C 
BRANCH  20  21
ATOM     21  C   UNL     1       1.797  55.341  16.700  1.00  0.00     0.053 C 
BRANCH  21  22
ATOM     22  C   UNL     1       3.255  55.684  16.727  1.00  0.00     0.041 C 
ATOM     23  O   UNL     1       4.007  55.326  15.782  1.00  0.00    -0.550 OA
ATOM     24  O   UNL     1       3.790  56.370  17.811  1.00  0.00    -0.550 OA
ENDBRANCH  21  22
ENDBRANCH  20  21
ENDBRANCH  19  20
ENDBRANCH  18  19
ENDBRANCH  17  18
ENDBRANCH  16  17
ENDBRANCH  15  16
ENDBRANCH  14  15
ENDBRANCH  13  14
ENDBRANCH   1  13
TORSDOF 20
ENDMDL
MODEL 4
REMARK VINA RESULT:    -4.777      1.651      3.225
REMARK INTER + INTRA:         -14.452
REMARK INTER:                 -11.304
REMARK INTRA:                  -3.147
REMARK UNBOUND:                -4.089
REMARK SMILES CCCCCCCCCCCCCCCCCCCCCC(=O)[O-]
REMARK SMILES IDX 12 1 11 2 10 3 9 4 8 5 7 6 6 7 5 8 4 9 3 10 2 11 1 12 13 13
REMARK SMILES IDX 14 14 15 15 16 16 17 17 18 18 19 19 20 20 21 21 22 22 23 23
REMARK SMILES IDX 24 24
REMARK H PARENT
REMARK Flexibility Score: inf
ROOT
ATOM      1  C   UNL     1      -1.231  53.336  21.665  1.00  0.00     0.000 C 
ENDROOT
BRANCH   1   2
ATOM      2  C   UNL     1      -0.194  53.554  20.552  1.00  0.00     0.000 C 
BRANCH   2   3
ATOM      3  C   UNL     1       0.501  54.923  20.652  1.00  0.00     0.000 C 
BRANCH   3   4
ATOM      4  C   UNL     1       2.036  54.818  20.511  1.00  0.00    -0.000 C 
BRANCH   4   5
ATOM      5  C   UNL     1       2.523  53.418  20.094  1.00  0.00    -0.000 C 
BRANCH   5   6
ATOM      6  C   UNL     1       3.829  53.405  19.277  1.00  0.00    -0.000 C 
BRANCH   6   7
ATOM      7  C   UNL     1       3.943  54.511  18.206  1.00  0.00    -0.000 C 
BRANCH   7   8
ATOM      8  C   UNL     1       3.070  54.311  16.953  1.00  0.00    -0.000 C 
BRANCH   8   9
ATOM      9  C   UNL     1       2.551  55.636  16.368  1.00  0.00    -0.000 C 
BRANCH   9  10
ATOM     10  C   UNL     1       1.110  55.959  16.807  1.00  0.00    -0.000 C 
BRANCH  10  11
ATOM     11  C   UNL     1       0.974  57.149  17.773  1.00  0.00    -0.003 C 
ATOM     12  C   UNL     1       2.315  57.792  18.126  1.00  0.00     0.004 C 
ENDBRANCH  10  11
ENDBRANCH   9  10
ENDBRANCH   8   9
ENDBRANCH   7   8
ENDBRANCH   6   7
ENDBRANCH   5   6
ENDBRANCH   4   5
ENDBRANCH   3   4
ENDBRANCH   2   3
ENDBRANCH   1   2
BRANCH   1  13
ATOM     13  C   UNL     1      -2.445  52.518  21.191  1.00  0.00     0.000 C 
BRANCH  13  14
ATOM     14  C   UNL     1      -2.052  51.122  20.683  1.00  0.00     0.000 C 
BRANCH  14  15
ATOM     15  C   UNL     1      -3.188  50.438  19.901  1.00  0.00     0.000 C 
BRANCH  15  16
ATOM     16  C   UNL     1      -2.913  50.383  18.391  1.00  0.00     0.000 C 
BRANCH  16  17
ATOM     17  C   UNL     1      -1.790  51.342  17.961  1.00  0.00     0.000 C 
BRANCH  17  18
ATOM     18  C   UNL     1      -2.314  52.543  17.156  1.00  0.00     0.000 C 
BRANCH  18  19
ATOM     19  C   UNL     1      -1.695  53.873  17.612  1.00  0.00     0.000 C 
BRANCH  19  20
ATOM     20  C   UNL     1      -2.739  54.751  18.320  1.00  0.00     0.006 C 
BRANCH  20  21
ATOM     21  C   UNL     1      -2.962  56.086  17.597  1.00  0.00     0.053 C 
BRANCH  21  22
ATOM     22  C   UNL     1      -3.968  56.940  18.305  1.00  0.00     0.041 C 
ATOM     23  O   UNL     1      -4.194  58.114  17.909  1.00  0.00    -0.550 OA
ATOM     24  O   UNL     1      -4.633  56.451  19.424  1.00  0.00    -0.550 OA
ENDBRANCH  21  22
ENDBRANCH  20  21
ENDBRANCH  19  20
ENDBRANCH  18  19
ENDBRANCH  17  18
ENDBRANCH  16  17
ENDBRANCH  15  16
ENDBRANCH  14  15
ENDBRANCH  13  14
ENDBRANCH   1  13
TORSDOF 20
ENDMDL
MODEL 5
REMARK VINA RESULT:    -4.766      2.194      3.906
REMARK INTER + INTRA:         -14.427
REMARK INTER:                 -10.933
REMARK INTRA:                  -3.494
REMARK UNBOUND:                -4.089
REMARK SMILES CCCCCCCCCCCCCCCCCCCCCC(=O)[O-]
REMARK SMILES IDX 12 1 11 2 10 3 9 4 8 5 7 6 6 7 5 8 4 9 3 10 2 11 1 12 13 13
REMARK SMILES IDX 14 14 15 15 16 16 17 17 18 18 19 19 20 20 21 21 22 22 23 23
REMARK SMILES IDX 24 24
REMARK H PARENT
REMARK Flexibility Score: inf
ROOT
ATOM      1  C   UNL     1       2.133  54.827  20.698  1.00  0.00     0.000 C 
ENDROOT
BRANCH   1   2
ATOM      2  C   UNL     1       2.600  53.432  20.252  1.00  0.00     0.000 C 
BRANCH   2   3
ATOM      3  C   UNL     1       3.896  53.480  19.422  1.00  0.00     0.000 C 
BRANCH   3   4
ATOM      4  C   UNL     1       3.625  53.417  17.903  1.00  0.00    -0.000 C 
BRANCH   4   5
ATOM      5  C   UNL     1       2.201  52.951  17.547  1.00  0.00    -0.000 C 
BRANCH   5   6
ATOM      6  C   UNL     1       1.476  53.825  16.506  1.00  0.00    -0.000 C 
BRANCH   6   7
ATOM      7  C   UNL     1       1.904  55.308  16.483  1.00  0.00    -0.000 C 
BRANCH   7   8
ATOM      8  C   UNL     1       0.772  56.327  16.712  1.00  0.00    -0.000 C 
BRANCH   8   9
ATOM      9  C   UNL     1       0.990  57.192  17.964  1.00  0.00    -0.000 C 
BRANCH   9  10
ATOM     10  C   UNL     1       2.297  58.006  17.909  1.00  0.00    -0.000 C 
BRANCH  10  11
ATOM     11  C   UNL     1       3.430  57.482  18.810  1.00  0.00    -0.003 C 
ATOM     12  C   UNL     1       4.666  57.044  18.027  1.00  0.00     0.004 C 
ENDBRANCH  10  11
ENDBRANCH   9  10
ENDBRANCH   8   9
ENDBRANCH   7   8
ENDBRANCH   6   7
ENDBRANCH   5   6
ENDBRANCH   4   5
ENDBRANCH   3   4
ENDBRANCH   2   3
ENDBRANCH   1   2
BRANCH   1  13
ATOM     13  C   UNL     1       0.660  55.098  20.349  1.00  0.00     0.000 C 
BRANCH  13  14
ATOM     14  C   UNL     1      -0.298  54.110  21.033  1.00  0.00     0.000 C 
BRANCH  14  15
ATOM     15  C   UNL     1      -1.675  54.055  20.347  1.00  0.00     0.000 C 
BRANCH  15  16
ATOM     16  C   UNL     1      -1.687  54.781  18.992  1.00  0.00     0.000 C 
BRANCH  16  17
ATOM     17  C   UNL     1      -2.613  54.102  17.968  1.00  0.00     0.000 C 
BRANCH  17  18
ATOM     18  C   UNL     1      -1.910  52.976  17.193  1.00  0.00     0.000 C 
BRANCH  18  19
ATOM     19  C   UNL     1      -2.201  51.586  17.781  1.00  0.00     0.000 C 
BRANCH  19  20
ATOM     20  C   UNL     1      -0.928  50.964  18.374  1.00  0.00     0.006 C 
BRANCH  20  21
ATOM     21  C   UNL     1      -1.087  49.461  18.645  1.00  0.00     0.053 C 
BRANCH  21  22
ATOM     22  C   UNL     1      -0.570  49.083  19.999  1.00  0.00     0.041 C 
ATOM     23  O   UNL     1      -1.335  49.106  20.999  1.00  0.00    -0.550 OA
ATOM     24  O   UNL     1       0.766  48.737  20.163  1.00  0.00    -0.550 OA
ENDBRANCH  21  22
ENDBRANCH  20  21
ENDBRANCH  19  20
ENDBRANCH  18  19
ENDBRANCH  17  18
ENDBRANCH  16  17
ENDBRANCH  15  16
ENDBRANCH  14  15
ENDBRANCH  13  14
ENDBRANCH   1  13
TORSDOF 20
ENDMDL
MODEL 6
REMARK VINA RESULT:    -4.759      5.326      8.586
REMARK INTER + INTRA:         -14.412
REMARK INTER:                 -11.313
REMARK INTRA:                  -3.099
REMARK UNBOUND:                -4.089
REMARK SMILES CCCCCCCCCCCCCCCCCCCCCC(=O)[O-]
REMARK SMILES IDX 12 1 11 2 10 3 9 4 8 5 7 6 6 7 5 8 4 9 3 10 2 11 1 12 13 13
REMARK SMILES IDX 14 14 15 15 16 16 17 17 18 18 19 19 20 20 21 21 22 22 23 23
REMARK SMILES IDX 24 24
REMARK H PARENT
REMARK Flexibility Score: inf
ROOT
ATOM      1  C   UNL     1      -0.583  56.328  17.224  1.00  0.00     0.000 C 
ENDROOT
BRANCH   1   2
ATOM      2  C   UNL     1      -1.062  56.285  18.684  1.00  0.00     0.000 C 
BRANCH   2   3
ATOM      3  C   UNL     1      -1.741  54.951  19.044  1.00  0.00     0.000 C 
BRANCH   3   4
ATOM      4  C   UNL     1      -2.586  54.386  17.880  1.00  0.00    -0.000 C 
BRANCH   4   5
ATOM      5  C   UNL     1      -2.151  52.980  17.427  1.00  0.00    -0.000 C 
BRANCH   5   6
ATOM      6  C   UNL     1      -1.310  52.201  18.455  1.00  0.00    -0.000 C 
BRANCH   6   7
ATOM      7  C   UNL     1       0.147  51.916  18.030  1.00  0.00    -0.000 C 
BRANCH   7   8
ATOM      8  C   UNL     1       0.756  52.926  17.040  1.00  0.00    -0.000 C 
BRANCH   8   9
ATOM      9  C   UNL     1       2.104  53.493  17.517  1.00  0.00    -0.000 C 
BRANCH   9  10
ATOM     10  C   UNL     1       2.595  52.846  18.826  1.00  0.00    -0.000 C 
BRANCH  10  11
ATOM     11  C   UNL     1       2.829  53.826  19.990  1.00  0.00    -0.003 C 
ATOM     12  C   UNL     1       1.533  54.372  20.586  1.00  0.00     0.004 C 
ENDBRANCH  10  11
ENDBRANCH   9  10
ENDBRANCH   8   9
ENDBRANCH   7   8
ENDBRANCH   6   7
ENDBRANCH   5   6
ENDBRANCH   4   5
ENDBRANCH   3   4
ENDBRANCH   2   3
ENDBRANCH   1   2
BRANCH   1  13
ATOM     13  C   UNL     1       0.810  56.963  17.077  1.00  0.00     0.000 C 
BRANCH  13  14
ATOM     14  C   UNL     1       1.520  57.143  18.428  1.00  0.00     0.000 C 
BRANCH  14  15
ATOM     15  C   UNL     1       2.829  57.943  18.303  1.00  0.00     0.000 C 
BRANCH  15  16
ATOM     16  C   UNL     1       4.076  57.062  18.475  1.00  0.00     0.000 C 
BRANCH  16  17
ATOM     17  C   UNL     1       4.549  56.443  17.149  1.00  0.00     0.000 C 
BRANCH  17  18
ATOM     18  C   UNL     1       6.000  56.817  16.806  1.00  0.00     0.000 C 
BRANCH  18  19
ATOM     19  C   UNL     1       6.891  56.921  18.053  1.00  0.00     0.000 C 
BRANCH  19  20
ATOM     20  C   UNL     1       8.324  57.324  17.671  1.00  0.00     0.006 C 
BRANCH  20  21
ATOM     21  C   UNL     1       8.579  58.824  17.872  1.00  0.00     0.053 C 
BRANCH  21  22
ATOM     22  C   UNL     1       9.880  59.253  17.264  1.00  0.00     0.041 C 
ATOM     23  O   UNL     1       9.909  59.729  16.099  1.00  0.00    -0.550 OA
ATOM     24  O   UNL     1      11.065  59.095  17.973  1.00  0.00    -0.550 OA
ENDBRANCH  21  22
ENDBRANCH  20  21
ENDBRANCH  19  20
ENDBRANCH  18  19
ENDBRANCH  17  18
ENDBRANCH  16  17
ENDBRANCH  15  16
ENDBRANCH  14  15
ENDBRANCH  13  14
ENDBRANCH   1  13
TORSDOF 20
ENDMDL
MODEL 7
REMARK VINA RESULT:    -4.740      3.441      6.988
REMARK INTER + INTRA:         -14.372
REMARK INTER:                 -10.730
REMARK INTRA:                  -3.641
REMARK UNBOUND:                -4.089
REMARK SMILES CCCCCCCCCCCCCCCCCCCCCC(=O)[O-]
REMARK SMILES IDX 12 1 11 2 10 3 9 4 8 5 7 6 6 7 5 8 4 9 3 10 2 11 1 12 13 13
REMARK SMILES IDX 14 14 15 15 16 16 17 17 18 18 19 19 20 20 21 21 22 22 23 23
REMARK SMILES IDX 24 24
REMARK H PARENT
REMARK Flexibility Score: inf
ROOT
ATOM      1  C   UNL     1       1.217  54.391  20.170  1.00  0.00     0.000 C 
ENDROOT
BRANCH   1   2
ATOM      2  C   UNL     1       1.974  53.077  19.918  1.00  0.00     0.000 C 
BRANCH   2   3
ATOM      3  C   UNL     1       2.292  52.855  18.429  1.00  0.00     0.000 C 
BRANCH   3   4
ATOM      4  C   UNL     1       1.071  53.114  17.520  1.00  0.00    -0.000 C 
BRANCH   4   5
ATOM      5  C   UNL     1      -0.063  52.087  17.701  1.00  0.00    -0.000 C 
BRANCH   5   6
ATOM      6  C   UNL     1      -1.459  52.585  17.281  1.00  0.00    -0.000 C 
BRANCH   6   7
ATOM      7  C   UNL     1      -2.633  52.015  18.105  1.00  0.00    -0.000 C 
BRANCH   7   8
ATOM      8  C   UNL     1      -2.679  50.480  18.218  1.00  0.00    -0.000 C 
BRANCH   8   9
ATOM      9  C   UNL     1      -2.696  49.988  19.674  1.00  0.00    -0.000 C 
BRANCH   9  10
ATOM     10  C   UNL     1      -1.770  50.807  20.594  1.00  0.00    -0.000 C 
BRANCH  10  11
ATOM     11  C   UNL     1      -2.459  51.439  21.816  1.00  0.00    -0.003 C 
ATOM     12  C   UNL     1      -3.980  51.299  21.789  1.00  0.00     0.004 C 
ENDBRANCH  10  11
ENDBRANCH   9  10
ENDBRANCH   8   9
ENDBRANCH   7   8
ENDBRANCH   6   7
ENDBRANCH   5   6
ENDBRANCH   4   5
ENDBRANCH   3   4
ENDBRANCH   2   3
ENDBRANCH   1   2
BRANCH   1  13
ATOM     13  C   UNL     1      -0.136  54.170  20.868  1.00  0.00     0.000 C 
BRANCH  13  14
ATOM     14  C   UNL     1      -1.300  54.841  20.122  1.00  0.00     0.000 C 
BRANCH  14  15
ATOM     15  C   UNL     1      -0.872  56.135  19.406  1.00  0.00     0.000 C 
BRANCH  15  16
ATOM     16  C   UNL     1      -1.167  56.098  17.898  1.00  0.00     0.000 C 
BRANCH  16  17
ATOM     17  C   UNL     1      -0.248  57.034  17.094  1.00  0.00     0.000 C 
BRANCH  17  18
ATOM     18  C   UNL     1       1.238  56.668  17.237  1.00  0.00     0.000 C 
BRANCH  18  19
ATOM     19  C   UNL     1       2.066  57.799  17.866  1.00  0.00     0.000 C 
BRANCH  19  20
ATOM     20  C   UNL     1       3.368  57.254  18.473  1.00  0.00     0.006 C 
BRANCH  20  21
ATOM     21  C   UNL     1       3.770  55.902  17.869  1.00  0.00     0.053 C 
BRANCH  21  22
ATOM     22  C   UNL     1       4.733  56.065  16.732  1.00  0.00     0.041 C 
ATOM     23  O   UNL     1       4.693  55.278  15.750  1.00  0.00    -0.550 OA
ATOM     24  O   UNL     1       5.697  57.065  16.775  1.00  0.00    -0.550 OA
ENDBRANCH  21  22
ENDBRANCH  20  21
ENDBRANCH  19  20
ENDBRANCH  18  19
ENDBRANCH  17  18
ENDBRANCH  16  17
ENDBRANCH  15  16
ENDBRANCH  14  15
ENDBRANCH  13  14
ENDBRANCH   1  13
TORSDOF 20
ENDMDL
MODEL 8
REMARK VINA RESULT:    -4.724      1.257      2.694
REMARK INTER + INTRA:         -14.337
REMARK INTER:                 -10.793
REMARK INTRA:                  -3.543
REMARK UNBOUND:                -4.089
REMARK SMILES CCCCCCCCCCCCCCCCCCCCCC(=O)[O-]
REMARK SMILES IDX 12 1 11 2 10 3 9 4 8 5 7 6 6 7 5 8 4 9 3 10 2 11 1 12 13 13
REMARK SMILES IDX 14 14 15 15 16 16 17 17 18 18 19 19 20 20 21 21 22 22 23 23
REMARK SMILES IDX 24 24
REMARK H PARENT
REMARK Flexibility Score: inf
ROOT
ATOM      1  C   UNL     1      -1.702  56.826  17.263  1.00  0.00     0.000 C 
ENDROOT
BRANCH   1   2
ATOM      2  C   UNL     1      -0.326  56.169  17.457  1.00  0.00     0.000 C 
BRANCH   2   3
ATOM      3  C   UNL     1       0.793  57.200  17.691  1.00  0.00     0.000 C 
BRANCH   3   4
ATOM      4  C   UNL     1       2.201  56.599  17.483  1.00  0.00    -0.000 C 
BRANCH   4   5
ATOM      5  C   UNL     1       2.260  55.532  16.375  1.00  0.00    -0.000 C 
BRANCH   5   6
ATOM      6  C   UNL     1       3.531  54.662  16.381  1.00  0.00    -0.000 C 
BRANCH   6   7
ATOM      7  C   UNL     1       3.716  53.781  17.635  1.00  0.00    -0.000 C 
BRANCH   7   8
ATOM      8  C   UNL     1       2.551  52.826  17.950  1.00  0.00    -0.000 C 
BRANCH   8   9
ATOM      9  C   UNL     1       2.182  52.803  19.443  1.00  0.00    -0.000 C 
BRANCH   9  10
ATOM     10  C   UNL     1       0.809  53.438  19.730  1.00  0.00    -0.000 C 
BRANCH  10  11
ATOM     11  C   UNL     1       0.852  54.749  20.535  1.00  0.00    -0.003 C 
ATOM     12  C   UNL     1       2.247  55.087  21.058  1.00  0.00     0.004 C 
ENDBRANCH  10  11
ENDBRANCH   9  10
ENDBRANCH   8   9
ENDBRANCH   7   8
ENDBRANCH   6   7
ENDBRANCH   5   6
ENDBRANCH   4   5
ENDBRANCH   3   4
ENDBRANCH   2   3
ENDBRANCH   1   2
BRANCH   1  13
ATOM     13  C   UNL     1      -2.818  56.100  18.033  1.00  0.00     0.000 C 
BRANCH  13  14
ATOM     14  C   UNL     1      -2.414  54.677  18.453  1.00  0.00     0.000 C 
BRANCH  14  15
ATOM     15  C   UNL     1      -2.723  53.633  17.365  1.00  0.00     0.000 C 
BRANCH  15  16
ATOM     16  C   UNL     1      -1.820  52.394  17.465  1.00  0.00     0.000 C 
BRANCH  16  17
ATOM     17  C   UNL     1      -2.454  51.268  18.301  1.00  0.00     0.000 C 
BRANCH  17  18
ATOM     18  C   UNL     1      -1.426  50.534  19.178  1.00  0.00     0.000 C 
BRANCH  18  19
ATOM     19  C   UNL     1      -1.666  50.758  20.679  1.00  0.00     0.000 C 
BRANCH  19  20
ATOM     20  C   UNL     1      -2.599  51.957  20.913  1.00  0.00     0.006 C 
BRANCH  20  21
ATOM     21  C   UNL     1      -2.079  52.892  22.014  1.00  0.00     0.053 C 
BRANCH  21  22
ATOM     22  C   UNL     1      -2.651  52.544  23.354  1.00  0.00     0.041 C 
ATOM     23  O   UNL     1      -3.648  53.170  23.799  1.00  0.00    -0.550 OA
ATOM     24  O   UNL     1      -2.061  51.550  24.126  1.00  0.00    -0.550 OA
ENDBRANCH  21  22
ENDBRANCH  20  21
ENDBRANCH  19  20
ENDBRANCH  18  19
ENDBRANCH  17  18
ENDBRANCH  16  17
ENDBRANCH  15  16
ENDBRANCH  14  15
ENDBRANCH  13  14
ENDBRANCH   1  13
TORSDOF 20
ENDMDL
MODEL 9
REMARK VINA RESULT:    -4.649      2.910      6.889
REMARK INTER + INTRA:         -14.175
REMARK INTER:                 -10.741
REMARK INTRA:                  -3.434
REMARK UNBOUND:                -4.089
REMARK SMILES CCCCCCCCCCCCCCCCCCCCCC(=O)[O-]
REMARK SMILES IDX 12 1 11 2 10 3 9 4 8 5 7 6 6 7 5 8 4 9 3 10 2 11 1 12 13 13
REMARK SMILES IDX 14 14 15 15 16 16 17 17 18 18 19 19 20 20 21 21 22 22 23 23
REMARK SMILES IDX 24 24
REMARK H PARENT
REMARK Flexibility Score: inf
ROOT
ATOM      1  C   UNL     1      -1.331  55.945  19.492  1.00  0.00     0.000 C 
ENDROOT
BRANCH   1   2
ATOM      2  C   UNL     1      -1.869  55.778  18.061  1.00  0.00     0.000 C 
BRANCH   2   3
ATOM      3  C   UNL     1      -2.907  54.648  17.948  1.00  0.00     0.000 C 
BRANCH   3   4
ATOM      4  C   UNL     1      -2.328  53.379  17.284  1.00  0.00    -0.000 C 
BRANCH   4   5
ATOM      5  C   UNL     1      -1.564  52.464  18.259  1.00  0.00    -0.000 C 
BRANCH   5   6
ATOM      6  C   UNL     1      -2.422  51.864  19.389  1.00  0.00    -0.000 C 
BRANCH   6   7
ATOM      7  C   UNL     1      -1.749  51.835  20.778  1.00  0.00    -0.000 C 
BRANCH   7   8
ATOM      8  C   UNL     1      -2.062  53.035  21.690  1.00  0.00    -0.000 C 
BRANCH   8   9
ATOM      9  C   UNL     1      -2.306  52.628  23.153  1.00  0.00    -0.000 C 
BRANCH   9  10
ATOM     10  C   UNL     1      -3.688  53.065  23.673  1.00  0.00    -0.000 C 
BRANCH  10  11
ATOM     11  C   UNL     1      -4.638  51.914  24.048  1.00  0.00    -0.003 C 
ATOM     12  C   UNL     1      -4.884  50.939  22.897  1.00  0.00     0.004 C 
ENDBRANCH  10  11
ENDBRANCH   9  10
ENDBRANCH   8   9
ENDBRANCH   7   8
ENDBRANCH   6   7
ENDBRANCH   5   6
ENDBRANCH   4   5
ENDBRANCH   3   4
ENDBRANCH   2   3
ENDBRANCH   1   2
BRANCH   1  13
ATOM     13  C   UNL     1       0.205  55.887  19.558  1.00  0.00     0.000 C 
BRANCH  13  14
ATOM     14  C   UNL     1       0.711  54.872  20.595  1.00  0.00     0.000 C 
BRANCH  14  15
ATOM     15  C   UNL     1       2.247  54.836  20.682  1.00  0.00     0.000 C 
BRANCH  15  16
ATOM     16  C   UNL     1       2.831  53.485  20.239  1.00  0.00     0.000 C 
BRANCH  16  17
ATOM     17  C   UNL     1       1.882  52.711  19.308  1.00  0.00     0.000 C 
BRANCH  17  18
ATOM     18  C   UNL     1       2.396  52.648  17.861  1.00  0.00     0.000 C 
BRANCH  18  19
ATOM     19  C   UNL     1       1.548  53.492  16.897  1.00  0.00     0.000 C 
BRANCH  19  20
ATOM     20  C   UNL     1       2.416  54.527  16.164  1.00  0.00     0.006 C 
BRANCH  20  21
ATOM     21  C   UNL     1       2.286  55.930  16.771  1.00  0.00     0.053 C 
BRANCH  21  22
ATOM     22  C   UNL     1       3.471  56.282  17.617  1.00  0.00     0.041 C 
ATOM     23  O   UNL     1       4.480  55.530  17.638  1.00  0.00    -0.550 OA
ATOM     24  O   UNL     1       3.447  57.424  18.409  1.00  0.00    -0.550 OA
ENDBRANCH  21  22
ENDBRANCH  20  21
ENDBRANCH  19  20
ENDBRANCH  18  19
ENDBRANCH  17  18
ENDBRANCH  16  17
ENDBRANCH  15  16
ENDBRANCH  14  15
ENDBRANCH  13  14
ENDBRANCH   1  13
TORSDOF 20
ENDMDL
