MODEL 1
REMARK VINA RESULT:    -4.991      0.000      0.000
REMARK INTER + INTRA:          -6.183
REMARK INTER:                  -7.034
REMARK INTRA:                   0.851
REMARK UNBOUND:                 0.851
REMARK SMILES CC1=CCC(=C(C)C)C(=O)CC(C)=CCC1
REMARK SMILES IDX 12 1 14 2 13 3 15 4 16 5 2 6 1 7 3 8 11 10 9 11 10 12 5 13
REMARK SMILES IDX 6 14 7 15 8 16 4 17
REMARK H PARENT
REMARK Flexibility Score: 60.00
ROOT
ATOM      1  C   UNL     1     -12.848 -19.162  29.523  1.00  0.00    -0.070 C 
ATOM      2  C   UNL     1     -13.250 -19.387  30.795  1.00  0.00    -0.027 C 
ATOM      3  C   UNL     1     -13.792 -19.525  28.406  1.00  0.00     0.039 C 
ENDROOT
BRANCH   2   4
ATOM      4  C   UNL     1     -12.414 -19.142  32.030  1.00  0.00     0.032 C 
BRANCH   4   5
ATOM      5  C   UNL     1     -11.887 -17.700  32.081  1.00  0.00     0.034 C 
BRANCH   5   6
ATOM      6  C   UNL     1     -12.985 -16.649  31.988  1.00  0.00    -0.077 C 
ATOM      7  C   UNL     1     -14.085 -16.652  33.019  1.00  0.00     0.039 C 
ATOM      8  C   UNL     1     -13.041 -15.716  31.010  1.00  0.00    -0.023 CG0
ATOM      9  G   UNL     1     -12.001 -15.512  29.933  1.00  0.00     0.000 G0
ENDBRANCH   5   6
ENDBRANCH   4   5
ENDBRANCH   2   4
BRANCH   1  10
ATOM     10  C   UNL     1     -11.499 -18.561  29.178  1.00  0.00     0.111 C 
BRANCH  10  11
ATOM     11  C   UNL     1     -11.645 -17.419  28.211  1.00  0.00     0.163 C 
ATOM     12  O   UNL     1     -11.147 -17.519  27.058  1.00  0.00    -0.294 OA
BRANCH  11  13
ATOM     13  C   UNL     1     -12.343 -16.167  28.598  1.00  0.00    -0.002 C 
ATOM     14  C   UNL     1     -13.273 -15.616  27.771  1.00  0.00    -0.069 C 
ATOM     15  C   UNL     1     -13.554 -16.205  26.406  1.00  0.00     0.039 C 
ATOM     16  C   UNL     1     -14.030 -14.370  28.170  1.00  0.00     0.039 C 
BRANCH  13  17
ATOM     17  C   UNL     1     -12.001 -15.506  29.930  1.00  0.00     0.066 CG0
ATOM     18  G   UNL     1     -13.041 -15.728  31.003  1.00  0.00     0.000 G0
ENDBRANCH  13  17
ENDBRANCH  11  13
ENDBRANCH  10  11
ENDBRANCH   1  10
TORSDOF 0
ENDMDL
MODEL 2
REMARK VINA RESULT:    -4.954      1.696      3.490
REMARK INTER + INTRA:          -6.131
REMARK INTER:                  -6.622
REMARK INTRA:                   0.492
REMARK UNBOUND:                 0.851
REMARK SMILES CC1=CCC(=C(C)C)C(=O)CC(C)=CCC1
REMARK SMILES IDX 12 1 14 2 13 3 15 4 16 5 2 6 1 7 3 8 11 10 9 11 10 12 5 13
REMARK SMILES IDX 6 14 7 15 8 16 4 17
REMARK H PARENT
REMARK Flexibility Score: 60.00
ROOT
ATOM      1  C   UNL     1     -11.555 -16.836  32.190  1.00  0.00    -0.070 C 
ATOM      2  C   UNL     1     -11.721 -18.178  32.263  1.00  0.00    -0.027 C 
ATOM      3  C   UNL     1     -10.561 -16.193  33.124  1.00  0.00     0.039 C 
ENDROOT
BRANCH   2   4
ATOM      4  C   UNL     1     -12.713 -18.978  31.451  1.00  0.00     0.032 C 
BRANCH   4   5
ATOM      5  C   UNL     1     -12.046 -19.649  30.241  1.00  0.00     0.034 C 
BRANCH   5   6
ATOM      6  C   UNL     1     -12.874 -19.563  28.966  1.00  0.00    -0.077 C 
ATOM      7  C   UNL     1     -14.001 -20.543  28.763  1.00  0.00     0.039 C 
ATOM      8  C   UNL     1     -12.640 -18.661  27.986  1.00  0.00    -0.023 CG0
ATOM      9  G   UNL     1     -11.606 -17.560  28.038  1.00  0.00     0.000 G0
ENDBRANCH   5   6
ENDBRANCH   4   5
ENDBRANCH   2   4
BRANCH   1  10
ATOM     10  C   UNL     1     -12.319 -15.963  31.215  1.00  0.00     0.111 C 
BRANCH  10  11
ATOM     11  C   UNL     1     -11.560 -15.796  29.928  1.00  0.00     0.163 C 
ATOM     12  O   UNL     1     -10.434 -15.232  29.943  1.00  0.00    -0.294 OA
BRANCH  11  13
ATOM     13  C   UNL     1     -12.124 -16.262  28.636  1.00  0.00    -0.002 C 
ATOM     14  C   UNL     1     -13.087 -15.537  28.005  1.00  0.00    -0.069 C 
ATOM     15  C   UNL     1     -13.673 -14.295  28.640  1.00  0.00     0.039 C 
ATOM     16  C   UNL     1     -13.637 -15.968  26.665  1.00  0.00     0.039 C 
BRANCH  13  17
ATOM     17  C   UNL     1     -11.612 -17.565  28.028  1.00  0.00     0.066 CG0
ATOM     18  G   UNL     1     -12.646 -18.666  27.992  1.00  0.00     0.000 G0
ENDBRANCH  13  17
ENDBRANCH  11  13
ENDBRANCH  10  11
ENDBRANCH   1  10
TORSDOF 0
ENDMDL
MODEL 3
REMARK VINA RESULT:    -4.622      1.559      4.055
REMARK INTER + INTRA:          -5.662
REMARK INTER:                  -6.705
REMARK INTRA:                   1.043
REMARK UNBOUND:                 0.851
REMARK SMILES CC1=CCC(=C(C)C)C(=O)CC(C)=CCC1
REMARK SMILES IDX 12 1 14 2 13 3 15 4 16 5 2 6 1 7 3 8 11 10 9 11 10 12 5 13
REMARK SMILES IDX 6 14 7 15 8 16 4 17
REMARK H PARENT
REMARK Flexibility Score: 60.00
ROOT
ATOM      1  C   UNL     1     -12.469 -16.942  31.878  1.00  0.00    -0.070 C 
ATOM      2  C   UNL     1     -12.154 -15.799  31.224  1.00  0.00    -0.027 C 
ATOM      3  C   UNL     1     -13.803 -17.016  32.575  1.00  0.00     0.039 C 
ENDROOT
BRANCH   2   4
ATOM      4  C   UNL     1     -10.842 -15.528  30.526  1.00  0.00     0.032 C 
BRANCH   4   5
ATOM      5  C   UNL     1     -11.021 -15.413  29.004  1.00  0.00     0.034 C 
BRANCH   5   6
ATOM      6  C   UNL     1     -12.448 -15.672  28.540  1.00  0.00    -0.077 C 
ATOM      7  C   UNL     1     -13.405 -14.510  28.445  1.00  0.00     0.039 C 
ATOM      8  C   UNL     1     -12.917 -16.901  28.224  1.00  0.00    -0.023 CG0
ATOM      9  G   UNL     1     -12.096 -18.170  28.192  1.00  0.00     0.000 G0
ENDBRANCH   5   6
ENDBRANCH   4   5
ENDBRANCH   2   4
BRANCH   1  10
ATOM     10  C   UNL     1     -11.543 -18.141  31.935  1.00  0.00     0.111 C 
BRANCH  10  11
ATOM     11  C   UNL     1     -11.106 -18.554  30.557  1.00  0.00     0.163 C 
ATOM     12  O   UNL     1      -9.877 -18.567  30.277  1.00  0.00    -0.294 OA
BRANCH  11  13
ATOM     13  C   UNL     1     -12.095 -18.925  29.513  1.00  0.00    -0.002 C 
ATOM     14  C   UNL     1     -12.981 -19.934  29.734  1.00  0.00    -0.069 C 
ATOM     15  C   UNL     1     -12.925 -20.761  30.999  1.00  0.00     0.039 C 
ATOM     16  C   UNL     1     -14.028 -20.292  28.704  1.00  0.00     0.039 C 
BRANCH  13  17
ATOM     17  C   UNL     1     -12.101 -18.162  28.192  1.00  0.00     0.066 CG0
ATOM     18  G   UNL     1     -12.933 -16.901  28.222  1.00  0.00     0.000 G0
ENDBRANCH  13  17
ENDBRANCH  11  13
ENDBRANCH  10  11
ENDBRANCH   1  10
TORSDOF 0
ENDMDL
MODEL 4
REMARK VINA RESULT:    -4.579      1.858      3.194
REMARK INTER + INTRA:          -5.601
REMARK INTER:                  -6.665
REMARK INTRA:                   1.064
REMARK UNBOUND:                 0.851
REMARK SMILES CC1=CCC(=C(C)C)C(=O)CC(C)=CCC1
REMARK SMILES IDX 12 1 14 2 13 3 15 4 16 5 2 6 1 7 3 8 11 10 9 11 10 12 5 13
REMARK SMILES IDX 6 14 7 15 8 16 4 17
REMARK H PARENT
REMARK Flexibility Score: 60.00
ROOT
ATOM      1  C   UNL     1     -10.893 -16.951  28.822  1.00  0.00    -0.070 C 
ATOM      2  C   UNL     1     -10.294 -17.858  29.628  1.00  0.00    -0.027 C 
ATOM      3  C   UNL     1     -11.141 -17.335  27.385  1.00  0.00     0.039 C 
ENDROOT
BRANCH   2   4
ATOM      4  C   UNL     1      -9.915 -17.623  31.072  1.00  0.00     0.032 C 
BRANCH   4   5
ATOM      5  C   UNL     1     -10.631 -18.603  32.014  1.00  0.00     0.034 C 
BRANCH   5   6
ATOM      6  C   UNL     1     -12.064 -18.905  31.600  1.00  0.00    -0.077 C 
ATOM      7  C   UNL     1     -12.436 -20.322  31.245  1.00  0.00     0.039 C 
ATOM      8  C   UNL     1     -13.029 -17.960  31.512  1.00  0.00    -0.023 CG0
ATOM      9  G   UNL     1     -12.867 -16.506  31.890  1.00  0.00     0.000 G0
ENDBRANCH   5   6
ENDBRANCH   4   5
ENDBRANCH   2   4
BRANCH   1  10
ATOM     10  C   UNL     1     -11.324 -15.579  29.300  1.00  0.00     0.111 C 
BRANCH  10  11
ATOM     11  C   UNL     1     -12.815 -15.512  29.483  1.00  0.00     0.163 C 
ATOM     12  O   UNL     1     -13.558 -15.417  28.469  1.00  0.00    -0.294 OA
BRANCH  11  13
ATOM     13  C   UNL     1     -13.427 -15.531  30.836  1.00  0.00    -0.002 C 
ATOM     14  C   UNL     1     -14.459 -14.695  31.134  1.00  0.00    -0.069 C 
ATOM     15  C   UNL     1     -14.947 -13.668  30.137  1.00  0.00     0.039 C 
ATOM     16  C   UNL     1     -15.129 -14.735  32.489  1.00  0.00     0.039 C 
BRANCH  13  17
ATOM     17  C   UNL     1     -12.882 -16.495  31.885  1.00  0.00     0.066 CG0
ATOM     18  G   UNL     1     -13.024 -17.950  31.505  1.00  0.00     0.000 G0
ENDBRANCH  13  17
ENDBRANCH  11  13
ENDBRANCH  10  11
ENDBRANCH   1  10
TORSDOF 0
ENDMDL
MODEL 5
REMARK VINA RESULT:    -4.496      1.631      3.490
REMARK INTER + INTRA:          -5.485
REMARK INTER:                  -7.041
REMARK INTRA:                   1.556
REMARK UNBOUND:                 0.851
REMARK SMILES CC1=CCC(=C(C)C)C(=O)CC(C)=CCC1
REMARK SMILES IDX 12 1 14 2 13 3 15 4 16 5 2 6 1 7 3 8 11 10 9 11 10 12 5 13
REMARK SMILES IDX 6 14 7 15 8 16 4 17
REMARK H PARENT
REMARK Flexibility Score: 60.00
ROOT
ATOM      1  C   UNL     1     -12.862 -15.496  29.214  1.00  0.00    -0.070 C 
ATOM      2  C   UNL     1     -13.658 -15.310  30.293  1.00  0.00    -0.027 C 
ATOM      3  C   UNL     1     -13.470 -15.318  27.846  1.00  0.00     0.039 C 
ENDROOT
BRANCH   2   4
ATOM      4  C   UNL     1     -13.235 -15.505  31.731  1.00  0.00     0.032 C 
BRANCH   4   5
ATOM      5  C   UNL     1     -12.610 -16.889  31.955  1.00  0.00     0.034 C 
BRANCH   5   6
ATOM      6  C   UNL     1     -11.145 -16.834  32.366  1.00  0.00    -0.077 C 
ATOM      7  C   UNL     1     -10.711 -15.807  33.381  1.00  0.00     0.039 C 
ATOM      8  C   UNL     1     -10.196 -17.651  31.852  1.00  0.00    -0.023 CG0
ATOM      9  G   UNL     1     -10.447 -18.782  30.881  1.00  0.00     0.000 G0
ENDBRANCH   5   6
ENDBRANCH   4   5
ENDBRANCH   2   4
BRANCH   1  10
ATOM     10  C   UNL     1     -11.398 -15.870  29.323  1.00  0.00     0.111 C 
BRANCH  10  11
ATOM     11  C   UNL     1     -11.163 -17.284  28.869  1.00  0.00     0.163 C 
ATOM     12  O   UNL     1     -10.744 -17.495  27.699  1.00  0.00    -0.294 OA
BRANCH  11  13
ATOM     13  C   UNL     1     -11.439 -18.436  29.763  1.00  0.00    -0.002 C 
ATOM     14  C   UNL     1     -12.567 -19.179  29.597  1.00  0.00    -0.069 C 
ATOM     15  C   UNL     1     -13.608 -18.802  28.567  1.00  0.00     0.039 C 
ATOM     16  C   UNL     1     -12.840 -20.387  30.464  1.00  0.00     0.039 C 
BRANCH  13  17
ATOM     17  C   UNL     1     -10.445 -18.772  30.870  1.00  0.00     0.066 CG0
ATOM     18  G   UNL     1     -10.218 -17.642  31.847  1.00  0.00     0.000 G0
ENDBRANCH  13  17
ENDBRANCH  11  13
ENDBRANCH  10  11
ENDBRANCH   1  10
TORSDOF 0
ENDMDL
MODEL 6
REMARK VINA RESULT:    -4.483      2.044      4.434
REMARK INTER + INTRA:          -5.466
REMARK INTER:                  -6.349
REMARK INTRA:                   0.883
REMARK UNBOUND:                 0.851
REMARK SMILES CC1=CCC(=C(C)C)C(=O)CC(C)=CCC1
REMARK SMILES IDX 12 1 14 2 13 3 15 4 16 5 2 6 1 7 3 8 11 10 9 11 10 12 5 13
REMARK SMILES IDX 6 14 7 15 8 16 4 17
REMARK H PARENT
REMARK Flexibility Score: 60.00
ROOT
ATOM      1  C   UNL     1     -10.531 -16.244  29.133  1.00  0.00    -0.070 C 
ATOM      2  C   UNL     1     -11.442 -16.278  28.132  1.00  0.00    -0.027 C 
ATOM      3  C   UNL     1     -10.098 -14.897  29.651  1.00  0.00     0.039 C 
ENDROOT
BRANCH   2   4
ATOM      4  C   UNL     1     -11.942 -17.532  27.452  1.00  0.00     0.032 C 
BRANCH   4   5
ATOM      5  C   UNL     1     -13.332 -17.939  27.964  1.00  0.00     0.034 C 
BRANCH   5   6
ATOM      6  C   UNL     1     -13.289 -18.974  29.079  1.00  0.00    -0.077 C 
ATOM      7  C   UNL     1     -13.392 -20.435  28.721  1.00  0.00     0.039 C 
ATOM      8  C   UNL     1     -13.182 -18.653  30.389  1.00  0.00    -0.023 CG0
ATOM      9  G   UNL     1     -12.998 -17.256  30.936  1.00  0.00     0.000 G0
ENDBRANCH   5   6
ENDBRANCH   4   5
ENDBRANCH   2   4
BRANCH   1  10
ATOM     10  C   UNL     1      -9.937 -17.494  29.751  1.00  0.00     0.111 C 
BRANCH  10  11
ATOM     11  C   UNL     1     -10.465 -17.716  31.141  1.00  0.00     0.163 C 
ATOM     12  O   UNL     1      -9.884 -18.538  31.898  1.00  0.00    -0.294 OA
BRANCH  11  13
ATOM     13  C   UNL     1     -11.673 -17.003  31.629  1.00  0.00    -0.002 C 
ATOM     14  C   UNL     1     -11.583 -16.139  32.677  1.00  0.00    -0.069 C 
ATOM     15  C   UNL     1     -10.283 -15.951  33.427  1.00  0.00     0.039 C 
ATOM     16  C   UNL     1     -12.791 -15.366  33.155  1.00  0.00     0.039 C 
BRANCH  13  17
ATOM     17  C   UNL     1     -13.012 -17.255  30.944  1.00  0.00     0.066 CG0
ATOM     18  G   UNL     1     -13.165 -18.658  30.404  1.00  0.00     0.000 G0
ENDBRANCH  13  17
ENDBRANCH  11  13
ENDBRANCH  10  11
ENDBRANCH   1  10
TORSDOF 0
ENDMDL
MODEL 7
REMARK VINA RESULT:    -4.422      1.586      3.677
REMARK INTER + INTRA:          -5.381
REMARK INTER:                  -5.911
REMARK INTRA:                   0.530
REMARK UNBOUND:                 0.851
REMARK SMILES CC1=CCC(=C(C)C)C(=O)CC(C)=CCC1
REMARK SMILES IDX 12 1 14 2 13 3 15 4 16 5 2 6 1 7 3 8 11 10 9 11 10 12 5 13
REMARK SMILES IDX 6 14 7 15 8 16 4 17
REMARK H PARENT
REMARK Flexibility Score: 60.00
ROOT
ATOM      1  C   UNL     1     -12.876 -19.842  30.760  1.00  0.00    -0.070 C 
ATOM      2  C   UNL     1     -12.724 -19.934  29.418  1.00  0.00    -0.027 C 
ATOM      3  C   UNL     1     -12.324 -20.955  31.614  1.00  0.00     0.039 C 
ENDROOT
BRANCH   2   4
ATOM      4  C   UNL     1     -13.265 -18.947  28.410  1.00  0.00     0.032 C 
BRANCH   4   5
ATOM      5  C   UNL     1     -12.248 -17.838  28.100  1.00  0.00     0.034 C 
BRANCH   5   6
ATOM      6  C   UNL     1     -12.889 -16.481  27.843  1.00  0.00    -0.077 C 
ATOM      7  C   UNL     1     -13.635 -16.261  26.552  1.00  0.00     0.039 C 
ATOM      8  C   UNL     1     -12.808 -15.444  28.709  1.00  0.00    -0.023 CG0
ATOM      9  G   UNL     1     -12.166 -15.493  30.076  1.00  0.00     0.000 G0
ENDBRANCH   5   6
ENDBRANCH   4   5
ENDBRANCH   2   4
BRANCH   1  10
ATOM     10  C   UNL     1     -13.569 -18.674  31.433  1.00  0.00     0.111 C 
BRANCH  10  11
ATOM     11  C   UNL     1     -12.623 -17.522  31.630  1.00  0.00     0.163 C 
ATOM     12  O   UNL     1     -11.518 -17.722  32.204  1.00  0.00    -0.294 OA
BRANCH  11  13
ATOM     13  C   UNL     1     -12.975 -16.151  31.184  1.00  0.00    -0.002 C 
ATOM     14  C   UNL     1     -14.034 -15.500  31.737  1.00  0.00    -0.069 C 
ATOM     15  C   UNL     1     -14.932 -16.182  32.745  1.00  0.00     0.039 C 
ATOM     16  C   UNL     1     -14.377 -14.084  31.332  1.00  0.00     0.039 C 
BRANCH  13  17
ATOM     17  C   UNL     1     -12.136 -15.485  30.097  1.00  0.00     0.066 CG0
ATOM     18  G   UNL     1     -12.815 -15.439  28.748  1.00  0.00     0.000 G0
ENDBRANCH  13  17
ENDBRANCH  11  13
ENDBRANCH  10  11
ENDBRANCH   1  10
TORSDOF 0
ENDMDL
MODEL 8
REMARK VINA RESULT:    -3.948      1.510      2.792
REMARK INTER + INTRA:          -4.712
REMARK INTER:                  -6.160
REMARK INTRA:                   1.448
REMARK UNBOUND:                 0.851
REMARK SMILES CC1=CCC(=C(C)C)C(=O)CC(C)=CCC1
REMARK SMILES IDX 12 1 14 2 13 3 15 4 16 5 2 6 1 7 3 8 11 10 9 11 10 12 5 13
REMARK SMILES IDX 6 14 7 15 8 16 4 17
REMARK H PARENT
REMARK Flexibility Score: 60.00
ROOT
ATOM      1  C   UNL     1     -12.095 -17.722  27.795  1.00  0.00    -0.070 C 
ATOM      2  C   UNL     1     -13.225 -18.436  28.013  1.00  0.00    -0.027 C 
ATOM      3  C   UNL     1     -11.965 -16.984  26.488  1.00  0.00     0.039 C 
ENDROOT
BRANCH   2   4
ATOM      4  C   UNL     1     -13.498 -19.283  29.235  1.00  0.00     0.032 C 
BRANCH   4   5
ATOM      5  C   UNL     1     -13.464 -18.448  30.523  1.00  0.00     0.034 C 
BRANCH   5   6
ATOM      6  C   UNL     1     -12.365 -18.868  31.490  1.00  0.00    -0.077 C 
ATOM      7  C   UNL     1     -12.133 -20.338  31.733  1.00  0.00     0.039 C 
ATOM      8  C   UNL     1     -11.591 -17.988  32.165  1.00  0.00    -0.023 CG0
ATOM      9  G   UNL     1     -11.627 -16.486  32.004  1.00  0.00     0.000 G0
ENDBRANCH   5   6
ENDBRANCH   4   5
ENDBRANCH   2   4
BRANCH   1  10
ATOM     10  C   UNL     1     -10.968 -17.634  28.804  1.00  0.00     0.111 C 
BRANCH  10  11
ATOM     11  C   UNL     1     -10.970 -16.304  29.506  1.00  0.00     0.163 C 
ATOM     12  O   UNL     1     -10.130 -15.427  29.169  1.00  0.00    -0.294 OA
BRANCH  11  13
ATOM     13  C   UNL     1     -11.928 -16.013  30.602  1.00  0.00    -0.002 C 
ATOM     14  C   UNL     1     -13.073 -15.323  30.349  1.00  0.00    -0.069 C 
ATOM     15  C   UNL     1     -13.358 -14.757  28.975  1.00  0.00     0.039 C 
ATOM     16  C   UNL     1     -14.084 -15.061  31.442  1.00  0.00     0.039 C 
BRANCH  13  17
ATOM     17  C   UNL     1     -11.608 -16.494  32.015  1.00  0.00     0.066 CG0
ATOM     18  G   UNL     1     -11.594 -17.998  32.156  1.00  0.00     0.000 G0
ENDBRANCH  13  17
ENDBRANCH  11  13
ENDBRANCH  10  11
ENDBRANCH   1  10
TORSDOF 0
ENDMDL
MODEL 9
REMARK VINA RESULT:    -3.906      2.005      3.099
REMARK INTER + INTRA:          -4.653
REMARK INTER:                  -5.751
REMARK INTRA:                   1.099
REMARK UNBOUND:                 0.851
REMARK SMILES CC1=CCC(=C(C)C)C(=O)CC(C)=CCC1
REMARK SMILES IDX 12 1 14 2 13 3 15 4 16 5 2 6 1 7 3 8 11 10 9 11 10 12 5 13
REMARK SMILES IDX 6 14 7 15 8 16 4 17
REMARK H PARENT
REMARK Flexibility Score: 60.00
ROOT
ATOM      1  C   UNL     1     -13.374 -16.296  31.466  1.00  0.00    -0.070 C 
ATOM      2  C   UNL     1     -12.521 -16.853  32.358  1.00  0.00    -0.027 C 
ATOM      3  C   UNL     1     -14.207 -15.124  31.919  1.00  0.00     0.039 C 
ENDROOT
BRANCH   2   4
ATOM      4  C   UNL     1     -11.658 -18.065  32.097  1.00  0.00     0.032 C 
BRANCH   4   5
ATOM      5  C   UNL     1     -10.237 -17.669  31.668  1.00  0.00     0.034 C 
BRANCH   5   6
ATOM      6  C   UNL     1     -10.074 -16.177  31.413  1.00  0.00    -0.077 C 
ATOM      7  C   UNL     1      -9.880 -15.254  32.589  1.00  0.00     0.039 C 
ATOM      8  C   UNL     1     -10.114 -15.624  30.178  1.00  0.00    -0.023 CG0
ATOM      9  G   UNL     1     -10.231 -16.388  28.880  1.00  0.00     0.000 G0
ENDBRANCH   5   6
ENDBRANCH   4   5
ENDBRANCH   2   4
BRANCH   1  10
ATOM     10  C   UNL     1     -13.521 -16.795  30.043  1.00  0.00     0.111 C 
BRANCH  10  11
ATOM     11  C   UNL     1     -12.787 -15.906  29.078  1.00  0.00     0.163 C 
ATOM     12  O   UNL     1     -13.159 -14.711  28.933  1.00  0.00    -0.294 OA
BRANCH  11  13
ATOM     13  C   UNL     1     -11.648 -16.417  28.274  1.00  0.00    -0.002 C 
ATOM     14  C   UNL     1     -11.855 -16.897  27.017  1.00  0.00    -0.069 C 
ATOM     15  C   UNL     1     -13.249 -17.010  26.443  1.00  0.00     0.039 C 
ATOM     16  C   UNL     1     -10.701 -17.374  26.165  1.00  0.00     0.039 C 
BRANCH  13  17
ATOM     17  C   UNL     1     -10.246 -16.399  28.876  1.00  0.00     0.066 CG0
ATOM     18  G   UNL     1     -10.148 -15.618  30.166  1.00  0.00     0.000 G0
ENDBRANCH  13  17
ENDBRANCH  11  13
ENDBRANCH  10  11
ENDBRANCH   1  10
TORSDOF 0
ENDMDL
