MODEL 1
REMARK VINA RESULT:    -4.219      0.000      0.000
REMARK INTER + INTRA:         -14.261
REMARK INTER:                  -9.645
REMARK INTRA:                  -4.616
REMARK UNBOUND:                -4.616
REMARK SMILES CCCCCCCCCCCCCCCCCCCCCCCC(=O)[O-]
REMARK SMILES IDX 13 1 14 2 15 3 16 4 17 5 18 6 19 7 20 8 21 9 22 10 23 11
REMARK SMILES IDX 24 12 25 13 26 14 12 15 11 16 10 17 9 18 8 19 7 20 6 21 5 22
REMARK SMILES IDX 4 23 3 24 2 25 1 26
REMARK H PARENT
REMARK Flexibility Score: inf
ROOT
ATOM      1  C   UNL     1      52.286  40.924  47.860  1.00  0.00     0.000 C 
ENDROOT
BRANCH   1   2
ATOM      2  C   UNL     1      52.126  42.371  47.370  1.00  0.00     0.000 C 
BRANCH   2   3
ATOM      3  C   UNL     1      52.659  43.362  48.416  1.00  0.00     0.000 C 
BRANCH   3   4
ATOM      4  C   UNL     1      53.184  42.669  49.688  1.00  0.00     0.000 C 
BRANCH   4   5
ATOM      5  C   UNL     1      52.450  43.052  50.988  1.00  0.00     0.000 C 
BRANCH   5   6
ATOM      6  C   UNL     1      52.187  41.887  51.962  1.00  0.00     0.000 C 
BRANCH   6   7
ATOM      7  C   UNL     1      52.031  40.515  51.271  1.00  0.00     0.000 C 
BRANCH   7   8
ATOM      8  C   UNL     1      53.173  39.545  51.620  1.00  0.00     0.000 C 
BRANCH   8   9
ATOM      9  C   UNL     1      54.066  39.210  50.412  1.00  0.00     0.000 C 
BRANCH   9  10
ATOM     10  C   UNL     1      55.098  38.090  50.649  1.00  0.00     0.006 C 
BRANCH  10  11
ATOM     11  C   UNL     1      56.520  38.416  50.165  1.00  0.00     0.053 C 
BRANCH  11  12
ATOM     12  C   UNL     1      57.564  37.725  50.989  1.00  0.00     0.041 C 
ATOM     13  O   UNL     1      57.441  37.651  52.240  1.00  0.00    -0.550 OA
ATOM     14  O   UNL     1      58.698  37.202  50.379  1.00  0.00    -0.550 OA
ENDBRANCH  11  12
ENDBRANCH  10  11
ENDBRANCH   9  10
ENDBRANCH   8   9
ENDBRANCH   7   8
ENDBRANCH   6   7
ENDBRANCH   5   6
ENDBRANCH   4   5
ENDBRANCH   3   4
ENDBRANCH   2   3
ENDBRANCH   1   2
BRANCH   1  15
ATOM     15  C   UNL     1      52.947  40.009  46.815  1.00  0.00     0.000 C 
BRANCH  15  16
ATOM     16  C   UNL     1      54.490  40.032  46.806  1.00  0.00     0.000 C 
BRANCH  16  17
ATOM     17  C   UNL     1      55.123  41.192  46.016  1.00  0.00     0.000 C 
BRANCH  17  18
ATOM     18  C   UNL     1      55.867  42.231  46.879  1.00  0.00    -0.000 C 
BRANCH  18  19
ATOM     19  C   UNL     1      56.524  41.631  48.143  1.00  0.00    -0.000 C 
BRANCH  19  20
ATOM     20  C   UNL     1      56.809  42.663  49.249  1.00  0.00    -0.000 C 
BRANCH  20  21
ATOM     21  C   UNL     1      57.078  42.004  50.614  1.00  0.00    -0.000 C 
BRANCH  21  22
ATOM     22  C   UNL     1      56.513  42.818  51.792  1.00  0.00    -0.000 C 
BRANCH  22  23
ATOM     23  C   UNL     1      55.564  42.045  52.726  1.00  0.00    -0.000 C 
BRANCH  23  24
ATOM     24  C   UNL     1      56.168  40.724  53.229  1.00  0.00    -0.000 C 
BRANCH  24  25
ATOM     25  C   UNL     1      55.658  40.337  54.626  1.00  0.00    -0.003 C 
ATOM     26  C   UNL     1      54.294  40.947  54.950  1.00  0.00     0.004 C 
ENDBRANCH  24  25
ENDBRANCH  23  24
ENDBRANCH  22  23
ENDBRANCH  21  22
ENDBRANCH  20  21
ENDBRANCH  19  20
ENDBRANCH  18  19
ENDBRANCH  17  18
ENDBRANCH  16  17
ENDBRANCH  15  16
ENDBRANCH   1  15
TORSDOF 22
ENDMDL
MODEL 2
REMARK VINA RESULT:    -4.066      2.467      5.120
REMARK INTER + INTRA:         -13.912
REMARK INTER:                  -9.580
REMARK INTRA:                  -4.332
REMARK UNBOUND:                -4.616
REMARK SMILES CCCCCCCCCCCCCCCCCCCCCCCC(=O)[O-]
REMARK SMILES IDX 13 1 14 2 15 3 16 4 17 5 18 6 19 7 20 8 21 9 22 10 23 11
REMARK SMILES IDX 24 12 25 13 26 14 12 15 11 16 10 17 9 18 8 19 7 20 6 21 5 22
REMARK SMILES IDX 4 23 3 24 2 25 1 26
REMARK H PARENT
REMARK Flexibility Score: inf
ROOT
ATOM      1  C   UNL     1      52.192  40.660  47.829  1.00  0.00     0.000 C 
ENDROOT
BRANCH   1   2
ATOM      2  C   UNL     1      52.950  39.865  46.756  1.00  0.00     0.000 C 
BRANCH   2   3
ATOM      3  C   UNL     1      54.468  40.023  46.932  1.00  0.00     0.000 C 
BRANCH   3   4
ATOM      4  C   UNL     1      55.045  41.206  46.133  1.00  0.00     0.000 C 
BRANCH   4   5
ATOM      5  C   UNL     1      56.026  42.102  46.915  1.00  0.00     0.000 C 
BRANCH   5   6
ATOM      6  C   UNL     1      56.544  41.509  48.240  1.00  0.00     0.000 C 
BRANCH   6   7
ATOM      7  C   UNL     1      57.626  42.368  48.930  1.00  0.00     0.000 C 
BRANCH   7   8
ATOM      8  C   UNL     1      57.195  42.850  50.325  1.00  0.00     0.000 C 
BRANCH   8   9
ATOM      9  C   UNL     1      56.396  41.792  51.106  1.00  0.00     0.000 C 
BRANCH   9  10
ATOM     10  C   UNL     1      56.032  42.179  52.554  1.00  0.00     0.006 C 
BRANCH  10  11
ATOM     11  C   UNL     1      56.786  43.401  53.100  1.00  0.00     0.053 C 
BRANCH  11  12
ATOM     12  C   UNL     1      56.069  44.032  54.254  1.00  0.00     0.041 C 
ATOM     13  O   UNL     1      54.882  44.430  54.124  1.00  0.00    -0.550 OA
ATOM     14  O   UNL     1      56.729  44.222  55.463  1.00  0.00    -0.550 OA
ENDBRANCH  11  12
ENDBRANCH  10  11
ENDBRANCH   9  10
ENDBRANCH   8   9
ENDBRANCH   7   8
ENDBRANCH   6   7
ENDBRANCH   5   6
ENDBRANCH   4   5
ENDBRANCH   3   4
ENDBRANCH   2   3
ENDBRANCH   1   2
BRANCH   1  15
ATOM     15  C   UNL     1      51.913  42.114  47.411  1.00  0.00     0.000 C 
BRANCH  15  16
ATOM     16  C   UNL     1      52.637  43.188  48.249  1.00  0.00     0.000 C 
BRANCH  16  17
ATOM     17  C   UNL     1      53.249  42.686  49.570  1.00  0.00     0.000 C 
BRANCH  17  18
ATOM     18  C   UNL     1      52.605  43.269  50.844  1.00  0.00    -0.000 C 
BRANCH  18  19
ATOM     19  C   UNL     1      52.400  42.228  51.968  1.00  0.00    -0.000 C 
BRANCH  19  20
ATOM     20  C   UNL     1      52.103  40.807  51.456  1.00  0.00    -0.000 C 
BRANCH  20  21
ATOM     21  C   UNL     1      53.263  39.831  51.723  1.00  0.00    -0.000 C 
BRANCH  21  22
ATOM     22  C   UNL     1      53.710  39.075  50.458  1.00  0.00    -0.000 C 
BRANCH  22  23
ATOM     23  C   UNL     1      54.771  37.983  50.690  1.00  0.00    -0.000 C 
BRANCH  23  24
ATOM     24  C   UNL     1      56.154  38.370  50.140  1.00  0.00    -0.000 C 
BRANCH  24  25
ATOM     25  C   UNL     1      57.300  37.920  51.059  1.00  0.00    -0.003 C 
ATOM     26  C   UNL     1      57.117  38.380  52.506  1.00  0.00     0.004 C 
ENDBRANCH  24  25
ENDBRANCH  23  24
ENDBRANCH  22  23
ENDBRANCH  21  22
ENDBRANCH  20  21
ENDBRANCH  19  20
ENDBRANCH  18  19
ENDBRANCH  17  18
ENDBRANCH  16  17
ENDBRANCH  15  16
ENDBRANCH   1  15
TORSDOF 22
ENDMDL
MODEL 3
REMARK VINA RESULT:    -4.048      2.473      4.020
REMARK INTER + INTRA:         -13.871
REMARK INTER:                  -9.511
REMARK INTRA:                  -4.360
REMARK UNBOUND:                -4.616
REMARK SMILES CCCCCCCCCCCCCCCCCCCCCCCC(=O)[O-]
REMARK SMILES IDX 13 1 14 2 15 3 16 4 17 5 18 6 19 7 20 8 21 9 22 10 23 11
REMARK SMILES IDX 24 12 25 13 26 14 12 15 11 16 10 17 9 18 8 19 7 20 6 21 5 22
REMARK SMILES IDX 4 23 3 24 2 25 1 26
REMARK H PARENT
REMARK Flexibility Score: inf
ROOT
ATOM      1  C   UNL     1      52.017  42.682  46.653  1.00  0.00     0.000 C 
ENDROOT
BRANCH   1   2
ATOM      2  C   UNL     1      52.134  41.953  47.999  1.00  0.00     0.000 C 
BRANCH   2   3
ATOM      3  C   UNL     1      52.211  40.433  47.791  1.00  0.00     0.000 C 
BRANCH   3   4
ATOM      4  C   UNL     1      53.237  40.025  46.718  1.00  0.00     0.000 C 
BRANCH   4   5
ATOM      5  C   UNL     1      54.472  39.273  47.251  1.00  0.00     0.000 C 
BRANCH   5   6
ATOM      6  C   UNL     1      54.906  39.653  48.681  1.00  0.00     0.000 C 
BRANCH   6   7
ATOM      7  C   UNL     1      55.520  38.484  49.481  1.00  0.00     0.000 C 
BRANCH   7   8
ATOM      8  C   UNL     1      54.739  38.177  50.770  1.00  0.00     0.000 C 
BRANCH   8   9
ATOM      9  C   UNL     1      53.326  38.788  50.777  1.00  0.00     0.000 C 
BRANCH   9  10
ATOM     10  C   UNL     1      53.066  39.830  51.883  1.00  0.00     0.006 C 
BRANCH  10  11
ATOM     11  C   UNL     1      51.995  40.876  51.538  1.00  0.00     0.053 C 
BRANCH  11  12
ATOM     12  C   UNL     1      52.317  42.220  52.118  1.00  0.00     0.041 C 
ATOM     13  O   UNL     1      51.937  43.271  51.537  1.00  0.00    -0.550 OA
ATOM     14  O   UNL     1      53.077  42.313  53.278  1.00  0.00    -0.550 OA
ENDBRANCH  11  12
ENDBRANCH  10  11
ENDBRANCH   9  10
ENDBRANCH   8   9
ENDBRANCH   7   8
ENDBRANCH   6   7
ENDBRANCH   5   6
ENDBRANCH   4   5
ENDBRANCH   3   4
ENDBRANCH   2   3
ENDBRANCH   1   2
BRANCH   1  15
ATOM     15  C   UNL     1      52.400  44.169  46.742  1.00  0.00     0.000 C 
BRANCH  15  16
ATOM     16  C   UNL     1      53.831  44.507  46.273  1.00  0.00     0.000 C 
BRANCH  16  17
ATOM     17  C   UNL     1      54.743  43.290  46.025  1.00  0.00     0.000 C 
BRANCH  17  18
ATOM     18  C   UNL     1      55.692  42.946  47.191  1.00  0.00    -0.000 C 
BRANCH  18  19
ATOM     19  C   UNL     1      55.642  43.965  48.353  1.00  0.00    -0.000 C 
BRANCH  19  20
ATOM     20  C   UNL     1      54.917  43.446  49.608  1.00  0.00    -0.000 C 
BRANCH  20  21
ATOM     21  C   UNL     1      55.876  43.230  50.792  1.00  0.00    -0.000 C 
BRANCH  21  22
ATOM     22  C   UNL     1      55.926  41.764  51.261  1.00  0.00    -0.000 C 
BRANCH  22  23
ATOM     23  C   UNL     1      56.592  41.537  52.631  1.00  0.00    -0.000 C 
BRANCH  23  24
ATOM     24  C   UNL     1      57.616  40.390  52.612  1.00  0.00    -0.000 C 
BRANCH  24  25
ATOM     25  C   UNL     1      57.094  39.124  53.310  1.00  0.00    -0.003 C 
ATOM     26  C   UNL     1      57.896  37.873  52.949  1.00  0.00     0.004 C 
ENDBRANCH  24  25
ENDBRANCH  23  24
ENDBRANCH  22  23
ENDBRANCH  21  22
ENDBRANCH  20  21
ENDBRANCH  19  20
ENDBRANCH  18  19
ENDBRANCH  17  18
ENDBRANCH  16  17
ENDBRANCH  15  16
ENDBRANCH   1  15
TORSDOF 22
ENDMDL
MODEL 4
REMARK VINA RESULT:    -4.034      1.300      3.953
REMARK INTER + INTRA:         -13.840
REMARK INTER:                  -9.045
REMARK INTRA:                  -4.795
REMARK UNBOUND:                -4.616
REMARK SMILES CCCCCCCCCCCCCCCCCCCCCCCC(=O)[O-]
REMARK SMILES IDX 13 1 14 2 15 3 16 4 17 5 18 6 19 7 20 8 21 9 22 10 23 11
REMARK SMILES IDX 24 12 25 13 26 14 12 15 11 16 10 17 9 18 8 19 7 20 6 21 5 22
REMARK SMILES IDX 4 23 3 24 2 25 1 26
REMARK H PARENT
REMARK Flexibility Score: inf
ROOT
ATOM      1  C   UNL     1      53.055  39.454  50.069  1.00  0.00     0.000 C 
ENDROOT
BRANCH   1   2
ATOM      2  C   UNL     1      53.073  40.111  51.457  1.00  0.00     0.000 C 
BRANCH   2   3
ATOM      3  C   UNL     1      51.923  41.120  51.597  1.00  0.00     0.000 C 
BRANCH   3   4
ATOM      4  C   UNL     1      52.244  42.265  52.576  1.00  0.00     0.000 C 
BRANCH   4   5
ATOM      5  C   UNL     1      53.646  42.884  52.415  1.00  0.00     0.000 C 
BRANCH   5   6
ATOM      6  C   UNL     1      54.633  42.582  53.559  1.00  0.00     0.000 C 
BRANCH   6   7
ATOM      7  C   UNL     1      56.116  42.771  53.173  1.00  0.00     0.000 C 
BRANCH   7   8
ATOM      8  C   UNL     1      56.765  41.472  52.666  1.00  0.00     0.000 C 
BRANCH   8   9
ATOM      9  C   UNL     1      56.203  40.213  53.351  1.00  0.00     0.000 C 
BRANCH   9  10
ATOM     10  C   UNL     1      56.708  38.873  52.781  1.00  0.00     0.006 C 
BRANCH  10  11
ATOM     11  C   UNL     1      56.530  38.714  51.263  1.00  0.00     0.053 C 
BRANCH  11  12
ATOM     12  C   UNL     1      57.841  38.530  50.561  1.00  0.00     0.041 C 
ATOM     13  O   UNL     1      58.324  37.378  50.408  1.00  0.00    -0.550 OA
ATOM     14  O   UNL     1      58.551  39.638  50.114  1.00  0.00    -0.550 OA
ENDBRANCH  11  12
ENDBRANCH  10  11
ENDBRANCH   9  10
ENDBRANCH   8   9
ENDBRANCH   7   8
ENDBRANCH   6   7
ENDBRANCH   5   6
ENDBRANCH   4   5
ENDBRANCH   3   4
ENDBRANCH   2   3
ENDBRANCH   1   2
BRANCH   1  15
ATOM     15  C   UNL     1      51.941  40.004  49.161  1.00  0.00     0.000 C 
BRANCH  15  16
ATOM     16  C   UNL     1      52.307  40.111  47.666  1.00  0.00     0.000 C 
BRANCH  16  17
ATOM     17  C   UNL     1      53.733  39.652  47.306  1.00  0.00     0.000 C 
BRANCH  17  18
ATOM     18  C   UNL     1      54.462  40.551  46.288  1.00  0.00    -0.000 C 
BRANCH  18  19
ATOM     19  C   UNL     1      55.405  41.588  46.940  1.00  0.00    -0.000 C 
BRANCH  19  20
ATOM     20  C   UNL     1      55.851  41.217  48.366  1.00  0.00    -0.000 C 
BRANCH  20  21
ATOM     21  C   UNL     1      55.323  42.202  49.423  1.00  0.00    -0.000 C 
BRANCH  21  22
ATOM     22  C   UNL     1      55.478  43.674  48.998  1.00  0.00    -0.000 C 
BRANCH  22  23
ATOM     23  C   UNL     1      54.164  44.470  48.903  1.00  0.00    -0.000 C 
BRANCH  23  24
ATOM     24  C   UNL     1      52.919  43.567  48.912  1.00  0.00    -0.000 C 
BRANCH  24  25
ATOM     25  C   UNL     1      52.271  43.445  47.524  1.00  0.00    -0.003 C 
ATOM     26  C   UNL     1      52.722  44.541  46.559  1.00  0.00     0.004 C 
ENDBRANCH  24  25
ENDBRANCH  23  24
ENDBRANCH  22  23
ENDBRANCH  21  22
ENDBRANCH  20  21
ENDBRANCH  19  20
ENDBRANCH  18  19
ENDBRANCH  17  18
ENDBRANCH  16  17
ENDBRANCH  15  16
ENDBRANCH   1  15
TORSDOF 22
ENDMDL
MODEL 5
REMARK VINA RESULT:    -4.016      1.247      3.311
REMARK INTER + INTRA:         -13.798
REMARK INTER:                  -9.077
REMARK INTRA:                  -4.721
REMARK UNBOUND:                -4.616
REMARK SMILES CCCCCCCCCCCCCCCCCCCCCCCC(=O)[O-]
REMARK SMILES IDX 13 1 14 2 15 3 16 4 17 5 18 6 19 7 20 8 21 9 22 10 23 11
REMARK SMILES IDX 24 12 25 13 26 14 12 15 11 16 10 17 9 18 8 19 7 20 6 21 5 22
REMARK SMILES IDX 4 23 3 24 2 25 1 26
REMARK H PARENT
REMARK Flexibility Score: inf
ROOT
ATOM      1  C   UNL     1      53.382  40.653  46.624  1.00  0.00     0.000 C 
ENDROOT
BRANCH   1   2
ATOM      2  C   UNL     1      52.316  41.193  47.588  1.00  0.00     0.000 C 
BRANCH   2   3
ATOM      3  C   UNL     1      52.334  42.729  47.615  1.00  0.00     0.000 C 
BRANCH   3   4
ATOM      4  C   UNL     1      52.761  43.301  48.979  1.00  0.00     0.000 C 
BRANCH   4   5
ATOM      5  C   UNL     1      54.132  44.004  48.990  1.00  0.00     0.000 C 
BRANCH   5   6
ATOM      6  C   UNL     1      55.315  43.128  49.446  1.00  0.00     0.000 C 
BRANCH   6   7
ATOM      7  C   UNL     1      56.059  43.674  50.684  1.00  0.00     0.000 C 
BRANCH   7   8
ATOM      8  C   UNL     1      57.214  42.761  51.129  1.00  0.00     0.000 C 
BRANCH   8   9
ATOM      9  C   UNL     1      57.075  41.319  50.607  1.00  0.00     0.000 C 
BRANCH   9  10
ATOM     10  C   UNL     1      58.122  40.322  51.143  1.00  0.00     0.006 C 
BRANCH  10  11
ATOM     11  C   UNL     1      58.391  39.120  50.225  1.00  0.00     0.053 C 
BRANCH  11  12
ATOM     12  C   UNL     1      58.259  37.817  50.955  1.00  0.00     0.041 C 
ATOM     13  O   UNL     1      58.997  36.843  50.654  1.00  0.00    -0.550 OA
ATOM     14  O   UNL     1      57.288  37.666  51.937  1.00  0.00    -0.550 OA
ENDBRANCH  11  12
ENDBRANCH  10  11
ENDBRANCH   9  10
ENDBRANCH   8   9
ENDBRANCH   7   8
ENDBRANCH   6   7
ENDBRANCH   5   6
ENDBRANCH   4   5
ENDBRANCH   3   4
ENDBRANCH   2   3
ENDBRANCH   1   2
BRANCH   1  15
ATOM     15  C   UNL     1      54.060  39.372  47.140  1.00  0.00     0.000 C 
BRANCH  15  16
ATOM     16  C   UNL     1      54.964  39.561  48.376  1.00  0.00     0.000 C 
BRANCH  16  17
ATOM     17  C   UNL     1      54.901  38.425  49.415  1.00  0.00     0.000 C 
BRANCH  17  18
ATOM     18  C   UNL     1      54.046  38.735  50.659  1.00  0.00    -0.000 C 
BRANCH  18  19
ATOM     19  C   UNL     1      53.609  40.214  50.759  1.00  0.00    -0.000 C 
BRANCH  19  20
ATOM     20  C   UNL     1      52.176  40.408  51.287  1.00  0.00    -0.000 C 
BRANCH  20  21
ATOM     21  C   UNL     1      52.130  41.269  52.562  1.00  0.00    -0.000 C 
BRANCH  21  22
ATOM     22  C   UNL     1      53.180  42.395  52.560  1.00  0.00    -0.000 C 
BRANCH  22  23
ATOM     23  C   UNL     1      54.218  42.324  53.695  1.00  0.00    -0.000 C 
BRANCH  23  24
ATOM     24  C   UNL     1      54.293  40.933  54.347  1.00  0.00    -0.000 C 
BRANCH  24  25
ATOM     25  C   UNL     1      55.486  40.108  53.838  1.00  0.00    -0.003 C 
ATOM     26  C   UNL     1      56.329  39.522  54.971  1.00  0.00     0.004 C 
ENDBRANCH  24  25
ENDBRANCH  23  24
ENDBRANCH  22  23
ENDBRANCH  21  22
ENDBRANCH  20  21
ENDBRANCH  19  20
ENDBRANCH  18  19
ENDBRANCH  17  18
ENDBRANCH  16  17
ENDBRANCH  15  16
ENDBRANCH   1  15
TORSDOF 22
ENDMDL
MODEL 6
REMARK VINA RESULT:    -3.964      1.433      3.710
REMARK INTER + INTRA:         -13.678
REMARK INTER:                  -9.511
REMARK INTRA:                  -4.167
REMARK UNBOUND:                -4.616
REMARK SMILES CCCCCCCCCCCCCCCCCCCCCCCC(=O)[O-]
REMARK SMILES IDX 13 1 14 2 15 3 16 4 17 5 18 6 19 7 20 8 21 9 22 10 23 11
REMARK SMILES IDX 24 12 25 13 26 14 12 15 11 16 10 17 9 18 8 19 7 20 6 21 5 22
REMARK SMILES IDX 4 23 3 24 2 25 1 26
REMARK H PARENT
REMARK Flexibility Score: inf
ROOT
ATOM      1  C   UNL     1      53.434  44.323  48.464  1.00  0.00     0.000 C 
ENDROOT
BRANCH   1   2
ATOM      2  C   UNL     1      54.692  44.461  49.334  1.00  0.00     0.000 C 
BRANCH   2   3
ATOM      3  C   UNL     1      54.923  43.188  50.163  1.00  0.00     0.000 C 
BRANCH   3   4
ATOM      4  C   UNL     1      56.371  42.670  50.076  1.00  0.00     0.000 C 
BRANCH   4   5
ATOM      5  C   UNL     1      56.833  41.826  51.280  1.00  0.00     0.000 C 
BRANCH   5   6
ATOM      6  C   UNL     1      56.615  42.477  52.660  1.00  0.00     0.000 C 
BRANCH   6   7
ATOM      7  C   UNL     1      56.581  41.470  53.830  1.00  0.00     0.000 C 
BRANCH   7   8
ATOM      8  C   UNL     1      56.334  40.027  53.359  1.00  0.00     0.000 C 
BRANCH   8   9
ATOM      9  C   UNL     1      57.536  39.099  53.613  1.00  0.00     0.000 C 
BRANCH   9  10
ATOM     10  C   UNL     1      57.549  37.799  52.785  1.00  0.00     0.006 C 
BRANCH  10  11
ATOM     11  C   UNL     1      58.143  37.943  51.375  1.00  0.00     0.053 C 
BRANCH  11  12
ATOM     12  C   UNL     1      58.945  36.740  50.979  1.00  0.00     0.041 C 
ATOM     13  O   UNL     1      59.498  36.689  49.849  1.00  0.00    -0.550 OA
ATOM     14  O   UNL     1      59.044  35.656  51.842  1.00  0.00    -0.550 OA
ENDBRANCH  11  12
ENDBRANCH  10  11
ENDBRANCH   9  10
ENDBRANCH   8   9
ENDBRANCH   7   8
ENDBRANCH   6   7
ENDBRANCH   5   6
ENDBRANCH   4   5
ENDBRANCH   3   4
ENDBRANCH   2   3
ENDBRANCH   1   2
BRANCH   1  15
ATOM     15  C   UNL     1      52.639  43.039  48.760  1.00  0.00     0.000 C 
BRANCH  15  16
ATOM     16  C   UNL     1      52.355  42.147  47.534  1.00  0.00     0.000 C 
BRANCH  16  17
ATOM     17  C   UNL     1      52.411  40.631  47.799  1.00  0.00     0.000 C 
BRANCH  17  18
ATOM     18  C   UNL     1      53.215  39.823  46.760  1.00  0.00    -0.000 C 
BRANCH  18  19
ATOM     19  C   UNL     1      54.536  39.241  47.315  1.00  0.00    -0.000 C 
BRANCH  19  20
ATOM     20  C   UNL     1      54.860  39.688  48.752  1.00  0.00    -0.000 C 
BRANCH  20  21
ATOM     21  C   UNL     1      54.888  38.509  49.741  1.00  0.00    -0.000 C 
BRANCH  21  22
ATOM     22  C   UNL     1      53.799  38.613  50.825  1.00  0.00    -0.000 C 
BRANCH  22  23
ATOM     23  C   UNL     1      53.588  40.022  51.407  1.00  0.00    -0.000 C 
BRANCH  23  24
ATOM     24  C   UNL     1      52.110  40.446  51.420  1.00  0.00    -0.000 C 
BRANCH  24  25
ATOM     25  C   UNL     1      51.905  41.851  52.008  1.00  0.00    -0.003 C 
ATOM     26  C   UNL     1      52.937  42.202  53.081  1.00  0.00     0.004 C 
ENDBRANCH  24  25
ENDBRANCH  23  24
ENDBRANCH  22  23
ENDBRANCH  21  22
ENDBRANCH  20  21
ENDBRANCH  19  20
ENDBRANCH  18  19
ENDBRANCH  17  18
ENDBRANCH  16  17
ENDBRANCH  15  16
ENDBRANCH   1  15
TORSDOF 22
ENDMDL
MODEL 7
REMARK VINA RESULT:    -3.958      2.233      5.139
REMARK INTER + INTRA:         -13.664
REMARK INTER:                  -9.686
REMARK INTRA:                  -3.978
REMARK UNBOUND:                -4.616
REMARK SMILES CCCCCCCCCCCCCCCCCCCCCCCC(=O)[O-]
REMARK SMILES IDX 13 1 14 2 15 3 16 4 17 5 18 6 19 7 20 8 21 9 22 10 23 11
REMARK SMILES IDX 24 12 25 13 26 14 12 15 11 16 10 17 9 18 8 19 7 20 6 21 5 22
REMARK SMILES IDX 4 23 3 24 2 25 1 26
REMARK H PARENT
REMARK Flexibility Score: inf
ROOT
ATOM      1  C   UNL     1      53.415  38.649  51.124  1.00  0.00     0.000 C 
ENDROOT
BRANCH   1   2
ATOM      2  C   UNL     1      52.767  39.963  50.664  1.00  0.00     0.000 C 
BRANCH   2   3
ATOM      3  C   UNL     1      51.964  40.603  51.807  1.00  0.00     0.000 C 
BRANCH   3   4
ATOM      4  C   UNL     1      52.236  42.111  51.960  1.00  0.00     0.000 C 
BRANCH   4   5
ATOM      5  C   UNL     1      53.450  42.637  51.169  1.00  0.00     0.000 C 
BRANCH   5   6
ATOM      6  C   UNL     1      54.547  43.307  52.019  1.00  0.00     0.000 C 
BRANCH   6   7
ATOM      7  C   UNL     1      55.173  42.377  53.081  1.00  0.00     0.000 C 
BRANCH   7   8
ATOM      8  C   UNL     1      56.050  41.277  52.459  1.00  0.00     0.000 C 
BRANCH   8   9
ATOM      9  C   UNL     1      56.135  40.012  53.332  1.00  0.00     0.000 C 
BRANCH   9  10
ATOM     10  C   UNL     1      55.201  39.995  54.558  1.00  0.00     0.006 C 
BRANCH  10  11
ATOM     11  C   UNL     1      55.918  39.860  55.909  1.00  0.00     0.053 C 
BRANCH  11  12
ATOM     12  C   UNL     1      55.183  38.949  56.846  1.00  0.00     0.041 C 
ATOM     13  O   UNL     1      54.116  39.329  57.396  1.00  0.00    -0.550 OA
ATOM     14  O   UNL     1      55.702  37.696  57.146  1.00  0.00    -0.550 OA
ENDBRANCH  11  12
ENDBRANCH  10  11
ENDBRANCH   9  10
ENDBRANCH   8   9
ENDBRANCH   7   8
ENDBRANCH   6   7
ENDBRANCH   5   6
ENDBRANCH   4   5
ENDBRANCH   3   4
ENDBRANCH   2   3
ENDBRANCH   1   2
BRANCH   1  15
ATOM     15  C   UNL     1      54.787  38.399  50.473  1.00  0.00     0.000 C 
BRANCH  15  16
ATOM     16  C   UNL     1      54.872  38.743  48.971  1.00  0.00     0.000 C 
BRANCH  16  17
ATOM     17  C   UNL     1      55.561  40.081  48.643  1.00  0.00     0.000 C 
BRANCH  17  18
ATOM     18  C   UNL     1      54.804  40.966  47.632  1.00  0.00    -0.000 C 
BRANCH  18  19
ATOM     19  C   UNL     1      53.647  40.236  46.913  1.00  0.00    -0.000 C 
BRANCH  19  20
ATOM     20  C   UNL     1      52.247  40.676  47.378  1.00  0.00    -0.000 C 
BRANCH  20  21
ATOM     21  C   UNL     1      52.206  42.155  47.801  1.00  0.00    -0.000 C 
BRANCH  21  22
ATOM     22  C   UNL     1      51.872  43.101  46.633  1.00  0.00    -0.000 C 
BRANCH  22  23
ATOM     23  C   UNL     1      52.440  44.527  46.764  1.00  0.00    -0.000 C 
BRANCH  23  24
ATOM     24  C   UNL     1      53.109  44.779  48.126  1.00  0.00    -0.000 C 
BRANCH  24  25
ATOM     25  C   UNL     1      54.538  45.326  47.987  1.00  0.00    -0.003 C 
ATOM     26  C   UNL     1      55.586  44.422  48.638  1.00  0.00     0.004 C 
ENDBRANCH  24  25
ENDBRANCH  23  24
ENDBRANCH  22  23
ENDBRANCH  21  22
ENDBRANCH  20  21
ENDBRANCH  19  20
ENDBRANCH  18  19
ENDBRANCH  17  18
ENDBRANCH  16  17
ENDBRANCH  15  16
ENDBRANCH   1  15
TORSDOF 22
ENDMDL
MODEL 8
REMARK VINA RESULT:    -3.918      2.151      5.008
REMARK INTER + INTRA:         -13.573
REMARK INTER:                  -8.720
REMARK INTRA:                  -4.853
REMARK UNBOUND:                -4.616
REMARK SMILES CCCCCCCCCCCCCCCCCCCCCCCC(=O)[O-]
REMARK SMILES IDX 13 1 14 2 15 3 16 4 17 5 18 6 19 7 20 8 21 9 22 10 23 11
REMARK SMILES IDX 24 12 25 13 26 14 12 15 11 16 10 17 9 18 8 19 7 20 6 21 5 22
REMARK SMILES IDX 4 23 3 24 2 25 1 26
REMARK H PARENT
REMARK Flexibility Score: inf
ROOT
ATOM      1  C   UNL     1      54.831  39.658  48.798  1.00  0.00     0.000 C 
ENDROOT
BRANCH   1   2
ATOM      2  C   UNL     1      55.226  38.472  49.690  1.00  0.00     0.000 C 
BRANCH   2   3
ATOM      3  C   UNL     1      54.311  38.390  50.922  1.00  0.00     0.000 C 
BRANCH   3   4
ATOM      4  C   UNL     1      53.034  39.240  50.779  1.00  0.00     0.000 C 
BRANCH   4   5
ATOM      5  C   UNL     1      52.876  40.356  51.831  1.00  0.00     0.000 C 
BRANCH   5   6
ATOM      6  C   UNL     1      52.135  41.616  51.344  1.00  0.00     0.000 C 
BRANCH   6   7
ATOM      7  C   UNL     1      53.011  42.887  51.318  1.00  0.00     0.000 C 
BRANCH   7   8
ATOM      8  C   UNL     1      54.265  42.722  50.443  1.00  0.00     0.000 C 
BRANCH   8   9
ATOM      9  C   UNL     1      55.568  43.050  51.194  1.00  0.00     0.000 C 
BRANCH   9  10
ATOM     10  C   UNL     1      56.486  41.844  51.476  1.00  0.00     0.006 C 
BRANCH  10  11
ATOM     11  C   UNL     1      56.183  41.101  52.787  1.00  0.00     0.053 C 
BRANCH  11  12
ATOM     12  C   UNL     1      55.873  42.046  53.908  1.00  0.00     0.041 C 
ATOM     13  O   UNL     1      54.703  42.129  54.364  1.00  0.00    -0.550 OA
ATOM     14  O   UNL     1      56.870  42.868  54.419  1.00  0.00    -0.550 OA
ENDBRANCH  11  12
ENDBRANCH  10  11
ENDBRANCH   9  10
ENDBRANCH   8   9
ENDBRANCH   7   8
ENDBRANCH   6   7
ENDBRANCH   5   6
ENDBRANCH   4   5
ENDBRANCH   3   4
ENDBRANCH   2   3
ENDBRANCH   1   2
BRANCH   1  15
ATOM     15  C   UNL     1      54.475  39.233  47.362  1.00  0.00     0.000 C 
BRANCH  15  16
ATOM     16  C   UNL     1      53.270  39.970  46.741  1.00  0.00     0.000 C 
BRANCH  16  17
ATOM     17  C   UNL     1      52.475  40.862  47.713  1.00  0.00     0.000 C 
BRANCH  17  18
ATOM     18  C   UNL     1      51.839  42.111  47.070  1.00  0.00    -0.000 C 
BRANCH  18  19
ATOM     19  C   UNL     1      52.378  43.444  47.638  1.00  0.00    -0.000 C 
BRANCH  19  20
ATOM     20  C   UNL     1      52.171  44.650  46.704  1.00  0.00    -0.000 C 
BRANCH  20  21
ATOM     21  C   UNL     1      53.427  45.533  46.599  1.00  0.00    -0.000 C 
BRANCH  21  22
ATOM     22  C   UNL     1      54.321  45.453  47.849  1.00  0.00    -0.000 C 
BRANCH  22  23
ATOM     23  C   UNL     1      55.742  44.913  47.604  1.00  0.00    -0.000 C 
BRANCH  23  24
ATOM     24  C   UNL     1      55.842  44.057  46.330  1.00  0.00    -0.000 C 
BRANCH  24  25
ATOM     25  C   UNL     1      56.024  42.563  46.638  1.00  0.00    -0.003 C 
ATOM     26  C   UNL     1      57.028  42.305  47.762  1.00  0.00     0.004 C 
ENDBRANCH  24  25
ENDBRANCH  23  24
ENDBRANCH  22  23
ENDBRANCH  21  22
ENDBRANCH  20  21
ENDBRANCH  19  20
ENDBRANCH  18  19
ENDBRANCH  17  18
ENDBRANCH  16  17
ENDBRANCH  15  16
ENDBRANCH   1  15
TORSDOF 22
ENDMDL
MODEL 9
REMARK VINA RESULT:    -3.915      1.777      4.035
REMARK INTER + INTRA:         -13.568
REMARK INTER:                  -9.017
REMARK INTRA:                  -4.550
REMARK UNBOUND:                -4.616
REMARK SMILES CCCCCCCCCCCCCCCCCCCCCCCC(=O)[O-]
REMARK SMILES IDX 13 1 14 2 15 3 16 4 17 5 18 6 19 7 20 8 21 9 22 10 23 11
REMARK SMILES IDX 24 12 25 13 26 14 12 15 11 16 10 17 9 18 8 19 7 20 6 21 5 22
REMARK SMILES IDX 4 23 3 24 2 25 1 26
REMARK H PARENT
REMARK Flexibility Score: inf
ROOT
ATOM      1  C   UNL     1      52.249  42.232  47.910  1.00  0.00     0.000 C 
ENDROOT
BRANCH   1   2
ATOM      2  C   UNL     1      51.891  43.044  46.657  1.00  0.00     0.000 C 
BRANCH   2   3
ATOM      3  C   UNL     1      52.218  44.531  46.860  1.00  0.00     0.000 C 
BRANCH   3   4
ATOM      4  C   UNL     1      52.957  44.808  48.183  1.00  0.00     0.000 C 
BRANCH   4   5
ATOM      5  C   UNL     1      54.434  45.221  48.030  1.00  0.00     0.000 C 
BRANCH   5   6
ATOM      6  C   UNL     1      55.055  44.936  46.649  1.00  0.00     0.000 C 
BRANCH   6   7
ATOM      7  C   UNL     1      55.686  43.533  46.523  1.00  0.00     0.000 C 
BRANCH   7   8
ATOM      8  C   UNL     1      56.311  43.046  47.842  1.00  0.00     0.000 C 
BRANCH   8   9
ATOM      9  C   UNL     1      57.440  42.022  47.630  1.00  0.00     0.000 C 
BRANCH   9  10
ATOM     10  C   UNL     1      58.458  41.917  48.784  1.00  0.00     0.006 C 
BRANCH  10  11
ATOM     11  C   UNL     1      57.937  41.190  50.033  1.00  0.00     0.053 C 
BRANCH  11  12
ATOM     12  C   UNL     1      58.705  39.934  50.312  1.00  0.00     0.041 C 
ATOM     13  O   UNL     1      59.016  39.157  49.371  1.00  0.00    -0.550 OA
ATOM     14  O   UNL     1      59.040  39.599  51.619  1.00  0.00    -0.550 OA
ENDBRANCH  11  12
ENDBRANCH  10  11
ENDBRANCH   9  10
ENDBRANCH   8   9
ENDBRANCH   7   8
ENDBRANCH   6   7
ENDBRANCH   5   6
ENDBRANCH   4   5
ENDBRANCH   3   4
ENDBRANCH   2   3
ENDBRANCH   1   2
BRANCH   1  15
ATOM     15  C   UNL     1      52.275  40.715  47.652  1.00  0.00     0.000 C 
BRANCH  15  16
ATOM     16  C   UNL     1      53.328  40.243  46.627  1.00  0.00     0.000 C 
BRANCH  16  17
ATOM     17  C   UNL     1      54.502  39.438  47.217  1.00  0.00     0.000 C 
BRANCH  17  18
ATOM     18  C   UNL     1      54.810  39.735  48.697  1.00  0.00    -0.000 C 
BRANCH  18  19
ATOM     19  C   UNL     1      55.313  38.503  49.485  1.00  0.00    -0.000 C 
BRANCH  19  20
ATOM     20  C   UNL     1      54.483  38.184  50.742  1.00  0.00    -0.000 C 
BRANCH  20  21
ATOM     21  C   UNL     1      53.151  38.954  50.777  1.00  0.00    -0.000 C 
BRANCH  21  22
ATOM     22  C   UNL     1      53.131  40.067  51.841  1.00  0.00    -0.000 C 
BRANCH  22  23
ATOM     23  C   UNL     1      52.213  41.261  51.522  1.00  0.00    -0.000 C 
BRANCH  23  24
ATOM     24  C   UNL     1      52.990  42.573  51.323  1.00  0.00    -0.000 C 
BRANCH  24  25
ATOM     25  C   UNL     1      54.510  42.355  51.275  1.00  0.00    -0.003 C 
ATOM     26  C   UNL     1      55.300  43.665  51.297  1.00  0.00     0.004 C 
ENDBRANCH  24  25
ENDBRANCH  23  24
ENDBRANCH  22  23
ENDBRANCH  21  22
ENDBRANCH  20  21
ENDBRANCH  19  20
ENDBRANCH  18  19
ENDBRANCH  17  18
ENDBRANCH  16  17
ENDBRANCH  15  16
ENDBRANCH   1  15
TORSDOF 22
ENDMDL
