MODEL 1
REMARK VINA RESULT:    21.492      0.000      0.000
REMARK INTER + INTRA:          23.377
REMARK INTER:                  23.377
REMARK INTRA:                   0.000
REMARK UNBOUND:                 0.000
REMARK SMILES Cc1cc(O)c2c(c1)C(=O)c1cc(O)cc(O)c1C2=O
REMARK SMILES IDX 1 1 2 2 8 3 7 4 6 5 4 6 3 7 19 8 20 9 18 10 11 11 9 12 10 13
REMARK SMILES IDX 12 14 13 15 15 16 16 17 5 18 17 20 14 22
REMARK H PARENT 5 19 17 21 14 23
REMARK Flexibility Score: inf
ROOT
ATOM      1  C   UNL     1      18.397 101.644   8.612  1.00  0.00     0.044 C 
ATOM      2  C   UNL     1      17.934 100.221   8.721  1.00  0.00    -0.047 A 
ATOM      3  C   UNL     1      18.738  99.181   8.243  1.00  0.00     0.016 A 
ATOM      4  C   UNL     1      18.294  97.848   8.298  1.00  0.00     0.038 A 
ATOM      5  C   UNL     1      17.011  97.553   8.814  1.00  0.00     0.076 A 
ATOM      6  C   UNL     1      16.227  98.608   9.353  1.00  0.00     0.127 A 
ATOM      7  C   UNL     1      16.680  99.928   9.263  1.00  0.00     0.050 A 
ATOM      8  C   UNL     1      16.512  96.152   8.712  1.00  0.00     0.201 C 
ATOM      9  O   UNL     1      15.275  95.915   8.760  1.00  0.00    -0.288 OA
ATOM     10  C   UNL     1      17.459  95.040   8.435  1.00  0.00     0.076 A 
ATOM     11  C   UNL     1      18.759  95.343   7.980  1.00  0.00     0.041 A 
ATOM     12  C   UNL     1      19.175  96.755   7.821  1.00  0.00     0.194 C 
ATOM     13  O   UNL     1      20.289  97.027   7.295  1.00  0.00    -0.289 OA
ATOM     14  C   UNL     1      19.654  94.301   7.677  1.00  0.00     0.059 A 
ATOM     15  C   UNL     1      19.268  92.966   7.831  1.00  0.00     0.120 A 
ATOM     16  C   UNL     1      17.986  92.664   8.289  1.00  0.00     0.093 A 
ATOM     17  C   UNL     1      17.079  93.687   8.594  1.00  0.00     0.131 A 
ENDROOT
BRANCH   6  18
ATOM     18  O   UNL     1      15.014  98.396  10.013  1.00  0.00    -0.507 OA
ATOM     19  H   UNL     1      14.567  97.493  10.090  1.00  0.00     0.293 HD
ENDBRANCH   6  18
BRANCH  17  20
ATOM     20  O   UNL     1      15.806  93.355   9.062  1.00  0.00    -0.507 OA
ATOM     21  H   UNL     1      15.671  92.667   9.793  1.00  0.00     0.293 HD
ENDBRANCH  17  20
BRANCH  15  22
ATOM     22  O   UNL     1      20.152  91.933   7.533  1.00  0.00    -0.508 OA
ATOM     23  H   UNL     1      20.808  91.579   8.221  1.00  0.00     0.293 HD
ENDBRANCH  15  22
TORSDOF 3
ENDMDL
MODEL 2
REMARK VINA RESULT:    21.591      1.323      5.498
REMARK INTER + INTRA:          23.484
REMARK INTER:                  23.484
REMARK INTRA:                   0.000
REMARK UNBOUND:                 0.000
REMARK SMILES Cc1cc(O)c2c(c1)C(=O)c1cc(O)cc(O)c1C2=O
REMARK SMILES IDX 1 1 2 2 8 3 7 4 6 5 4 6 3 7 19 8 20 9 18 10 11 11 9 12 10 13
REMARK SMILES IDX 12 14 13 15 15 16 16 17 5 18 17 20 14 22
REMARK H PARENT 5 19 17 21 14 23
REMARK Flexibility Score: inf
ROOT
ATOM      1  C   UNL     1      19.577  92.087   7.124  1.00  0.00     0.044 C 
ATOM      2  C   UNL     1      18.759  93.253   7.595  1.00  0.00    -0.047 A 
ATOM      3  C   UNL     1      19.304  94.540   7.597  1.00  0.00     0.016 A 
ATOM      4  C   UNL     1      18.562  95.633   8.080  1.00  0.00     0.038 A 
ATOM      5  C   UNL     1      17.261  95.429   8.596  1.00  0.00     0.076 A 
ATOM      6  C   UNL     1      16.692  94.129   8.533  1.00  0.00     0.127 A 
ATOM      7  C   UNL     1      17.460  93.055   8.072  1.00  0.00     0.050 A 
ATOM      8  C   UNL     1      16.568  96.580   9.242  1.00  0.00     0.201 C 
ATOM      9  O   UNL     1      15.632  96.377  10.059  1.00  0.00    -0.288 OA
ATOM     10  C   UNL     1      17.053  97.967   9.015  1.00  0.00     0.076 A 
ATOM     11  C   UNL     1      18.327  98.164   8.442  1.00  0.00     0.041 A 
ATOM     12  C   UNL     1      19.144  96.996   8.041  1.00  0.00     0.194 C 
ATOM     13  O   UNL     1      20.331  97.165   7.648  1.00  0.00    -0.289 OA
ATOM     14  C   UNL     1      18.816  99.469   8.257  1.00  0.00     0.059 A 
ATOM     15  C   UNL     1      18.045 100.575   8.629  1.00  0.00     0.120 A 
ATOM     16  C   UNL     1      16.782 100.384   9.188  1.00  0.00     0.093 A 
ATOM     17  C   UNL     1      16.278  99.091   9.383  1.00  0.00     0.131 A 
ENDROOT
BRANCH   6  18
ATOM     18  O   UNL     1      15.367  93.860   8.882  1.00  0.00    -0.507 OA
ATOM     19  H   UNL     1      14.574  94.099   8.304  1.00  0.00     0.293 HD
ENDBRANCH   6  18
BRANCH  17  20
ATOM     20  O   UNL     1      15.005  98.929   9.933  1.00  0.00    -0.507 OA
ATOM     21  H   UNL     1      14.862  98.862  10.934  1.00  0.00     0.293 HD
ENDBRANCH  17  20
BRANCH  15  22
ATOM     22  O   UNL     1      18.526 101.869   8.446  1.00  0.00    -0.508 OA
ATOM     23  H   UNL     1      17.903 102.645   8.250  1.00  0.00     0.293 HD
ENDBRANCH  15  22
TORSDOF 3
ENDMDL
MODEL 3
REMARK VINA RESULT:    23.468      1.779      5.958
REMARK INTER + INTRA:          25.526
REMARK INTER:                  25.526
REMARK INTRA:                   0.000
REMARK UNBOUND:                 0.000
REMARK SMILES Cc1cc(O)c2c(c1)C(=O)c1cc(O)cc(O)c1C2=O
REMARK SMILES IDX 1 1 2 2 8 3 7 4 6 5 4 6 3 7 19 8 20 9 18 10 11 11 9 12 10 13
REMARK SMILES IDX 12 14 13 15 15 16 16 17 5 18 17 20 14 22
REMARK H PARENT 5 19 17 21 14 23
REMARK Flexibility Score: inf
ROOT
ATOM      1  C   UNL     1      13.786  92.913   9.897  1.00  0.00     0.044 C 
ATOM      2  C   UNL     1      15.002  93.699   9.503  1.00  0.00    -0.047 A 
ATOM      3  C   UNL     1      14.995  95.095   9.590  1.00  0.00     0.016 A 
ATOM      4  C   UNL     1      16.112  95.844   9.180  1.00  0.00     0.038 A 
ATOM      5  C   UNL     1      17.246  95.187   8.647  1.00  0.00     0.076 A 
ATOM      6  C   UNL     1      17.267  93.767   8.620  1.00  0.00     0.127 A 
ATOM      7  C   UNL     1      16.134  93.046   9.009  1.00  0.00     0.050 A 
ATOM      8  C   UNL     1      18.344  96.020   8.079  1.00  0.00     0.201 C 
ATOM      9  O   UNL     1      19.148  95.522   7.246  1.00  0.00    -0.288 OA
ATOM     10  C   UNL     1      18.426  97.468   8.400  1.00  0.00     0.076 A 
ATOM     11  C   UNL     1      17.315  98.105   8.990  1.00  0.00     0.041 A 
ATOM     12  C   UNL     1      16.101  97.321   9.314  1.00  0.00     0.194 C 
ATOM     13  O   UNL     1      15.063  97.910   9.722  1.00  0.00    -0.289 OA
ATOM     14  C   UNL     1      17.363  99.483   9.265  1.00  0.00     0.059 A 
ATOM     15  C   UNL     1      18.509 100.227   8.965  1.00  0.00     0.120 A 
ATOM     16  C   UNL     1      19.613  99.598   8.391  1.00  0.00     0.093 A 
ATOM     17  C   UNL     1      19.584  98.227   8.106  1.00  0.00     0.131 A 
ENDROOT
BRANCH   6  18
ATOM     18  O   UNL     1      18.394  93.029   8.249  1.00  0.00    -0.507 OA
ATOM     19  H   UNL     1      18.810  92.311   8.824  1.00  0.00     0.293 HD
ENDBRANCH   6  18
BRANCH  17  20
ATOM     20  O   UNL     1      20.708  97.621   7.543  1.00  0.00    -0.507 OA
ATOM     21  H   UNL     1      21.549  98.147   7.336  1.00  0.00     0.293 HD
ENDBRANCH  17  20
BRANCH  15  22
ATOM     22  O   UNL     1      18.561 101.592   9.237  1.00  0.00    -0.508 OA
ATOM     23  H   UNL     1      18.007 102.007   9.978  1.00  0.00     0.293 HD
ENDBRANCH  15  22
TORSDOF 3
ENDMDL
