MODEL 1
REMARK VINA RESULT:    -4.051      0.000      0.000
REMARK INTER + INTRA:          -7.548
REMARK INTER:                  -6.182
REMARK INTRA:                  -1.367
REMARK UNBOUND:                -1.367
REMARK SMILES OC[C@H]1O[C@@H](O[C@@]2(CO)O[C@H](CO)[C@@H](O)[C@H]2O)[C@@H](O)[C@H](O)[C@H]1O
REMARK SMILES IDX 6 1 5 2 3 3 22 4 4 5 20 6 18 7 2 8 1 9 23 11 21 13 19 15
REMARK SMILES IDX 7 17 16 18 10 19 14 20 11 21 8 22 9 23 17 25 15 27 12 29
REMARK SMILES IDX 13 30
REMARK H PARENT 1 10 23 12 21 14 19 16 9 24 17 26 15 28 13 31
REMARK Flexibility Score: inf
ROOT
ATOM      1  O   UNL     1       9.838  33.761  33.884  1.00  0.00    -0.313 OA
ENDROOT
BRANCH   1   2
ATOM      2  C   UNL     1      10.566  34.247  35.008  1.00  0.00     0.285 C 
ATOM      3  C   UNL     1      11.495  36.138  33.871  1.00  0.00     0.178 C 
ATOM      4  C   UNL     1      12.910  35.504  33.870  1.00  0.00     0.177 C 
ATOM      5  O   UNL     1      10.685  35.663  34.943  1.00  0.00    -0.341 OA
ATOM      6  C   UNL     1      12.834  33.973  33.932  1.00  0.00     0.179 C 
ATOM      7  C   UNL     1      11.943  33.562  35.109  1.00  0.00     0.202 C 
BRANCH   3   8
ATOM      8  C   UNL     1      10.762  36.074  32.508  1.00  0.00     0.191 C 
BRANCH   8   9
ATOM      9  O   UNL     1       9.476  36.624  32.608  1.00  0.00    -0.394 OA
ATOM     10  H   UNL     1       9.333  37.168  31.789  1.00  0.00     0.210 HD
ENDBRANCH   8   9
ENDBRANCH   3   8
BRANCH   4  11
ATOM     11  O   UNL     1      13.637  35.895  32.733  1.00  0.00    -0.387 OA
ATOM     12  H   UNL     1      13.330  36.810  32.499  1.00  0.00     0.211 HD
ENDBRANCH   4  11
BRANCH   6  13
ATOM     13  O   UNL     1      14.121  33.440  34.118  1.00  0.00    -0.387 OA
ATOM     14  H   UNL     1      14.481  33.840  34.952  1.00  0.00     0.211 HD
ENDBRANCH   6  13
BRANCH   7  15
ATOM     15  O   UNL     1      11.782  32.168  35.125  1.00  0.00    -0.385 OA
ATOM     16  H   UNL     1      11.295  31.941  35.960  1.00  0.00     0.211 HD
ENDBRANCH   7  15
ENDBRANCH   1   2
BRANCH   1  17
ATOM     17  C   UNL     1       8.460  33.479  34.126  1.00  0.00     0.224 C 
ATOM     18  C   UNL     1       8.271  32.171  34.926  1.00  0.00     0.208 C 
ATOM     19  O   UNL     1       7.706  33.397  32.926  1.00  0.00    -0.337 OA
ATOM     20  C   UNL     1       6.956  31.658  34.388  1.00  0.00     0.180 C 
ATOM     21  C   UNL     1       6.933  32.216  32.969  1.00  0.00     0.179 C 
BRANCH  17  22
ATOM     22  C   UNL     1       7.903  34.662  34.938  1.00  0.00     0.225 C 
BRANCH  22  23
ATOM     23  O   UNL     1       7.225  35.545  34.087  1.00  0.00    -0.391 OA
ATOM     24  H   UNL     1       7.714  36.407  34.138  1.00  0.00     0.210 HD
ENDBRANCH  22  23
ENDBRANCH  17  22
BRANCH  18  25
ATOM     25  O   UNL     1       9.295  31.245  34.661  1.00  0.00    -0.385 OA
ATOM     26  H   UNL     1       8.852  30.401  34.386  1.00  0.00     0.211 HD
ENDBRANCH  18  25
BRANCH  20  27
ATOM     27  O   UNL     1       6.891  30.255  34.379  1.00  0.00    -0.387 OA
ATOM     28  H   UNL     1       7.819  29.930  34.517  1.00  0.00     0.211 HD
ENDBRANCH  20  27
BRANCH  21  29
ATOM     29  C   UNL     1       5.507  32.511  32.496  1.00  0.00     0.191 C 
BRANCH  29  30
ATOM     30  O   UNL     1       4.658  31.467  32.884  1.00  0.00    -0.394 OA
ATOM     31  H   UNL     1       5.243  30.681  33.040  1.00  0.00     0.210 HD
ENDBRANCH  29  30
ENDBRANCH  21  29
ENDBRANCH   1  17
TORSDOF 13
ENDMDL
MODEL 2
REMARK VINA RESULT:    -3.731      1.362      2.227
REMARK INTER + INTRA:          -7.061
REMARK INTER:                  -5.762
REMARK INTRA:                  -1.299
REMARK UNBOUND:                -1.367
REMARK SMILES OC[C@H]1O[C@@H](O[C@@]2(CO)O[C@H](CO)[C@@H](O)[C@H]2O)[C@@H](O)[C@H](O)[C@H]1O
REMARK SMILES IDX 6 1 5 2 3 3 22 4 4 5 20 6 18 7 2 8 1 9 23 11 21 13 19 15
REMARK SMILES IDX 7 17 16 18 10 19 14 20 11 21 8 22 9 23 17 25 15 27 12 29
REMARK SMILES IDX 13 30
REMARK H PARENT 1 10 23 12 21 14 19 16 9 24 17 26 15 28 13 31
REMARK Flexibility Score: inf
ROOT
ATOM      1  O   UNL     1       9.166  33.572  33.526  1.00  0.00    -0.313 OA
ENDROOT
BRANCH   1   2
ATOM      2  C   UNL     1       9.624  33.772  34.861  1.00  0.00     0.285 C 
ATOM      3  C   UNL     1      10.819  35.792  34.384  1.00  0.00     0.178 C 
ATOM      4  C   UNL     1      12.186  35.083  34.562  1.00  0.00     0.177 C 
ATOM      5  O   UNL     1       9.776  35.163  35.125  1.00  0.00    -0.341 OA
ATOM      6  C   UNL     1      12.074  33.580  34.280  1.00  0.00     0.179 C 
ATOM      7  C   UNL     1      10.930  32.996  35.116  1.00  0.00     0.202 C 
BRANCH   3   8
ATOM      8  C   UNL     1      10.417  36.053  32.911  1.00  0.00     0.191 C 
BRANCH   8   9
ATOM      9  O   UNL     1       9.030  36.222  32.795  1.00  0.00    -0.394 OA
ATOM     10  H   UNL     1       8.873  37.188  32.622  1.00  0.00     0.210 HD
ENDBRANCH   8   9
ENDBRANCH   3   8
BRANCH   4  11
ATOM     11  O   UNL     1      13.160  35.650  33.724  1.00  0.00    -0.387 OA
ATOM     12  H   UNL     1      12.676  36.067  32.963  1.00  0.00     0.211 HD
ENDBRANCH   4  11
BRANCH   6  13
ATOM     13  O   UNL     1      13.275  32.940  34.628  1.00  0.00    -0.387 OA
ATOM     14  H   UNL     1      13.861  32.970  33.828  1.00  0.00     0.211 HD
ENDBRANCH   6  13
BRANCH   7  15
ATOM     15  O   UNL     1      10.748  31.640  34.800  1.00  0.00    -0.385 OA
ATOM     16  H   UNL     1      11.650  31.227  34.758  1.00  0.00     0.211 HD
ENDBRANCH   7  15
ENDBRANCH   1   2
BRANCH   1  17
ATOM     17  C   UNL     1       7.959  32.820  33.403  1.00  0.00     0.224 C 
ATOM     18  C   UNL     1       6.708  33.725  33.451  1.00  0.00     0.208 C 
ATOM     19  O   UNL     1       7.842  31.818  34.401  1.00  0.00    -0.337 OA
ATOM     20  C   UNL     1       5.690  32.822  34.107  1.00  0.00     0.180 C 
ATOM     21  C   UNL     1       6.555  31.915  34.975  1.00  0.00     0.179 C 
BRANCH  17  22
ATOM     22  C   UNL     1       8.023  32.105  32.041  1.00  0.00     0.225 C 
BRANCH  22  23
ATOM     23  O   UNL     1       8.865  32.811  31.172  1.00  0.00    -0.391 OA
ATOM     24  H   UNL     1       9.743  32.349  31.203  1.00  0.00     0.210 HD
ENDBRANCH  22  23
ENDBRANCH  17  22
BRANCH  18  25
ATOM     25  O   UNL     1       6.921  34.868  34.243  1.00  0.00    -0.385 OA
ATOM     26  H   UNL     1       6.643  34.630  35.165  1.00  0.00     0.211 HD
ENDBRANCH  18  25
BRANCH  20  27
ATOM     27  O   UNL     1       4.765  33.535  34.888  1.00  0.00    -0.387 OA
ATOM     28  H   UNL     1       4.894  33.230  35.824  1.00  0.00     0.211 HD
ENDBRANCH  20  27
BRANCH  21  29
ATOM     29  C   UNL     1       5.946  30.518  35.124  1.00  0.00     0.191 C 
BRANCH  29  30
ATOM     30  O   UNL     1       5.041  30.286  34.080  1.00  0.00    -0.394 OA
ATOM     31  H   UNL     1       4.536  31.132  33.962  1.00  0.00     0.210 HD
ENDBRANCH  29  30
ENDBRANCH  21  29
ENDBRANCH   1  17
TORSDOF 13
ENDMDL
MODEL 3
REMARK VINA RESULT:    -3.183      1.446      5.878
REMARK INTER + INTRA:          -6.225
REMARK INTER:                  -4.588
REMARK INTRA:                  -1.637
REMARK UNBOUND:                -1.367
REMARK SMILES OC[C@H]1O[C@@H](O[C@@]2(CO)O[C@H](CO)[C@@H](O)[C@H]2O)[C@@H](O)[C@H](O)[C@H]1O
REMARK SMILES IDX 6 1 5 2 3 3 22 4 4 5 20 6 18 7 2 8 1 9 23 11 21 13 19 15
REMARK SMILES IDX 7 17 16 18 10 19 14 20 11 21 8 22 9 23 17 25 15 27 12 29
REMARK SMILES IDX 13 30
REMARK H PARENT 1 10 23 12 21 14 19 16 9 24 17 26 15 28 13 31
REMARK Flexibility Score: inf
ROOT
ATOM      1  O   UNL     1       8.716  33.737  34.386  1.00  0.00    -0.313 OA
ENDROOT
BRANCH   1   2
ATOM      2  C   UNL     1       8.189  33.052  33.253  1.00  0.00     0.285 C 
ATOM      3  C   UNL     1       5.898  33.553  33.738  1.00  0.00     0.178 C 
ATOM      4  C   UNL     1       5.607  32.081  34.127  1.00  0.00     0.177 C 
ATOM      5  O   UNL     1       6.983  33.672  32.821  1.00  0.00    -0.341 OA
ATOM      6  C   UNL     1       6.879  31.370  34.607  1.00  0.00     0.179 C 
ATOM      7  C   UNL     1       7.983  31.556  33.561  1.00  0.00     0.202 C 
BRANCH   3   8
ATOM      8  C   UNL     1       6.038  34.520  34.940  1.00  0.00     0.191 C 
BRANCH   8   9
ATOM      9  O   UNL     1       6.320  35.822  34.504  1.00  0.00    -0.394 OA
ATOM     10  H   UNL     1       5.956  36.439  35.192  1.00  0.00     0.210 HD
ENDBRANCH   8   9
ENDBRANCH   3   8
BRANCH   4  11
ATOM     11  O   UNL     1       4.620  32.009  35.124  1.00  0.00    -0.387 OA
ATOM     12  H   UNL     1       3.847  32.541  34.800  1.00  0.00     0.211 HD
ENDBRANCH   4  11
BRANCH   6  13
ATOM     13  O   UNL     1       6.624  29.999  34.772  1.00  0.00    -0.387 OA
ATOM     14  H   UNL     1       7.395  29.619  35.268  1.00  0.00     0.211 HD
ENDBRANCH   6  13
BRANCH   7  15
ATOM     15  O   UNL     1       9.184  30.997  34.025  1.00  0.00    -0.385 OA
ATOM     16  H   UNL     1       9.294  31.287  34.968  1.00  0.00     0.211 HD
ENDBRANCH   7  15
ENDBRANCH   1   2
BRANCH   1  17
ATOM     17  C   UNL     1      10.049  34.226  34.236  1.00  0.00     0.224 C 
ATOM     18  C   UNL     1      10.175  35.701  34.677  1.00  0.00     0.208 C 
ATOM     19  O   UNL     1      10.523  34.102  32.903  1.00  0.00    -0.337 OA
ATOM     20  C   UNL     1      11.252  36.217  33.753  1.00  0.00     0.180 C 
ATOM     21  C   UNL     1      11.083  35.340  32.517  1.00  0.00     0.179 C 
BRANCH  17  22
ATOM     22  C   UNL     1      10.945  33.345  35.125  1.00  0.00     0.225 C 
BRANCH  22  23
ATOM     23  O   UNL     1      11.733  32.509  34.324  1.00  0.00    -0.391 OA
ATOM     24  H   UNL     1      11.665  31.601  34.722  1.00  0.00     0.210 HD
ENDBRANCH  22  23
ENDBRANCH  17  22
BRANCH  18  25
ATOM     25  O   UNL     1       8.979  36.411  34.470  1.00  0.00    -0.385 OA
ATOM     26  H   UNL     1       9.228  37.265  34.030  1.00  0.00     0.211 HD
ENDBRANCH  18  25
BRANCH  20  27
ATOM     27  O   UNL     1      11.081  37.575  33.435  1.00  0.00    -0.387 OA
ATOM     28  H   UNL     1      10.717  37.603  32.512  1.00  0.00     0.211 HD
ENDBRANCH  20  27
BRANCH  21  29
ATOM     29  C   UNL     1      12.414  35.106  31.797  1.00  0.00     0.191 C 
BRANCH  29  30
ATOM     30  O   UNL     1      13.141  34.113  32.465  1.00  0.00    -0.394 OA
ATOM     31  H   UNL     1      12.545  33.321  32.512  1.00  0.00     0.210 HD
ENDBRANCH  29  30
ENDBRANCH  21  29
ENDBRANCH   1  17
TORSDOF 13
ENDMDL
MODEL 4
REMARK VINA RESULT:    -2.988      1.539      3.185
REMARK INTER + INTRA:          -5.927
REMARK INTER:                  -6.000
REMARK INTRA:                   0.073
REMARK UNBOUND:                -1.367
REMARK SMILES OC[C@H]1O[C@@H](O[C@@]2(CO)O[C@H](CO)[C@@H](O)[C@H]2O)[C@@H](O)[C@H](O)[C@H]1O
REMARK SMILES IDX 6 1 5 2 3 3 22 4 4 5 20 6 18 7 2 8 1 9 23 11 21 13 19 15
REMARK SMILES IDX 7 17 16 18 10 19 14 20 11 21 8 22 9 23 17 25 15 27 12 29
REMARK SMILES IDX 13 30
REMARK H PARENT 1 10 23 12 21 14 19 16 9 24 17 26 15 28 13 31
REMARK Flexibility Score: inf
ROOT
ATOM      1  O   UNL     1       9.904  33.828  34.246  1.00  0.00    -0.313 OA
ENDROOT
BRANCH   1   2
ATOM      2  C   UNL     1       9.874  34.797  33.202  1.00  0.00     0.285 C 
ATOM      3  C   UNL     1      12.243  35.139  33.149  1.00  0.00     0.178 C 
ATOM      4  C   UNL     1      12.103  36.551  33.773  1.00  0.00     0.177 C 
ATOM      5  O   UNL     1      11.074  34.736  32.440  1.00  0.00    -0.341 OA
ATOM      6  C   UNL     1      10.825  36.664  34.613  1.00  0.00     0.179 C 
ATOM      7  C   UNL     1       9.629  36.209  33.769  1.00  0.00     0.202 C 
BRANCH   3   8
ATOM      8  C   UNL     1      12.739  34.048  34.131  1.00  0.00     0.191 C 
BRANCH   8   9
ATOM      9  O   UNL     1      13.700  33.228  33.523  1.00  0.00    -0.394 OA
ATOM     10  H   UNL     1      13.942  33.661  32.662  1.00  0.00     0.210 HD
ENDBRANCH   8   9
ENDBRANCH   3   8
BRANCH   4  11
ATOM     11  O   UNL     1      13.219  36.864  34.567  1.00  0.00    -0.387 OA
ATOM     12  H   UNL     1      13.847  36.098  34.492  1.00  0.00     0.211 HD
ENDBRANCH   4  11
BRANCH   6  13
ATOM     13  O   UNL     1      10.632  37.998  35.007  1.00  0.00    -0.387 OA
ATOM     14  H   UNL     1      10.133  37.976  35.865  1.00  0.00     0.211 HD
ENDBRANCH   6  13
BRANCH   7  15
ATOM     15  O   UNL     1       8.462  36.212  34.550  1.00  0.00    -0.385 OA
ATOM     16  H   UNL     1       7.774  36.717  34.043  1.00  0.00     0.211 HD
ENDBRANCH   7  15
ENDBRANCH   1   2
BRANCH   1  17
ATOM     17  C   UNL     1       8.800  32.924  34.271  1.00  0.00     0.224 C 
ATOM     18  C   UNL     1       8.418  32.441  32.854  1.00  0.00     0.208 C 
ATOM     19  O   UNL     1       7.654  33.488  34.889  1.00  0.00    -0.337 OA
ATOM     20  C   UNL     1       6.925  32.248  32.978  1.00  0.00     0.180 C 
ATOM     21  C   UNL     1       6.542  33.264  34.047  1.00  0.00     0.179 C 
BRANCH  17  22
ATOM     22  C   UNL     1       9.235  31.719  35.124  1.00  0.00     0.225 C 
BRANCH  22  23
ATOM     23  O   UNL     1      10.598  31.465  34.928  1.00  0.00    -0.391 OA
ATOM     24  H   UNL     1      11.042  31.651  35.796  1.00  0.00     0.210 HD
ENDBRANCH  22  23
ENDBRANCH  17  22
BRANCH  18  25
ATOM     25  O   UNL     1       8.701  33.413  31.878  1.00  0.00    -0.385 OA
ATOM     26  H   UNL     1       7.838  33.845  31.650  1.00  0.00     0.211 HD
ENDBRANCH  18  25
BRANCH  20  27
ATOM     27  O   UNL     1       6.250  32.505  31.773  1.00  0.00    -0.387 OA
ATOM     28  H   UNL     1       6.160  31.631  31.310  1.00  0.00     0.211 HD
ENDBRANCH  20  27
BRANCH  21  29
ATOM     29  C   UNL     1       5.346  32.793  34.879  1.00  0.00     0.191 C 
BRANCH  29  30
ATOM     30  O   UNL     1       4.485  32.035  34.077  1.00  0.00    -0.394 OA
ATOM     31  H   UNL     1       3.765  32.653  33.786  1.00  0.00     0.210 HD
ENDBRANCH  29  30
ENDBRANCH  21  29
ENDBRANCH   1  17
TORSDOF 13
ENDMDL
MODEL 5
REMARK VINA RESULT:    -2.891      1.885      6.125
REMARK INTER + INTRA:          -5.779
REMARK INTER:                  -4.543
REMARK INTRA:                  -1.236
REMARK UNBOUND:                -1.367
REMARK SMILES OC[C@H]1O[C@@H](O[C@@]2(CO)O[C@H](CO)[C@@H](O)[C@H]2O)[C@@H](O)[C@H](O)[C@H]1O
REMARK SMILES IDX 6 1 5 2 3 3 22 4 4 5 20 6 18 7 2 8 1 9 23 11 21 13 19 15
REMARK SMILES IDX 7 17 16 18 10 19 14 20 11 21 8 22 9 23 17 25 15 27 12 29
REMARK SMILES IDX 13 30
REMARK H PARENT 1 10 23 12 21 14 19 16 9 24 17 26 15 28 13 31
REMARK Flexibility Score: inf
ROOT
ATOM      1  O   UNL     1       8.210  35.082  33.372  1.00  0.00    -0.313 OA
ENDROOT
BRANCH   1   2
ATOM      2  C   UNL     1       8.094  34.502  34.668  1.00  0.00     0.285 C 
ATOM      3  C   UNL     1       8.009  32.238  33.892  1.00  0.00     0.178 C 
ATOM      4  C   UNL     1       6.508  32.117  34.260  1.00  0.00     0.177 C 
ATOM      5  O   UNL     1       8.689  33.209  34.683  1.00  0.00    -0.341 OA
ATOM      6  C   UNL     1       5.819  33.487  34.250  1.00  0.00     0.179 C 
ATOM      7  C   UNL     1       6.622  34.458  35.123  1.00  0.00     0.202 C 
BRANCH   3   8
ATOM      8  C   UNL     1       8.287  32.416  32.379  1.00  0.00     0.191 C 
BRANCH   8   9
ATOM      9  O   UNL     1       7.138  32.863  31.710  1.00  0.00    -0.394 OA
ATOM     10  H   UNL     1       7.398  33.681  31.210  1.00  0.00     0.210 HD
ENDBRANCH   8   9
ENDBRANCH   3   8
BRANCH   4  11
ATOM     11  O   UNL     1       5.842  31.247  33.381  1.00  0.00    -0.387 OA
ATOM     12  H   UNL     1       5.161  31.789  32.904  1.00  0.00     0.211 HD
ENDBRANCH   4  11
BRANCH   6  13
ATOM     13  O   UNL     1       4.518  33.370  34.766  1.00  0.00    -0.387 OA
ATOM     14  H   UNL     1       4.356  34.173  35.326  1.00  0.00     0.211 HD
ENDBRANCH   6  13
BRANCH   7  15
ATOM     15  O   UNL     1       6.063  35.744  35.048  1.00  0.00    -0.385 OA
ATOM     16  H   UNL     1       6.817  36.390  35.060  1.00  0.00     0.211 HD
ENDBRANCH   7  15
ENDBRANCH   1   2
BRANCH   1  17
ATOM     17  C   UNL     1       9.162  36.139  33.259  1.00  0.00     0.224 C 
ATOM     18  C   UNL     1      10.376  35.733  32.394  1.00  0.00     0.208 C 
ATOM     19  O   UNL     1       9.627  36.584  34.525  1.00  0.00    -0.337 OA
ATOM     20  C   UNL     1      11.496  36.519  33.033  1.00  0.00     0.180 C 
ATOM     21  C   UNL     1      11.037  36.642  34.481  1.00  0.00     0.179 C 
BRANCH  17  22
ATOM     22  C   UNL     1       8.432  37.321  32.598  1.00  0.00     0.225 C 
BRANCH  22  23
ATOM     23  O   UNL     1       7.080  37.311  32.964  1.00  0.00    -0.391 OA
ATOM     24  H   UNL     1       6.930  38.140  33.489  1.00  0.00     0.210 HD
ENDBRANCH  22  23
ENDBRANCH  17  22
BRANCH  18  25
ATOM     25  O   UNL     1      10.640  34.355  32.482  1.00  0.00    -0.385 OA
ATOM     26  H   UNL     1      10.216  33.933  31.690  1.00  0.00     0.211 HD
ENDBRANCH  18  25
BRANCH  20  27
ATOM     27  O   UNL     1      12.732  35.855  32.950  1.00  0.00    -0.387 OA
ATOM     28  H   UNL     1      13.409  36.550  32.741  1.00  0.00     0.211 HD
ENDBRANCH  20  27
BRANCH  21  29
ATOM     29  C   UNL     1      11.523  37.943  35.125  1.00  0.00     0.191 C 
BRANCH  29  30
ATOM     30  O   UNL     1      12.921  38.009  35.054  1.00  0.00    -0.394 OA
ATOM     31  H   UNL     1      13.132  38.862  34.592  1.00  0.00     0.210 HD
ENDBRANCH  29  30
ENDBRANCH  21  29
ENDBRANCH   1  17
TORSDOF 13
ENDMDL
MODEL 6
REMARK VINA RESULT:    -2.176      1.609      6.368
REMARK INTER + INTRA:          -4.688
REMARK INTER:                  -3.584
REMARK INTRA:                  -1.104
REMARK UNBOUND:                -1.367
REMARK SMILES OC[C@H]1O[C@@H](O[C@@]2(CO)O[C@H](CO)[C@@H](O)[C@H]2O)[C@@H](O)[C@H](O)[C@H]1O
REMARK SMILES IDX 6 1 5 2 3 3 22 4 4 5 20 6 18 7 2 8 1 9 23 11 21 13 19 15
REMARK SMILES IDX 7 17 16 18 10 19 14 20 11 21 8 22 9 23 17 25 15 27 12 29
REMARK SMILES IDX 13 30
REMARK H PARENT 1 10 23 12 21 14 19 16 9 24 17 26 15 28 13 31
REMARK Flexibility Score: inf
ROOT
ATOM      1  O   UNL     1      10.210  34.410  33.673  1.00  0.00    -0.313 OA
ENDROOT
BRANCH   1   2
ATOM      2  C   UNL     1       9.371  33.749  34.616  1.00  0.00     0.285 C 
ATOM      3  C   UNL     1       8.411  32.231  33.034  1.00  0.00     0.178 C 
ATOM      4  C   UNL     1       7.043  32.958  33.092  1.00  0.00     0.177 C 
ATOM      5  O   UNL     1       9.168  32.395  34.230  1.00  0.00    -0.341 OA
ATOM      6  C   UNL     1       7.211  34.428  33.498  1.00  0.00     0.179 C 
ATOM      7  C   UNL     1       8.036  34.500  34.787  1.00  0.00     0.202 C 
BRANCH   3   8
ATOM      8  C   UNL     1       9.246  32.533  31.765  1.00  0.00     0.191 C 
BRANCH   8   9
ATOM      9  O   UNL     1       8.560  32.131  30.609  1.00  0.00    -0.394 OA
ATOM     10  H   UNL     1       7.992  31.359  30.867  1.00  0.00     0.210 HD
ENDBRANCH   8   9
ENDBRANCH   3   8
BRANCH   4  11
ATOM     11  O   UNL     1       6.379  32.882  31.856  1.00  0.00    -0.387 OA
ATOM     12  H   UNL     1       6.651  32.024  31.437  1.00  0.00     0.211 HD
ENDBRANCH   4  11
BRANCH   6  13
ATOM     13  O   UNL     1       5.950  35.006  33.722  1.00  0.00    -0.387 OA
ATOM     14  H   UNL     1       5.998  35.471  34.598  1.00  0.00     0.211 HD
ENDBRANCH   6  13
BRANCH   7  15
ATOM     15  O   UNL     1       8.284  35.841  35.123  1.00  0.00    -0.385 OA
ATOM     16  H   UNL     1       9.005  35.842  35.804  1.00  0.00     0.211 HD
ENDBRANCH   7  15
ENDBRANCH   1   2
BRANCH   1  17
ATOM     17  C   UNL     1      11.531  34.700  34.130  1.00  0.00     0.224 C 
ATOM     18  C   UNL     1      11.598  36.044  34.889  1.00  0.00     0.208 C 
ATOM     19  O   UNL     1      12.476  34.721  33.071  1.00  0.00    -0.337 OA
ATOM     20  C   UNL     1      12.989  36.526  34.555  1.00  0.00     0.180 C 
ATOM     21  C   UNL     1      13.244  35.900  33.189  1.00  0.00     0.179 C 
BRANCH  17  22
ATOM     22  C   UNL     1      11.930  33.555  35.077  1.00  0.00     0.225 C 
BRANCH  22  23
ATOM     23  O   UNL     1      12.827  32.693  34.431  1.00  0.00    -0.391 OA
ATOM     24  H   UNL     1      13.726  33.101  34.538  1.00  0.00     0.210 HD
ENDBRANCH  22  23
ENDBRANCH  17  22
BRANCH  18  25
ATOM     25  O   UNL     1      10.642  36.959  34.412  1.00  0.00    -0.385 OA
ATOM     26  H   UNL     1      11.139  37.773  34.142  1.00  0.00     0.211 HD
ENDBRANCH  18  25
BRANCH  20  27
ATOM     27  O   UNL     1      13.071  37.927  34.492  1.00  0.00    -0.387 OA
ATOM     28  H   UNL     1      12.289  38.229  33.960  1.00  0.00     0.211 HD
ENDBRANCH  20  27
BRANCH  21  29
ATOM     29  C   UNL     1      14.725  35.579  32.975  1.00  0.00     0.191 C 
BRANCH  29  30
ATOM     30  O   UNL     1      15.505  36.674  33.367  1.00  0.00    -0.394 OA
ATOM     31  H   UNL     1      15.236  37.427  32.778  1.00  0.00     0.210 HD
ENDBRANCH  29  30
ENDBRANCH  21  29
ENDBRANCH   1  17
TORSDOF 13
ENDMDL
