MODEL 1
REMARK VINA RESULT:    -3.823      0.000      0.000
REMARK INTER + INTRA:         -10.362
REMARK INTER:                  -7.399
REMARK INTRA:                  -2.963
REMARK UNBOUND:                -2.963
REMARK SMILES CCCCCCCCCCCCCCCCCC(=O)[O-]
REMARK SMILES IDX 10 1 11 2 12 3 13 4 14 5 15 6 16 7 17 8 18 9 19 10 20 11
REMARK SMILES IDX 9 12 8 13 7 14 6 15 5 16 4 17 3 18 2 19 1 20
REMARK H PARENT
REMARK Flexibility Score: inf
ROOT
ATOM      1  C   UNL     1      21.560  12.262  32.165  1.00  0.00     0.000 C 
ENDROOT
BRANCH   1   2
ATOM      2  C   UNL     1      21.036  10.891  31.712  1.00  0.00     0.000 C 
BRANCH   2   3
ATOM      3  C   UNL     1      19.504  10.844  31.764  1.00  0.00     0.000 C 
BRANCH   3   4
ATOM      4  C   UNL     1      19.007   9.446  32.161  1.00  0.00     0.000 C 
BRANCH   4   5
ATOM      5  C   UNL     1      20.082   8.363  31.979  1.00  0.00     0.000 C 
BRANCH   5   6
ATOM      6  C   UNL     1      19.801   7.103  32.815  1.00  0.00     0.000 C 
BRANCH   6   7
ATOM      7  C   UNL     1      19.250   7.421  34.218  1.00  0.00     0.006 C 
BRANCH   7   8
ATOM      8  C   UNL     1      20.159   6.947  35.367  1.00  0.00     0.053 C 
BRANCH   8   9
ATOM      9  C   UNL     1      19.432   6.846  36.674  1.00  0.00     0.041 C 
ATOM     10  O   UNL     1      18.922   5.752  37.036  1.00  0.00    -0.550 OA
ATOM     11  O   UNL     1      19.347   7.952  37.510  1.00  0.00    -0.550 OA
ENDBRANCH   8   9
ENDBRANCH   7   8
ENDBRANCH   6   7
ENDBRANCH   5   6
ENDBRANCH   4   5
ENDBRANCH   3   4
ENDBRANCH   2   3
ENDBRANCH   1   2
BRANCH   1  12
ATOM     12  C   UNL     1      20.465  13.135  32.800  1.00  0.00     0.000 C 
BRANCH  12  13
ATOM     13  C   UNL     1      20.938  13.831  34.088  1.00  0.00    -0.000 C 
BRANCH  13  14
ATOM     14  C   UNL     1      20.205  13.328  35.346  1.00  0.00    -0.000 C 
BRANCH  14  15
ATOM     15  C   UNL     1      19.125  12.261  35.091  1.00  0.00    -0.000 C 
BRANCH  15  16
ATOM     16  C   UNL     1      19.589  10.840  35.445  1.00  0.00    -0.000 C 
BRANCH  16  17
ATOM     17  C   UNL     1      20.932  10.869  36.186  1.00  0.00    -0.000 C 
BRANCH  17  18
ATOM     18  C   UNL     1      22.018  10.137  35.385  1.00  0.00    -0.000 C 
BRANCH  18  19
ATOM     19  C   UNL     1      23.197  11.050  35.018  1.00  0.00    -0.003 C 
ATOM     20  C   UNL     1      24.493  10.656  35.725  1.00  0.00     0.004 C 
ENDBRANCH  18  19
ENDBRANCH  17  18
ENDBRANCH  16  17
ENDBRANCH  15  16
ENDBRANCH  14  15
ENDBRANCH  13  14
ENDBRANCH  12  13
ENDBRANCH   1  12
TORSDOF 16
ENDMDL
MODEL 2
REMARK VINA RESULT:    -3.814     17.151     18.938
REMARK INTER + INTRA:         -10.344
REMARK INTER:                  -8.374
REMARK INTRA:                  -1.970
REMARK UNBOUND:                -2.963
REMARK SMILES CCCCCCCCCCCCCCCCCC(=O)[O-]
REMARK SMILES IDX 10 1 11 2 12 3 13 4 14 5 15 6 16 7 17 8 18 9 19 10 20 11
REMARK SMILES IDX 9 12 8 13 7 14 6 15 5 16 4 17 3 18 2 19 1 20
REMARK H PARENT
REMARK Flexibility Score: inf
ROOT
ATOM      1  C   UNL     1      31.384   9.678  48.504  1.00  0.00     0.000 C 
ENDROOT
BRANCH   1   2
ATOM      2  C   UNL     1      31.236   8.281  49.125  1.00  0.00     0.000 C 
BRANCH   2   3
ATOM      3  C   UNL     1      29.845   7.699  48.844  1.00  0.00     0.000 C 
BRANCH   3   4
ATOM      4  C   UNL     1      29.923   6.543  47.836  1.00  0.00     0.000 C 
BRANCH   4   5
ATOM      5  C   UNL     1      31.323   5.915  47.766  1.00  0.00     0.000 C 
BRANCH   5   6
ATOM      6  C   UNL     1      32.098   6.335  46.505  1.00  0.00     0.000 C 
BRANCH   6   7
ATOM      7  C   UNL     1      33.588   6.611  46.777  1.00  0.00     0.006 C 
BRANCH   7   8
ATOM      8  C   UNL     1      34.120   5.956  48.066  1.00  0.00     0.053 C 
BRANCH   8   9
ATOM      9  C   UNL     1      35.099   4.856  47.794  1.00  0.00     0.041 C 
ATOM     10  O   UNL     1      35.208   4.373  46.635  1.00  0.00    -0.550 OA
ATOM     11  O   UNL     1      35.915   4.383  48.813  1.00  0.00    -0.550 OA
ENDBRANCH   8   9
ENDBRANCH   7   8
ENDBRANCH   6   7
ENDBRANCH   5   6
ENDBRANCH   4   5
ENDBRANCH   3   4
ENDBRANCH   2   3
ENDBRANCH   1   2
BRANCH   1  12
ATOM     12  C   UNL     1      32.797   9.937  47.956  1.00  0.00     0.000 C 
BRANCH  12  13
ATOM     13  C   UNL     1      33.822  10.208  49.071  1.00  0.00    -0.000 C 
BRANCH  13  14
ATOM     14  C   UNL     1      34.705  11.438  48.789  1.00  0.00    -0.000 C 
BRANCH  14  15
ATOM     15  C   UNL     1      36.035  11.139  48.074  1.00  0.00    -0.000 C 
BRANCH  15  16
ATOM     16  C   UNL     1      36.358  12.147  46.961  1.00  0.00    -0.000 C 
BRANCH  16  17
ATOM     17  C   UNL     1      35.448  11.933  45.745  1.00  0.00    -0.000 C 
BRANCH  17  18
ATOM     18  C   UNL     1      35.268  10.437  45.449  1.00  0.00    -0.000 C 
BRANCH  18  19
ATOM     19  C   UNL     1      34.309  10.178  44.278  1.00  0.00    -0.003 C 
ATOM     20  C   UNL     1      34.350   8.732  43.787  1.00  0.00     0.004 C 
ENDBRANCH  18  19
ENDBRANCH  17  18
ENDBRANCH  16  17
ENDBRANCH  15  16
ENDBRANCH  14  15
ENDBRANCH  13  14
ENDBRANCH  12  13
ENDBRANCH   1  12
TORSDOF 16
ENDMDL
MODEL 3
REMARK VINA RESULT:    -3.780     17.092     19.615
REMARK INTER + INTRA:         -10.278
REMARK INTER:                  -8.014
REMARK INTRA:                  -2.265
REMARK UNBOUND:                -2.963
REMARK SMILES CCCCCCCCCCCCCCCCCC(=O)[O-]
REMARK SMILES IDX 10 1 11 2 12 3 13 4 14 5 15 6 16 7 17 8 18 9 19 10 20 11
REMARK SMILES IDX 9 12 8 13 7 14 6 15 5 16 4 17 3 18 2 19 1 20
REMARK H PARENT
REMARK Flexibility Score: inf
ROOT
ATOM      1  C   UNL     1      31.920   9.651  48.096  1.00  0.00     0.000 C 
ENDROOT
BRANCH   1   2
ATOM      2  C   UNL     1      33.094  10.544  48.525  1.00  0.00     0.000 C 
BRANCH   2   3
ATOM      3  C   UNL     1      34.353   9.708  48.785  1.00  0.00     0.000 C 
BRANCH   3   4
ATOM      4  C   UNL     1      35.572  10.308  48.069  1.00  0.00     0.000 C 
BRANCH   4   5
ATOM      5  C   UNL     1      35.182  11.375  47.034  1.00  0.00     0.000 C 
BRANCH   5   6
ATOM      6  C   UNL     1      36.340  11.731  46.086  1.00  0.00     0.000 C 
BRANCH   6   7
ATOM      7  C   UNL     1      36.841  13.176  46.261  1.00  0.00     0.006 C 
BRANCH   7   8
ATOM      8  C   UNL     1      35.819  14.114  46.930  1.00  0.00     0.053 C 
BRANCH   8   9
ATOM      9  C   UNL     1      35.729  15.448  46.253  1.00  0.00     0.041 C 
ATOM     10  O   UNL     1      35.050  16.377  46.766  1.00  0.00    -0.550 OA
ATOM     11  O   UNL     1      36.423  15.677  45.072  1.00  0.00    -0.550 OA
ENDBRANCH   8   9
ENDBRANCH   7   8
ENDBRANCH   6   7
ENDBRANCH   5   6
ENDBRANCH   4   5
ENDBRANCH   3   4
ENDBRANCH   2   3
ENDBRANCH   1   2
BRANCH   1  12
ATOM     12  C   UNL     1      32.001   8.237  48.695  1.00  0.00     0.000 C 
BRANCH  12  13
ATOM     13  C   UNL     1      31.113   7.227  47.947  1.00  0.00    -0.000 C 
BRANCH  13  14
ATOM     14  C   UNL     1      31.924   6.137  47.222  1.00  0.00    -0.000 C 
BRANCH  14  15
ATOM     15  C   UNL     1      33.451   6.237  47.391  1.00  0.00    -0.000 C 
BRANCH  15  16
ATOM     16  C   UNL     1      34.220   5.916  46.100  1.00  0.00    -0.000 C 
BRANCH  16  17
ATOM     17  C   UNL     1      33.780   6.838  44.956  1.00  0.00    -0.000 C 
BRANCH  17  18
ATOM     18  C   UNL     1      34.180   8.294  45.238  1.00  0.00    -0.000 C 
BRANCH  18  19
ATOM     19  C   UNL     1      34.727   9.008  43.993  1.00  0.00    -0.003 C 
ATOM     20  C   UNL     1      33.899  10.231  43.601  1.00  0.00     0.004 C 
ENDBRANCH  18  19
ENDBRANCH  17  18
ENDBRANCH  16  17
ENDBRANCH  15  16
ENDBRANCH  14  15
ENDBRANCH  13  14
ENDBRANCH  12  13
ENDBRANCH   1  12
TORSDOF 16
ENDMDL
MODEL 4
REMARK VINA RESULT:    -3.727      4.388      7.163
REMARK INTER + INTRA:         -10.176
REMARK INTER:                  -8.262
REMARK INTRA:                  -1.914
REMARK UNBOUND:                -2.963
REMARK SMILES CCCCCCCCCCCCCCCCCC(=O)[O-]
REMARK SMILES IDX 10 1 11 2 12 3 13 4 14 5 15 6 16 7 17 8 18 9 19 10 20 11
REMARK SMILES IDX 9 12 8 13 7 14 6 15 5 16 4 17 3 18 2 19 1 20
REMARK H PARENT
REMARK Flexibility Score: inf
ROOT
ATOM      1  C   UNL     1      21.189  12.555  35.685  1.00  0.00     0.000 C 
ENDROOT
BRANCH   1   2
ATOM      2  C   UNL     1      20.917  13.511  34.514  1.00  0.00     0.000 C 
BRANCH   2   3
ATOM      3  C   UNL     1      19.700  13.052  33.702  1.00  0.00     0.000 C 
BRANCH   3   4
ATOM      4  C   UNL     1      20.070  12.835  32.227  1.00  0.00     0.000 C 
BRANCH   4   5
ATOM      5  C   UNL     1      21.588  12.858  31.989  1.00  0.00     0.000 C 
BRANCH   5   6
ATOM      6  C   UNL     1      21.985  13.723  30.781  1.00  0.00     0.000 C 
BRANCH   6   7
ATOM      7  C   UNL     1      21.670  15.217  30.981  1.00  0.00     0.006 C 
BRANCH   7   8
ATOM      8  C   UNL     1      22.743  16.163  30.410  1.00  0.00     0.053 C 
BRANCH   8   9
ATOM      9  C   UNL     1      22.722  17.516  31.052  1.00  0.00     0.041 C 
ATOM     10  O   UNL     1      21.707  17.902  31.691  1.00  0.00    -0.550 OA
ATOM     11  O   UNL     1      23.836  18.342  30.974  1.00  0.00    -0.550 OA
ENDBRANCH   8   9
ENDBRANCH   7   8
ENDBRANCH   6   7
ENDBRANCH   5   6
ENDBRANCH   4   5
ENDBRANCH   3   4
ENDBRANCH   2   3
ENDBRANCH   1   2
BRANCH   1  12
ATOM     12  C   UNL     1      22.278  11.517  35.364  1.00  0.00     0.000 C 
BRANCH  12  13
ATOM     13  C   UNL     1      21.834  10.079  35.680  1.00  0.00    -0.000 C 
BRANCH  13  14
ATOM     14  C   UNL     1      20.305   9.935  35.795  1.00  0.00    -0.000 C 
BRANCH  14  15
ATOM     15  C   UNL     1      19.598   9.425  34.526  1.00  0.00    -0.000 C 
BRANCH  15  16
ATOM     16  C   UNL     1      20.396   8.338  33.789  1.00  0.00    -0.000 C 
BRANCH  16  17
ATOM     17  C   UNL     1      20.181   6.965  34.437  1.00  0.00    -0.000 C 
BRANCH  17  18
ATOM     18  C   UNL     1      18.683   6.644  34.561  1.00  0.00    -0.000 C 
BRANCH  18  19
ATOM     19  C   UNL     1      18.311   6.090  35.944  1.00  0.00    -0.003 C 
ATOM     20  C   UNL     1      19.310   6.488  37.030  1.00  0.00     0.004 C 
ENDBRANCH  18  19
ENDBRANCH  17  18
ENDBRANCH  16  17
ENDBRANCH  15  16
ENDBRANCH  14  15
ENDBRANCH  13  14
ENDBRANCH  12  13
ENDBRANCH   1  12
TORSDOF 16
ENDMDL
MODEL 5
REMARK VINA RESULT:    -3.687      2.065      4.057
REMARK INTER + INTRA:         -10.099
REMARK INTER:                  -7.381
REMARK INTRA:                  -2.718
REMARK UNBOUND:                -2.963
REMARK SMILES CCCCCCCCCCCCCCCCCC(=O)[O-]
REMARK SMILES IDX 10 1 11 2 12 3 13 4 14 5 15 6 16 7 17 8 18 9 19 10 20 11
REMARK SMILES IDX 9 12 8 13 7 14 6 15 5 16 4 17 3 18 2 19 1 20
REMARK H PARENT
REMARK Flexibility Score: inf
ROOT
ATOM      1  C   UNL     1      21.974  10.031  35.634  1.00  0.00     0.000 C 
ENDROOT
BRANCH   1   2
ATOM      2  C   UNL     1      20.895   8.989  35.301  1.00  0.00     0.000 C 
BRANCH   2   3
ATOM      3  C   UNL     1      19.692   9.126  36.241  1.00  0.00     0.000 C 
BRANCH   3   4
ATOM      4  C   UNL     1      19.565   7.899  37.158  1.00  0.00     0.000 C 
BRANCH   4   5
ATOM      5  C   UNL     1      19.471   6.583  36.372  1.00  0.00     0.000 C 
BRANCH   5   6
ATOM      6  C   UNL     1      18.069   6.341  35.786  1.00  0.00     0.000 C 
BRANCH   6   7
ATOM      7  C   UNL     1      18.102   5.836  34.332  1.00  0.00     0.006 C 
BRANCH   7   8
ATOM      8  C   UNL     1      18.560   6.895  33.312  1.00  0.00     0.053 C 
BRANCH   8   9
ATOM      9  C   UNL     1      19.754   6.457  32.520  1.00  0.00     0.041 C 
ATOM     10  O   UNL     1      19.762   6.570  31.265  1.00  0.00    -0.550 OA
ATOM     11  O   UNL     1      20.874   5.955  33.170  1.00  0.00    -0.550 OA
ENDBRANCH   8   9
ENDBRANCH   7   8
ENDBRANCH   6   7
ENDBRANCH   5   6
ENDBRANCH   4   5
ENDBRANCH   3   4
ENDBRANCH   2   3
ENDBRANCH   1   2
BRANCH   1  12
ATOM     12  C   UNL     1      21.862  11.298  34.770  1.00  0.00     0.000 C 
BRANCH  12  13
ATOM     13  C   UNL     1      21.670  12.571  35.612  1.00  0.00    -0.000 C 
BRANCH  13  14
ATOM     14  C   UNL     1      20.355  13.307  35.296  1.00  0.00    -0.000 C 
BRANCH  14  15
ATOM     15  C   UNL     1      19.096  12.706  35.948  1.00  0.00    -0.000 C 
BRANCH  15  16
ATOM     16  C   UNL     1      18.168  12.015  34.937  1.00  0.00    -0.000 C 
BRANCH  16  17
ATOM     17  C   UNL     1      18.005  12.866  33.671  1.00  0.00    -0.000 C 
BRANCH  17  18
ATOM     18  C   UNL     1      18.594  12.148  32.447  1.00  0.00    -0.000 C 
BRANCH  18  19
ATOM     19  C   UNL     1      18.862  10.659  32.709  1.00  0.00    -0.003 C 
ATOM     20  C   UNL     1      19.982  10.096  31.835  1.00  0.00     0.004 C 
ENDBRANCH  18  19
ENDBRANCH  17  18
ENDBRANCH  16  17
ENDBRANCH  15  16
ENDBRANCH  14  15
ENDBRANCH  13  14
ENDBRANCH  12  13
ENDBRANCH   1  12
TORSDOF 16
ENDMDL
MODEL 6
REMARK VINA RESULT:    -3.679     17.007     19.264
REMARK INTER + INTRA:         -10.083
REMARK INTER:                  -8.047
REMARK INTRA:                  -2.035
REMARK UNBOUND:                -2.963
REMARK SMILES CCCCCCCCCCCCCCCCCC(=O)[O-]
REMARK SMILES IDX 10 1 11 2 12 3 13 4 14 5 15 6 16 7 17 8 18 9 19 10 20 11
REMARK SMILES IDX 9 12 8 13 7 14 6 15 5 16 4 17 3 18 2 19 1 20
REMARK H PARENT
REMARK Flexibility Score: inf
ROOT
ATOM      1  C   UNL     1      30.993   6.669  47.547  1.00  0.00     0.000 C 
ENDROOT
BRANCH   1   2
ATOM      2  C   UNL     1      30.255   7.352  48.708  1.00  0.00     0.000 C 
BRANCH   2   3
ATOM      3  C   UNL     1      30.911   8.692  49.063  1.00  0.00     0.000 C 
BRANCH   3   4
ATOM      4  C   UNL     1      31.947   9.098  48.004  1.00  0.00     0.000 C 
BRANCH   4   5
ATOM      5  C   UNL     1      33.063   9.983  48.579  1.00  0.00     0.000 C 
BRANCH   5   6
ATOM      6  C   UNL     1      34.468   9.487  48.197  1.00  0.00     0.000 C 
BRANCH   6   7
ATOM      7  C   UNL     1      35.505  10.622  48.107  1.00  0.00     0.006 C 
BRANCH   7   8
ATOM      8  C   UNL     1      34.992  11.880  47.382  1.00  0.00     0.053 C 
BRANCH   8   9
ATOM      9  C   UNL     1      35.992  12.439  46.417  1.00  0.00     0.041 C 
ATOM     10  O   UNL     1      35.803  13.567  45.887  1.00  0.00    -0.550 OA
ATOM     11  O   UNL     1      37.151  11.731  46.128  1.00  0.00    -0.550 OA
ENDBRANCH   8   9
ENDBRANCH   7   8
ENDBRANCH   6   7
ENDBRANCH   5   6
ENDBRANCH   4   5
ENDBRANCH   3   4
ENDBRANCH   2   3
ENDBRANCH   1   2
BRANCH   1  12
ATOM     12  C   UNL     1      31.803   5.442  47.998  1.00  0.00     0.000 C 
BRANCH  12  13
ATOM     13  C   UNL     1      33.316   5.718  48.042  1.00  0.00    -0.000 C 
BRANCH  13  14
ATOM     14  C   UNL     1      34.133   4.711  47.212  1.00  0.00    -0.000 C 
BRANCH  14  15
ATOM     15  C   UNL     1      34.749   5.276  45.918  1.00  0.00    -0.000 C 
BRANCH  15  16
ATOM     16  C   UNL     1      33.752   6.102  45.091  1.00  0.00    -0.000 C 
BRANCH  16  17
ATOM     17  C   UNL     1      34.006   7.605  45.266  1.00  0.00    -0.000 C 
BRANCH  17  18
ATOM     18  C   UNL     1      34.416   8.252  43.934  1.00  0.00    -0.000 C 
BRANCH  18  19
ATOM     19  C   UNL     1      34.898   9.700  44.106  1.00  0.00    -0.003 C 
ATOM     20  C   UNL     1      33.795  10.726  43.848  1.00  0.00     0.004 C 
ENDBRANCH  18  19
ENDBRANCH  17  18
ENDBRANCH  16  17
ENDBRANCH  15  16
ENDBRANCH  14  15
ENDBRANCH  13  14
ENDBRANCH  12  13
ENDBRANCH   1  12
TORSDOF 16
ENDMDL
MODEL 7
REMARK VINA RESULT:    -3.662     18.077     19.705
REMARK INTER + INTRA:         -10.049
REMARK INTER:                  -8.527
REMARK INTRA:                  -1.522
REMARK UNBOUND:                -2.963
REMARK SMILES CCCCCCCCCCCCCCCCCC(=O)[O-]
REMARK SMILES IDX 10 1 11 2 12 3 13 4 14 5 15 6 16 7 17 8 18 9 19 10 20 11
REMARK SMILES IDX 9 12 8 13 7 14 6 15 5 16 4 17 3 18 2 19 1 20
REMARK H PARENT
REMARK Flexibility Score: inf
ROOT
ATOM      1  C   UNL     1      33.816   9.757  47.534  1.00  0.00     0.000 C 
ENDROOT
BRANCH   1   2
ATOM      2  C   UNL     1      34.005   9.501  46.031  1.00  0.00     0.000 C 
BRANCH   2   3
ATOM      3  C   UNL     1      35.087  10.420  45.449  1.00  0.00     0.000 C 
BRANCH   3   4
ATOM      4  C   UNL     1      35.580  11.426  46.499  1.00  0.00     0.000 C 
BRANCH   4   5
ATOM      5  C   UNL     1      37.019  11.896  46.236  1.00  0.00     0.000 C 
BRANCH   5   6
ATOM      6  C   UNL     1      37.129  13.426  46.115  1.00  0.00     0.000 C 
BRANCH   6   7
ATOM      7  C   UNL     1      35.765  14.136  46.189  1.00  0.00     0.006 C 
BRANCH   7   8
ATOM      8  C   UNL     1      35.621  15.091  47.389  1.00  0.00     0.053 C 
BRANCH   8   9
ATOM      9  C   UNL     1      34.969  16.388  47.021  1.00  0.00     0.041 C 
ATOM     10  O   UNL     1      35.378  17.048  46.029  1.00  0.00    -0.550 OA
ATOM     11  O   UNL     1      33.885  16.854  47.754  1.00  0.00    -0.550 OA
ENDBRANCH   8   9
ENDBRANCH   7   8
ENDBRANCH   6   7
ENDBRANCH   5   6
ENDBRANCH   4   5
ENDBRANCH   3   4
ENDBRANCH   2   3
ENDBRANCH   1   2
BRANCH   1  12
ATOM     12  C   UNL     1      32.335   9.820  47.943  1.00  0.00     0.000 C 
BRANCH  12  13
ATOM     13  C   UNL     1      31.963   8.746  48.980  1.00  0.00    -0.000 C 
BRANCH  13  14
ATOM     14  C   UNL     1      30.555   8.164  48.762  1.00  0.00    -0.000 C 
BRANCH  14  15
ATOM     15  C   UNL     1      30.510   6.657  48.450  1.00  0.00    -0.000 C 
BRANCH  15  16
ATOM     16  C   UNL     1      31.435   6.256  47.290  1.00  0.00    -0.000 C 
BRANCH  16  17
ATOM     17  C   UNL     1      32.589   5.377  47.787  1.00  0.00    -0.000 C 
BRANCH  17  18
ATOM     18  C   UNL     1      33.948   5.996  47.423  1.00  0.00    -0.000 C 
BRANCH  18  19
ATOM     19  C   UNL     1      34.364   5.696  45.975  1.00  0.00    -0.003 C 
ATOM     20  C   UNL     1      35.117   4.374  45.838  1.00  0.00     0.004 C 
ENDBRANCH  18  19
ENDBRANCH  17  18
ENDBRANCH  16  17
ENDBRANCH  15  16
ENDBRANCH  14  15
ENDBRANCH  13  14
ENDBRANCH  12  13
ENDBRANCH   1  12
TORSDOF 16
ENDMDL
MODEL 8
REMARK VINA RESULT:    -3.651      2.012      3.979
REMARK INTER + INTRA:         -10.029
REMARK INTER:                  -7.265
REMARK INTRA:                  -2.765
REMARK UNBOUND:                -2.963
REMARK SMILES CCCCCCCCCCCCCCCCCC(=O)[O-]
REMARK SMILES IDX 10 1 11 2 12 3 13 4 14 5 15 6 16 7 17 8 18 9 19 10 20 11
REMARK SMILES IDX 9 12 8 13 7 14 6 15 5 16 4 17 3 18 2 19 1 20
REMARK H PARENT
REMARK Flexibility Score: inf
ROOT
ATOM      1  C   UNL     1      20.654  13.423  35.138  1.00  0.00     0.000 C 
ENDROOT
BRANCH   1   2
ATOM      2  C   UNL     1      21.772  12.492  35.632  1.00  0.00     0.000 C 
BRANCH   2   3
ATOM      3  C   UNL     1      22.288  11.603  34.494  1.00  0.00     0.000 C 
BRANCH   3   4
ATOM      4  C   UNL     1      21.414  10.350  34.333  1.00  0.00     0.000 C 
BRANCH   4   5
ATOM      5  C   UNL     1      21.336   9.515  35.621  1.00  0.00     0.000 C 
BRANCH   5   6
ATOM      6  C   UNL     1      19.888   9.227  36.052  1.00  0.00     0.000 C 
BRANCH   6   7
ATOM      7  C   UNL     1      19.451   7.778  35.768  1.00  0.00     0.006 C 
BRANCH   7   8
ATOM      8  C   UNL     1      20.534   6.922  35.087  1.00  0.00     0.053 C 
BRANCH   8   9
ATOM      9  C   UNL     1      20.288   6.736  33.621  1.00  0.00     0.041 C 
ATOM     10  O   UNL     1      20.884   5.826  32.985  1.00  0.00    -0.550 OA
ATOM     11  O   UNL     1      19.373   7.547  32.961  1.00  0.00    -0.550 OA
ENDBRANCH   8   9
ENDBRANCH   7   8
ENDBRANCH   6   7
ENDBRANCH   5   6
ENDBRANCH   4   5
ENDBRANCH   3   4
ENDBRANCH   2   3
ENDBRANCH   1   2
BRANCH   1  12
ATOM     12  C   UNL     1      19.279  13.062  35.725  1.00  0.00     0.000 C 
BRANCH  12  13
ATOM     13  C   UNL     1      18.174  13.017  34.656  1.00  0.00    -0.000 C 
BRANCH  13  14
ATOM     14  C   UNL     1      17.889  11.591  34.147  1.00  0.00    -0.000 C 
BRANCH  14  15
ATOM     15  C   UNL     1      18.211  11.350  32.661  1.00  0.00    -0.000 C 
BRANCH  15  16
ATOM     16  C   UNL     1      19.076  12.461  32.047  1.00  0.00    -0.000 C 
BRANCH  16  17
ATOM     17  C   UNL     1      20.145  11.874  31.116  1.00  0.00    -0.000 C 
BRANCH  17  18
ATOM     18  C   UNL     1      21.452  12.678  31.204  1.00  0.00    -0.000 C 
BRANCH  18  19
ATOM     19  C   UNL     1      21.237  14.092  31.763  1.00  0.00    -0.003 C 
ATOM     20  C   UNL     1      21.986  15.162  30.970  1.00  0.00     0.004 C 
ENDBRANCH  18  19
ENDBRANCH  17  18
ENDBRANCH  16  17
ENDBRANCH  15  16
ENDBRANCH  14  15
ENDBRANCH  13  14
ENDBRANCH  12  13
ENDBRANCH   1  12
TORSDOF 16
ENDMDL
MODEL 9
REMARK VINA RESULT:    -3.637      3.113      5.384
REMARK INTER + INTRA:         -10.002
REMARK INTER:                  -7.233
REMARK INTRA:                  -2.769
REMARK UNBOUND:                -2.963
REMARK SMILES CCCCCCCCCCCCCCCCCC(=O)[O-]
REMARK SMILES IDX 10 1 11 2 12 3 13 4 14 5 15 6 16 7 17 8 18 9 19 10 20 11
REMARK SMILES IDX 9 12 8 13 7 14 6 15 5 16 4 17 3 18 2 19 1 20
REMARK H PARENT
REMARK Flexibility Score: inf
ROOT
ATOM      1  C   UNL     1      21.789  12.638  35.570  1.00  0.00     0.000 C 
ENDROOT
BRANCH   1   2
ATOM      2  C   UNL     1      20.582  13.246  34.839  1.00  0.00     0.000 C 
BRANCH   2   3
ATOM      3  C   UNL     1      19.268  12.838  35.517  1.00  0.00     0.000 C 
BRANCH   3   4
ATOM      4  C   UNL     1      18.455  11.893  34.620  1.00  0.00     0.000 C 
BRANCH   4   5
ATOM      5  C   UNL     1      18.987  11.843  33.179  1.00  0.00     0.000 C 
BRANCH   5   6
ATOM      6  C   UNL     1      18.920  10.431  32.572  1.00  0.00     0.000 C 
BRANCH   6   7
ATOM      7  C   UNL     1      20.274   9.946  32.024  1.00  0.00     0.006 C 
BRANCH   7   8
ATOM      8  C   UNL     1      21.171  11.076  31.484  1.00  0.00     0.053 C 
BRANCH   8   9
ATOM      9  C   UNL     1      21.366  11.001  30.001  1.00  0.00     0.041 C 
ATOM     10  O   UNL     1      20.738  11.781  29.236  1.00  0.00    -0.550 OA
ATOM     11  O   UNL     1      22.267  10.092  29.462  1.00  0.00    -0.550 OA
ENDBRANCH   8   9
ENDBRANCH   7   8
ENDBRANCH   6   7
ENDBRANCH   5   6
ENDBRANCH   4   5
ENDBRANCH   3   4
ENDBRANCH   2   3
ENDBRANCH   1   2
BRANCH   1  12
ATOM     12  C   UNL     1      22.317  11.366  34.886  1.00  0.00     0.000 C 
BRANCH  12  13
ATOM     13  C   UNL     1      22.160  10.114  35.767  1.00  0.00    -0.000 C 
BRANCH  13  14
ATOM     14  C   UNL     1      20.962   9.238  35.356  1.00  0.00    -0.000 C 
BRANCH  14  15
ATOM     15  C   UNL     1      19.844   9.123  36.407  1.00  0.00    -0.000 C 
BRANCH  15  16
ATOM     16  C   UNL     1      19.429   7.670  36.686  1.00  0.00    -0.000 C 
BRANCH  16  17
ATOM     17  C   UNL     1      19.796   6.758  35.508  1.00  0.00    -0.000 C 
BRANCH  17  18
ATOM     18  C   UNL     1      18.551   6.396  34.685  1.00  0.00    -0.000 C 
BRANCH  18  19
ATOM     19  C   UNL     1      18.890   6.036  33.231  1.00  0.00    -0.003 C 
ATOM     20  C   UNL     1      20.334   6.369  32.859  1.00  0.00     0.004 C 
ENDBRANCH  18  19
ENDBRANCH  17  18
ENDBRANCH  16  17
ENDBRANCH  15  16
ENDBRANCH  14  15
ENDBRANCH  13  14
ENDBRANCH  12  13
ENDBRANCH   1  12
TORSDOF 16
ENDMDL
