MODEL 1
REMARK VINA RESULT:    -5.430      0.000      0.000
REMARK INTER + INTRA:          -6.867
REMARK INTER:                  -6.541
REMARK INTRA:                  -0.326
REMARK UNBOUND:                -0.326
REMARK SMILES Oc1cc(O)c2c(c1)O[C@@H](c1ccc(O)c(O)c1)[C@H](O)C2
REMARK SMILES IDX 21 1 19 2 10 3 9 4 7 5 8 6 2 7 3 8 4 9 6 10 20 11 11 13
REMARK SMILES IDX 18 14 12 15 16 16 13 17 14 18 17 19 15 21 5 23 1 25
REMARK H PARENT 20 12 17 20 15 22 5 24 1 26
REMARK Flexibility Score: inf
ROOT
ATOM      1  C   UNL     1      18.364  -3.107 -12.653  1.00  0.00     0.079 C 
ATOM      2  C   UNL     1      18.627  -3.707 -11.259  1.00  0.00     0.164 C 
ATOM      3  C   UNL     1      17.393  -4.496 -10.789  1.00  0.00     0.232 C 
ATOM      4  O   UNL     1      17.069  -5.503 -11.747  1.00  0.00    -0.482 OA
ATOM      5  C   UNL     1      17.170  -5.284 -13.125  1.00  0.00     0.131 A 
ATOM      6  C   UNL     1      16.660  -6.243 -14.003  1.00  0.00     0.093 A 
ATOM      7  C   UNL     1      16.733  -6.043 -15.386  1.00  0.00     0.122 A 
ATOM      8  C   UNL     1      17.310  -4.875 -15.888  1.00  0.00     0.092 A 
ATOM      9  C   UNL     1      17.826  -3.903 -15.023  1.00  0.00     0.126 A 
ATOM     10  C   UNL     1      17.795  -4.121 -13.624  1.00  0.00     0.039 A 
ENDROOT
BRANCH   2  11
ATOM     11  O   UNL     1      18.909  -2.678 -10.346  1.00  0.00    -0.389 OA
ATOM     12  H   UNL     1      18.078  -2.144 -10.249  1.00  0.00     0.211 HD
ENDBRANCH   2  11
BRANCH   3  13
ATOM     13  C   UNL     1      17.635  -5.135  -9.442  1.00  0.00    -0.001 A 
ATOM     14  C   UNL     1      18.803  -5.880  -9.211  1.00  0.00     0.057 A 
ATOM     15  C   UNL     1      16.675  -5.036  -8.423  1.00  0.00     0.012 A 
ATOM     16  C   UNL     1      19.027  -6.502  -7.975  1.00  0.00     0.157 A 
ATOM     17  C   UNL     1      16.891  -5.651  -7.188  1.00  0.00     0.050 A 
ATOM     18  C   UNL     1      18.059  -6.383  -6.950  1.00  0.00     0.157 A 
BRANCH  16  19
ATOM     19  O   UNL     1      20.213  -7.223  -7.814  1.00  0.00    -0.504 OA
ATOM     20  H   UNL     1      20.991  -6.910  -7.254  1.00  0.00     0.293 HD
ENDBRANCH  16  19
BRANCH  18  21
ATOM     21  O   UNL     1      18.214  -6.972  -5.693  1.00  0.00    -0.504 OA
ATOM     22  H   UNL     1      18.161  -7.967  -5.526  1.00  0.00     0.293 HD
ENDBRANCH  18  21
ENDBRANCH   3  13
BRANCH   9  23
ATOM     23  O   UNL     1      18.351  -2.736 -15.583  1.00  0.00    -0.507 OA
ATOM     24  H   UNL     1      18.038  -1.809 -15.331  1.00  0.00     0.293 HD
ENDBRANCH   9  23
BRANCH   7  25
ATOM     25  O   UNL     1      16.227  -6.995 -16.268  1.00  0.00    -0.508 OA
ATOM     26  H   UNL     1      16.767  -7.320 -17.062  1.00  0.00     0.293 HD
ENDBRANCH   7  25
TORSDOF 6
ENDMDL
MODEL 2
REMARK VINA RESULT:    -5.383      1.325      2.797
REMARK INTER + INTRA:          -6.811
REMARK INTER:                  -6.591
REMARK INTRA:                  -0.220
REMARK UNBOUND:                -0.326
REMARK SMILES Oc1cc(O)c2c(c1)O[C@@H](c1ccc(O)c(O)c1)[C@H](O)C2
REMARK SMILES IDX 21 1 19 2 10 3 9 4 7 5 8 6 2 7 3 8 4 9 6 10 20 11 11 13
REMARK SMILES IDX 18 14 12 15 16 16 13 17 14 18 17 19 15 21 5 23 1 25
REMARK H PARENT 20 12 17 20 15 22 5 24 1 26
REMARK Flexibility Score: inf
ROOT
ATOM      1  C   UNL     1      16.923  -5.837 -13.479  1.00  0.00     0.079 C 
ATOM      2  C   UNL     1      16.720  -5.932 -11.955  1.00  0.00     0.164 C 
ATOM      3  C   UNL     1      18.055  -5.681 -11.235  1.00  0.00     0.232 C 
ATOM      4  O   UNL     1      18.583  -4.413 -11.621  1.00  0.00    -0.482 OA
ATOM      5  C   UNL     1      18.493  -3.934 -12.932  1.00  0.00     0.131 A 
ATOM      6  C   UNL     1      19.194  -2.776 -13.281  1.00  0.00     0.093 A 
ATOM      7  C   UNL     1      19.135  -2.284 -14.590  1.00  0.00     0.122 A 
ATOM      8  C   UNL     1      18.382  -2.960 -15.551  1.00  0.00     0.092 A 
ATOM      9  C   UNL     1      17.674  -4.121 -15.220  1.00  0.00     0.126 A 
ATOM     10  C   UNL     1      17.694  -4.598 -13.887  1.00  0.00     0.039 A 
ENDROOT
BRANCH   2  11
ATOM     11  O   UNL     1      16.232  -7.205 -11.620  1.00  0.00    -0.389 OA
ATOM     12  H   UNL     1      15.385  -7.065 -11.122  1.00  0.00     0.211 HD
ENDBRANCH   2  11
BRANCH   3  13
ATOM     13  C   UNL     1      17.881  -5.722  -9.734  1.00  0.00    -0.001 A 
ATOM     14  C   UNL     1      18.869  -6.303  -8.923  1.00  0.00     0.057 A 
ATOM     15  C   UNL     1      16.711  -5.227  -9.138  1.00  0.00     0.012 A 
ATOM     16  C   UNL     1      18.709  -6.373  -7.532  1.00  0.00     0.157 A 
ATOM     17  C   UNL     1      16.543  -5.293  -7.753  1.00  0.00     0.050 A 
ATOM     18  C   UNL     1      17.531  -5.858  -6.940  1.00  0.00     0.157 A 
BRANCH  16  19
ATOM     19  O   UNL     1      19.734  -6.961  -6.787  1.00  0.00    -0.504 OA
ATOM     20  H   UNL     1      19.638  -7.829  -6.283  1.00  0.00     0.293 HD
ENDBRANCH  16  19
BRANCH  18  21
ATOM     21  O   UNL     1      17.302  -5.891  -5.563  1.00  0.00    -0.504 OA
ATOM     22  H   UNL     1      17.052  -6.726  -5.052  1.00  0.00     0.293 HD
ENDBRANCH  18  21
ENDBRANCH   3  13
BRANCH   9  23
ATOM     23  O   UNL     1      16.974  -4.777 -16.236  1.00  0.00    -0.507 OA
ATOM     24  H   UNL     1      17.418  -5.159 -17.060  1.00  0.00     0.293 HD
ENDBRANCH   9  23
BRANCH   7  25
ATOM     25  O   UNL     1      19.829  -1.130 -14.945  1.00  0.00    -0.508 OA
ATOM     26  H   UNL     1      19.502  -0.524 -15.689  1.00  0.00     0.293 HD
ENDBRANCH   7  25
TORSDOF 6
ENDMDL
MODEL 3
REMARK VINA RESULT:    -5.335      9.691     11.650
REMARK INTER + INTRA:          -6.752
REMARK INTER:                  -6.762
REMARK INTRA:                   0.010
REMARK UNBOUND:                -0.326
REMARK SMILES Oc1cc(O)c2c(c1)O[C@@H](c1ccc(O)c(O)c1)[C@H](O)C2
REMARK SMILES IDX 21 1 19 2 10 3 9 4 7 5 8 6 2 7 3 8 4 9 6 10 20 11 11 13
REMARK SMILES IDX 18 14 12 15 16 16 13 17 14 18 17 19 15 21 5 23 1 25
REMARK H PARENT 20 12 17 20 15 22 5 24 1 26
REMARK Flexibility Score: inf
ROOT
ATOM      1  C   UNL     1      14.364  -9.494  -4.139  1.00  0.00     0.079 C 
ATOM      2  C   UNL     1      14.667 -10.904  -4.681  1.00  0.00     0.164 C 
ATOM      3  C   UNL     1      13.804 -11.943  -3.946  1.00  0.00     0.232 C 
ATOM      4  O   UNL     1      12.424 -11.608  -4.081  1.00  0.00    -0.482 OA
ATOM      5  C   UNL     1      11.967 -10.287  -4.036  1.00  0.00     0.131 A 
ATOM      6  C   UNL     1      10.591 -10.047  -3.986  1.00  0.00     0.093 A 
ATOM      7  C   UNL     1      10.107  -8.735  -3.924  1.00  0.00     0.122 A 
ATOM      8  C   UNL     1      11.003  -7.665  -3.902  1.00  0.00     0.092 A 
ATOM      9  C   UNL     1      12.384  -7.887  -3.951  1.00  0.00     0.126 A 
ATOM     10  C   UNL     1      12.878  -9.210  -4.059  1.00  0.00     0.039 A 
ENDROOT
BRANCH   2  11
ATOM     11  O   UNL     1      16.027 -11.201  -4.496  1.00  0.00    -0.389 OA
ATOM     12  H   UNL     1      16.494 -10.335  -4.364  1.00  0.00     0.211 HD
ENDBRANCH   2  11
BRANCH   3  13
ATOM     13  C   UNL     1      14.045 -13.333  -4.485  1.00  0.00    -0.001 A 
ATOM     14  C   UNL     1      13.056 -13.979  -5.245  1.00  0.00     0.057 A 
ATOM     15  C   UNL     1      15.236 -14.015  -4.193  1.00  0.00     0.012 A 
ATOM     16  C   UNL     1      13.255 -15.280  -5.728  1.00  0.00     0.157 A 
ATOM     17  C   UNL     1      15.444 -15.310  -4.672  1.00  0.00     0.050 A 
ATOM     18  C   UNL     1      14.466 -15.952  -5.440  1.00  0.00     0.157 A 
BRANCH  16  19
ATOM     19  O   UNL     1      12.231 -15.859  -6.480  1.00  0.00    -0.504 OA
ATOM     20  H   UNL     1      11.977 -15.563  -7.411  1.00  0.00     0.293 HD
ENDBRANCH  16  19
BRANCH  18  21
ATOM     21  O   UNL     1      14.737 -17.247  -5.889  1.00  0.00    -0.504 OA
ATOM     22  H   UNL     1      14.043 -17.979  -5.950  1.00  0.00     0.293 HD
ENDBRANCH  18  21
ENDBRANCH   3  13
BRANCH   9  23
ATOM     23  O   UNL     1      13.231  -6.779  -3.881  1.00  0.00    -0.507 OA
ATOM     24  H   UNL     1      13.824  -6.483  -4.645  1.00  0.00     0.293 HD
ENDBRANCH   9  23
BRANCH   7  25
ATOM     25  O   UNL     1       8.737  -8.486  -3.875  1.00  0.00    -0.508 OA
ATOM     26  H   UNL     1       8.354  -7.740  -3.305  1.00  0.00     0.293 HD
ENDBRANCH   7  25
TORSDOF 6
ENDMDL
MODEL 4
REMARK VINA RESULT:    -5.234      5.785      9.250
REMARK INTER + INTRA:          -6.631
REMARK INTER:                  -6.297
REMARK INTRA:                  -0.334
REMARK UNBOUND:                -0.326
REMARK SMILES Oc1cc(O)c2c(c1)O[C@@H](c1ccc(O)c(O)c1)[C@H](O)C2
REMARK SMILES IDX 21 1 19 2 10 3 9 4 7 5 8 6 2 7 3 8 4 9 6 10 20 11 11 13
REMARK SMILES IDX 18 14 12 15 16 16 13 17 14 18 17 19 15 21 5 23 1 25
REMARK H PARENT 20 12 17 20 15 22 5 24 1 26
REMARK Flexibility Score: inf
ROOT
ATOM      1  C   UNL     1      12.437  -7.591  -4.030  1.00  0.00     0.079 C 
ATOM      2  C   UNL     1      13.661  -6.795  -4.521  1.00  0.00     0.164 C 
ATOM      3  C   UNL     1      14.948  -7.582  -4.226  1.00  0.00     0.232 C 
ATOM      4  O   UNL     1      14.877  -8.872  -4.832  1.00  0.00    -0.482 OA
ATOM      5  C   UNL     1      13.695  -9.618  -4.864  1.00  0.00     0.131 A 
ATOM      6  C   UNL     1      13.741 -10.944  -5.302  1.00  0.00     0.093 A 
ATOM      7  C   UNL     1      12.576 -11.719  -5.328  1.00  0.00     0.122 A 
ATOM      8  C   UNL     1      11.366 -11.167  -4.906  1.00  0.00     0.092 A 
ATOM      9  C   UNL     1      11.301  -9.840  -4.463  1.00  0.00     0.126 A 
ATOM     10  C   UNL     1      12.467  -9.038  -4.477  1.00  0.00     0.039 A 
ENDROOT
BRANCH   2  11
ATOM     11  O   UNL     1      13.707  -5.549  -3.875  1.00  0.00    -0.389 OA
ATOM     12  H   UNL     1      12.767  -5.278  -3.708  1.00  0.00     0.211 HD
ENDBRANCH   2  11
BRANCH   3  13
ATOM     13  C   UNL     1      16.166  -6.848  -4.738  1.00  0.00    -0.001 A 
ATOM     14  C   UNL     1      16.205  -6.374  -6.059  1.00  0.00     0.057 A 
ATOM     15  C   UNL     1      17.290  -6.673  -3.916  1.00  0.00     0.012 A 
ATOM     16  C   UNL     1      17.338  -5.716  -6.555  1.00  0.00     0.157 A 
ATOM     17  C   UNL     1      18.424  -6.018  -4.402  1.00  0.00     0.050 A 
ATOM     18  C   UNL     1      18.461  -5.533  -5.713  1.00  0.00     0.157 A 
BRANCH  16  19
ATOM     19  O   UNL     1      17.305  -5.269  -7.877  1.00  0.00    -0.504 OA
ATOM     20  H   UNL     1      17.928  -4.568  -8.251  1.00  0.00     0.293 HD
ENDBRANCH  16  19
BRANCH  18  21
ATOM     21  O   UNL     1      19.624  -4.885  -6.136  1.00  0.00    -0.504 OA
ATOM     22  H   UNL     1      20.553  -5.266  -6.027  1.00  0.00     0.293 HD
ENDBRANCH  18  21
ENDBRANCH   3  13
BRANCH   9  23
ATOM     23  O   UNL     1      10.070  -9.357  -4.012  1.00  0.00    -0.507 OA
ATOM     24  H   UNL     1       9.356  -8.991  -4.628  1.00  0.00     0.293 HD
ENDBRANCH   9  23
BRANCH   7  25
ATOM     25  O   UNL     1      12.614 -13.042  -5.765  1.00  0.00    -0.508 OA
ATOM     26  H   UNL     1      13.445 -13.612  -5.656  1.00  0.00     0.293 HD
ENDBRANCH   7  25
TORSDOF 6
ENDMDL
MODEL 5
REMARK VINA RESULT:    -5.194      2.033      7.381
REMARK INTER + INTRA:          -6.583
REMARK INTER:                  -6.250
REMARK INTRA:                  -0.334
REMARK UNBOUND:                -0.326
REMARK SMILES Oc1cc(O)c2c(c1)O[C@@H](c1ccc(O)c(O)c1)[C@H](O)C2
REMARK SMILES IDX 21 1 19 2 10 3 9 4 7 5 8 6 2 7 3 8 4 9 6 10 20 11 11 13
REMARK SMILES IDX 18 14 12 15 16 16 13 17 14 18 17 19 15 21 5 23 1 25
REMARK H PARENT 20 12 17 20 15 22 5 24 1 26
REMARK Flexibility Score: inf
ROOT
ATOM      1  C   UNL     1      18.206  -6.372  -7.692  1.00  0.00     0.079 C 
ATOM      2  C   UNL     1      18.525  -6.048  -9.164  1.00  0.00     0.164 C 
ATOM      3  C   UNL     1      17.355  -5.273  -9.793  1.00  0.00     0.232 C 
ATOM      4  O   UNL     1      17.093  -4.093  -9.035  1.00  0.00    -0.482 OA
ATOM      5  C   UNL     1      17.164  -4.070  -7.639  1.00  0.00     0.131 A 
ATOM      6  C   UNL     1      16.713  -2.938  -6.955  1.00  0.00     0.093 A 
ATOM      7  C   UNL     1      16.757  -2.895  -5.557  1.00  0.00     0.122 A 
ATOM      8  C   UNL     1      17.244  -3.992  -4.845  1.00  0.00     0.092 A 
ATOM      9  C   UNL     1      17.700  -5.134  -5.513  1.00  0.00     0.126 A 
ATOM     10  C   UNL     1      17.699  -5.166  -6.928  1.00  0.00     0.039 A 
ENDROOT
BRANCH   2  11
ATOM     11  O   UNL     1      18.743  -7.238  -9.876  1.00  0.00    -0.389 OA
ATOM     12  H   UNL     1      17.956  -7.820  -9.710  1.00  0.00     0.211 HD
ENDBRANCH   2  11
BRANCH   3  13
ATOM     13  C   UNL     1      17.656  -4.899 -11.226  1.00  0.00    -0.001 A 
ATOM     14  C   UNL     1      17.024  -5.576 -12.282  1.00  0.00     0.057 A 
ATOM     15  C   UNL     1      18.605  -3.908 -11.521  1.00  0.00     0.012 A 
ATOM     16  C   UNL     1      17.314  -5.260 -13.616  1.00  0.00     0.157 A 
ATOM     17  C   UNL     1      18.899  -3.586 -12.847  1.00  0.00     0.050 A 
ATOM     18  C   UNL     1      18.262  -4.249 -13.901  1.00  0.00     0.157 A 
BRANCH  16  19
ATOM     19  O   UNL     1      16.645  -5.971 -14.615  1.00  0.00    -0.504 OA
ATOM     20  H   UNL     1      16.790  -5.828 -15.603  1.00  0.00     0.293 HD
ENDBRANCH  16  19
BRANCH  18  21
ATOM     21  O   UNL     1      18.600  -3.877 -15.205  1.00  0.00    -0.504 OA
ATOM     22  H   UNL     1      18.582  -2.925 -15.543  1.00  0.00     0.293 HD
ENDBRANCH  18  21
ENDBRANCH   3  13
BRANCH   9  23
ATOM     23  O   UNL     1      18.135  -6.216  -4.744  1.00  0.00    -0.507 OA
ATOM     24  H   UNL     1      18.294  -7.140  -5.123  1.00  0.00     0.293 HD
ENDBRANCH   9  23
BRANCH   7  25
ATOM     25  O   UNL     1      16.310  -1.770  -4.867  1.00  0.00    -0.508 OA
ATOM     26  H   UNL     1      16.475  -1.658  -3.874  1.00  0.00     0.293 HD
ENDBRANCH   7  25
TORSDOF 6
ENDMDL
MODEL 6
REMARK VINA RESULT:    -4.984      5.289      6.788
REMARK INTER + INTRA:          -6.330
REMARK INTER:                  -5.962
REMARK INTRA:                  -0.367
REMARK UNBOUND:                -0.326
REMARK SMILES Oc1cc(O)c2c(c1)O[C@@H](c1ccc(O)c(O)c1)[C@H](O)C2
REMARK SMILES IDX 21 1 19 2 10 3 9 4 7 5 8 6 2 7 3 8 4 9 6 10 20 11 11 13
REMARK SMILES IDX 18 14 12 15 16 16 13 17 14 18 17 19 15 21 5 23 1 25
REMARK H PARENT 20 12 17 20 15 22 5 24 1 26
REMARK Flexibility Score: inf
ROOT
ATOM      1  C   UNL     1      16.505  -0.900  -8.344  1.00  0.00     0.079 C 
ATOM      2  C   UNL     1      17.148  -2.239  -7.939  1.00  0.00     0.164 C 
ATOM      3  C   UNL     1      17.031  -2.437  -6.419  1.00  0.00     0.232 C 
ATOM      4  O   UNL     1      15.661  -2.366  -6.025  1.00  0.00    -0.482 OA
ATOM      5  C   UNL     1      14.765  -1.457  -6.597  1.00  0.00     0.131 A 
ATOM      6  C   UNL     1      13.494  -1.313  -6.036  1.00  0.00     0.093 A 
ATOM      7  C   UNL     1      12.584  -0.399  -6.578  1.00  0.00     0.122 A 
ATOM      8  C   UNL     1      12.952   0.378  -7.678  1.00  0.00     0.092 A 
ATOM      9  C   UNL     1      14.221   0.247  -8.253  1.00  0.00     0.126 A 
ATOM     10  C   UNL     1      15.130  -0.707  -7.737  1.00  0.00     0.039 A 
ENDROOT
BRANCH   2  11
ATOM     11  O   UNL     1      18.500  -2.250  -8.316  1.00  0.00    -0.389 OA
ATOM     12  H   UNL     1      19.032  -2.230  -7.479  1.00  0.00     0.211 HD
ENDBRANCH   2  11
BRANCH   3  13
ATOM     13  C   UNL     1      17.613  -3.765  -5.994  1.00  0.00    -0.001 A 
ATOM     14  C   UNL     1      18.715  -3.810  -5.125  1.00  0.00     0.057 A 
ATOM     15  C   UNL     1      17.093  -4.966  -6.500  1.00  0.00     0.012 A 
ATOM     16  C   UNL     1      19.283  -5.034  -4.745  1.00  0.00     0.157 A 
ATOM     17  C   UNL     1      17.651  -6.190  -6.126  1.00  0.00     0.050 A 
ATOM     18  C   UNL     1      18.741  -6.239  -5.251  1.00  0.00     0.157 A 
BRANCH  16  19
ATOM     19  O   UNL     1      20.375  -5.003  -3.875  1.00  0.00    -0.504 OA
ATOM     20  H   UNL     1      21.177  -5.610  -3.955  1.00  0.00     0.293 HD
ENDBRANCH  16  19
BRANCH  18  21
ATOM     21  O   UNL     1      19.251  -7.495  -4.915  1.00  0.00    -0.504 OA
ATOM     22  H   UNL     1      18.679  -8.280  -4.634  1.00  0.00     0.293 HD
ENDBRANCH  18  21
ENDBRANCH   3  13
BRANCH   9  23
ATOM     23  O   UNL     1      14.547   1.082  -9.324  1.00  0.00    -0.507 OA
ATOM     24  H   UNL     1      15.498   1.286  -9.601  1.00  0.00     0.293 HD
ENDBRANCH   9  23
BRANCH   7  25
ATOM     25  O   UNL     1      11.313  -0.250  -6.025  1.00  0.00    -0.508 OA
ATOM     26  H   UNL     1      10.604   0.318  -6.474  1.00  0.00     0.293 HD
ENDBRANCH   7  25
TORSDOF 6
ENDMDL
MODEL 7
REMARK VINA RESULT:    -4.948      2.538      3.480
REMARK INTER + INTRA:          -6.287
REMARK INTER:                  -5.913
REMARK INTRA:                  -0.374
REMARK UNBOUND:                -0.326
REMARK SMILES Oc1cc(O)c2c(c1)O[C@@H](c1ccc(O)c(O)c1)[C@H](O)C2
REMARK SMILES IDX 21 1 19 2 10 3 9 4 7 5 8 6 2 7 3 8 4 9 6 10 20 11 11 13
REMARK SMILES IDX 18 14 12 15 16 16 13 17 14 18 17 19 15 21 5 23 1 25
REMARK H PARENT 20 12 17 20 15 22 5 24 1 26
REMARK Flexibility Score: inf
ROOT
ATOM      1  C   UNL     1      17.593  -1.497  -9.069  1.00  0.00     0.079 C 
ATOM      2  C   UNL     1      17.587  -2.524  -7.921  1.00  0.00     0.164 C 
ATOM      3  C   UNL     1      16.938  -3.834  -8.396  1.00  0.00     0.232 C 
ATOM      4  O   UNL     1      17.626  -4.328  -9.544  1.00  0.00    -0.482 OA
ATOM      5  C   UNL     1      18.106  -3.481 -10.548  1.00  0.00     0.131 A 
ATOM      6  C   UNL     1      18.600  -4.042 -11.729  1.00  0.00     0.093 A 
ATOM      7  C   UNL     1      19.071  -3.218 -12.757  1.00  0.00     0.122 A 
ATOM      8  C   UNL     1      19.038  -1.831 -12.605  1.00  0.00     0.092 A 
ATOM      9  C   UNL     1      18.547  -1.252 -11.429  1.00  0.00     0.126 A 
ATOM     10  C   UNL     1      18.110  -2.081 -10.368  1.00  0.00     0.039 A 
ENDROOT
BRANCH   2  11
ATOM     11  O   UNL     1      16.873  -2.009  -6.827  1.00  0.00    -0.389 OA
ATOM     12  H   UNL     1      16.386  -2.771  -6.418  1.00  0.00     0.211 HD
ENDBRANCH   2  11
BRANCH   3  13
ATOM     13  C   UNL     1      16.957  -4.879  -7.304  1.00  0.00    -0.001 A 
ATOM     14  C   UNL     1      18.175  -5.413  -6.855  1.00  0.00     0.057 A 
ATOM     15  C   UNL     1      15.757  -5.365  -6.762  1.00  0.00     0.012 A 
ATOM     16  C   UNL     1      18.206  -6.403  -5.864  1.00  0.00     0.157 A 
ATOM     17  C   UNL     1      15.779  -6.351  -5.773  1.00  0.00     0.050 A 
ATOM     18  C   UNL     1      16.991  -6.875  -5.314  1.00  0.00     0.157 A 
BRANCH  16  19
ATOM     19  O   UNL     1      19.455  -6.884  -5.463  1.00  0.00    -0.504 OA
ATOM     20  H   UNL     1      19.952  -7.624  -5.936  1.00  0.00     0.293 HD
ENDBRANCH  16  19
BRANCH  18  21
ATOM     21  O   UNL     1      16.943  -7.857  -4.321  1.00  0.00    -0.504 OA
ATOM     22  H   UNL     1      16.090  -8.292  -3.998  1.00  0.00     0.293 HD
ENDBRANCH  18  21
ENDBRANCH   3  13
BRANCH   9  23
ATOM     23  O   UNL     1      18.498   0.142 -11.353  1.00  0.00    -0.507 OA
ATOM     24  H   UNL     1      18.132   0.727 -12.092  1.00  0.00     0.293 HD
ENDBRANCH   9  23
BRANCH   7  25
ATOM     25  O   UNL     1      19.566  -3.769 -13.937  1.00  0.00    -0.508 OA
ATOM     26  H   UNL     1      19.893  -3.184 -14.698  1.00  0.00     0.293 HD
ENDBRANCH   7  25
TORSDOF 6
ENDMDL
MODEL 8
REMARK VINA RESULT:    -4.669      6.868      8.466
REMARK INTER + INTRA:          -5.951
REMARK INTER:                  -6.293
REMARK INTRA:                   0.343
REMARK UNBOUND:                -0.326
REMARK SMILES Oc1cc(O)c2c(c1)O[C@@H](c1ccc(O)c(O)c1)[C@H](O)C2
REMARK SMILES IDX 21 1 19 2 10 3 9 4 7 5 8 6 2 7 3 8 4 9 6 10 20 11 11 13
REMARK SMILES IDX 18 14 12 15 16 16 13 17 14 18 17 19 15 21 5 23 1 25
REMARK H PARENT 20 12 17 20 15 22 5 24 1 26
REMARK Flexibility Score: inf
ROOT
ATOM      1  C   UNL     1      16.737  -5.947  -4.806  1.00  0.00     0.079 C 
ATOM      2  C   UNL     1      16.291  -7.414  -4.958  1.00  0.00     0.164 C 
ATOM      3  C   UNL     1      14.828  -7.564  -4.510  1.00  0.00     0.232 C 
ATOM      4  O   UNL     1      13.999  -6.677  -5.260  1.00  0.00    -0.482 OA
ATOM      5  C   UNL     1      14.406  -5.384  -5.605  1.00  0.00     0.131 A 
ATOM      6  C   UNL     1      13.477  -4.509  -6.173  1.00  0.00     0.093 A 
ATOM      7  C   UNL     1      13.854  -3.204  -6.511  1.00  0.00     0.122 A 
ATOM      8  C   UNL     1      15.160  -2.775  -6.271  1.00  0.00     0.092 A 
ATOM      9  C   UNL     1      16.104  -3.638  -5.703  1.00  0.00     0.126 A 
ATOM     10  C   UNL     1      15.741  -4.972  -5.399  1.00  0.00     0.039 A 
ENDROOT
BRANCH   2  11
ATOM     11  O   UNL     1      17.113  -8.243  -4.178  1.00  0.00    -0.389 OA
ATOM     12  H   UNL     1      16.670  -9.130  -4.138  1.00  0.00     0.211 HD
ENDBRANCH   2  11
BRANCH   3  13
ATOM     13  C   UNL     1      14.344  -8.984  -4.690  1.00  0.00    -0.001 A 
ATOM     14  C   UNL     1      13.064  -9.237  -5.206  1.00  0.00     0.057 A 
ATOM     15  C   UNL     1      15.148 -10.065  -4.297  1.00  0.00     0.012 A 
ATOM     16  C   UNL     1      12.592 -10.548  -5.352  1.00  0.00     0.157 A 
ATOM     17  C   UNL     1      14.687 -11.376  -4.440  1.00  0.00     0.050 A 
ATOM     18  C   UNL     1      13.416 -11.632  -4.966  1.00  0.00     0.157 A 
BRANCH  16  19
ATOM     19  O   UNL     1      11.309 -10.725  -5.876  1.00  0.00    -0.504 OA
ATOM     20  H   UNL     1      10.715 -11.511  -5.660  1.00  0.00     0.293 HD
ENDBRANCH  16  19
BRANCH  18  21
ATOM     21  O   UNL     1      13.016 -12.964  -5.084  1.00  0.00    -0.504 OA
ATOM     22  H   UNL     1      12.150 -13.329  -4.712  1.00  0.00     0.293 HD
ENDBRANCH  18  21
ENDBRANCH   3  13
BRANCH   9  23
ATOM     23  O   UNL     1      17.383  -3.137  -5.446  1.00  0.00    -0.507 OA
ATOM     24  H   UNL     1      18.000  -3.521  -4.743  1.00  0.00     0.293 HD
ENDBRANCH   9  23
BRANCH   7  25
ATOM     25  O   UNL     1      12.934  -2.325  -7.079  1.00  0.00    -0.508 OA
ATOM     26  H   UNL     1      11.976  -2.277  -6.752  1.00  0.00     0.293 HD
ENDBRANCH   7  25
TORSDOF 6
ENDMDL
MODEL 9
REMARK VINA RESULT:    -4.616      8.295     11.402
REMARK INTER + INTRA:          -5.887
REMARK INTER:                  -6.116
REMARK INTRA:                   0.229
REMARK UNBOUND:                -0.326
REMARK SMILES Oc1cc(O)c2c(c1)O[C@@H](c1ccc(O)c(O)c1)[C@H](O)C2
REMARK SMILES IDX 21 1 19 2 10 3 9 4 7 5 8 6 2 7 3 8 4 9 6 10 20 11 11 13
REMARK SMILES IDX 18 14 12 15 16 16 13 17 14 18 17 19 15 21 5 23 1 25
REMARK H PARENT 20 12 17 20 15 22 5 24 1 26
REMARK Flexibility Score: inf
ROOT
ATOM      1  C   UNL     1      12.181 -12.879  -5.709  1.00  0.00     0.079 C 
ATOM      2  C   UNL     1      12.815 -11.475  -5.729  1.00  0.00     0.164 C 
ATOM      3  C   UNL     1      13.530 -11.206  -4.394  1.00  0.00     0.232 C 
ATOM      4  O   UNL     1      14.500 -12.224  -4.150  1.00  0.00    -0.482 OA
ATOM      5  C   UNL     1      14.269 -13.567  -4.463  1.00  0.00     0.131 A 
ATOM      6  C   UNL     1      15.180 -14.532  -4.026  1.00  0.00     0.093 A 
ATOM      7  C   UNL     1      14.965 -15.885  -4.311  1.00  0.00     0.122 A 
ATOM      8  C   UNL     1      13.830 -16.271  -5.026  1.00  0.00     0.092 A 
ATOM      9  C   UNL     1      12.906 -15.319  -5.471  1.00  0.00     0.126 A 
ATOM     10  C   UNL     1      13.142 -13.945  -5.224  1.00  0.00     0.039 A 
ENDROOT
BRANCH   2  11
ATOM     11  O   UNL     1      11.821 -10.507  -5.939  1.00  0.00    -0.389 OA
ATOM     12  H   UNL     1      11.882  -9.865  -5.185  1.00  0.00     0.211 HD
ENDBRANCH   2  11
BRANCH   3  13
ATOM     13  C   UNL     1      14.203  -9.853  -4.398  1.00  0.00    -0.001 A 
ATOM     14  C   UNL     1      13.452  -8.689  -4.627  1.00  0.00     0.057 A 
ATOM     15  C   UNL     1      15.591  -9.747  -4.224  1.00  0.00     0.012 A 
ATOM     16  C   UNL     1      14.067  -7.431  -4.661  1.00  0.00     0.157 A 
ATOM     17  C   UNL     1      16.212  -8.497  -4.255  1.00  0.00     0.050 A 
ATOM     18  C   UNL     1      15.466  -7.334  -4.470  1.00  0.00     0.157 A 
BRANCH  16  19
ATOM     19  O   UNL     1      13.257  -6.316  -4.890  1.00  0.00    -0.504 OA
ATOM     20  H   UNL     1      12.624  -5.929  -4.206  1.00  0.00     0.293 HD
ENDBRANCH  16  19
BRANCH  18  21
ATOM     21  O   UNL     1      16.148  -6.115  -4.488  1.00  0.00    -0.504 OA
ATOM     22  H   UNL     1      17.062  -5.974  -4.080  1.00  0.00     0.293 HD
ENDBRANCH  18  21
ENDBRANCH   3  13
BRANCH   9  23
ATOM     23  O   UNL     1      11.768 -15.771  -6.143  1.00  0.00    -0.507 OA
ATOM     24  H   UNL     1      11.267 -15.216  -6.824  1.00  0.00     0.293 HD
ENDBRANCH   9  23
BRANCH   7  25
ATOM     25  O   UNL     1      15.870 -16.853  -3.880  1.00  0.00    -0.508 OA
ATOM     26  H   UNL     1      16.852 -16.639  -3.751  1.00  0.00     0.293 HD
ENDBRANCH   7  25
TORSDOF 6
ENDMDL
