MODEL 1
REMARK VINA RESULT:    -3.966      0.000      0.000
REMARK INTER + INTRA:          -5.819
REMARK INTER:                  -5.357
REMARK INTRA:                  -0.463
REMARK UNBOUND:                -0.463
REMARK SMILES CCCCCCCC(=O)[O-]
REMARK SMILES IDX 5 1 6 2 7 3 8 4 9 5 10 6 4 7 3 8 2 9 1 10
REMARK H PARENT
REMARK Flexibility Score: inf
ROOT
ATOM      1  C   UNL     1      -1.588  44.258  21.353  1.00  0.00     0.000 C 
ENDROOT
BRANCH   1   2
ATOM      2  C   UNL     1      -2.669  44.153  22.439  1.00  0.00     0.006 C 
BRANCH   2   3
ATOM      3  C   UNL     1      -2.594  45.308  23.448  1.00  0.00     0.053 C 
BRANCH   3   4
ATOM      4  C   UNL     1      -3.857  46.111  23.467  1.00  0.00     0.041 C 
ATOM      5  O   UNL     1      -3.860  47.280  23.934  1.00  0.00    -0.550 OA
ATOM      6  O   UNL     1      -5.041  45.555  22.999  1.00  0.00    -0.550 OA
ENDBRANCH   3   4
ENDBRANCH   2   3
ENDBRANCH   1   2
BRANCH   1   7
ATOM      7  C   UNL     1      -2.211  44.190  19.951  1.00  0.00     0.000 C 
BRANCH   7   8
ATOM      8  C   UNL     1      -3.431  45.114  19.801  1.00  0.00    -0.000 C 
BRANCH   8   9
ATOM      9  C   UNL     1      -4.625  44.413  19.135  1.00  0.00    -0.003 C 
ATOM     10  C   UNL     1      -5.370  43.531  20.133  1.00  0.00     0.004 C 
ENDBRANCH   8   9
ENDBRANCH   7   8
ENDBRANCH   1   7
TORSDOF 6
ENDMDL
MODEL 2
REMARK VINA RESULT:    -3.965      2.091      4.077
REMARK INTER + INTRA:          -5.818
REMARK INTER:                  -5.407
REMARK INTRA:                  -0.412
REMARK UNBOUND:                -0.463
REMARK SMILES CCCCCCCC(=O)[O-]
REMARK SMILES IDX 5 1 6 2 7 3 8 4 9 5 10 6 4 7 3 8 2 9 1 10
REMARK H PARENT
REMARK Flexibility Score: inf
ROOT
ATOM      1  C   UNL     1      -1.516  44.200  21.451  1.00  0.00     0.000 C 
ENDROOT
BRANCH   1   2
ATOM      2  C   UNL     1      -2.137  44.278  20.048  1.00  0.00     0.006 C 
BRANCH   2   3
ATOM      3  C   UNL     1      -3.413  45.131  20.024  1.00  0.00     0.053 C 
BRANCH   3   4
ATOM      4  C   UNL     1      -4.547  44.413  19.360  1.00  0.00     0.041 C 
ATOM      5  O   UNL     1      -4.647  44.407  18.105  1.00  0.00    -0.550 OA
ATOM      6  O   UNL     1      -5.513  43.778  20.130  1.00  0.00    -0.550 OA
ENDBRANCH   3   4
ENDBRANCH   2   3
ENDBRANCH   1   2
BRANCH   1   7
ATOM      7  C   UNL     1      -2.607  44.135  22.530  1.00  0.00     0.000 C 
BRANCH   7   8
ATOM      8  C   UNL     1      -2.436  45.217  23.609  1.00  0.00    -0.000 C 
BRANCH   8   9
ATOM      9  C   UNL     1      -3.771  45.860  24.018  1.00  0.00    -0.003 C 
ATOM     10  C   UNL     1      -4.045  47.121  23.203  1.00  0.00     0.004 C 
ENDBRANCH   8   9
ENDBRANCH   7   8
ENDBRANCH   1   7
TORSDOF 6
ENDMDL
MODEL 3
REMARK VINA RESULT:    -3.881      1.634      1.742
REMARK INTER + INTRA:          -5.704
REMARK INTER:                  -5.406
REMARK INTRA:                  -0.298
REMARK UNBOUND:                -0.463
REMARK SMILES CCCCCCCC(=O)[O-]
REMARK SMILES IDX 5 1 6 2 7 3 8 4 9 5 10 6 4 7 3 8 2 9 1 10
REMARK H PARENT
REMARK Flexibility Score: inf
ROOT
ATOM      1  C   UNL     1      -1.967  44.411  21.645  1.00  0.00     0.000 C 
ENDROOT
BRANCH   1   2
ATOM      2  C   UNL     1      -1.773  44.635  23.152  1.00  0.00     0.006 C 
BRANCH   2   3
ATOM      3  C   UNL     1      -2.954  45.381  23.786  1.00  0.00     0.053 C 
BRANCH   3   4
ATOM      4  C   UNL     1      -3.600  44.577  24.872  1.00  0.00     0.041 C 
ATOM      5  O   UNL     1      -2.898  43.869  25.640  1.00  0.00    -0.550 OA
ATOM      6  O   UNL     1      -4.982  44.584  25.014  1.00  0.00    -0.550 OA
ENDBRANCH   3   4
ENDBRANCH   2   3
ENDBRANCH   1   2
BRANCH   1   7
ATOM      7  C   UNL     1      -3.279  45.046  21.161  1.00  0.00     0.000 C 
BRANCH   7   8
ATOM      8  C   UNL     1      -3.422  45.017  19.630  1.00  0.00    -0.000 C 
BRANCH   8   9
ATOM      9  C   UNL     1      -4.703  44.305  19.170  1.00  0.00    -0.003 C 
ATOM     10  C   UNL     1      -5.387  43.597  20.336  1.00  0.00     0.004 C 
ENDBRANCH   8   9
ENDBRANCH   7   8
ENDBRANCH   1   7
TORSDOF 6
ENDMDL
MODEL 4
REMARK VINA RESULT:    -3.873      2.754      3.654
REMARK INTER + INTRA:          -5.694
REMARK INTER:                  -5.252
REMARK INTRA:                  -0.442
REMARK UNBOUND:                -0.463
REMARK SMILES CCCCCCCC(=O)[O-]
REMARK SMILES IDX 5 1 6 2 7 3 8 4 9 5 10 6 4 7 3 8 2 9 1 10
REMARK H PARENT
REMARK Flexibility Score: inf
ROOT
ATOM      1  C   UNL     1      -1.704  44.218  22.276  1.00  0.00     0.000 C 
ENDROOT
BRANCH   1   2
ATOM      2  C   UNL     1      -1.363  44.634  23.714  1.00  0.00     0.006 C 
BRANCH   2   3
ATOM      3  C   UNL     1      -0.971  43.435  24.589  1.00  0.00     0.053 C 
BRANCH   3   4
ATOM      4  C   UNL     1      -1.975  43.188  25.672  1.00  0.00     0.041 C 
ATOM      5  O   UNL     1      -2.987  43.928  25.782  1.00  0.00    -0.550 OA
ATOM      6  O   UNL     1      -1.775  42.158  26.584  1.00  0.00    -0.550 OA
ENDBRANCH   3   4
ENDBRANCH   2   3
ENDBRANCH   1   2
BRANCH   1   7
ATOM      7  C   UNL     1      -2.906  45.014  21.746  1.00  0.00     0.000 C 
BRANCH   7   8
ATOM      8  C   UNL     1      -4.226  44.616  22.426  1.00  0.00    -0.000 C 
BRANCH   8   9
ATOM      9  C   UNL     1      -4.778  45.721  23.339  1.00  0.00    -0.003 C 
ATOM     10  C   UNL     1      -4.081  47.052  23.072  1.00  0.00     0.004 C 
ENDBRANCH   8   9
ENDBRANCH   7   8
ENDBRANCH   1   7
TORSDOF 6
ENDMDL
MODEL 5
REMARK VINA RESULT:    -3.798      1.914      1.968
REMARK INTER + INTRA:          -5.593
REMARK INTER:                  -5.146
REMARK INTRA:                  -0.447
REMARK UNBOUND:                -0.463
REMARK SMILES CCCCCCCC(=O)[O-]
REMARK SMILES IDX 5 1 6 2 7 3 8 4 9 5 10 6 4 7 3 8 2 9 1 10
REMARK H PARENT
REMARK Flexibility Score: inf
ROOT
ATOM      1  C   UNL     1      -1.894  44.184  21.999  1.00  0.00     0.000 C 
ENDROOT
BRANCH   1   2
ATOM      2  C   UNL     1      -2.854  45.042  22.836  1.00  0.00     0.006 C 
BRANCH   2   3
ATOM      3  C   UNL     1      -3.799  44.190  23.694  1.00  0.00     0.053 C 
BRANCH   3   4
ATOM      4  C   UNL     1      -3.457  44.278  25.149  1.00  0.00     0.041 C 
ATOM      5  O   UNL     1      -4.159  44.977  25.925  1.00  0.00    -0.550 OA
ATOM      6  O   UNL     1      -2.342  43.612  25.642  1.00  0.00    -0.550 OA
ENDBRANCH   3   4
ENDBRANCH   2   3
ENDBRANCH   1   2
BRANCH   1   7
ATOM      7  C   UNL     1      -2.174  44.352  20.498  1.00  0.00     0.000 C 
BRANCH   7   8
ATOM      8  C   UNL     1      -3.468  45.136  20.222  1.00  0.00    -0.000 C 
BRANCH   8   9
ATOM      9  C   UNL     1      -4.507  44.310  19.449  1.00  0.00    -0.003 C 
ATOM     10  C   UNL     1      -5.464  43.600  20.402  1.00  0.00     0.004 C 
ENDBRANCH   8   9
ENDBRANCH   7   8
ENDBRANCH   1   7
TORSDOF 6
ENDMDL
MODEL 6
REMARK VINA RESULT:    -3.749      1.789      3.610
REMARK INTER + INTRA:          -5.527
REMARK INTER:                  -5.070
REMARK INTRA:                  -0.457
REMARK UNBOUND:                -0.463
REMARK SMILES CCCCCCCC(=O)[O-]
REMARK SMILES IDX 5 1 6 2 7 3 8 4 9 5 10 6 4 7 3 8 2 9 1 10
REMARK H PARENT
REMARK Flexibility Score: inf
ROOT
ATOM      1  C   UNL     1      -1.689  44.273  21.445  1.00  0.00     0.000 C 
ENDROOT
BRANCH   1   2
ATOM      2  C   UNL     1      -3.111  44.125  22.007  1.00  0.00     0.006 C 
BRANCH   2   3
ATOM      3  C   UNL     1      -3.945  45.399  21.820  1.00  0.00     0.053 C 
BRANCH   3   4
ATOM      4  C   UNL     1      -4.200  46.091  23.124  1.00  0.00     0.041 C 
ATOM      5  O   UNL     1      -4.043  47.336  23.224  1.00  0.00    -0.550 OA
ATOM      6  O   UNL     1      -4.579  45.354  24.239  1.00  0.00    -0.550 OA
ENDBRANCH   3   4
ENDBRANCH   2   3
ENDBRANCH   1   2
BRANCH   1   7
ATOM      7  C   UNL     1      -0.644  43.813  22.472  1.00  0.00     0.000 C 
BRANCH   7   8
ATOM      8  C   UNL     1      -0.939  44.329  23.890  1.00  0.00    -0.000 C 
BRANCH   8   9
ATOM      9  C   UNL     1      -0.887  43.216  24.948  1.00  0.00    -0.003 C 
ATOM     10  C   UNL     1      -2.208  43.115  25.704  1.00  0.00     0.004 C 
ENDBRANCH   8   9
ENDBRANCH   7   8
ENDBRANCH   1   7
TORSDOF 6
ENDMDL
MODEL 7
REMARK VINA RESULT:    -3.738      1.560      2.162
REMARK INTER + INTRA:          -5.512
REMARK INTER:                  -5.285
REMARK INTRA:                  -0.226
REMARK UNBOUND:                -0.463
REMARK SMILES CCCCCCCC(=O)[O-]
REMARK SMILES IDX 5 1 6 2 7 3 8 4 9 5 10 6 4 7 3 8 2 9 1 10
REMARK H PARENT
REMARK Flexibility Score: inf
ROOT
ATOM      1  C   UNL     1      -2.505  44.564  20.100  1.00  0.00     0.000 C 
ENDROOT
BRANCH   1   2
ATOM      2  C   UNL     1      -2.715  44.529  21.621  1.00  0.00     0.006 C 
BRANCH   2   3
ATOM      3  C   UNL     1      -3.696  45.609  22.097  1.00  0.00     0.053 C 
BRANCH   3   4
ATOM      4  C   UNL     1      -3.532  45.902  23.556  1.00  0.00     0.041 C 
ATOM      5  O   UNL     1      -3.234  44.980  24.360  1.00  0.00    -0.550 OA
ATOM      6  O   UNL     1      -3.742  47.190  24.035  1.00  0.00    -0.550 OA
ENDBRANCH   3   4
ENDBRANCH   2   3
ENDBRANCH   1   2
BRANCH   1   7
ATOM      7  C   UNL     1      -3.651  45.315  19.406  1.00  0.00     0.000 C 
BRANCH   7   8
ATOM      8  C   UNL     1      -4.454  44.418  18.450  1.00  0.00    -0.000 C 
BRANCH   8   9
ATOM      9  C   UNL     1      -3.576  43.769  17.369  1.00  0.00    -0.003 C 
ATOM     10  C   UNL     1      -4.381  43.484  16.105  1.00  0.00     0.004 C 
ENDBRANCH   8   9
ENDBRANCH   7   8
ENDBRANCH   1   7
TORSDOF 6
ENDMDL
MODEL 8
REMARK VINA RESULT:    -3.724      2.152      3.934
REMARK INTER + INTRA:          -5.493
REMARK INTER:                  -5.023
REMARK INTRA:                  -0.471
REMARK UNBOUND:                -0.463
REMARK SMILES CCCCCCCC(=O)[O-]
REMARK SMILES IDX 5 1 6 2 7 3 8 4 9 5 10 6 4 7 3 8 2 9 1 10
REMARK H PARENT
REMARK Flexibility Score: inf
ROOT
ATOM      1  C   UNL     1      -3.061  44.683  21.780  1.00  0.00     0.000 C 
ENDROOT
BRANCH   1   2
ATOM      2  C   UNL     1      -3.565  45.828  22.671  1.00  0.00     0.006 C 
BRANCH   2   3
ATOM      3  C   UNL     1      -4.895  45.489  23.357  1.00  0.00     0.053 C 
BRANCH   3   4
ATOM      4  C   UNL     1      -4.691  44.646  24.577  1.00  0.00     0.041 C 
ATOM      5  O   UNL     1      -4.895  43.404  24.533  1.00  0.00    -0.550 OA
ATOM      6  O   UNL     1      -4.308  45.237  25.775  1.00  0.00    -0.550 OA
ENDBRANCH   3   4
ENDBRANCH   2   3
ENDBRANCH   1   2
BRANCH   1   7
ATOM      7  C   UNL     1      -1.631  44.278  22.164  1.00  0.00     0.000 C 
BRANCH   7   8
ATOM      8  C   UNL     1      -1.293  44.613  23.627  1.00  0.00    -0.000 C 
BRANCH   8   9
ATOM      9  C   UNL     1      -0.572  43.463  24.346  1.00  0.00    -0.003 C 
ATOM     10  C   UNL     1      -1.396  42.949  25.523  1.00  0.00     0.004 C 
ENDBRANCH   8   9
ENDBRANCH   7   8
ENDBRANCH   1   7
TORSDOF 6
ENDMDL
MODEL 9
REMARK VINA RESULT:    -3.708      3.364      5.166
REMARK INTER + INTRA:          -5.471
REMARK INTER:                  -5.243
REMARK INTRA:                  -0.228
REMARK UNBOUND:                -0.463
REMARK SMILES CCCCCCCC(=O)[O-]
REMARK SMILES IDX 5 1 6 2 7 3 8 4 9 5 10 6 4 7 3 8 2 9 1 10
REMARK H PARENT
REMARK Flexibility Score: inf
ROOT
ATOM      1  C   UNL     1      -3.609  44.823  20.932  1.00  0.00     0.000 C 
ENDROOT
BRANCH   1   2
ATOM      2  C   UNL     1      -3.290  45.091  19.453  1.00  0.00     0.006 C 
BRANCH   2   3
ATOM      3  C   UNL     1      -4.393  44.576  18.518  1.00  0.00     0.053 C 
BRANCH   3   4
ATOM      4  C   UNL     1      -3.824  43.922  17.297  1.00  0.00     0.041 C 
ATOM      5  O   UNL     1      -4.528  43.788  16.262  1.00  0.00    -0.550 OA
ATOM      6  O   UNL     1      -2.525  43.431  17.313  1.00  0.00    -0.550 OA
ENDBRANCH   3   4
ENDBRANCH   2   3
ENDBRANCH   1   2
BRANCH   1   7
ATOM      7  C   UNL     1      -2.319  44.639  21.745  1.00  0.00     0.000 C 
BRANCH   7   8
ATOM      8  C   UNL     1      -2.498  45.003  23.229  1.00  0.00    -0.000 C 
BRANCH   8   9
ATOM      9  C   UNL     1      -3.872  45.622  23.524  1.00  0.00    -0.003 C 
ATOM     10  C   UNL     1      -3.748  47.109  23.842  1.00  0.00     0.004 C 
ENDBRANCH   8   9
ENDBRANCH   7   8
ENDBRANCH   1   7
TORSDOF 6
ENDMDL
