MODEL 1
REMARK VINA RESULT:    -4.381      0.000      0.000
REMARK INTER + INTRA:          -7.159
REMARK INTER:                  -6.686
REMARK INTRA:                  -0.473
REMARK UNBOUND:                -0.473
REMARK SMILES CCCCCCCCCCC(=O)[O-]
REMARK SMILES IDX 7 1 8 2 9 3 10 4 11 5 12 6 13 7 6 8 5 9 4 10 3 11 2 12 1 13
REMARK H PARENT
REMARK Flexibility Score: inf
ROOT
ATOM      1  C   UNL     1      -5.776  -4.845   1.261  1.00  0.00     0.000 C 
ENDROOT
BRANCH   1   2
ATOM      2  C   UNL     1      -6.719  -3.902   0.500  1.00  0.00     0.000 C 
BRANCH   2   3
ATOM      3  C   UNL     1      -7.709  -4.699  -0.365  1.00  0.00     0.006 C 
BRANCH   3   4
ATOM      4  C   UNL     1      -8.866  -3.829  -0.874  1.00  0.00     0.053 C 
BRANCH   4   5
ATOM      5  C   UNL     1     -10.198  -4.441  -0.568  1.00  0.00     0.041 C 
ATOM      6  O   UNL     1     -11.085  -4.510  -1.458  1.00  0.00    -0.550 OA
ATOM      7  O   UNL     1     -10.470  -4.907   0.713  1.00  0.00    -0.550 OA
ENDBRANCH   4   5
ENDBRANCH   3   4
ENDBRANCH   2   3
ENDBRANCH   1   2
BRANCH   1   8
ATOM      8  C   UNL     1      -4.415  -4.200   1.569  1.00  0.00     0.000 C 
BRANCH   8   9
ATOM      9  C   UNL     1      -4.480  -2.666   1.598  1.00  0.00    -0.000 C 
BRANCH   9  10
ATOM     10  C   UNL     1      -3.074  -2.055   1.532  1.00  0.00    -0.000 C 
BRANCH  10  11
ATOM     11  C   UNL     1      -1.996  -3.143   1.641  1.00  0.00    -0.000 C 
BRANCH  11  12
ATOM     12  C   UNL     1      -0.706  -2.773   0.893  1.00  0.00    -0.003 C 
ATOM     13  C   UNL     1      -0.946  -2.484  -0.590  1.00  0.00     0.004 C 
ENDBRANCH  11  12
ENDBRANCH  10  11
ENDBRANCH   9  10
ENDBRANCH   8   9
ENDBRANCH   1   8
TORSDOF 9
ENDMDL
MODEL 2
REMARK VINA RESULT:    -4.331      0.767      1.164
REMARK INTER + INTRA:          -7.082
REMARK INTER:                  -6.653
REMARK INTRA:                  -0.429
REMARK UNBOUND:                -0.473
REMARK SMILES CCCCCCCCCCC(=O)[O-]
REMARK SMILES IDX 7 1 8 2 9 3 10 4 11 5 12 6 13 7 6 8 5 9 4 10 3 11 2 12 1 13
REMARK H PARENT
REMARK Flexibility Score: inf
ROOT
ATOM      1  C   UNL     1      -5.596  -5.041   0.696  1.00  0.00     0.000 C 
ENDROOT
BRANCH   1   2
ATOM      2  C   UNL     1      -7.098  -4.727   0.733  1.00  0.00     0.000 C 
BRANCH   2   3
ATOM      3  C   UNL     1      -7.684  -4.687  -0.687  1.00  0.00     0.006 C 
BRANCH   3   4
ATOM      4  C   UNL     1      -8.788  -3.631  -0.829  1.00  0.00     0.053 C 
BRANCH   4   5
ATOM      5  C   UNL     1     -10.154  -4.240  -0.749  1.00  0.00     0.041 C 
ATOM      6  O   UNL     1     -10.775  -4.266   0.347  1.00  0.00    -0.550 OA
ATOM      7  O   UNL     1     -10.728  -4.811  -1.878  1.00  0.00    -0.550 OA
ENDBRANCH   4   5
ENDBRANCH   3   4
ENDBRANCH   2   3
ENDBRANCH   1   2
BRANCH   1   8
ATOM      8  C   UNL     1      -4.799  -4.256   1.751  1.00  0.00     0.000 C 
BRANCH   8   9
ATOM      9  C   UNL     1      -4.843  -2.739   1.516  1.00  0.00    -0.000 C 
BRANCH   9  10
ATOM     10  C   UNL     1      -3.517  -2.082   1.920  1.00  0.00    -0.000 C 
BRANCH  10  11
ATOM     11  C   UNL     1      -2.428  -2.350   0.871  1.00  0.00    -0.000 C 
BRANCH  11  12
ATOM     12  C   UNL     1      -1.221  -3.101   1.451  1.00  0.00    -0.003 C 
ATOM     13  C   UNL     1       0.105  -2.666   0.824  1.00  0.00     0.004 C 
ENDBRANCH  11  12
ENDBRANCH  10  11
ENDBRANCH   9  10
ENDBRANCH   8   9
ENDBRANCH   1   8
TORSDOF 9
ENDMDL
MODEL 3
REMARK VINA RESULT:    -4.008      3.762      5.784
REMARK INTER + INTRA:          -6.589
REMARK INTER:                  -5.496
REMARK INTRA:                  -1.094
REMARK UNBOUND:                -0.473
REMARK SMILES CCCCCCCCCCC(=O)[O-]
REMARK SMILES IDX 7 1 8 2 9 3 10 4 11 5 12 6 13 7 6 8 5 9 4 10 3 11 2 12 1 13
REMARK H PARENT
REMARK Flexibility Score: inf
ROOT
ATOM      1  C   UNL     1       0.389  -2.973   1.012  1.00  0.00     0.000 C 
ENDROOT
BRANCH   1   2
ATOM      2  C   UNL     1      -0.823  -2.551   0.170  1.00  0.00     0.000 C 
BRANCH   2   3
ATOM      3  C   UNL     1      -1.962  -2.041   1.067  1.00  0.00     0.006 C 
BRANCH   3   4
ATOM      4  C   UNL     1      -3.064  -3.091   1.261  1.00  0.00     0.053 C 
BRANCH   4   5
ATOM      5  C   UNL     1      -4.357  -2.466   1.686  1.00  0.00     0.041 C 
ATOM      6  O   UNL     1      -4.360  -1.498   2.492  1.00  0.00    -0.550 OA
ATOM      7  O   UNL     1      -5.562  -2.976   1.218  1.00  0.00    -0.550 OA
ENDBRANCH   4   5
ENDBRANCH   3   4
ENDBRANCH   2   3
ENDBRANCH   1   2
BRANCH   1   8
ATOM      8  C   UNL     1       0.310  -4.438   1.475  1.00  0.00     0.000 C 
BRANCH   8   9
ATOM      9  C   UNL     1       1.225  -5.365   0.662  1.00  0.00    -0.000 C 
BRANCH   9  10
ATOM     10  C   UNL     1       0.405  -6.259  -0.277  1.00  0.00    -0.000 C 
BRANCH  10  11
ATOM     11  C   UNL     1      -1.082  -6.241   0.104  1.00  0.00    -0.000 C 
BRANCH  11  12
ATOM     12  C   UNL     1      -1.993  -5.913  -1.089  1.00  0.00    -0.003 C 
ATOM     13  C   UNL     1      -1.247  -5.222  -2.231  1.00  0.00     0.004 C 
ENDBRANCH  11  12
ENDBRANCH  10  11
ENDBRANCH   9  10
ENDBRANCH   8   9
ENDBRANCH   1   8
TORSDOF 9
ENDMDL
MODEL 4
REMARK VINA RESULT:    -3.997      1.440      2.574
REMARK INTER + INTRA:          -6.573
REMARK INTER:                  -5.863
REMARK INTRA:                  -0.710
REMARK UNBOUND:                -0.473
REMARK SMILES CCCCCCCCCCC(=O)[O-]
REMARK SMILES IDX 7 1 8 2 9 3 10 4 11 5 12 6 13 7 6 8 5 9 4 10 3 11 2 12 1 13
REMARK H PARENT
REMARK Flexibility Score: inf
ROOT
ATOM      1  C   UNL     1      -4.538  -2.854   1.589  1.00  0.00     0.000 C 
ENDROOT
BRANCH   1   2
ATOM      2  C   UNL     1      -4.368  -4.379   1.663  1.00  0.00     0.000 C 
BRANCH   2   3
ATOM      3  C   UNL     1      -5.507  -5.094   0.920  1.00  0.00     0.006 C 
BRANCH   3   4
ATOM      4  C   UNL     1      -6.695  -4.162   0.643  1.00  0.00     0.053 C 
BRANCH   4   5
ATOM      5  C   UNL     1      -7.803  -4.872  -0.072  1.00  0.00     0.041 C 
ATOM      6  O   UNL     1      -7.665  -5.216  -1.275  1.00  0.00    -0.550 OA
ATOM      7  O   UNL     1      -9.002  -5.125   0.583  1.00  0.00    -0.550 OA
ENDBRANCH   4   5
ENDBRANCH   3   4
ENDBRANCH   2   3
ENDBRANCH   1   2
BRANCH   1   8
ATOM      8  C   UNL     1      -3.195  -2.106   1.597  1.00  0.00     0.000 C 
BRANCH   8   9
ATOM      9  C   UNL     1      -1.989  -3.057   1.606  1.00  0.00    -0.000 C 
BRANCH   9  10
ATOM     10  C   UNL     1      -0.823  -2.473   0.798  1.00  0.00    -0.000 C 
BRANCH  10  11
ATOM     11  C   UNL     1      -0.943  -2.843  -0.688  1.00  0.00    -0.000 C 
BRANCH  11  12
ATOM     12  C   UNL     1      -1.324  -4.316  -0.901  1.00  0.00    -0.003 C 
ATOM     13  C   UNL     1      -0.154  -5.271  -0.658  1.00  0.00     0.004 C 
ENDBRANCH  11  12
ENDBRANCH  10  11
ENDBRANCH   9  10
ENDBRANCH   8   9
ENDBRANCH   1   8
TORSDOF 9
ENDMDL
MODEL 5
REMARK VINA RESULT:    -3.970      4.360      6.756
REMARK INTER + INTRA:          -6.531
REMARK INTER:                  -6.104
REMARK INTRA:                  -0.427
REMARK UNBOUND:                -0.473
REMARK SMILES CCCCCCCCCCC(=O)[O-]
REMARK SMILES IDX 7 1 8 2 9 3 10 4 11 5 12 6 13 7 6 8 5 9 4 10 3 11 2 12 1 13
REMARK H PARENT
REMARK Flexibility Score: inf
ROOT
ATOM      1  C   UNL     1      -0.026  -3.899   1.602  1.00  0.00     0.000 C 
ENDROOT
BRANCH   1   2
ATOM      2  C   UNL     1      -0.184  -2.670   0.695  1.00  0.00     0.000 C 
BRANCH   2   3
ATOM      3  C   UNL     1      -1.637  -2.172   0.694  1.00  0.00     0.006 C 
BRANCH   3   4
ATOM      4  C   UNL     1      -2.560  -3.073   1.526  1.00  0.00     0.053 C 
BRANCH   4   5
ATOM      5  C   UNL     1      -3.899  -2.441   1.749  1.00  0.00     0.041 C 
ATOM      6  O   UNL     1      -3.990  -1.346   2.365  1.00  0.00    -0.550 OA
ATOM      7  O   UNL     1      -5.051  -3.079   1.306  1.00  0.00    -0.550 OA
ENDBRANCH   4   5
ENDBRANCH   3   4
ENDBRANCH   2   3
ENDBRANCH   1   2
BRANCH   1   8
ATOM      8  C   UNL     1       1.137  -4.808   1.173  1.00  0.00     0.000 C 
BRANCH   8   9
ATOM      9  C   UNL     1       2.329  -4.739   2.139  1.00  0.00    -0.000 C 
BRANCH   9  10
ATOM     10  C   UNL     1       3.197  -3.507   1.854  1.00  0.00    -0.000 C 
BRANCH  10  11
ATOM     11  C   UNL     1       4.373  -3.422   2.838  1.00  0.00    -0.000 C 
BRANCH  11  12
ATOM     12  C   UNL     1       4.063  -4.089   4.187  1.00  0.00    -0.003 C 
ATOM     13  C   UNL     1       4.536  -3.256   5.380  1.00  0.00     0.004 C 
ENDBRANCH  11  12
ENDBRANCH  10  11
ENDBRANCH   9  10
ENDBRANCH   8   9
ENDBRANCH   1   8
TORSDOF 9
ENDMDL
MODEL 6
REMARK VINA RESULT:    -3.888      4.016      7.058
REMARK INTER + INTRA:          -6.407
REMARK INTER:                  -5.906
REMARK INTRA:                  -0.500
REMARK UNBOUND:                -0.473
REMARK SMILES CCCCCCCCCCC(=O)[O-]
REMARK SMILES IDX 7 1 8 2 9 3 10 4 11 5 12 6 13 7 6 8 5 9 4 10 3 11 2 12 1 13
REMARK H PARENT
REMARK Flexibility Score: inf
ROOT
ATOM      1  C   UNL     1      -4.054  -2.119   1.782  1.00  0.00     0.000 C 
ENDROOT
BRANCH   1   2
ATOM      2  C   UNL     1      -2.714  -2.851   1.617  1.00  0.00     0.000 C 
BRANCH   2   3
ATOM      3  C   UNL     1      -1.769  -2.064   0.696  1.00  0.00     0.006 C 
BRANCH   3   4
ATOM      4  C   UNL     1      -0.410  -2.756   0.529  1.00  0.00     0.053 C 
BRANCH   4   5
ATOM      5  C   UNL     1      -0.549  -4.104  -0.109  1.00  0.00     0.041 C 
ATOM      6  O   UNL     1      -1.066  -4.215  -1.252  1.00  0.00    -0.550 OA
ATOM      7  O   UNL     1      -0.136  -5.242   0.573  1.00  0.00    -0.550 OA
ENDBRANCH   4   5
ENDBRANCH   3   4
ENDBRANCH   2   3
ENDBRANCH   1   2
BRANCH   1   8
ATOM      8  C   UNL     1      -5.263  -3.019   1.478  1.00  0.00     0.000 C 
BRANCH   8   9
ATOM      9  C   UNL     1      -4.903  -4.512   1.476  1.00  0.00    -0.000 C 
BRANCH   9  10
ATOM     10  C   UNL     1      -5.911  -5.319   0.648  1.00  0.00    -0.000 C 
BRANCH  10  11
ATOM     11  C   UNL     1      -7.102  -4.446   0.226  1.00  0.00    -0.000 C 
BRANCH  11  12
ATOM     12  C   UNL     1      -8.455  -5.116   0.510  1.00  0.00    -0.003 C 
ATOM     13  C   UNL     1      -9.591  -4.533  -0.332  1.00  0.00     0.004 C 
ENDBRANCH  11  12
ENDBRANCH  10  11
ENDBRANCH   9  10
ENDBRANCH   8   9
ENDBRANCH   1   8
TORSDOF 9
ENDMDL
MODEL 7
REMARK VINA RESULT:    -3.863      3.418      7.082
REMARK INTER + INTRA:          -6.367
REMARK INTER:                  -5.731
REMARK INTRA:                  -0.636
REMARK UNBOUND:                -0.473
REMARK SMILES CCCCCCCCCCC(=O)[O-]
REMARK SMILES IDX 7 1 8 2 9 3 10 4 11 5 12 6 13 7 6 8 5 9 4 10 3 11 2 12 1 13
REMARK H PARENT
REMARK Flexibility Score: inf
ROOT
ATOM      1  C   UNL     1      -6.943  -4.802   0.377  1.00  0.00     0.000 C 
ENDROOT
BRANCH   1   2
ATOM      2  C   UNL     1      -5.561  -5.183   0.927  1.00  0.00     0.000 C 
BRANCH   2   3
ATOM      3  C   UNL     1      -4.953  -4.023   1.732  1.00  0.00     0.006 C 
BRANCH   3   4
ATOM      4  C   UNL     1      -3.469  -3.807   1.408  1.00  0.00     0.053 C 
BRANCH   4   5
ATOM      5  C   UNL     1      -3.097  -2.357   1.452  1.00  0.00     0.041 C 
ATOM      6  O   UNL     1      -3.861  -1.522   2.005  1.00  0.00    -0.550 OA
ATOM      7  O   UNL     1      -1.921  -1.922   0.853  1.00  0.00    -0.550 OA
ENDBRANCH   4   5
ENDBRANCH   3   4
ENDBRANCH   2   3
ENDBRANCH   1   2
BRANCH   1   8
ATOM      8  C   UNL     1      -7.202  -5.378  -1.025  1.00  0.00     0.000 C 
BRANCH   8   9
ATOM      9  C   UNL     1      -8.204  -4.539  -1.832  1.00  0.00    -0.000 C 
BRANCH   9  10
ATOM     10  C   UNL     1      -9.101  -3.711  -0.904  1.00  0.00    -0.000 C 
BRANCH  10  11
ATOM     11  C   UNL     1     -10.534  -4.264  -0.885  1.00  0.00    -0.000 C 
BRANCH  11  12
ATOM     12  C   UNL     1     -11.010  -4.621   0.531  1.00  0.00    -0.003 C 
ATOM     13  C   UNL     1     -10.485  -5.977   1.007  1.00  0.00     0.004 C 
ENDBRANCH  11  12
ENDBRANCH  10  11
ENDBRANCH   9  10
ENDBRANCH   8   9
ENDBRANCH   1   8
TORSDOF 9
ENDMDL
MODEL 8
REMARK VINA RESULT:    -3.802      3.851      5.619
REMARK INTER + INTRA:          -6.276
REMARK INTER:                  -5.267
REMARK INTRA:                  -1.008
REMARK UNBOUND:                -0.473
REMARK SMILES CCCCCCCCCCC(=O)[O-]
REMARK SMILES IDX 7 1 8 2 9 3 10 4 11 5 12 6 13 7 6 8 5 9 4 10 3 11 2 12 1 13
REMARK H PARENT
REMARK Flexibility Score: inf
ROOT
ATOM      1  C   UNL     1      -1.040  -3.100  -1.106  1.00  0.00     0.000 C 
ENDROOT
BRANCH   1   2
ATOM      2  C   UNL     1      -0.696  -2.590   0.301  1.00  0.00     0.000 C 
BRANCH   2   3
ATOM      3  C   UNL     1      -1.967  -2.177   1.060  1.00  0.00     0.006 C 
BRANCH   3   4
ATOM      4  C   UNL     1      -2.591  -3.350   1.828  1.00  0.00     0.053 C 
BRANCH   4   5
ATOM      5  C   UNL     1      -4.067  -3.446   1.589  1.00  0.00     0.041 C 
ATOM      6  O   UNL     1      -4.773  -2.404   1.546  1.00  0.00    -0.550 OA
ATOM      7  O   UNL     1      -4.668  -4.691   1.448  1.00  0.00    -0.550 OA
ENDBRANCH   4   5
ENDBRANCH   3   4
ENDBRANCH   2   3
ENDBRANCH   1   2
BRANCH   1   8
ATOM      8  C   UNL     1      -1.221  -4.626  -1.156  1.00  0.00     0.000 C 
BRANCH   8   9
ATOM      9  C   UNL     1       0.005  -5.384  -0.626  1.00  0.00    -0.000 C 
BRANCH   9  10
ATOM     10  C   UNL     1      -0.318  -6.097   0.693  1.00  0.00    -0.000 C 
BRANCH  10  11
ATOM     11  C   UNL     1       0.702  -5.731   1.781  1.00  0.00    -0.000 C 
BRANCH  11  12
ATOM     12  C   UNL     1       2.037  -5.242   1.199  1.00  0.00    -0.003 C 
ATOM     13  C   UNL     1       2.503  -3.923   1.816  1.00  0.00     0.004 C 
ENDBRANCH  11  12
ENDBRANCH  10  11
ENDBRANCH   9  10
ENDBRANCH   8   9
ENDBRANCH   1   8
TORSDOF 9
ENDMDL
MODEL 9
REMARK VINA RESULT:    -3.661      1.886      2.410
REMARK INTER + INTRA:          -6.060
REMARK INTER:                  -5.492
REMARK INTRA:                  -0.569
REMARK UNBOUND:                -0.473
REMARK SMILES CCCCCCCCCCC(=O)[O-]
REMARK SMILES IDX 7 1 8 2 9 3 10 4 11 5 12 6 13 7 6 8 5 9 4 10 3 11 2 12 1 13
REMARK H PARENT
REMARK Flexibility Score: inf
ROOT
ATOM      1  C   UNL     1      -6.476  -4.465   0.740  1.00  0.00     0.000 C 
ENDROOT
BRANCH   1   2
ATOM      2  C   UNL     1      -7.800  -5.201   0.995  1.00  0.00     0.000 C 
BRANCH   2   3
ATOM      3  C   UNL     1      -8.558  -5.434  -0.321  1.00  0.00     0.006 C 
BRANCH   3   4
ATOM      4  C   UNL     1      -8.150  -4.435  -1.412  1.00  0.00     0.053 C 
BRANCH   4   5
ATOM      5  C   UNL     1      -7.822  -5.123  -2.701  1.00  0.00     0.041 C 
ATOM      6  O   UNL     1      -6.711  -5.697  -2.850  1.00  0.00    -0.550 OA
ATOM      7  O   UNL     1      -8.732  -5.102  -3.751  1.00  0.00    -0.550 OA
ENDBRANCH   4   5
ENDBRANCH   3   4
ENDBRANCH   2   3
ENDBRANCH   1   2
BRANCH   1   8
ATOM      8  C   UNL     1      -5.246  -5.346   1.015  1.00  0.00     0.000 C 
BRANCH   8   9
ATOM      9  C   UNL     1      -3.966  -4.523   1.230  1.00  0.00    -0.000 C 
BRANCH   9  10
ATOM     10  C   UNL     1      -4.300  -3.090   1.662  1.00  0.00    -0.000 C 
BRANCH  10  11
ATOM     11  C   UNL     1      -3.079  -2.171   1.513  1.00  0.00    -0.000 C 
BRANCH  11  12
ATOM     12  C   UNL     1      -1.764  -2.954   1.374  1.00  0.00    -0.003 C 
ATOM     13  C   UNL     1      -0.880  -2.429   0.242  1.00  0.00     0.004 C 
ENDBRANCH  11  12
ENDBRANCH  10  11
ENDBRANCH   9  10
ENDBRANCH   8   9
ENDBRANCH   1   8
TORSDOF 9
ENDMDL
