MODEL 1
REMARK VINA RESULT:    -3.070      0.000      0.000
REMARK INTER + INTRA:          -3.464
REMARK INTER:                  -3.429
REMARK INTRA:                  -0.035
REMARK UNBOUND:                -0.035
REMARK SMILES CCCC(=O)[O-]
REMARK SMILES IDX 3 1 4 2 5 3 6 4 2 5 1 6
REMARK H PARENT
REMARK Flexibility Score: inf
ROOT
ATOM      1  C   UNL     1      40.101  17.893  11.230  1.00  0.00     0.052 C 
ENDROOT
BRANCH   1   2
ATOM      2  C   UNL     1      41.127  18.214  12.270  1.00  0.00     0.041 C 
ATOM      3  O   UNL     1      42.142  17.481  12.407  1.00  0.00    -0.550 OA
ATOM      4  O   UNL     1      40.939  19.294  13.123  1.00  0.00    -0.550 OA
ENDBRANCH   1   2
BRANCH   1   5
ATOM      5  C   UNL     1      39.298  19.144  10.864  1.00  0.00     0.003 C 
ATOM      6  C   UNL     1      37.803  18.917  11.063  1.00  0.00     0.004 C 
ENDBRANCH   1   5
TORSDOF 2
ENDMDL
MODEL 2
REMARK VINA RESULT:    -3.045     14.966     15.119
REMARK INTER + INTRA:          -3.436
REMARK INTER:                  -3.423
REMARK INTRA:                  -0.013
REMARK UNBOUND:                -0.035
REMARK SMILES CCCC(=O)[O-]
REMARK SMILES IDX 3 1 4 2 5 3 6 4 2 5 1 6
REMARK H PARENT
REMARK Flexibility Score: inf
ROOT
ATOM      1  C   UNL     1      35.205   5.498  16.575  1.00  0.00     0.052 C 
ENDROOT
BRANCH   1   2
ATOM      2  C   UNL     1      34.091   6.081  17.385  1.00  0.00     0.041 C 
ATOM      3  O   UNL     1      33.000   6.386  16.836  1.00  0.00    -0.550 OA
ATOM      4  O   UNL     1      34.273   6.335  18.739  1.00  0.00    -0.550 OA
ENDBRANCH   1   2
BRANCH   1   5
ATOM      5  C   UNL     1      34.652   4.766  15.350  1.00  0.00     0.003 C 
ATOM      6  C   UNL     1      35.758   4.462  14.344  1.00  0.00     0.004 C 
ENDBRANCH   1   5
TORSDOF 2
ENDMDL
MODEL 3
REMARK VINA RESULT:    -3.024      2.306      3.016
REMARK INTER + INTRA:          -3.412
REMARK INTER:                  -3.346
REMARK INTRA:                  -0.065
REMARK UNBOUND:                -0.035
REMARK SMILES CCCC(=O)[O-]
REMARK SMILES IDX 3 1 4 2 5 3 6 4 2 5 1 6
REMARK H PARENT
REMARK Flexibility Score: inf
ROOT
ATOM      1  C   UNL     1      39.951  17.841  11.350  1.00  0.00     0.052 C 
ENDROOT
BRANCH   1   2
ATOM      2  C   UNL     1      39.666  18.902  10.334  1.00  0.00     0.041 C 
ATOM      3  O   UNL     1      40.425  19.046   9.339  1.00  0.00    -0.550 OA
ATOM      4  O   UNL     1      38.593  19.765  10.512  1.00  0.00    -0.550 OA
ENDBRANCH   1   2
BRANCH   1   5
ATOM      5  C   UNL     1      41.232  18.166  12.121  1.00  0.00     0.003 C 
ATOM      6  C   UNL     1      41.020  19.340  13.072  1.00  0.00     0.004 C 
ENDBRANCH   1   5
TORSDOF 2
ENDMDL
MODEL 4
REMARK VINA RESULT:    -3.012     15.101     15.268
REMARK INTER + INTRA:          -3.399
REMARK INTER:                  -3.385
REMARK INTRA:                  -0.014
REMARK UNBOUND:                -0.035
REMARK SMILES CCCC(=O)[O-]
REMARK SMILES IDX 3 1 4 2 5 3 6 4 2 5 1 6
REMARK H PARENT
REMARK Flexibility Score: inf
ROOT
ATOM      1  C   UNL     1      35.277   4.733  14.854  1.00  0.00     0.052 C 
ENDROOT
BRANCH   1   2
ATOM      2  C   UNL     1      36.296   3.963  14.074  1.00  0.00     0.041 C 
ATOM      3  O   UNL     1      37.365   3.589  14.624  1.00  0.00    -0.550 OA
ATOM      4  O   UNL     1      36.089   3.703  12.725  1.00  0.00    -0.550 OA
ENDBRANCH   1   2
BRANCH   1   5
ATOM      5  C   UNL     1      35.595   4.681  16.350  1.00  0.00     0.003 C 
ATOM      6  C   UNL     1      34.818   5.748  17.115  1.00  0.00     0.004 C 
ENDBRANCH   1   5
TORSDOF 2
ENDMDL
MODEL 5
REMARK VINA RESULT:    -3.001      1.835      1.911
REMARK INTER + INTRA:          -3.387
REMARK INTER:                  -3.344
REMARK INTRA:                  -0.043
REMARK UNBOUND:                -0.035
REMARK SMILES CCCC(=O)[O-]
REMARK SMILES IDX 3 1 4 2 5 3 6 4 2 5 1 6
REMARK H PARENT
REMARK Flexibility Score: inf
ROOT
ATOM      1  C   UNL     1      40.404  17.871  11.312  1.00  0.00     0.052 C 
ENDROOT
BRANCH   1   2
ATOM      2  C   UNL     1      41.486  18.380  10.414  1.00  0.00     0.041 C 
ATOM      3  O   UNL     1      41.679  17.849   9.288  1.00  0.00    -0.550 OA
ATOM      4  O   UNL     1      42.317  19.409  10.839  1.00  0.00    -0.550 OA
ENDBRANCH   1   2
BRANCH   1   5
ATOM      5  C   UNL     1      39.390  18.978  11.612  1.00  0.00     0.003 C 
ATOM      6  C   UNL     1      38.246  18.965  10.603  1.00  0.00     0.004 C 
ENDBRANCH   1   5
TORSDOF 2
ENDMDL
MODEL 6
REMARK VINA RESULT:    -2.975      2.276      3.831
REMARK INTER + INTRA:          -3.358
REMARK INTER:                  -3.338
REMARK INTRA:                  -0.020
REMARK UNBOUND:                -0.035
REMARK SMILES CCCC(=O)[O-]
REMARK SMILES IDX 3 1 4 2 5 3 6 4 2 5 1 6
REMARK H PARENT
REMARK Flexibility Score: inf
ROOT
ATOM      1  C   UNL     1      41.672  17.781  12.257  1.00  0.00     0.052 C 
ENDROOT
BRANCH   1   2
ATOM      2  C   UNL     1      40.763  17.936  11.079  1.00  0.00     0.041 C 
ATOM      3  O   UNL     1      39.516  17.849  11.226  1.00  0.00    -0.550 OA
ATOM      4  O   UNL     1      41.295  18.126   9.810  1.00  0.00    -0.550 OA
ENDBRANCH   1   2
BRANCH   1   5
ATOM      5  C   UNL     1      43.136  17.885  11.822  1.00  0.00     0.003 C 
ATOM      6  C   UNL     1      43.992  16.826  12.512  1.00  0.00     0.004 C 
ENDBRANCH   1   5
TORSDOF 2
ENDMDL
MODEL 7
REMARK VINA RESULT:    -2.974     14.941     15.176
REMARK INTER + INTRA:          -3.357
REMARK INTER:                  -3.349
REMARK INTRA:                  -0.008
REMARK UNBOUND:                -0.035
REMARK SMILES CCCC(=O)[O-]
REMARK SMILES IDX 3 1 4 2 5 3 6 4 2 5 1 6
REMARK H PARENT
REMARK Flexibility Score: inf
ROOT
ATOM      1  C   UNL     1      34.577   5.572  16.637  1.00  0.00     0.052 C 
ENDROOT
BRANCH   1   2
ATOM      2  C   UNL     1      35.534   4.741  15.841  1.00  0.00     0.041 C 
ATOM      3  O   UNL     1      36.360   3.992  16.425  1.00  0.00    -0.550 OA
ATOM      4  O   UNL     1      35.548   4.832  14.455  1.00  0.00    -0.550 OA
ENDBRANCH   1   2
BRANCH   1   5
ATOM      5  C   UNL     1      33.148   5.387  16.122  1.00  0.00     0.003 C 
ATOM      6  C   UNL     1      32.213   6.445  16.700  1.00  0.00     0.004 C 
ENDBRANCH   1   5
TORSDOF 2
ENDMDL
MODEL 8
REMARK VINA RESULT:    -2.948     15.466     15.756
REMARK INTER + INTRA:          -3.327
REMARK INTER:                  -3.260
REMARK INTRA:                  -0.067
REMARK UNBOUND:                -0.035
REMARK SMILES CCCC(=O)[O-]
REMARK SMILES IDX 3 1 4 2 5 3 6 4 2 5 1 6
REMARK H PARENT
REMARK Flexibility Score: inf
ROOT
ATOM      1  C   UNL     1      34.205   6.055  17.392  1.00  0.00     0.052 C 
ENDROOT
BRANCH   1   2
ATOM      2  C   UNL     1      33.775   5.659  18.769  1.00  0.00     0.041 C 
ATOM      3  O   UNL     1      33.928   6.455  19.734  1.00  0.00    -0.550 OA
ATOM      4  O   UNL     1      33.253   4.393  18.999  1.00  0.00    -0.550 OA
ENDBRANCH   1   2
BRANCH   1   5
ATOM      5  C   UNL     1      33.090   5.777  16.382  1.00  0.00     0.003 C 
ATOM      6  C   UNL     1      31.871   6.655  16.651  1.00  0.00     0.004 C 
ENDBRANCH   1   5
TORSDOF 2
ENDMDL
MODEL 9
REMARK VINA RESULT:    -2.928      2.175      3.515
REMARK INTER + INTRA:          -3.306
REMARK INTER:                  -3.282
REMARK INTRA:                  -0.023
REMARK UNBOUND:                -0.035
REMARK SMILES CCCC(=O)[O-]
REMARK SMILES IDX 3 1 4 2 5 3 6 4 2 5 1 6
REMARK H PARENT
REMARK Flexibility Score: inf
ROOT
ATOM      1  C   UNL     1      41.625  17.571  12.204  1.00  0.00     0.052 C 
ENDROOT
BRANCH   1   2
ATOM      2  C   UNL     1      41.030  18.935  12.360  1.00  0.00     0.041 C 
ATOM      3  O   UNL     1      40.491  19.508  11.376  1.00  0.00    -0.550 OA
ATOM      4  O   UNL     1      41.116  19.596  13.578  1.00  0.00    -0.550 OA
ENDBRANCH   1   2
BRANCH   1   5
ATOM      5  C   UNL     1      43.057  17.667  11.673  1.00  0.00     0.003 C 
ATOM      6  C   UNL     1      44.051  17.055  12.656  1.00  0.00     0.004 C 
ENDBRANCH   1   5
TORSDOF 2
ENDMDL
