MODEL 1
REMARK VINA RESULT:    -2.406      0.000      0.000
REMARK INTER + INTRA:          -3.771
REMARK INTER:                  -3.250
REMARK INTRA:                  -0.521
REMARK UNBOUND:                -0.521
REMARK SMILES CC(=O)CCC=C(C)CCC=C(C)C
REMARK SMILES IDX 7 1 6 2 8 3 9 4 10 5 11 6 13 7 12 8 14 9 5 10 4 11 2 12 3 13
REMARK SMILES IDX 1 14
REMARK H PARENT
REMARK Flexibility Score: inf
ROOT
ATOM      1  C   UNL     1      35.230  24.625  32.826  1.00  0.00    -0.077 C 
ATOM      2  C   UNL     1      35.785  25.125  31.697  1.00  0.00    -0.028 C 
ATOM      3  C   UNL     1      35.936  23.592  33.672  1.00  0.00     0.039 C 
ENDROOT
BRANCH   1   4
ATOM      4  C   UNL     1      33.867  25.125  33.257  1.00  0.00     0.034 C 
BRANCH   4   5
ATOM      5  C   UNL     1      32.856  25.013  32.111  1.00  0.00     0.032 C 
BRANCH   5   6
ATOM      6  C   UNL     1      31.438  24.989  32.629  1.00  0.00    -0.028 C 
ATOM      7  C   UNL     1      30.502  24.818  30.320  1.00  0.00     0.039 C 
ATOM      8  C   UNL     1      30.361  24.901  31.820  1.00  0.00    -0.080 C 
ATOM      9  C   UNL     1      28.974  24.882  32.407  1.00  0.00     0.039 C 
ENDBRANCH   5   6
ENDBRANCH   4   5
ENDBRANCH   1   4
BRANCH   2  10
ATOM     10  C   UNL     1      37.115  24.690  31.134  1.00  0.00     0.035 C 
BRANCH  10  11
ATOM     11  C   UNL     1      37.124  24.810  29.607  1.00  0.00     0.079 C 
BRANCH  11  12
ATOM     12  C   UNL     1      36.365  23.671  28.978  1.00  0.00     0.130 C 
ATOM     13  O   UNL     1      36.924  22.598  28.809  1.00  0.00    -0.300 OA
ATOM     14  C   UNL     1      34.932  23.821  28.565  1.00  0.00     0.087 C 
ENDBRANCH  11  12
ENDBRANCH  10  11
ENDBRANCH   2  10
TORSDOF 6
ENDMDL
MODEL 2
REMARK VINA RESULT:    -2.361      2.167      4.025
REMARK INTER + INTRA:          -3.711
REMARK INTER:                  -3.045
REMARK INTRA:                  -0.666
REMARK UNBOUND:                -0.521
REMARK SMILES CC(=O)CCC=C(C)CCC=C(C)C
REMARK SMILES IDX 7 1 6 2 8 3 9 4 10 5 11 6 13 7 12 8 14 9 5 10 4 11 2 12 3 13
REMARK SMILES IDX 1 14
REMARK H PARENT
REMARK Flexibility Score: inf
ROOT
ATOM      1  C   UNL     1      31.585  23.614  28.152  1.00  0.00    -0.077 C 
ATOM      2  C   UNL     1      32.216  24.466  27.311  1.00  0.00    -0.028 C 
ATOM      3  C   UNL     1      32.299  22.443  28.786  1.00  0.00     0.039 C 
ENDROOT
BRANCH   1   4
ATOM      4  C   UNL     1      30.125  23.849  28.475  1.00  0.00     0.034 C 
BRANCH   4   5
ATOM      5  C   UNL     1      29.947  25.125  29.305  1.00  0.00     0.032 C 
BRANCH   5   6
ATOM      6  C   UNL     1      30.846  25.121  30.518  1.00  0.00    -0.028 C 
ATOM      7  C   UNL     1      28.893  25.112  32.075  1.00  0.00     0.039 C 
ATOM      8  C   UNL     1      30.374  25.115  31.783  1.00  0.00    -0.080 C 
ATOM      9  C   UNL     1      31.330  25.111  32.947  1.00  0.00     0.039 C 
ENDBRANCH   5   6
ENDBRANCH   4   5
ENDBRANCH   1   4
BRANCH   2  10
ATOM     10  C   UNL     1      33.654  24.328  26.876  1.00  0.00     0.035 C 
BRANCH  10  11
ATOM     11  C   UNL     1      34.584  25.089  27.824  1.00  0.00     0.079 C 
BRANCH  11  12
ATOM     12  C   UNL     1      35.757  24.232  28.222  1.00  0.00     0.130 C 
ATOM     13  O   UNL     1      35.832  23.086  27.804  1.00  0.00    -0.300 OA
ATOM     14  C   UNL     1      36.845  24.757  29.110  1.00  0.00     0.087 C 
ENDBRANCH  11  12
ENDBRANCH  10  11
ENDBRANCH   2  10
TORSDOF 6
ENDMDL
MODEL 3
REMARK VINA RESULT:    -1.933      1.726      3.855
REMARK INTER + INTRA:          -3.132
REMARK INTER:                  -2.648
REMARK INTRA:                  -0.484
REMARK UNBOUND:                -0.521
REMARK SMILES CC(=O)CCC=C(C)CCC=C(C)C
REMARK SMILES IDX 7 1 6 2 8 3 9 4 10 5 11 6 13 7 12 8 14 9 5 10 4 11 2 12 3 13
REMARK SMILES IDX 1 14
REMARK H PARENT
REMARK Flexibility Score: inf
ROOT
ATOM      1  C   UNL     1      31.703  24.158  29.203  1.00  0.00    -0.077 C 
ATOM      2  C   UNL     1      32.838  24.495  28.546  1.00  0.00    -0.028 C 
ATOM      3  C   UNL     1      30.908  22.926  28.840  1.00  0.00     0.039 C 
ENDROOT
BRANCH   1   4
ATOM      4  C   UNL     1      31.226  25.035  30.340  1.00  0.00     0.034 C 
BRANCH   4   5
ATOM      5  C   UNL     1      32.284  25.122  31.445  1.00  0.00     0.032 C 
BRANCH   5   6
ATOM      6  C   UNL     1      31.650  25.125  32.815  1.00  0.00    -0.028 C 
ATOM      7  C   UNL     1      33.863  24.846  33.938  1.00  0.00     0.039 C 
ATOM      8  C   UNL     1      32.362  25.000  33.955  1.00  0.00    -0.080 C 
ATOM      9  C   UNL     1      31.662  25.012  35.289  1.00  0.00     0.039 C 
ENDBRANCH   5   6
ENDBRANCH   4   5
ENDBRANCH   1   4
BRANCH   2  10
ATOM     10  C   UNL     1      33.404  23.734  27.374  1.00  0.00     0.035 C 
BRANCH  10  11
ATOM     11  C   UNL     1      34.749  24.324  26.940  1.00  0.00     0.079 C 
BRANCH  11  12
ATOM     12  C   UNL     1      35.879  23.707  27.722  1.00  0.00     0.130 C 
ATOM     13  O   UNL     1      36.178  22.539  27.524  1.00  0.00    -0.300 OA
ATOM     14  C   UNL     1      36.655  24.498  28.732  1.00  0.00     0.087 C 
ENDBRANCH  11  12
ENDBRANCH  10  11
ENDBRANCH   2  10
TORSDOF 6
ENDMDL
MODEL 4
REMARK VINA RESULT:    -1.695      2.167      4.129
REMARK INTER + INTRA:          -2.811
REMARK INTER:                  -2.410
REMARK INTRA:                  -0.401
REMARK UNBOUND:                -0.521
REMARK SMILES CC(=O)CCC=C(C)CCC=C(C)C
REMARK SMILES IDX 7 1 6 2 8 3 9 4 10 5 11 6 13 7 12 8 14 9 5 10 4 11 2 12 3 13
REMARK SMILES IDX 1 14
REMARK H PARENT
REMARK Flexibility Score: inf
ROOT
ATOM      1  C   UNL     1      31.733  25.024  32.665  1.00  0.00    -0.077 C 
ATOM      2  C   UNL     1      33.083  25.120  32.643  1.00  0.00    -0.028 C 
ATOM      3  C   UNL     1      30.969  24.830  33.954  1.00  0.00     0.039 C 
ENDROOT
BRANCH   1   4
ATOM      4  C   UNL     1      30.968  25.124  31.363  1.00  0.00     0.034 C 
BRANCH   4   5
ATOM      5  C   UNL     1      30.564  23.735  30.857  1.00  0.00     0.032 C 
BRANCH   5   6
ATOM      6  C   UNL     1      30.162  23.776  29.402  1.00  0.00    -0.028 C 
ATOM      7  C   UNL     1      32.528  24.097  28.667  1.00  0.00     0.039 C 
ATOM      8  C   UNL     1      31.051  23.940  28.399  1.00  0.00    -0.080 C 
ATOM      9  C   UNL     1      30.579  23.970  26.968  1.00  0.00     0.039 C 
ENDBRANCH   5   6
ENDBRANCH   4   5
ENDBRANCH   1   4
BRANCH   2  10
ATOM     10  C   UNL     1      33.968  25.000  33.858  1.00  0.00     0.035 C 
BRANCH  10  11
ATOM     11  C   UNL     1      35.075  23.968  33.624  1.00  0.00     0.079 C 
BRANCH  11  12
ATOM     12  C   UNL     1      36.345  24.641  33.174  1.00  0.00     0.130 C 
ATOM     13  O   UNL     1      37.096  25.124  34.007  1.00  0.00    -0.300 OA
ATOM     14  C   UNL     1      36.716  24.721  31.723  1.00  0.00     0.087 C 
ENDBRANCH  11  12
ENDBRANCH  10  11
ENDBRANCH   2  10
TORSDOF 6
ENDMDL
MODEL 5
REMARK VINA RESULT:    -0.492      2.030      5.374
REMARK INTER + INTRA:          -1.186
REMARK INTER:                  -3.341
REMARK INTRA:                   2.155
REMARK UNBOUND:                -0.521
REMARK SMILES CC(=O)CCC=C(C)CCC=C(C)C
REMARK SMILES IDX 7 1 6 2 8 3 9 4 10 5 11 6 13 7 12 8 14 9 5 10 4 11 2 12 3 13
REMARK SMILES IDX 1 14
REMARK H PARENT
REMARK Flexibility Score: inf
ROOT
ATOM      1  C   UNL     1      31.714  24.839  31.930  1.00  0.00    -0.077 C 
ATOM      2  C   UNL     1      30.417  24.879  31.544  1.00  0.00    -0.028 C 
ATOM      3  C   UNL     1      32.845  24.969  30.938  1.00  0.00     0.039 C 
ENDROOT
BRANCH   1   4
ATOM      4  C   UNL     1      32.037  24.671  33.399  1.00  0.00     0.034 C 
BRANCH   4   5
ATOM      5  C   UNL     1      33.470  25.125  33.699  1.00  0.00     0.032 C 
BRANCH   5   6
ATOM      6  C   UNL     1      34.319  25.125  32.451  1.00  0.00    -0.028 C 
ATOM      7  C   UNL     1      36.325  24.330  33.709  1.00  0.00     0.039 C 
ATOM      8  C   UNL     1      35.620  24.764  32.448  1.00  0.00    -0.080 C 
ATOM      9  C   UNL     1      36.407  24.787  31.163  1.00  0.00     0.039 C 
ENDBRANCH   5   6
ENDBRANCH   4   5
ENDBRANCH   1   4
BRANCH   2  10
ATOM     10  C   UNL     1      29.955  25.004  30.114  1.00  0.00     0.035 C 
BRANCH  10  11
ATOM     11  C   UNL     1      30.182  23.694  29.353  1.00  0.00     0.079 C 
BRANCH  11  12
ATOM     12  C   UNL     1      30.576  23.969  27.925  1.00  0.00     0.130 C 
ATOM     13  O   UNL     1      31.583  23.450  27.469  1.00  0.00    -0.300 OA
ATOM     14  C   UNL     1      29.750  24.858  27.044  1.00  0.00     0.087 C 
ENDBRANCH  11  12
ENDBRANCH  10  11
ENDBRANCH   2  10
TORSDOF 6
ENDMDL
MODEL 6
REMARK VINA RESULT:    -0.141      1.381      2.056
REMARK INTER + INTRA:          -0.712
REMARK INTER:                  -2.158
REMARK INTRA:                   1.446
REMARK UNBOUND:                -0.521
REMARK SMILES CC(=O)CCC=C(C)CCC=C(C)C
REMARK SMILES IDX 7 1 6 2 8 3 9 4 10 5 11 6 13 7 12 8 14 9 5 10 4 11 2 12 3 13
REMARK SMILES IDX 1 14
REMARK H PARENT
REMARK Flexibility Score: inf
ROOT
ATOM      1  C   UNL     1      35.073  24.887  32.383  1.00  0.00    -0.077 C 
ATOM      2  C   UNL     1      35.142  25.125  31.052  1.00  0.00    -0.028 C 
ATOM      3  C   UNL     1      36.311  24.641  33.213  1.00  0.00     0.039 C 
ENDROOT
BRANCH   1   4
ATOM      4  C   UNL     1      33.718  24.879  33.057  1.00  0.00     0.034 C 
BRANCH   4   5
ATOM      5  C   UNL     1      32.599  25.125  32.040  1.00  0.00     0.032 C 
BRANCH   5   6
ATOM      6  C   UNL     1      33.033  24.746  30.644  1.00  0.00    -0.028 C 
ATOM      7  C   UNL     1      30.693  24.887  29.783  1.00  0.00     0.039 C 
ATOM      8  C   UNL     1      32.171  24.636  29.611  1.00  0.00    -0.080 C 
ATOM      9  C   UNL     1      32.674  24.255  28.243  1.00  0.00     0.039 C 
ENDBRANCH   5   6
ENDBRANCH   4   5
ENDBRANCH   1   4
BRANCH   2  10
ATOM     10  C   UNL     1      36.419  25.124  30.249  1.00  0.00     0.035 C 
BRANCH  10  11
ATOM     11  C   UNL     1      36.804  23.699  29.841  1.00  0.00     0.079 C 
BRANCH  11  12
ATOM     12  C   UNL     1      36.829  23.563  28.341  1.00  0.00     0.130 C 
ATOM     13  O   UNL     1      36.908  22.452  27.840  1.00  0.00    -0.300 OA
ATOM     14  C   UNL     1      36.746  24.763  27.445  1.00  0.00     0.087 C 
ENDBRANCH  11  12
ENDBRANCH  10  11
ENDBRANCH   2  10
TORSDOF 6
ENDMDL
