MODEL 1
REMARK VINA RESULT:    -6.305      0.000      0.000
REMARK INTER + INTRA:          -6.721
REMARK INTER:                  -6.858
REMARK INTRA:                   0.137
REMARK UNBOUND:                 0.137
REMARK SMILES C[C@@H]1[C@H]2C3=CC[C@@H]4[C@@]5(C)CC[C@H](O)C(C)(C)[C@H]5CC[C@]4(C)[C@@]3(C)CC[C@]2(C(=O)[O-])CC[C@@H]1C
REMARK SMILES IDX 26 1 30 2 25 3 3 4 31 5 24 6 4 7 2 8 32 9 22 10 5 11 1 12
REMARK SMILES IDX 33 13 23 14 20 15 6 16 7 17 19 18 21 19 8 20 18 21 17 22
REMARK SMILES IDX 10 23 9 24 14 25 11 26 12 27 15 28 16 29 27 30 28 31 29 32
REMARK SMILES IDX 13 33
REMARK H PARENT 13 34
REMARK Flexibility Score: inf
ROOT
ATOM      1  C   UNL     1       2.072  -9.116  -5.475  1.00  0.00     0.017 C 
ATOM      2  C   UNL     1       3.412  -9.751  -5.961  1.00  0.00     0.014 C 
ATOM      3  C   UNL     1       1.546  -9.966  -4.295  1.00  0.00     0.014 C 
ATOM      4  C   UNL     1       2.354  -7.670  -4.960  1.00  0.00     0.030 C 
ATOM      5  C   UNL     1       4.290  -8.839  -6.848  1.00  0.00     0.004 C 
ATOM      6  C   UNL     1       0.224  -9.413  -3.758  1.00  0.00     0.013 C 
ATOM      7  C   UNL     1       1.141  -7.061  -4.200  1.00  0.00    -0.063 C 
ATOM      8  C   UNL     1       3.027  -6.748  -6.055  1.00  0.00    -0.003 C 
ATOM      9  C   UNL     1       3.588  -7.543  -7.281  1.00  0.00    -0.011 C 
ATOM     10  C   UNL     1       0.305  -7.930  -3.234  1.00  0.00    -0.006 C 
ATOM     11  C   UNL     1       1.051  -5.721  -4.055  1.00  0.00    -0.027 C 
ATOM     12  C   UNL     1       4.126  -5.869  -5.404  1.00  0.00     0.008 C 
ATOM     13  C   UNL     1       4.502  -6.709  -8.196  1.00  0.00     0.008 C 
ATOM     14  C   UNL     1       1.123  -8.000  -1.898  1.00  0.00     0.017 C 
ATOM     15  C   UNL     1      -1.195  -7.298  -3.023  1.00  0.00    -0.020 C 
ATOM     16  C   UNL     1       0.184  -5.083  -3.012  1.00  0.00     0.032 C 
ATOM     17  C   UNL     1      -1.238  -5.690  -3.007  1.00  0.00     0.006 C 
ATOM     18  C   UNL     1      -1.799  -7.882  -1.722  1.00  0.00     0.008 C 
ATOM     19  C   UNL     1      -2.126  -7.743  -4.203  1.00  0.00     0.012 C 
ATOM     20  C   UNL     1      -2.338  -4.923  -2.068  1.00  0.00    -0.025 C 
ATOM     21  C   UNL     1      -3.120  -7.257  -1.328  1.00  0.00     0.005 C 
ATOM     22  C   UNL     1      -2.913  -5.797  -0.865  1.00  0.00     0.003 C 
ATOM     23  C   UNL     1      -3.528  -4.481  -2.984  1.00  0.00     0.010 C 
ATOM     24  C   UNL     1      -1.700  -3.621  -1.490  1.00  0.00     0.012 C 
ATOM     25  C   UNL     1      -4.222  -5.216  -0.134  1.00  0.00    -0.006 C 
ATOM     26  C   UNL     1      -4.702  -3.831  -2.250  1.00  0.00     0.033 C 
ATOM     27  C   UNL     1      -5.283  -4.769  -1.185  1.00  0.00     0.120 C 
ATOM     28  C   UNL     1      -3.871  -4.041   0.839  1.00  0.00     0.014 C 
ATOM     29  C   UNL     1      -4.900  -6.294   0.767  1.00  0.00     0.014 C 
ENDROOT
BRANCH   1  30
ATOM     30  C   UNL     1       1.046  -9.158  -6.606  1.00  0.00     0.048 C 
ATOM     31  O   UNL     1       1.011 -10.121  -7.418  1.00  0.00    -0.550 OA
ATOM     32  O   UNL     1       0.168  -8.095  -6.789  1.00  0.00    -0.550 OA
ENDBRANCH   1  30
BRANCH  27  33
ATOM     33  O   UNL     1      -6.365  -4.138  -0.546  1.00  0.00    -0.393 OA
ATOM     34  H   UNL     1      -7.195  -4.500  -0.954  1.00  0.00     0.210 HD
ENDBRANCH  27  33
TORSDOF 2
ENDMDL
MODEL 2
REMARK VINA RESULT:    -6.040      2.673      9.254
REMARK INTER + INTRA:          -6.433
REMARK INTER:                  -6.561
REMARK INTRA:                   0.128
REMARK UNBOUND:                 0.137
REMARK SMILES C[C@@H]1[C@H]2C3=CC[C@@H]4[C@@]5(C)CC[C@H](O)C(C)(C)[C@H]5CC[C@]4(C)[C@@]3(C)CC[C@]2(C(=O)[O-])CC[C@@H]1C
REMARK SMILES IDX 26 1 30 2 25 3 3 4 31 5 24 6 4 7 2 8 32 9 22 10 5 11 1 12
REMARK SMILES IDX 33 13 23 14 20 15 6 16 7 17 19 18 21 19 8 20 18 21 17 22
REMARK SMILES IDX 10 23 9 24 14 25 11 26 12 27 15 28 16 29 27 30 28 31 29 32
REMARK SMILES IDX 13 33
REMARK H PARENT 13 34
REMARK Flexibility Score: inf
ROOT
ATOM      1  C   UNL     1      -6.928  -6.342   1.892  1.00  0.00     0.017 C 
ATOM      2  C   UNL     1      -7.779  -6.251   3.196  1.00  0.00     0.014 C 
ATOM      3  C   UNL     1      -6.750  -4.908   1.340  1.00  0.00     0.014 C 
ATOM      4  C   UNL     1      -5.520  -6.917   2.245  1.00  0.00     0.030 C 
ATOM      5  C   UNL     1      -7.729  -7.500   4.104  1.00  0.00     0.004 C 
ATOM      6  C   UNL     1      -5.926  -4.906   0.051  1.00  0.00     0.013 C 
ATOM      7  C   UNL     1      -4.510  -6.785   1.069  1.00  0.00    -0.063 C 
ATOM      8  C   UNL     1      -5.594  -8.333   2.947  1.00  0.00    -0.003 C 
ATOM      9  C   UNL     1      -7.026  -8.703   3.458  1.00  0.00    -0.011 C 
ATOM     10  C   UNL     1      -4.477  -5.504   0.206  1.00  0.00    -0.006 C 
ATOM     11  C   UNL     1      -3.413  -7.572   1.042  1.00  0.00    -0.027 C 
ATOM     12  C   UNL     1      -4.551  -8.410   4.092  1.00  0.00     0.008 C 
ATOM     13  C   UNL     1      -7.054  -9.920   4.398  1.00  0.00     0.008 C 
ATOM     14  C   UNL     1      -3.671  -4.445   1.034  1.00  0.00     0.017 C 
ATOM     15  C   UNL     1      -3.804  -5.802  -1.262  1.00  0.00    -0.020 C 
ATOM     16  C   UNL     1      -2.207  -7.242   0.217  1.00  0.00     0.032 C 
ATOM     17  C   UNL     1      -2.597  -6.863  -1.231  1.00  0.00     0.006 C 
ATOM     18  C   UNL     1      -3.345  -4.457  -1.877  1.00  0.00     0.008 C 
ATOM     19  C   UNL     1      -4.885  -6.404  -2.225  1.00  0.00     0.012 C 
ATOM     20  C   UNL     1      -1.354  -6.701  -2.285  1.00  0.00    -0.025 C 
ATOM     21  C   UNL     1      -2.563  -4.610  -3.164  1.00  0.00     0.005 C 
ATOM     22  C   UNL     1      -1.177  -5.235  -2.885  1.00  0.00     0.003 C 
ATOM     23  C   UNL     1      -1.587  -7.704  -3.464  1.00  0.00     0.010 C 
ATOM     24  C   UNL     1      -0.026  -7.125  -1.582  1.00  0.00     0.012 C 
ATOM     25  C   UNL     1      -0.203  -5.107  -4.159  1.00  0.00    -0.006 C 
ATOM     26  C   UNL     1      -0.566  -7.617  -4.599  1.00  0.00     0.033 C 
ATOM     27  C   UNL     1      -0.529  -6.211  -5.210  1.00  0.00     0.120 C 
ATOM     28  C   UNL     1       1.306  -5.159  -3.743  1.00  0.00     0.014 C 
ATOM     29  C   UNL     1      -0.375  -3.732  -4.875  1.00  0.00     0.014 C 
ENDROOT
BRANCH   1  30
ATOM     30  C   UNL     1      -7.671  -7.179   0.853  1.00  0.00     0.048 C 
ATOM     31  O   UNL     1      -8.926  -7.125   0.750  1.00  0.00    -0.550 OA
ATOM     32  O   UNL     1      -6.970  -8.062   0.038  1.00  0.00    -0.550 OA
ENDBRANCH   1  30
BRANCH  27  33
ATOM     33  O   UNL     1       0.412  -6.181  -6.254  1.00  0.00    -0.393 OA
ATOM     34  H   UNL     1       1.141  -6.809  -6.009  1.00  0.00     0.210 HD
ENDBRANCH  27  33
TORSDOF 2
ENDMDL
MODEL 3
REMARK VINA RESULT:    -5.727      3.526      6.671
REMARK INTER + INTRA:          -6.092
REMARK INTER:                  -6.217
REMARK INTRA:                   0.124
REMARK UNBOUND:                 0.137
REMARK SMILES C[C@@H]1[C@H]2C3=CC[C@@H]4[C@@]5(C)CC[C@H](O)C(C)(C)[C@H]5CC[C@]4(C)[C@@]3(C)CC[C@]2(C(=O)[O-])CC[C@@H]1C
REMARK SMILES IDX 26 1 30 2 25 3 3 4 31 5 24 6 4 7 2 8 32 9 22 10 5 11 1 12
REMARK SMILES IDX 33 13 23 14 20 15 6 16 7 17 19 18 21 19 8 20 18 21 17 22
REMARK SMILES IDX 10 23 9 24 14 25 11 26 12 27 15 28 16 29 27 30 28 31 29 32
REMARK SMILES IDX 13 33
REMARK H PARENT 13 34
REMARK Flexibility Score: inf
ROOT
ATOM      1  C   UNL     1      -2.937  -7.306  -2.382  1.00  0.00     0.017 C 
ATOM      2  C   UNL     1      -2.621  -8.319  -3.526  1.00  0.00     0.014 C 
ATOM      3  C   UNL     1      -4.437  -6.942  -2.472  1.00  0.00     0.014 C 
ATOM      4  C   UNL     1      -2.675  -7.996  -1.007  1.00  0.00     0.030 C 
ATOM      5  C   UNL     1      -1.299  -9.102  -3.365  1.00  0.00     0.004 C 
ATOM      6  C   UNL     1      -4.834  -5.943  -1.383  1.00  0.00     0.013 C 
ATOM      7  C   UNL     1      -3.223  -7.169   0.191  1.00  0.00    -0.063 C 
ATOM      8  C   UNL     1      -1.193  -8.535  -0.863  1.00  0.00    -0.003 C 
ATOM      9  C   UNL     1      -0.415  -8.589  -2.220  1.00  0.00    -0.011 C 
ATOM     10  C   UNL     1      -4.589  -6.454   0.087  1.00  0.00    -0.006 C 
ATOM     11  C   UNL     1      -2.739  -7.391   1.431  1.00  0.00    -0.027 C 
ATOM     12  C   UNL     1      -1.200  -9.919  -0.163  1.00  0.00     0.008 C 
ATOM     13  C   UNL     1       0.901  -9.384  -2.148  1.00  0.00     0.008 C 
ATOM     14  C   UNL     1      -5.675  -7.557   0.335  1.00  0.00     0.017 C 
ATOM     15  C   UNL     1      -4.688  -5.218   1.163  1.00  0.00    -0.020 C 
ATOM     16  C   UNL     1      -3.473  -6.970   2.668  1.00  0.00     0.032 C 
ATOM     17  C   UNL     1      -3.960  -5.505   2.568  1.00  0.00     0.006 C 
ATOM     18  C   UNL     1      -6.182  -4.866   1.375  1.00  0.00     0.008 C 
ATOM     19  C   UNL     1      -3.995  -3.944   0.569  1.00  0.00     0.012 C 
ATOM     20  C   UNL     1      -4.576  -4.863   3.942  1.00  0.00    -0.025 C 
ATOM     21  C   UNL     1      -6.419  -3.845   2.467  1.00  0.00     0.005 C 
ATOM     22  C   UNL     1      -6.114  -4.454   3.855  1.00  0.00     0.003 C 
ATOM     23  C   UNL     1      -3.735  -3.591   4.298  1.00  0.00     0.010 C 
ATOM     24  C   UNL     1      -4.385  -5.877   5.113  1.00  0.00     0.012 C 
ATOM     25  C   UNL     1      -6.665  -3.522   5.044  1.00  0.00    -0.006 C 
ATOM     26  C   UNL     1      -4.238  -2.802   5.508  1.00  0.00     0.033 C 
ATOM     27  C   UNL     1      -5.686  -2.339   5.310  1.00  0.00     0.120 C 
ATOM     28  C   UNL     1      -6.919  -4.343   6.354  1.00  0.00     0.014 C 
ATOM     29  C   UNL     1      -8.049  -2.898   4.687  1.00  0.00     0.014 C 
ENDROOT
BRANCH   1  30
ATOM     30  C   UNL     1      -2.112  -6.036  -2.580  1.00  0.00     0.048 C 
ATOM     31  O   UNL     1      -1.894  -5.574  -3.732  1.00  0.00    -0.550 OA
ATOM     32  O   UNL     1      -1.537  -5.401  -1.484  1.00  0.00    -0.550 OA
ENDBRANCH   1  30
BRANCH  27  33
ATOM     33  O   UNL     1      -6.102  -1.609   6.438  1.00  0.00    -0.393 OA
ATOM     34  H   UNL     1      -5.333  -1.583   7.067  1.00  0.00     0.210 HD
ENDBRANCH  27  33
TORSDOF 2
ENDMDL
MODEL 4
REMARK VINA RESULT:    -5.707      2.228      8.730
REMARK INTER + INTRA:          -6.070
REMARK INTER:                  -6.193
REMARK INTRA:                   0.123
REMARK UNBOUND:                 0.137
REMARK SMILES C[C@@H]1[C@H]2C3=CC[C@@H]4[C@@]5(C)CC[C@H](O)C(C)(C)[C@H]5CC[C@]4(C)[C@@]3(C)CC[C@]2(C(=O)[O-])CC[C@@H]1C
REMARK SMILES IDX 26 1 30 2 25 3 3 4 31 5 24 6 4 7 2 8 32 9 22 10 5 11 1 12
REMARK SMILES IDX 33 13 23 14 20 15 6 16 7 17 19 18 21 19 8 20 18 21 17 22
REMARK SMILES IDX 10 23 9 24 14 25 11 26 12 27 15 28 16 29 27 30 28 31 29 32
REMARK SMILES IDX 13 33
REMARK H PARENT 13 34
REMARK Flexibility Score: inf
ROOT
ATOM      1  C   UNL     1      -5.681  -7.437   1.174  1.00  0.00     0.017 C 
ATOM      2  C   UNL     1      -7.043  -7.382   1.932  1.00  0.00     0.014 C 
ATOM      3  C   UNL     1      -5.701  -8.675   0.248  1.00  0.00     0.014 C 
ATOM      4  C   UNL     1      -5.541  -6.158   0.290  1.00  0.00     0.030 C 
ATOM      5  C   UNL     1      -7.378  -6.025   2.589  1.00  0.00     0.004 C 
ATOM      6  C   UNL     1      -4.392  -8.808  -0.533  1.00  0.00     0.013 C 
ATOM      7  C   UNL     1      -4.353  -6.251  -0.711  1.00  0.00    -0.063 C 
ATOM      8  C   UNL     1      -5.645  -4.819   1.127  1.00  0.00    -0.003 C 
ATOM      9  C   UNL     1      -6.209  -5.028   2.572  1.00  0.00    -0.011 C 
ATOM     10  C   UNL     1      -4.057  -7.573  -1.452  1.00  0.00    -0.006 C 
ATOM     11  C   UNL     1      -3.839  -5.121  -1.242  1.00  0.00    -0.027 C 
ATOM     12  C   UNL     1      -6.478  -3.770   0.345  1.00  0.00     0.008 C 
ATOM     13  C   UNL     1      -6.599  -3.719   3.281  1.00  0.00     0.008 C 
ATOM     14  C   UNL     1      -5.079  -7.642  -2.639  1.00  0.00     0.017 C 
ATOM     15  C   UNL     1      -2.497  -7.626  -1.960  1.00  0.00    -0.020 C 
ATOM     16  C   UNL     1      -3.014  -5.124  -2.492  1.00  0.00     0.032 C 
ATOM     17  C   UNL     1      -1.911  -6.207  -2.441  1.00  0.00     0.006 C 
ATOM     18  C   UNL     1      -2.378  -8.685  -3.084  1.00  0.00     0.008 C 
ATOM     19  C   UNL     1      -1.574  -8.098  -0.784  1.00  0.00     0.012 C 
ATOM     20  C   UNL     1      -0.807  -6.159  -3.649  1.00  0.00    -0.025 C 
ATOM     21  C   UNL     1      -1.019  -8.719  -3.749  1.00  0.00     0.005 C 
ATOM     22  C   UNL     1      -0.796  -7.442  -4.594  1.00  0.00     0.003 C 
ATOM     23  C   UNL     1       0.609  -5.997  -3.001  1.00  0.00     0.010 C 
ATOM     24  C   UNL     1      -1.056  -4.888  -4.522  1.00  0.00     0.012 C 
ATOM     25  C   UNL     1       0.476  -7.592  -5.567  1.00  0.00    -0.006 C 
ATOM     26  C   UNL     1       1.779  -6.033  -3.985  1.00  0.00     0.033 C 
ATOM     27  C   UNL     1       1.799  -7.344  -4.780  1.00  0.00     0.120 C 
ATOM     28  C   UNL     1       0.374  -6.637  -6.804  1.00  0.00     0.014 C 
ATOM     29  C   UNL     1       0.567  -9.026  -6.173  1.00  0.00     0.014 C 
ENDROOT
BRANCH   1  30
ATOM     30  C   UNL     1      -4.542  -7.595   2.179  1.00  0.00     0.048 C 
ATOM     31  O   UNL     1      -4.667  -8.330   3.196  1.00  0.00    -0.550 OA
ATOM     32  O   UNL     1      -3.362  -6.877   2.014  1.00  0.00    -0.550 OA
ENDBRANCH   1  30
BRANCH  27  33
ATOM     33  O   UNL     1       2.894  -7.340  -5.662  1.00  0.00    -0.393 OA
ATOM     34  H   UNL     1       3.678  -7.008  -5.150  1.00  0.00     0.210 HD
ENDBRANCH  27  33
TORSDOF 2
ENDMDL
MODEL 5
REMARK VINA RESULT:    -5.655      8.380     13.016
REMARK INTER + INTRA:          -6.014
REMARK INTER:                  -6.181
REMARK INTRA:                   0.168
REMARK UNBOUND:                 0.137
REMARK SMILES C[C@@H]1[C@H]2C3=CC[C@@H]4[C@@]5(C)CC[C@H](O)C(C)(C)[C@H]5CC[C@]4(C)[C@@]3(C)CC[C@]2(C(=O)[O-])CC[C@@H]1C
REMARK SMILES IDX 26 1 30 2 25 3 3 4 31 5 24 6 4 7 2 8 32 9 22 10 5 11 1 12
REMARK SMILES IDX 33 13 23 14 20 15 6 16 7 17 19 18 21 19 8 20 18 21 17 22
REMARK SMILES IDX 10 23 9 24 14 25 11 26 12 27 15 28 16 29 27 30 28 31 29 32
REMARK SMILES IDX 13 33
REMARK H PARENT 13 34
REMARK Flexibility Score: inf
ROOT
ATOM      1  C   UNL     1      -7.489  -3.750   6.338  1.00  0.00     0.017 C 
ATOM      2  C   UNL     1      -8.689  -2.771   6.149  1.00  0.00     0.014 C 
ATOM      3  C   UNL     1      -7.668  -4.918   5.341  1.00  0.00     0.014 C 
ATOM      4  C   UNL     1      -6.164  -3.000   5.992  1.00  0.00     0.030 C 
ATOM      5  C   UNL     1      -8.491  -1.362   6.751  1.00  0.00     0.004 C 
ATOM      6  C   UNL     1      -6.530  -5.934   5.464  1.00  0.00     0.013 C 
ATOM      7  C   UNL     1      -4.946  -3.962   5.879  1.00  0.00    -0.063 C 
ATOM      8  C   UNL     1      -5.948  -1.699   6.866  1.00  0.00    -0.003 C 
ATOM      9  C   UNL     1      -7.235  -1.238   7.627  1.00  0.00    -0.011 C 
ATOM     10  C   UNL     1      -5.096  -5.339   5.195  1.00  0.00    -0.006 C 
ATOM     11  C   UNL     1      -3.695  -3.469   5.998  1.00  0.00    -0.027 C 
ATOM     12  C   UNL     1      -5.377  -0.558   5.984  1.00  0.00     0.008 C 
ATOM     13  C   UNL     1      -7.128   0.174   8.229  1.00  0.00     0.008 C 
ATOM     14  C   UNL     1      -5.038  -5.064   3.653  1.00  0.00     0.017 C 
ATOM     15  C   UNL     1      -3.927  -6.375   5.696  1.00  0.00    -0.020 C 
ATOM     16  C   UNL     1      -2.490  -4.206   5.498  1.00  0.00     0.032 C 
ATOM     17  C   UNL     1      -2.498  -5.683   5.955  1.00  0.00     0.006 C 
ATOM     18  C   UNL     1      -3.807  -7.523   4.663  1.00  0.00     0.008 C 
ATOM     19  C   UNL     1      -4.346  -7.026   7.059  1.00  0.00     0.012 C 
ATOM     20  C   UNL     1      -1.127  -6.529   5.662  1.00  0.00    -0.025 C 
ATOM     21  C   UNL     1      -2.651  -8.464   4.926  1.00  0.00     0.005 C 
ATOM     22  C   UNL     1      -1.303  -7.755   4.659  1.00  0.00     0.003 C 
ATOM     23  C   UNL     1      -0.591  -7.068   7.030  1.00  0.00     0.010 C 
ATOM     24  C   UNL     1      -0.039  -5.562   5.095  1.00  0.00     0.012 C 
ATOM     25  C   UNL     1      -0.084  -8.804   4.606  1.00  0.00    -0.006 C 
ATOM     26  C   UNL     1       0.639  -7.971   6.932  1.00  0.00     0.033 C 
ATOM     27  C   UNL     1       0.366  -9.193   6.047  1.00  0.00     0.120 C 
ATOM     28  C   UNL     1       1.122  -8.250   3.775  1.00  0.00     0.014 C 
ATOM     29  C   UNL     1      -0.496 -10.124   3.885  1.00  0.00     0.014 C 
ENDROOT
BRANCH   1  30
ATOM     30  C   UNL     1      -7.504  -4.310   7.758  1.00  0.00     0.048 C 
ATOM     31  O   UNL     1      -6.431  -4.540   8.379  1.00  0.00    -0.550 OA
ATOM     32  O   UNL     1      -8.712  -4.630   8.369  1.00  0.00    -0.550 OA
ENDBRANCH   1  30
BRANCH  27  33
ATOM     33  O   UNL     1       1.516  -9.999   5.996  1.00  0.00    -0.393 OA
ATOM     34  H   UNL     1       2.168  -9.618   6.641  1.00  0.00     0.210 HD
ENDBRANCH  27  33
TORSDOF 2
ENDMDL
MODEL 6
REMARK VINA RESULT:    -5.557      3.535      6.884
REMARK INTER + INTRA:          -5.907
REMARK INTER:                  -6.069
REMARK INTRA:                   0.162
REMARK UNBOUND:                 0.137
REMARK SMILES C[C@@H]1[C@H]2C3=CC[C@@H]4[C@@]5(C)CC[C@H](O)C(C)(C)[C@H]5CC[C@]4(C)[C@@]3(C)CC[C@]2(C(=O)[O-])CC[C@@H]1C
REMARK SMILES IDX 26 1 30 2 25 3 3 4 31 5 24 6 4 7 2 8 32 9 22 10 5 11 1 12
REMARK SMILES IDX 33 13 23 14 20 15 6 16 7 17 19 18 21 19 8 20 18 21 17 22
REMARK SMILES IDX 10 23 9 24 14 25 11 26 12 27 15 28 16 29 27 30 28 31 29 32
REMARK SMILES IDX 13 33
REMARK H PARENT 13 34
REMARK Flexibility Score: inf
ROOT
ATOM      1  C   UNL     1      -2.785  -4.608  -2.665  1.00  0.00     0.017 C 
ATOM      2  C   UNL     1      -2.223  -4.450  -4.112  1.00  0.00     0.014 C 
ATOM      3  C   UNL     1      -4.328  -4.548  -2.747  1.00  0.00     0.014 C 
ATOM      4  C   UNL     1      -2.370  -6.006  -2.110  1.00  0.00     0.030 C 
ATOM      5  C   UNL     1      -0.750  -4.879  -4.297  1.00  0.00     0.004 C 
ATOM      6  C   UNL     1      -4.965  -4.691  -1.362  1.00  0.00     0.013 C 
ATOM      7  C   UNL     1      -3.113  -6.370  -0.792  1.00  0.00    -0.063 C 
ATOM      8  C   UNL     1      -0.803  -6.228  -2.112  1.00  0.00    -0.003 C 
ATOM      9  C   UNL     1      -0.026  -5.180  -2.976  1.00  0.00    -0.011 C 
ATOM     10  C   UNL     1      -4.611  -6.035  -0.621  1.00  0.00    -0.006 C 
ATOM     11  C   UNL     1      -2.597  -7.313   0.025  1.00  0.00    -0.027 C 
ATOM     12  C   UNL     1      -0.475  -7.677  -2.557  1.00  0.00     0.008 C 
ATOM     13  C   UNL     1       1.443  -5.556  -3.234  1.00  0.00     0.008 C 
ATOM     14  C   UNL     1      -5.396  -7.156  -1.387  1.00  0.00     0.017 C 
ATOM     15  C   UNL     1      -5.018  -5.954   0.967  1.00  0.00    -0.020 C 
ATOM     16  C   UNL     1      -3.420  -8.016   1.061  1.00  0.00     0.032 C 
ATOM     17  C   UNL     1      -4.250  -7.016   1.900  1.00  0.00     0.006 C 
ATOM     18  C   UNL     1      -6.553  -6.113   1.094  1.00  0.00     0.008 C 
ATOM     19  C   UNL     1      -4.653  -4.539   1.534  1.00  0.00     0.012 C 
ATOM     20  C   UNL     1      -5.014  -7.643   3.206  1.00  0.00    -0.025 C 
ATOM     21  C   UNL     1      -7.040  -6.216   2.523  1.00  0.00     0.005 C 
ATOM     22  C   UNL     1      -6.605  -7.561   3.150  1.00  0.00     0.003 C 
ATOM     23  C   UNL     1      -4.513  -6.872   4.473  1.00  0.00     0.010 C 
ATOM     24  C   UNL     1      -4.588  -9.134   3.383  1.00  0.00     0.012 C 
ATOM     25  C   UNL     1      -7.375  -7.847   4.532  1.00  0.00    -0.006 C 
ATOM     26  C   UNL     1      -5.201  -7.262   5.781  1.00  0.00     0.033 C 
ATOM     27  C   UNL     1      -6.718  -7.050   5.700  1.00  0.00     0.120 C 
ATOM     28  C   UNL     1      -7.429  -9.377   4.861  1.00  0.00     0.014 C 
ATOM     29  C   UNL     1      -8.868  -7.399   4.459  1.00  0.00     0.014 C 
ENDROOT
BRANCH   1  30
ATOM     30  C   UNL     1      -2.295  -3.452  -1.796  1.00  0.00     0.048 C 
ATOM     31  O   UNL     1      -1.952  -3.638  -0.597  1.00  0.00    -0.550 OA
ATOM     32  O   UNL     1      -2.275  -2.157  -2.304  1.00  0.00    -0.550 OA
ENDBRANCH   1  30
BRANCH  27  33
ATOM     33  O   UNL     1      -7.307  -7.409   6.925  1.00  0.00    -0.393 OA
ATOM     34  H   UNL     1      -7.292  -6.601   7.503  1.00  0.00     0.210 HD
ENDBRANCH  27  33
TORSDOF 2
ENDMDL
MODEL 7
REMARK VINA RESULT:    -5.458      7.908     11.219
REMARK INTER + INTRA:          -5.799
REMARK INTER:                  -5.944
REMARK INTRA:                   0.145
REMARK UNBOUND:                 0.137
REMARK SMILES C[C@@H]1[C@H]2C3=CC[C@@H]4[C@@]5(C)CC[C@H](O)C(C)(C)[C@H]5CC[C@]4(C)[C@@]3(C)CC[C@]2(C(=O)[O-])CC[C@@H]1C
REMARK SMILES IDX 26 1 30 2 25 3 3 4 31 5 24 6 4 7 2 8 32 9 22 10 5 11 1 12
REMARK SMILES IDX 33 13 23 14 20 15 6 16 7 17 19 18 21 19 8 20 18 21 17 22
REMARK SMILES IDX 10 23 9 24 14 25 11 26 12 27 15 28 16 29 27 30 28 31 29 32
REMARK SMILES IDX 13 33
REMARK H PARENT 13 34
REMARK Flexibility Score: inf
ROOT
ATOM      1  C   UNL     1      -5.419  -5.145   2.644  1.00  0.00     0.017 C 
ATOM      2  C   UNL     1      -6.744  -4.774   1.909  1.00  0.00     0.014 C 
ATOM      3  C   UNL     1      -5.257  -4.185   3.845  1.00  0.00     0.014 C 
ATOM      4  C   UNL     1      -5.532  -6.604   3.187  1.00  0.00     0.030 C 
ATOM      5  C   UNL     1      -7.286  -5.852   0.944  1.00  0.00     0.004 C 
ATOM      6  C   UNL     1      -3.971  -4.477   4.622  1.00  0.00     0.013 C 
ATOM      7  C   UNL     1      -4.380  -6.967   4.169  1.00  0.00    -0.063 C 
ATOM      8  C   UNL     1      -5.838  -7.661   2.049  1.00  0.00    -0.003 C 
ATOM      9  C   UNL     1      -6.309  -7.012   0.705  1.00  0.00    -0.011 C 
ATOM     10  C   UNL     1      -3.885  -5.937   5.208  1.00  0.00    -0.006 C 
ATOM     11  C   UNL     1      -4.088  -8.264   4.402  1.00  0.00    -0.027 C 
ATOM     12  C   UNL     1      -6.865  -8.705   2.560  1.00  0.00     0.008 C 
ATOM     13  C   UNL     1      -6.895  -8.020  -0.299  1.00  0.00     0.008 C 
ATOM     14  C   UNL     1      -4.919  -5.979   6.386  1.00  0.00     0.017 C 
ATOM     15  C   UNL     1      -2.358  -6.284   5.698  1.00  0.00    -0.020 C 
ATOM     16  C   UNL     1      -3.316  -8.709   5.607  1.00  0.00     0.032 C 
ATOM     17  C   UNL     1      -2.042  -7.857   5.812  1.00  0.00     0.006 C 
ATOM     18  C   UNL     1      -2.095  -5.567   7.045  1.00  0.00     0.008 C 
ATOM     19  C   UNL     1      -1.328  -5.710   4.664  1.00  0.00     0.012 C 
ATOM     20  C   UNL     1      -1.004  -8.390   6.960  1.00  0.00    -0.025 C 
ATOM     21  C   UNL     1      -0.774  -5.934   7.685  1.00  0.00     0.005 C 
ATOM     22  C   UNL     1      -0.803  -7.396   8.190  1.00  0.00     0.003 C 
ATOM     23  C   UNL     1       0.384  -8.636   6.278  1.00  0.00     0.010 C 
ATOM     24  C   UNL     1      -1.498  -9.770   7.498  1.00  0.00     0.012 C 
ATOM     25  C   UNL     1       0.442  -7.713   9.158  1.00  0.00    -0.006 C 
ATOM     26  C   UNL     1       1.508  -9.045   7.230  1.00  0.00     0.033 C 
ATOM     27  C   UNL     1       1.728  -7.990   8.322  1.00  0.00     0.120 C 
ATOM     28  C   UNL     1       0.135  -8.906  10.125  1.00  0.00     0.014 C 
ATOM     29  C   UNL     1       0.759  -6.507  10.095  1.00  0.00     0.014 C 
ENDROOT
BRANCH   1  30
ATOM     30  C   UNL     1      -4.237  -4.951   1.697  1.00  0.00     0.048 C 
ATOM     31  O   UNL     1      -4.156  -3.934   0.957  1.00  0.00    -0.550 OA
ATOM     32  O   UNL     1      -3.256  -5.932   1.596  1.00  0.00    -0.550 OA
ENDBRANCH   1  30
BRANCH  27  33
ATOM     33  O   UNL     1       2.776  -8.400   9.164  1.00  0.00    -0.393 OA
ATOM     34  H   UNL     1       3.378  -7.619   9.281  1.00  0.00     0.210 HD
ENDBRANCH  27  33
TORSDOF 2
ENDMDL
MODEL 8
REMARK VINA RESULT:    -5.436      4.642     11.369
REMARK INTER + INTRA:          -5.776
REMARK INTER:                  -5.899
REMARK INTRA:                   0.124
REMARK UNBOUND:                 0.137
REMARK SMILES C[C@@H]1[C@H]2C3=CC[C@@H]4[C@@]5(C)CC[C@H](O)C(C)(C)[C@H]5CC[C@]4(C)[C@@]3(C)CC[C@]2(C(=O)[O-])CC[C@@H]1C
REMARK SMILES IDX 26 1 30 2 25 3 3 4 31 5 24 6 4 7 2 8 32 9 22 10 5 11 1 12
REMARK SMILES IDX 33 13 23 14 20 15 6 16 7 17 19 18 21 19 8 20 18 21 17 22
REMARK SMILES IDX 10 23 9 24 14 25 11 26 12 27 15 28 16 29 27 30 28 31 29 32
REMARK SMILES IDX 13 33
REMARK H PARENT 13 34
REMARK Flexibility Score: inf
ROOT
ATOM      1  C   UNL     1      -6.679  -6.380   6.228  1.00  0.00     0.017 C 
ATOM      2  C   UNL     1      -7.678  -6.734   7.372  1.00  0.00     0.014 C 
ATOM      3  C   UNL     1      -6.338  -7.687   5.475  1.00  0.00     0.014 C 
ATOM      4  C   UNL     1      -7.375  -5.400   5.232  1.00  0.00     0.030 C 
ATOM      5  C   UNL     1      -8.443  -5.534   7.974  1.00  0.00     0.004 C 
ATOM      6  C   UNL     1      -5.352  -7.430   4.333  1.00  0.00     0.013 C 
ATOM      7  C   UNL     1      -6.564  -5.210   3.918  1.00  0.00    -0.063 C 
ATOM      8  C   UNL     1      -7.891  -4.078   5.932  1.00  0.00    -0.003 C 
ATOM      9  C   UNL     1      -7.924  -4.170   7.494  1.00  0.00    -0.011 C 
ATOM     10  C   UNL     1      -5.870  -6.414   3.245  1.00  0.00    -0.006 C 
ATOM     11  C   UNL     1      -6.787  -4.122   3.150  1.00  0.00    -0.027 C 
ATOM     12  C   UNL     1      -9.280  -3.687   5.363  1.00  0.00     0.008 C 
ATOM     13  C   UNL     1      -8.699  -3.024   8.167  1.00  0.00     0.008 C 
ATOM     14  C   UNL     1      -6.991  -7.176   2.458  1.00  0.00     0.017 C 
ATOM     15  C   UNL     1      -4.643  -5.919   2.274  1.00  0.00    -0.020 C 
ATOM     16  C   UNL     1      -6.386  -4.061   1.707  1.00  0.00     0.032 C 
ATOM     17  C   UNL     1      -4.929  -4.536   1.503  1.00  0.00     0.006 C 
ATOM     18  C   UNL     1      -4.315  -7.054   1.273  1.00  0.00     0.008 C 
ATOM     19  C   UNL     1      -3.354  -5.676   3.133  1.00  0.00     0.012 C 
ATOM     20  C   UNL     1      -4.305  -4.304   0.007  1.00  0.00    -0.025 C 
ATOM     21  C   UNL     1      -3.306  -6.663   0.215  1.00  0.00     0.005 C 
ATOM     22  C   UNL     1      -3.920  -5.641  -0.770  1.00  0.00     0.003 C 
ATOM     23  C   UNL     1      -3.023  -3.417   0.152  1.00  0.00     0.010 C 
ATOM     24  C   UNL     1      -5.325  -3.493  -0.853  1.00  0.00     0.012 C 
ATOM     25  C   UNL     1      -3.005  -5.458  -2.080  1.00  0.00    -0.006 C 
ATOM     26  C   UNL     1      -2.250  -3.181  -1.146  1.00  0.00     0.033 C 
ATOM     27  C   UNL     1      -1.809  -4.504  -1.782  1.00  0.00     0.120 C 
ATOM     28  C   UNL     1      -3.838  -4.945  -3.302  1.00  0.00     0.014 C 
ATOM     29  C   UNL     1      -2.399  -6.817  -2.549  1.00  0.00     0.014 C 
ENDROOT
BRANCH   1  30
ATOM     30  C   UNL     1      -5.395  -5.810   6.828  1.00  0.00     0.048 C 
ATOM     31  O   UNL     1      -4.912  -6.275   7.895  1.00  0.00    -0.550 OA
ATOM     32  O   UNL     1      -4.770  -4.722   6.229  1.00  0.00    -0.550 OA
ENDBRANCH   1  30
BRANCH  27  33
ATOM     33  O   UNL     1      -1.093  -4.240  -2.963  1.00  0.00    -0.393 OA
ATOM     34  H   UNL     1      -0.415  -3.548  -2.744  1.00  0.00     0.210 HD
ENDBRANCH  27  33
TORSDOF 2
ENDMDL
MODEL 9
REMARK VINA RESULT:    -5.406      1.694      8.372
REMARK INTER + INTRA:          -5.743
REMARK INTER:                  -5.914
REMARK INTRA:                   0.170
REMARK UNBOUND:                 0.137
REMARK SMILES C[C@@H]1[C@H]2C3=CC[C@@H]4[C@@]5(C)CC[C@H](O)C(C)(C)[C@H]5CC[C@]4(C)[C@@]3(C)CC[C@]2(C(=O)[O-])CC[C@@H]1C
REMARK SMILES IDX 26 1 30 2 25 3 3 4 31 5 24 6 4 7 2 8 32 9 22 10 5 11 1 12
REMARK SMILES IDX 33 13 23 14 20 15 6 16 7 17 19 18 21 19 8 20 18 21 17 22
REMARK SMILES IDX 10 23 9 24 14 25 11 26 12 27 15 28 16 29 27 30 28 31 29 32
REMARK SMILES IDX 13 33
REMARK H PARENT 13 34
REMARK Flexibility Score: inf
ROOT
ATOM      1  C   UNL     1      -4.051  -5.831  -0.468  1.00  0.00     0.017 C 
ATOM      2  C   UNL     1      -4.856  -5.794   0.868  1.00  0.00     0.014 C 
ATOM      3  C   UNL     1      -2.694  -5.131  -0.224  1.00  0.00     0.014 C 
ATOM      4  C   UNL     1      -3.782  -7.318  -0.856  1.00  0.00     0.030 C 
ATOM      5  C   UNL     1      -6.046  -6.776   0.948  1.00  0.00     0.004 C 
ATOM      6  C   UNL     1      -1.839  -5.118  -1.493  1.00  0.00     0.013 C 
ATOM      7  C   UNL     1      -2.753  -7.455  -2.016  1.00  0.00    -0.063 C 
ATOM      8  C   UNL     1      -5.110  -8.167  -0.997  1.00  0.00    -0.003 C 
ATOM      9  C   UNL     1      -6.368  -7.463  -0.387  1.00  0.00    -0.011 C 
ATOM     10  C   UNL     1      -1.505  -6.547  -2.066  1.00  0.00    -0.006 C 
ATOM     11  C   UNL     1      -2.713  -8.594  -2.739  1.00  0.00    -0.027 C 
ATOM     12  C   UNL     1      -4.903  -9.577  -0.385  1.00  0.00     0.008 C 
ATOM     13  C   UNL     1      -7.588  -8.389  -0.243  1.00  0.00     0.008 C 
ATOM     14  C   UNL     1      -0.475  -7.172  -1.062  1.00  0.00     0.017 C 
ATOM     15  C   UNL     1      -0.913  -6.444  -3.593  1.00  0.00    -0.020 C 
ATOM     16  C   UNL     1      -1.523  -8.981  -3.564  1.00  0.00     0.032 C 
ATOM     17  C   UNL     1      -1.035  -7.805  -4.441  1.00  0.00     0.006 C 
ATOM     18  C   UNL     1       0.558  -5.964  -3.523  1.00  0.00     0.008 C 
ATOM     19  C   UNL     1      -1.712  -5.361  -4.397  1.00  0.00     0.012 C 
ATOM     20  C   UNL     1       0.115  -8.171  -5.548  1.00  0.00    -0.025 C 
ATOM     21  C   UNL     1       1.270  -5.981  -4.859  1.00  0.00     0.005 C 
ATOM     22  C   UNL     1       1.511  -7.434  -5.327  1.00  0.00     0.003 C 
ATOM     23  C   UNL     1      -0.439  -7.790  -6.962  1.00  0.00     0.010 C 
ATOM     24  C   UNL     1       0.351  -9.715  -5.553  1.00  0.00     0.012 C 
ATOM     25  C   UNL     1       2.544  -7.495  -6.559  1.00  0.00    -0.006 C 
ATOM     26  C   UNL     1       0.549  -7.973  -8.115  1.00  0.00     0.033 C 
ATOM     27  C   UNL     1       1.822  -7.147  -7.896  1.00  0.00     0.120 C 
ATOM     28  C   UNL     1       3.253  -8.888  -6.653  1.00  0.00     0.014 C 
ATOM     29  C   UNL     1       3.703  -6.466  -6.385  1.00  0.00     0.014 C 
ENDROOT
BRANCH   1  30
ATOM     30  C   UNL     1      -4.813  -5.062  -1.545  1.00  0.00     0.048 C 
ATOM     31  O   UNL     1      -4.891  -5.499  -2.725  1.00  0.00    -0.550 OA
ATOM     32  O   UNL     1      -5.386  -3.829  -1.249  1.00  0.00    -0.550 OA
ENDBRANCH   1  30
BRANCH  27  33
ATOM     33  O   UNL     1       2.694  -7.335  -8.982  1.00  0.00    -0.393 OA
ATOM     34  H   UNL     1       2.424  -6.690  -9.688  1.00  0.00     0.210 HD
ENDBRANCH  27  33
TORSDOF 2
ENDMDL
