MODEL 1
REMARK VINA RESULT:    -6.008      0.000      0.000
REMARK INTER + INTRA:         -12.355
REMARK INTER:                 -10.924
REMARK INTRA:                  -1.431
REMARK UNBOUND:                -1.431
REMARK SMILES CCCCCCCCCCCCCCCC(=O)[O-]
REMARK SMILES IDX 9 1 10 2 11 3 12 4 13 5 14 6 15 7 16 8 17 9 18 10 8 11 7 12
REMARK SMILES IDX 6 13 5 14 4 15 3 16 2 17 1 18
REMARK H PARENT
REMARK Flexibility Score: inf
ROOT
ATOM      1  C   UNL     1      -4.048  10.370 -17.656  1.00  0.00     0.000 C 
ENDROOT
BRANCH   1   2
ATOM      2  C   UNL     1      -3.121   9.159 -17.425  1.00  0.00     0.000 C 
BRANCH   2   3
ATOM      3  C   UNL     1      -2.143   8.849 -18.576  1.00  0.00     0.000 C 
BRANCH   3   4
ATOM      4  C   UNL     1      -0.652   8.879 -18.192  1.00  0.00     0.000 C 
BRANCH   4   5
ATOM      5  C   UNL     1       0.181   7.841 -18.964  1.00  0.00     0.000 C 
BRANCH   5   6
ATOM      6  C   UNL     1       0.308   6.508 -18.210  1.00  0.00     0.006 C 
BRANCH   6   7
ATOM      7  C   UNL     1      -0.315   5.334 -18.977  1.00  0.00     0.053 C 
BRANCH   7   8
ATOM      8  C   UNL     1      -1.699   5.060 -18.477  1.00  0.00     0.041 C 
ATOM      9  O   UNL     1      -2.459   4.281 -19.109  1.00  0.00    -0.550 OA
ATOM     10  O   UNL     1      -2.131   5.626 -17.285  1.00  0.00    -0.550 OA
ENDBRANCH   7   8
ENDBRANCH   6   7
ENDBRANCH   5   6
ENDBRANCH   4   5
ENDBRANCH   3   4
ENDBRANCH   2   3
ENDBRANCH   1   2
BRANCH   1  11
ATOM     11  C   UNL     1      -3.412  11.544 -18.423  1.00  0.00     0.000 C 
BRANCH  11  12
ATOM     12  C   UNL     1      -4.351  12.143 -19.484  1.00  0.00    -0.000 C 
BRANCH  12  13
ATOM     13  C   UNL     1      -5.252  11.086 -20.147  1.00  0.00    -0.000 C 
BRANCH  13  14
ATOM     14  C   UNL     1      -6.564  11.662 -20.721  1.00  0.00    -0.000 C 
BRANCH  14  15
ATOM     15  C   UNL     1      -7.807  11.029 -20.072  1.00  0.00    -0.000 C 
BRANCH  15  16
ATOM     16  C   UNL     1      -7.620  10.747 -18.570  1.00  0.00    -0.000 C 
BRANCH  16  17
ATOM     17  C   UNL     1      -7.731  11.984 -17.663  1.00  0.00    -0.003 C 
ATOM     18  C   UNL     1      -7.823  11.632 -16.179  1.00  0.00     0.004 C 
ENDBRANCH  16  17
ENDBRANCH  15  16
ENDBRANCH  14  15
ENDBRANCH  13  14
ENDBRANCH  12  13
ENDBRANCH  11  12
ENDBRANCH   1  11
TORSDOF 14
ENDMDL
MODEL 2
REMARK VINA RESULT:    -5.894      2.698      7.265
REMARK INTER + INTRA:         -12.148
REMARK INTER:                 -10.823
REMARK INTRA:                  -1.325
REMARK UNBOUND:                -1.431
REMARK SMILES CCCCCCCCCCCCCCCC(=O)[O-]
REMARK SMILES IDX 9 1 10 2 11 3 12 4 13 5 14 6 15 7 16 8 17 9 18 10 8 11 7 12
REMARK SMILES IDX 6 13 5 14 4 15 3 16 2 17 1 18
REMARK H PARENT
REMARK Flexibility Score: inf
ROOT
ATOM      1  C   UNL     1      -3.508   9.796 -17.847  1.00  0.00     0.000 C 
ENDROOT
BRANCH   1   2
ATOM      2  C   UNL     1      -3.134  11.262 -18.145  1.00  0.00     0.000 C 
BRANCH   2   3
ATOM      3  C   UNL     1      -4.068  11.992 -19.132  1.00  0.00     0.000 C 
BRANCH   3   4
ATOM      4  C   UNL     1      -4.693  11.100 -20.220  1.00  0.00     0.000 C 
BRANCH   4   5
ATOM      5  C   UNL     1      -6.212  11.306 -20.358  1.00  0.00     0.000 C 
BRANCH   5   6
ATOM      6  C   UNL     1      -6.851  11.859 -19.074  1.00  0.00     0.006 C 
BRANCH   6   7
ATOM      7  C   UNL     1      -7.615  10.787 -18.286  1.00  0.00     0.053 C 
BRANCH   7   8
ATOM      8  C   UNL     1      -7.401  10.970 -16.816  1.00  0.00     0.041 C 
ATOM      9  O   UNL     1      -6.457  10.372 -16.233  1.00  0.00    -0.550 OA
ATOM     10  O   UNL     1      -8.211  11.841 -16.099  1.00  0.00    -0.550 OA
ENDBRANCH   7   8
ENDBRANCH   6   7
ENDBRANCH   5   6
ENDBRANCH   4   5
ENDBRANCH   3   4
ENDBRANCH   2   3
ENDBRANCH   1   2
BRANCH   1  11
ATOM     11  C   UNL     1      -2.352   8.787 -17.975  1.00  0.00     0.000 C 
BRANCH  11  12
ATOM     12  C   UNL     1      -1.016   9.452 -18.345  1.00  0.00    -0.000 C 
BRANCH  12  13
ATOM     13  C   UNL     1       0.152   8.453 -18.400  1.00  0.00    -0.000 C 
BRANCH  13  14
ATOM     14  C   UNL     1      -0.088   7.270 -19.361  1.00  0.00    -0.000 C 
BRANCH  14  15
ATOM     15  C   UNL     1       0.261   5.918 -18.714  1.00  0.00    -0.000 C 
BRANCH  15  16
ATOM     16  C   UNL     1      -0.646   5.575 -17.518  1.00  0.00    -0.000 C 
BRANCH  16  17
ATOM     17  C   UNL     1      -2.025   5.008 -17.898  1.00  0.00    -0.003 C 
ATOM     18  C   UNL     1      -2.040   4.343 -19.273  1.00  0.00     0.004 C 
ENDBRANCH  16  17
ENDBRANCH  15  16
ENDBRANCH  14  15
ENDBRANCH  13  14
ENDBRANCH  12  13
ENDBRANCH  11  12
ENDBRANCH   1  11
TORSDOF 14
ENDMDL
MODEL 3
REMARK VINA RESULT:    -5.773      0.852      1.278
REMARK INTER + INTRA:         -11.928
REMARK INTER:                 -10.657
REMARK INTRA:                  -1.271
REMARK UNBOUND:                -1.431
REMARK SMILES CCCCCCCCCCCCCCCC(=O)[O-]
REMARK SMILES IDX 9 1 10 2 11 3 12 4 13 5 14 6 15 7 16 8 17 9 18 10 8 11 7 12
REMARK SMILES IDX 6 13 5 14 4 15 3 16 2 17 1 18
REMARK H PARENT
REMARK Flexibility Score: inf
ROOT
ATOM      1  C   UNL     1      -3.075  11.138 -18.042  1.00  0.00     0.000 C 
ENDROOT
BRANCH   1   2
ATOM      2  C   UNL     1      -3.605   9.755 -17.613  1.00  0.00     0.000 C 
BRANCH   2   3
ATOM      3  C   UNL     1      -2.674   8.567 -17.928  1.00  0.00     0.000 C 
BRANCH   3   4
ATOM      4  C   UNL     1      -1.187   8.931 -18.102  1.00  0.00     0.000 C 
BRANCH   4   5
ATOM      5  C   UNL     1      -0.467   8.021 -19.113  1.00  0.00     0.000 C 
BRANCH   5   6
ATOM      6  C   UNL     1       0.467   7.007 -18.432  1.00  0.00     0.006 C 
BRANCH   6   7
ATOM      7  C   UNL     1      -0.298   5.928 -17.655  1.00  0.00     0.053 C 
BRANCH   7   8
ATOM      8  C   UNL     1      -1.101   5.082 -18.592  1.00  0.00     0.041 C 
ATOM      9  O   UNL     1      -2.287   4.770 -18.306  1.00  0.00    -0.550 OA
ATOM     10  O   UNL     1      -0.556   4.679 -19.804  1.00  0.00    -0.550 OA
ENDBRANCH   7   8
ENDBRANCH   6   7
ENDBRANCH   5   6
ENDBRANCH   4   5
ENDBRANCH   3   4
ENDBRANCH   2   3
ENDBRANCH   1   2
BRANCH   1  11
ATOM     11  C   UNL     1      -3.903  11.849 -19.129  1.00  0.00     0.000 C 
BRANCH  11  12
ATOM     12  C   UNL     1      -4.900  10.910 -19.829  1.00  0.00    -0.000 C 
BRANCH  12  13
ATOM     13  C   UNL     1      -5.985  11.669 -20.611  1.00  0.00    -0.000 C 
BRANCH  13  14
ATOM     14  C   UNL     1      -7.414  11.143 -20.359  1.00  0.00    -0.000 C 
BRANCH  14  15
ATOM     15  C   UNL     1      -7.638  10.763 -18.884  1.00  0.00    -0.000 C 
BRANCH  15  16
ATOM     16  C   UNL     1      -7.671  11.986 -17.949  1.00  0.00    -0.000 C 
BRANCH  16  17
ATOM     17  C   UNL     1      -7.832  11.650 -16.456  1.00  0.00    -0.003 C 
ATOM     18  C   UNL     1      -6.963  10.475 -16.011  1.00  0.00     0.004 C 
ENDBRANCH  16  17
ENDBRANCH  15  16
ENDBRANCH  14  15
ENDBRANCH  13  14
ENDBRANCH  12  13
ENDBRANCH  11  12
ENDBRANCH   1  11
TORSDOF 14
ENDMDL
MODEL 4
REMARK VINA RESULT:    -5.431      2.892      7.191
REMARK INTER + INTRA:         -11.306
REMARK INTER:                 -10.113
REMARK INTRA:                  -1.194
REMARK UNBOUND:                -1.431
REMARK SMILES CCCCCCCCCCCCCCCC(=O)[O-]
REMARK SMILES IDX 9 1 10 2 11 3 12 4 13 5 14 6 15 7 16 8 17 9 18 10 8 11 7 12
REMARK SMILES IDX 6 13 5 14 4 15 3 16 2 17 1 18
REMARK H PARENT
REMARK Flexibility Score: inf
ROOT
ATOM      1  C   UNL     1      -2.176   8.958 -18.415  1.00  0.00     0.000 C 
ENDROOT
BRANCH   1   2
ATOM      2  C   UNL     1      -3.327   9.237 -17.427  1.00  0.00     0.000 C 
BRANCH   2   3
ATOM      3  C   UNL     1      -4.296  10.360 -17.846  1.00  0.00     0.000 C 
BRANCH   3   4
ATOM      4  C   UNL     1      -3.716  11.389 -18.834  1.00  0.00     0.000 C 
BRANCH   4   5
ATOM      5  C   UNL     1      -4.805  12.129 -19.630  1.00  0.00     0.000 C 
BRANCH   5   6
ATOM      6  C   UNL     1      -5.666  11.178 -20.477  1.00  0.00     0.006 C 
BRANCH   6   7
ATOM      7  C   UNL     1      -7.149  11.568 -20.481  1.00  0.00     0.053 C 
BRANCH   7   8
ATOM      8  C   UNL     1      -7.920  10.694 -19.541  1.00  0.00     0.041 C 
ATOM      9  O   UNL     1      -8.751   9.860 -19.989  1.00  0.00    -0.550 OA
ATOM     10  O   UNL     1      -7.684  10.765 -18.175  1.00  0.00    -0.550 OA
ENDBRANCH   7   8
ENDBRANCH   6   7
ENDBRANCH   5   6
ENDBRANCH   4   5
ENDBRANCH   3   4
ENDBRANCH   2   3
ENDBRANCH   1   2
BRANCH   1  11
ATOM     11  C   UNL     1      -0.826   9.600 -18.046  1.00  0.00     0.000 C 
BRANCH  11  12
ATOM     12  C   UNL     1       0.342   9.057 -18.886  1.00  0.00    -0.000 C 
BRANCH  12  13
ATOM     13  C   UNL     1       0.143   7.591 -19.307  1.00  0.00    -0.000 C 
BRANCH  13  14
ATOM     14  C   UNL     1       0.784   6.575 -18.337  1.00  0.00    -0.000 C 
BRANCH  14  15
ATOM     15  C   UNL     1       0.333   5.133 -18.628  1.00  0.00    -0.000 C 
BRANCH  15  16
ATOM     16  C   UNL     1      -0.937   5.066 -19.495  1.00  0.00    -0.000 C 
BRANCH  16  17
ATOM     17  C   UNL     1      -2.218   4.685 -18.732  1.00  0.00    -0.003 C 
ATOM     18  C   UNL     1      -2.355   5.410 -17.394  1.00  0.00     0.004 C 
ENDBRANCH  16  17
ENDBRANCH  15  16
ENDBRANCH  14  15
ENDBRANCH  13  14
ENDBRANCH  12  13
ENDBRANCH  11  12
ENDBRANCH   1  11
TORSDOF 14
ENDMDL
MODEL 5
REMARK VINA RESULT:    -4.896      2.340      4.033
REMARK INTER + INTRA:         -10.335
REMARK INTER:                  -9.389
REMARK INTRA:                  -0.946
REMARK UNBOUND:                -1.431
REMARK SMILES CCCCCCCCCCCCCCCC(=O)[O-]
REMARK SMILES IDX 9 1 10 2 11 3 12 4 13 5 14 6 15 7 16 8 17 9 18 10 8 11 7 12
REMARK SMILES IDX 6 13 5 14 4 15 3 16 2 17 1 18
REMARK H PARENT
REMARK Flexibility Score: inf
ROOT
ATOM      1  C   UNL     1      -3.451   9.030 -17.347  1.00  0.00     0.000 C 
ENDROOT
BRANCH   1   2
ATOM      2  C   UNL     1      -2.293   8.752 -18.327  1.00  0.00     0.000 C 
BRANCH   2   3
ATOM      3  C   UNL     1      -1.028   9.606 -18.111  1.00  0.00     0.000 C 
BRANCH   3   4
ATOM      4  C   UNL     1       0.295   8.818 -18.077  1.00  0.00     0.000 C 
BRANCH   4   5
ATOM      5  C   UNL     1       0.350   7.704 -19.137  1.00  0.00     0.000 C 
BRANCH   5   6
ATOM      6  C   UNL     1       0.397   6.299 -18.515  1.00  0.00     0.006 C 
BRANCH   6   7
ATOM      7  C   UNL     1      -0.436   5.277 -19.298  1.00  0.00     0.053 C 
BRANCH   7   8
ATOM      8  C   UNL     1      -1.694   4.950 -18.556  1.00  0.00     0.041 C 
ATOM      9  O   UNL     1      -1.915   5.463 -17.427  1.00  0.00    -0.550 OA
ATOM     10  O   UNL     1      -2.645   4.119 -19.132  1.00  0.00    -0.550 OA
ENDBRANCH   7   8
ENDBRANCH   6   7
ENDBRANCH   5   6
ENDBRANCH   4   5
ENDBRANCH   3   4
ENDBRANCH   2   3
ENDBRANCH   1   2
BRANCH   1  11
ATOM     11  C   UNL     1      -4.265  10.304 -17.639  1.00  0.00     0.000 C 
BRANCH  11  12
ATOM     12  C   UNL     1      -4.149  10.764 -19.102  1.00  0.00    -0.000 C 
BRANCH  12  13
ATOM     13  C   UNL     1      -4.002  12.290 -19.237  1.00  0.00    -0.000 C 
BRANCH  13  14
ATOM     14  C   UNL     1      -2.644  12.828 -18.739  1.00  0.00    -0.000 C 
BRANCH  14  15
ATOM     15  C   UNL     1      -2.409  14.289 -19.164  1.00  0.00    -0.000 C 
BRANCH  15  16
ATOM     16  C   UNL     1      -1.928  15.180 -18.005  1.00  0.00    -0.000 C 
BRANCH  16  17
ATOM     17  C   UNL     1      -0.696  16.043 -18.325  1.00  0.00    -0.003 C 
ATOM     18  C   UNL     1      -1.048  17.498 -18.631  1.00  0.00     0.004 C 
ENDBRANCH  16  17
ENDBRANCH  15  16
ENDBRANCH  14  15
ENDBRANCH  13  14
ENDBRANCH  12  13
ENDBRANCH  11  12
ENDBRANCH   1  11
TORSDOF 14
ENDMDL
MODEL 6
REMARK VINA RESULT:    -4.769      0.855      2.446
REMARK INTER + INTRA:         -10.103
REMARK INTER:                  -9.696
REMARK INTRA:                  -0.407
REMARK UNBOUND:                -1.431
REMARK SMILES CCCCCCCCCCCCCCCC(=O)[O-]
REMARK SMILES IDX 9 1 10 2 11 3 12 4 13 5 14 6 15 7 16 8 17 9 18 10 8 11 7 12
REMARK SMILES IDX 6 13 5 14 4 15 3 16 2 17 1 18
REMARK H PARENT
REMARK Flexibility Score: inf
ROOT
ATOM      1  C   UNL     1      -4.967  10.001 -17.464  1.00  0.00     0.000 C 
ENDROOT
BRANCH   1   2
ATOM      2  C   UNL     1      -3.523   9.557 -17.150  1.00  0.00     0.000 C 
BRANCH   2   3
ATOM      3  C   UNL     1      -2.646   9.254 -18.381  1.00  0.00     0.000 C 
BRANCH   3   4
ATOM      4  C   UNL     1      -1.145   9.075 -18.085  1.00  0.00     0.000 C 
BRANCH   4   5
ATOM      5  C   UNL     1      -0.508   7.940 -18.906  1.00  0.00     0.000 C 
BRANCH   5   6
ATOM      6  C   UNL     1       0.132   6.859 -18.020  1.00  0.00     0.006 C 
BRANCH   6   7
ATOM      7  C   UNL     1      -0.200   5.437 -18.489  1.00  0.00     0.053 C 
BRANCH   7   8
ATOM      8  C   UNL     1      -1.648   5.137 -18.259  1.00  0.00     0.041 C 
ATOM      9  O   UNL     1      -2.243   5.612 -17.256  1.00  0.00    -0.550 OA
ATOM     10  O   UNL     1      -2.354   4.375 -19.181  1.00  0.00    -0.550 OA
ENDBRANCH   7   8
ENDBRANCH   6   7
ENDBRANCH   5   6
ENDBRANCH   4   5
ENDBRANCH   3   4
ENDBRANCH   2   3
ENDBRANCH   1   2
BRANCH   1  11
ATOM     11  C   UNL     1      -5.893  10.129 -16.240  1.00  0.00     0.000 C 
BRANCH  11  12
ATOM     12  C   UNL     1      -7.252  10.761 -16.583  1.00  0.00    -0.000 C 
BRANCH  12  13
ATOM     13  C   UNL     1      -7.222  11.561 -17.898  1.00  0.00    -0.000 C 
BRANCH  13  14
ATOM     14  C   UNL     1      -7.681  10.749 -19.127  1.00  0.00    -0.000 C 
BRANCH  14  15
ATOM     15  C   UNL     1      -6.990  11.217 -20.421  1.00  0.00    -0.000 C 
BRANCH  15  16
ATOM     16  C   UNL     1      -5.465  11.364 -20.265  1.00  0.00    -0.000 C 
BRANCH  16  17
ATOM     17  C   UNL     1      -5.000  12.735 -19.746  1.00  0.00    -0.003 C 
ATOM     18  C   UNL     1      -3.606  12.697 -19.121  1.00  0.00     0.004 C 
ENDBRANCH  16  17
ENDBRANCH  15  16
ENDBRANCH  14  15
ENDBRANCH  13  14
ENDBRANCH  12  13
ENDBRANCH  11  12
ENDBRANCH   1  11
TORSDOF 14
ENDMDL
MODEL 7
REMARK VINA RESULT:    -4.635      4.912      8.351
REMARK INTER + INTRA:          -9.860
REMARK INTER:                  -9.087
REMARK INTRA:                  -0.773
REMARK UNBOUND:                -1.431
REMARK SMILES CCCCCCCCCCCCCCCC(=O)[O-]
REMARK SMILES IDX 9 1 10 2 11 3 12 4 13 5 14 6 15 7 16 8 17 9 18 10 8 11 7 12
REMARK SMILES IDX 6 13 5 14 4 15 3 16 2 17 1 18
REMARK H PARENT
REMARK Flexibility Score: inf
ROOT
ATOM      1  C   UNL     1      -4.758  10.663 -18.033  1.00  0.00     0.000 C 
ENDROOT
BRANCH   1   2
ATOM      2  C   UNL     1      -4.382  11.226 -19.418  1.00  0.00     0.000 C 
BRANCH   2   3
ATOM      3  C   UNL     1      -4.081  12.738 -19.455  1.00  0.00     0.000 C 
BRANCH   3   4
ATOM      4  C   UNL     1      -2.882  13.185 -18.598  1.00  0.00     0.000 C 
BRANCH   4   5
ATOM      5  C   UNL     1      -2.227  14.476 -19.119  1.00  0.00     0.000 C 
BRANCH   5   6
ATOM      6  C   UNL     1      -1.656  15.347 -17.988  1.00  0.00     0.006 C 
BRANCH   6   7
ATOM      7  C   UNL     1      -0.318  15.998 -18.361  1.00  0.00     0.053 C 
BRANCH   7   8
ATOM      8  C   UNL     1      -0.514  17.448 -18.674  1.00  0.00     0.041 C 
ATOM      9  O   UNL     1      -1.657  17.968 -18.580  1.00  0.00    -0.550 OA
ATOM     10  O   UNL     1       0.575  18.237 -19.021  1.00  0.00    -0.550 OA
ENDBRANCH   7   8
ENDBRANCH   6   7
ENDBRANCH   5   6
ENDBRANCH   4   5
ENDBRANCH   3   4
ENDBRANCH   2   3
ENDBRANCH   1   2
BRANCH   1  11
ATOM     11  C   UNL     1      -3.860   9.519 -17.526  1.00  0.00     0.000 C 
BRANCH  11  12
ATOM     12  C   UNL     1      -2.373   9.739 -17.849  1.00  0.00    -0.000 C 
BRANCH  12  13
ATOM     13  C   UNL     1      -1.639   8.433 -18.200  1.00  0.00    -0.000 C 
BRANCH  13  14
ATOM     14  C   UNL     1      -0.130   8.621 -18.463  1.00  0.00    -0.000 C 
BRANCH  14  15
ATOM     15  C   UNL     1       0.575   7.287 -18.767  1.00  0.00    -0.000 C 
BRANCH  15  16
ATOM     16  C   UNL     1      -0.383   6.216 -19.319  1.00  0.00    -0.000 C 
BRANCH  16  17
ATOM     17  C   UNL     1      -0.582   4.996 -18.404  1.00  0.00    -0.003 C 
ATOM     18  C   UNL     1      -2.054   4.665 -18.160  1.00  0.00     0.004 C 
ENDBRANCH  16  17
ENDBRANCH  15  16
ENDBRANCH  14  15
ENDBRANCH  13  14
ENDBRANCH  12  13
ENDBRANCH  11  12
ENDBRANCH   1  11
TORSDOF 14
ENDMDL
MODEL 8
REMARK VINA RESULT:    -4.533      2.797      7.583
REMARK INTER + INTRA:          -9.674
REMARK INTER:                  -8.940
REMARK INTRA:                  -0.734
REMARK UNBOUND:                -1.431
REMARK SMILES CCCCCCCCCCCCCCCC(=O)[O-]
REMARK SMILES IDX 9 1 10 2 11 3 12 4 13 5 14 6 15 7 16 8 17 9 18 10 8 11 7 12
REMARK SMILES IDX 6 13 5 14 4 15 3 16 2 17 1 18
REMARK H PARENT
REMARK Flexibility Score: inf
ROOT
ATOM      1  C   UNL     1      -2.709  10.246 -17.962  1.00  0.00     0.000 C 
ENDROOT
BRANCH   1   2
ATOM      2  C   UNL     1      -3.802  10.040 -16.894  1.00  0.00     0.000 C 
BRANCH   2   3
ATOM      3  C   UNL     1      -5.251  10.067 -17.421  1.00  0.00     0.000 C 
BRANCH   3   4
ATOM      4  C   UNL     1      -6.301  10.582 -16.419  1.00  0.00     0.000 C 
BRANCH   4   5
ATOM      5  C   UNL     1      -7.595  11.054 -17.104  1.00  0.00     0.000 C 
BRANCH   5   6
ATOM      6  C   UNL     1      -7.540  10.909 -18.633  1.00  0.00     0.006 C 
BRANCH   6   7
ATOM      7  C   UNL     1      -7.140  12.212 -19.337  1.00  0.00     0.053 C 
BRANCH   7   8
ATOM      8  C   UNL     1      -5.842  12.035 -20.061  1.00  0.00     0.041 C 
ATOM      9  O   UNL     1      -4.819  12.671 -19.692  1.00  0.00    -0.550 OA
ATOM     10  O   UNL     1      -5.749  11.131 -21.110  1.00  0.00    -0.550 OA
ENDBRANCH   7   8
ENDBRANCH   6   7
ENDBRANCH   5   6
ENDBRANCH   4   5
ENDBRANCH   3   4
ENDBRANCH   2   3
ENDBRANCH   1   2
BRANCH   1  11
ATOM     11  C   UNL     1      -1.908   8.984 -18.331  1.00  0.00     0.000 C 
BRANCH  11  12
ATOM     12  C   UNL     1      -0.496   9.302 -18.850  1.00  0.00    -0.000 C 
BRANCH  12  13
ATOM     13  C   UNL     1       0.601   8.512 -18.115  1.00  0.00    -0.000 C 
BRANCH  13  14
ATOM     14  C   UNL     1       0.685   7.030 -18.538  1.00  0.00    -0.000 C 
BRANCH  14  15
ATOM     15  C   UNL     1       0.350   6.077 -17.377  1.00  0.00    -0.000 C 
BRANCH  15  16
ATOM     16  C   UNL     1      -0.769   5.079 -17.726  1.00  0.00    -0.000 C 
BRANCH  16  17
ATOM     17  C   UNL     1      -1.006   4.878 -19.233  1.00  0.00    -0.003 C 
ATOM     18  C   UNL     1      -2.336   4.193 -19.543  1.00  0.00     0.004 C 
ENDBRANCH  16  17
ENDBRANCH  15  16
ENDBRANCH  14  15
ENDBRANCH  13  14
ENDBRANCH  12  13
ENDBRANCH  11  12
ENDBRANCH   1  11
TORSDOF 14
ENDMDL
MODEL 9
REMARK VINA RESULT:    -4.463      2.740      7.409
REMARK INTER + INTRA:          -9.546
REMARK INTER:                  -8.307
REMARK INTRA:                  -1.240
REMARK UNBOUND:                -1.431
REMARK SMILES CCCCCCCCCCCCCCCC(=O)[O-]
REMARK SMILES IDX 9 1 10 2 11 3 12 4 13 5 14 6 15 7 16 8 17 9 18 10 8 11 7 12
REMARK SMILES IDX 6 13 5 14 4 15 3 16 2 17 1 18
REMARK H PARENT
REMARK Flexibility Score: inf
ROOT
ATOM      1  C   UNL     1      -2.933   9.577 -18.378  1.00  0.00     0.000 C 
ENDROOT
BRANCH   1   2
ATOM      2  C   UNL     1      -3.427  11.005 -18.071  1.00  0.00     0.000 C 
BRANCH   2   3
ATOM      3  C   UNL     1      -3.649  11.904 -19.304  1.00  0.00     0.000 C 
BRANCH   3   4
ATOM      4  C   UNL     1      -5.085  12.433 -19.476  1.00  0.00     0.000 C 
BRANCH   4   5
ATOM      5  C   UNL     1      -6.005  11.433 -20.198  1.00  0.00     0.000 C 
BRANCH   5   6
ATOM      6  C   UNL     1      -7.096  10.865 -19.276  1.00  0.00     0.006 C 
BRANCH   6   7
ATOM      7  C   UNL     1      -7.561  11.873 -18.218  1.00  0.00     0.053 C 
BRANCH   7   8
ATOM      8  C   UNL     1      -7.452  11.278 -16.849  1.00  0.00     0.041 C 
ATOM      9  O   UNL     1      -6.535  10.456 -16.586  1.00  0.00    -0.550 OA
ATOM     10  O   UNL     1      -8.332  11.671 -15.849  1.00  0.00    -0.550 OA
ENDBRANCH   7   8
ENDBRANCH   6   7
ENDBRANCH   5   6
ENDBRANCH   4   5
ENDBRANCH   3   4
ENDBRANCH   2   3
ENDBRANCH   1   2
BRANCH   1  11
ATOM     11  C   UNL     1      -2.895   8.623 -17.169  1.00  0.00     0.000 C 
BRANCH  11  12
ATOM     12  C   UNL     1      -3.067   7.148 -17.567  1.00  0.00    -0.000 C 
BRANCH  12  13
ATOM     13  C   UNL     1      -1.800   6.312 -17.319  1.00  0.00    -0.000 C 
BRANCH  13  14
ATOM     14  C   UNL     1      -1.511   5.280 -18.430  1.00  0.00    -0.000 C 
BRANCH  14  15
ATOM     15  C   UNL     1      -0.061   5.370 -18.940  1.00  0.00    -0.000 C 
BRANCH  15  16
ATOM     16  C   UNL     1       0.662   6.643 -18.466  1.00  0.00    -0.000 C 
BRANCH  16  17
ATOM     17  C   UNL     1       0.309   7.916 -19.255  1.00  0.00    -0.003 C 
ATOM     18  C   UNL     1       0.602   9.200 -18.481  1.00  0.00     0.004 C 
ENDBRANCH  16  17
ENDBRANCH  15  16
ENDBRANCH  14  15
ENDBRANCH  13  14
ENDBRANCH  12  13
ENDBRANCH  11  12
ENDBRANCH   1  11
TORSDOF 14
ENDMDL
