MODEL 1
REMARK VINA RESULT:    -3.854      0.000      0.000
REMARK INTER + INTRA:          -5.267
REMARK INTER:                  -4.981
REMARK INTRA:                  -0.286
REMARK UNBOUND:                -0.286
REMARK SMILES CCO[C@H]1O[C@@H](CO)[C@H](O)[C@@H](O)[C@@H]1O
REMARK SMILES IDX 4 1 13 2 11 3 9 4 6 5 5 6 3 7 2 8 1 9 14 10 12 12 7 14 8 15
REMARK SMILES IDX 10 17
REMARK H PARENT 14 11 12 13 8 16 10 18
REMARK Flexibility Score: inf
ROOT
ATOM      1  C   UNL     1       5.604   3.602   2.822  1.00  0.00     0.281 C 
ATOM      2  C   UNL     1       6.317   3.446   1.453  1.00  0.00     0.202 C 
ATOM      3  C   UNL     1       7.790   3.847   1.573  1.00  0.00     0.179 C 
ATOM      4  C   UNL     1       8.482   2.938   2.606  1.00  0.00     0.177 C 
ATOM      5  C   UNL     1       7.561   2.650   3.830  1.00  0.00     0.178 C 
ATOM      6  O   UNL     1       6.488   3.578   3.942  1.00  0.00    -0.341 OA
ENDROOT
BRANCH   1   7
ATOM      7  O   UNL     1       4.608   2.601   2.949  1.00  0.00    -0.350 OA
BRANCH   7   8
ATOM      8  C   UNL     1       3.325   3.148   2.722  1.00  0.00     0.160 C 
ATOM      9  C   UNL     1       3.020   4.167   3.808  1.00  0.00     0.035 C 
ENDBRANCH   7   8
ENDBRANCH   1   7
BRANCH   2  10
ATOM     10  O   UNL     1       5.663   4.192   0.455  1.00  0.00    -0.385 OA
ATOM     11  H   UNL     1       6.314   4.360  -0.276  1.00  0.00     0.211 HD
ENDBRANCH   2  10
BRANCH   3  12
ATOM     12  O   UNL     1       8.414   3.717   0.320  1.00  0.00    -0.387 OA
ATOM     13  H   UNL     1       7.786   3.218  -0.263  1.00  0.00     0.211 HD
ENDBRANCH   3  12
BRANCH   5  14
ATOM     14  C   UNL     1       7.083   1.183   3.893  1.00  0.00     0.191 C 
BRANCH  14  15
ATOM     15  O   UNL     1       7.688   0.421   2.883  1.00  0.00    -0.394 OA
ATOM     16  H   UNL     1       7.809  -0.493   3.251  1.00  0.00     0.210 HD
ENDBRANCH  14  15
ENDBRANCH   5  14
BRANCH   4  17
ATOM     17  O   UNL     1       9.666   3.554   3.049  1.00  0.00    -0.387 OA
ATOM     18  H   UNL     1       9.443   4.498   3.261  1.00  0.00     0.211 HD
ENDBRANCH   4  17
TORSDOF 7
ENDMDL
MODEL 2
REMARK VINA RESULT:    -3.492      2.354      4.854
REMARK INTER + INTRA:          -4.800
REMARK INTER:                  -4.513
REMARK INTRA:                  -0.287
REMARK UNBOUND:                -0.286
REMARK SMILES CCO[C@H]1O[C@@H](CO)[C@H](O)[C@@H](O)[C@@H]1O
REMARK SMILES IDX 4 1 13 2 11 3 9 4 6 5 5 6 3 7 2 8 1 9 14 10 12 12 7 14 8 15
REMARK SMILES IDX 10 17
REMARK H PARENT 14 11 12 13 8 16 10 18
REMARK Flexibility Score: inf
ROOT
ATOM      1  C   UNL     1       8.967   4.290   2.627  1.00  0.00     0.281 C 
ATOM      2  C   UNL     1       7.965   4.368   1.444  1.00  0.00     0.202 C 
ATOM      3  C   UNL     1       6.629   3.732   1.838  1.00  0.00     0.179 C 
ATOM      4  C   UNL     1       6.042   4.487   3.045  1.00  0.00     0.177 C 
ATOM      5  C   UNL     1       7.147   4.884   4.069  1.00  0.00     0.178 C 
ATOM      6  O   UNL     1       8.347   4.138   3.903  1.00  0.00    -0.341 OA
ENDROOT
BRANCH   1   7
ATOM      7  O   UNL     1       9.804   5.434   2.609  1.00  0.00    -0.350 OA
BRANCH   7   8
ATOM      8  C   UNL     1      10.970   5.206   3.374  1.00  0.00     0.160 C 
ATOM      9  C   UNL     1      12.141   5.924   2.721  1.00  0.00     0.035 C 
ENDBRANCH   7   8
ENDBRANCH   1   7
BRANCH   2  10
ATOM     10  O   UNL     1       8.499   3.766   0.290  1.00  0.00    -0.385 OA
ATOM     11  H   UNL     1       9.479   3.927   0.288  1.00  0.00     0.211 HD
ENDBRANCH   2  10
BRANCH   3  12
ATOM     12  O   UNL     1       5.742   3.796   0.749  1.00  0.00    -0.387 OA
ATOM     13  H   UNL     1       5.008   3.157   0.938  1.00  0.00     0.211 HD
ENDBRANCH   3  12
BRANCH   5  14
ATOM     14  C   UNL     1       7.399   6.406   4.125  1.00  0.00     0.191 C 
BRANCH  14  15
ATOM     15  O   UNL     1       6.628   7.072   3.161  1.00  0.00    -0.394 OA
ATOM     16  H   UNL     1       7.218   7.219   2.376  1.00  0.00     0.210 HD
ENDBRANCH  14  15
ENDBRANCH   5  14
BRANCH   4  17
ATOM     17  O   UNL     1       5.085   3.676   3.681  1.00  0.00    -0.387 OA
ATOM     18  H   UNL     1       4.758   4.177   4.474  1.00  0.00     0.211 HD
ENDBRANCH   4  17
TORSDOF 7
ENDMDL
MODEL 3
REMARK VINA RESULT:    -3.425      2.531      4.247
REMARK INTER + INTRA:          -4.713
REMARK INTER:                  -4.508
REMARK INTRA:                  -0.204
REMARK UNBOUND:                -0.286
REMARK SMILES CCO[C@H]1O[C@@H](CO)[C@H](O)[C@@H](O)[C@@H]1O
REMARK SMILES IDX 4 1 13 2 11 3 9 4 6 5 5 6 3 7 2 8 1 9 14 10 12 12 7 14 8 15
REMARK SMILES IDX 10 17
REMARK H PARENT 14 11 12 13 8 16 10 18
REMARK Flexibility Score: inf
ROOT
ATOM      1  C   UNL     1       7.613   6.060   3.019  1.00  0.00     0.281 C 
ATOM      2  C   UNL     1       8.997   5.396   2.791  1.00  0.00     0.202 C 
ATOM      3  C   UNL     1       9.017   3.990   3.397  1.00  0.00     0.179 C 
ATOM      4  C   UNL     1       7.931   3.130   2.724  1.00  0.00     0.177 C 
ATOM      5  C   UNL     1       6.627   3.944   2.470  1.00  0.00     0.178 C 
ATOM      6  O   UNL     1       6.556   5.130   3.253  1.00  0.00    -0.341 OA
ENDROOT
BRANCH   1   7
ATOM      7  O   UNL     1       7.308   6.898   1.917  1.00  0.00    -0.350 OA
BRANCH   7   8
ATOM      8  C   UNL     1       7.361   8.257   2.300  1.00  0.00     0.160 C 
ATOM      9  C   UNL     1       8.505   8.937   1.565  1.00  0.00     0.035 C 
ENDBRANCH   7   8
ENDBRANCH   1   7
BRANCH   2  10
ATOM     10  O   UNL     1      10.031   6.194   3.313  1.00  0.00    -0.385 OA
ATOM     11  H   UNL     1      10.850   5.634   3.369  1.00  0.00     0.211 HD
ENDBRANCH   2  10
BRANCH   3  12
ATOM     12  O   UNL     1      10.284   3.413   3.197  1.00  0.00    -0.387 OA
ATOM     13  H   UNL     1      10.530   3.581   2.251  1.00  0.00     0.211 HD
ENDBRANCH   3  12
BRANCH   5  14
ATOM     14  C   UNL     1       6.363   4.207   0.972  1.00  0.00     0.191 C 
BRANCH  14  15
ATOM     15  O   UNL     1       5.166   3.599   0.565  1.00  0.00    -0.394 OA
ATOM     16  H   UNL     1       4.639   4.295   0.093  1.00  0.00     0.210 HD
ENDBRANCH  14  15
ENDBRANCH   5  14
BRANCH   4  17
ATOM     17  O   UNL     1       7.639   2.025   3.543  1.00  0.00    -0.387 OA
ATOM     18  H   UNL     1       6.673   2.075   3.768  1.00  0.00     0.211 HD
ENDBRANCH   4  17
TORSDOF 7
ENDMDL
MODEL 4
REMARK VINA RESULT:    -3.394      2.429      3.177
REMARK INTER + INTRA:          -4.672
REMARK INTER:                  -4.363
REMARK INTRA:                  -0.309
REMARK UNBOUND:                -0.286
REMARK SMILES CCO[C@H]1O[C@@H](CO)[C@H](O)[C@@H](O)[C@@H]1O
REMARK SMILES IDX 4 1 13 2 11 3 9 4 6 5 5 6 3 7 2 8 1 9 14 10 12 12 7 14 8 15
REMARK SMILES IDX 10 17
REMARK H PARENT 14 11 12 13 8 16 10 18
REMARK Flexibility Score: inf
ROOT
ATOM      1  C   UNL     1       6.964   5.194   3.548  1.00  0.00     0.281 C 
ATOM      2  C   UNL     1       7.327   6.471   2.745  1.00  0.00     0.202 C 
ATOM      3  C   UNL     1       8.841   6.700   2.767  1.00  0.00     0.179 C 
ATOM      4  C   UNL     1       9.549   5.489   2.132  1.00  0.00     0.177 C 
ATOM      5  C   UNL     1       8.870   4.146   2.538  1.00  0.00     0.178 C 
ATOM      6  O   UNL     1       8.045   4.272   3.691  1.00  0.00    -0.341 OA
ENDROOT
BRANCH   1   7
ATOM      7  O   UNL     1       5.845   4.564   2.948  1.00  0.00    -0.350 OA
BRANCH   7   8
ATOM      8  C   UNL     1       5.339   3.548   3.790  1.00  0.00     0.160 C 
ATOM      9  C   UNL     1       4.748   2.440   2.933  1.00  0.00     0.035 C 
ENDBRANCH   7   8
ENDBRANCH   1   7
BRANCH   2  10
ATOM     10  O   UNL     1       6.632   7.591   3.237  1.00  0.00    -0.385 OA
ATOM     11  H   UNL     1       7.025   8.402   2.818  1.00  0.00     0.211 HD
ENDBRANCH   2  10
BRANCH   3  12
ATOM     12  O   UNL     1       9.147   7.870   2.051  1.00  0.00    -0.387 OA
ATOM     13  H   UNL     1       9.121   7.633   1.088  1.00  0.00     0.211 HD
ENDBRANCH   3  12
BRANCH   5  14
ATOM     14  C   UNL     1       8.144   3.457   1.363  1.00  0.00     0.191 C 
BRANCH  14  15
ATOM     15  O   UNL     1       8.620   3.939   0.135  1.00  0.00    -0.394 OA
ATOM     16  H   UNL     1       8.198   3.384  -0.572  1.00  0.00     0.210 HD
ENDBRANCH  14  15
ENDBRANCH   5  14
BRANCH   4  17
ATOM     17  O   UNL     1      10.896   5.471   2.536  1.00  0.00    -0.387 OA
ATOM     18  H   UNL     1      11.002   6.173   3.230  1.00  0.00     0.211 HD
ENDBRANCH   4  17
TORSDOF 7
ENDMDL
MODEL 5
REMARK VINA RESULT:    -3.381      1.841      3.252
REMARK INTER + INTRA:          -4.655
REMARK INTER:                  -4.461
REMARK INTRA:                  -0.194
REMARK UNBOUND:                -0.286
REMARK SMILES CCO[C@H]1O[C@@H](CO)[C@H](O)[C@@H](O)[C@@H]1O
REMARK SMILES IDX 4 1 13 2 11 3 9 4 6 5 5 6 3 7 2 8 1 9 14 10 12 12 7 14 8 15
REMARK SMILES IDX 10 17
REMARK H PARENT 14 11 12 13 8 16 10 18
REMARK Flexibility Score: inf
ROOT
ATOM      1  C   UNL     1       6.402   3.550   2.192  1.00  0.00     0.281 C 
ATOM      2  C   UNL     1       7.633   3.123   3.035  1.00  0.00     0.202 C 
ATOM      3  C   UNL     1       8.915   3.713   2.440  1.00  0.00     0.179 C 
ATOM      4  C   UNL     1       8.815   5.250   2.440  1.00  0.00     0.177 C 
ATOM      5  C   UNL     1       7.382   5.735   2.064  1.00  0.00     0.178 C 
ATOM      6  O   UNL     1       6.613   4.728   1.415  1.00  0.00    -0.341 OA
ENDROOT
BRANCH   1   7
ATOM      7  O   UNL     1       5.281   3.706   3.045  1.00  0.00    -0.350 OA
BRANCH   7   8
ATOM      8  C   UNL     1       4.314   2.710   2.778  1.00  0.00     0.160 C 
ATOM      9  C   UNL     1       2.927   3.291   3.000  1.00  0.00     0.035 C 
ENDBRANCH   7   8
ENDBRANCH   1   7
BRANCH   2  10
ATOM     10  O   UNL     1       7.714   1.722   3.136  1.00  0.00    -0.385 OA
ATOM     11  H   UNL     1       8.448   1.503   3.768  1.00  0.00     0.211 HD
ENDBRANCH   2  10
BRANCH   3  12
ATOM     12  O   UNL     1      10.019   3.300   3.205  1.00  0.00    -0.387 OA
ATOM     13  H   UNL     1      10.148   3.981   3.915  1.00  0.00     0.211 HD
ENDBRANCH   3  12
BRANCH   5  14
ATOM     14  C   UNL     1       6.633   6.381   3.249  1.00  0.00     0.191 C 
BRANCH  14  15
ATOM     15  O   UNL     1       7.501   7.181   4.007  1.00  0.00    -0.394 OA
ATOM     16  H   UNL     1       7.385   8.112   3.683  1.00  0.00     0.210 HD
ENDBRANCH  14  15
ENDBRANCH   5  14
BRANCH   4  17
ATOM     17  O   UNL     1       9.742   5.777   1.523  1.00  0.00    -0.387 OA
ATOM     18  H   UNL     1       9.238   6.372   0.908  1.00  0.00     0.211 HD
ENDBRANCH   4  17
TORSDOF 7
ENDMDL
MODEL 6
REMARK VINA RESULT:    -3.223     11.263     13.463
REMARK INTER + INTRA:          -4.451
REMARK INTER:                  -4.020
REMARK INTRA:                  -0.432
REMARK UNBOUND:                -0.286
REMARK SMILES CCO[C@H]1O[C@@H](CO)[C@H](O)[C@@H](O)[C@@H]1O
REMARK SMILES IDX 4 1 13 2 11 3 9 4 6 5 5 6 3 7 2 8 1 9 14 10 12 12 7 14 8 15
REMARK SMILES IDX 10 17
REMARK H PARENT 14 11 12 13 8 16 10 18
REMARK Flexibility Score: inf
ROOT
ATOM      1  C   UNL     1      18.210   7.853   1.125  1.00  0.00     0.281 C 
ATOM      2  C   UNL     1      19.312   6.808   1.444  1.00  0.00     0.202 C 
ATOM      3  C   UNL     1      20.688   7.479   1.471  1.00  0.00     0.179 C 
ATOM      4  C   UNL     1      20.701   8.569   2.559  1.00  0.00     0.177 C 
ATOM      5  C   UNL     1      19.355   9.353   2.606  1.00  0.00     0.178 C 
ATOM      6  O   UNL     1      18.586   9.198   1.418  1.00  0.00    -0.341 OA
ENDROOT
BRANCH   1   7
ATOM      7  O   UNL     1      17.020   7.505   1.812  1.00  0.00    -0.350 OA
BRANCH   7   8
ATOM      8  C   UNL     1      15.899   8.102   1.194  1.00  0.00     0.160 C 
ATOM      9  C   UNL     1      14.656   7.798   2.016  1.00  0.00     0.035 C 
ENDBRANCH   7   8
ENDBRANCH   1   7
BRANCH   2  10
ATOM     10  O   UNL     1      19.278   5.744   0.523  1.00  0.00    -0.385 OA
ATOM     11  H   UNL     1      19.411   4.899   1.028  1.00  0.00     0.211 HD
ENDBRANCH   2  10
BRANCH   3  12
ATOM     12  O   UNL     1      21.673   6.513   1.741  1.00  0.00    -0.387 OA
ATOM     13  H   UNL     1      22.535   6.884   1.421  1.00  0.00     0.211 HD
ENDBRANCH   3  12
BRANCH   5  14
ATOM     14  C   UNL     1      18.536   9.068   3.883  1.00  0.00     0.191 C 
BRANCH  14  15
ATOM     15  O   UNL     1      17.345   9.809   3.883  1.00  0.00    -0.394 OA
ATOM     16  H   UNL     1      17.153  10.040   4.830  1.00  0.00     0.210 HD
ENDBRANCH  14  15
ENDBRANCH   5  14
BRANCH   4  17
ATOM     17  O   UNL     1      21.755   9.466   2.306  1.00  0.00    -0.387 OA
ATOM     18  H   UNL     1      21.440  10.369   2.573  1.00  0.00     0.211 HD
ENDBRANCH   4  17
TORSDOF 7
ENDMDL
MODEL 7
REMARK VINA RESULT:    -3.222      3.294      5.922
REMARK INTER + INTRA:          -4.450
REMARK INTER:                  -4.306
REMARK INTRA:                  -0.143
REMARK UNBOUND:                -0.286
REMARK SMILES CCO[C@H]1O[C@@H](CO)[C@H](O)[C@@H](O)[C@@H]1O
REMARK SMILES IDX 4 1 13 2 11 3 9 4 6 5 5 6 3 7 2 8 1 9 14 10 12 12 7 14 8 15
REMARK SMILES IDX 10 17
REMARK H PARENT 14 11 12 13 8 16 10 18
REMARK Flexibility Score: inf
ROOT
ATOM      1  C   UNL     1      10.208   4.929   3.706  1.00  0.00     0.281 C 
ATOM      2  C   UNL     1       9.264   4.329   2.630  1.00  0.00     0.202 C 
ATOM      3  C   UNL     1       7.987   5.168   2.518  1.00  0.00     0.179 C 
ATOM      4  C   UNL     1       8.358   6.607   2.115  1.00  0.00     0.177 C 
ATOM      5  C   UNL     1       9.652   7.093   2.835  1.00  0.00     0.178 C 
ATOM      6  O   UNL     1       9.973   6.310   3.979  1.00  0.00    -0.341 OA
ENDROOT
BRANCH   1   7
ATOM      7  O   UNL     1      11.555   4.718   3.318  1.00  0.00    -0.350 OA
BRANCH   7   8
ATOM      8  C   UNL     1      12.152   3.722   4.124  1.00  0.00     0.160 C 
ATOM      9  C   UNL     1      13.658   3.750   3.914  1.00  0.00     0.035 C 
ENDBRANCH   7   8
ENDBRANCH   1   7
BRANCH   2  10
ATOM     10  O   UNL     1       8.969   2.982   2.912  1.00  0.00    -0.385 OA
ATOM     11  H   UNL     1       7.998   2.918   3.108  1.00  0.00     0.211 HD
ENDBRANCH   2  10
BRANCH   3  12
ATOM     12  O   UNL     1       7.138   4.598   1.554  1.00  0.00    -0.387 OA
ATOM     13  H   UNL     1       7.152   5.201   0.766  1.00  0.00     0.211 HD
ENDBRANCH   3  12
BRANCH   5  14
ATOM     14  C   UNL     1      10.850   7.258   1.876  1.00  0.00     0.191 C 
BRANCH  14  15
ATOM     15  O   UNL     1      10.694   6.445   0.743  1.00  0.00    -0.394 OA
ATOM     16  H   UNL     1      11.485   6.607   0.166  1.00  0.00     0.210 HD
ENDBRANCH  14  15
ENDBRANCH   5  14
BRANCH   4  17
ATOM     17  O   UNL     1       7.294   7.469   2.436  1.00  0.00    -0.387 OA
ATOM     18  H   UNL     1       6.612   6.927   2.912  1.00  0.00     0.211 HD
ENDBRANCH   4  17
TORSDOF 7
ENDMDL
MODEL 8
REMARK VINA RESULT:    -3.156      2.481      4.181
REMARK INTER + INTRA:          -4.365
REMARK INTER:                  -3.923
REMARK INTRA:                  -0.442
REMARK UNBOUND:                -0.286
REMARK SMILES CCO[C@H]1O[C@@H](CO)[C@H](O)[C@@H](O)[C@@H]1O
REMARK SMILES IDX 4 1 13 2 11 3 9 4 6 5 5 6 3 7 2 8 1 9 14 10 12 12 7 14 8 15
REMARK SMILES IDX 10 17
REMARK H PARENT 14 11 12 13 8 16 10 18
REMARK Flexibility Score: inf
ROOT
ATOM      1  C   UNL     1       8.408   3.949   2.714  1.00  0.00     0.281 C 
ATOM      2  C   UNL     1       9.685   4.605   3.304  1.00  0.00     0.202 C 
ATOM      3  C   UNL     1      10.067   5.846   2.492  1.00  0.00     0.179 C 
ATOM      4  C   UNL     1       8.911   6.863   2.543  1.00  0.00     0.177 C 
ATOM      5  C   UNL     1       7.523   6.162   2.450  1.00  0.00     0.178 C 
ATOM      6  O   UNL     1       7.607   4.837   1.936  1.00  0.00    -0.341 OA
ENDROOT
BRANCH   1   7
ATOM      7  O   UNL     1       7.646   3.377   3.764  1.00  0.00    -0.350 OA
BRANCH   7   8
ATOM      8  C   UNL     1       7.245   2.065   3.426  1.00  0.00     0.160 C 
ATOM      9  C   UNL     1       5.728   1.979   3.485  1.00  0.00     0.035 C 
ENDBRANCH   7   8
ENDBRANCH   1   7
BRANCH   2  10
ATOM     10  O   UNL     1      10.746   3.682   3.359  1.00  0.00    -0.385 OA
ATOM     11  H   UNL     1      10.753   3.281   4.268  1.00  0.00     0.211 HD
ENDBRANCH   2  10
BRANCH   3  12
ATOM     12  O   UNL     1      11.235   6.414   3.030  1.00  0.00    -0.387 OA
ATOM     13  H   UNL     1      11.859   6.561   2.273  1.00  0.00     0.211 HD
ENDBRANCH   3  12
BRANCH   5  14
ATOM     14  C   UNL     1       6.721   6.236   3.767  1.00  0.00     0.191 C 
BRANCH  14  15
ATOM     15  O   UNL     1       5.548   5.471   3.676  1.00  0.00    -0.394 OA
ATOM     16  H   UNL     1       5.800   4.615   3.242  1.00  0.00     0.210 HD
ENDBRANCH  14  15
ENDBRANCH   5  14
BRANCH   4  17
ATOM     17  O   UNL     1       9.046   7.774   1.479  1.00  0.00    -0.387 OA
ATOM     18  H   UNL     1       8.337   7.559   0.819  1.00  0.00     0.211 HD
ENDBRANCH   4  17
TORSDOF 7
ENDMDL
MODEL 9
REMARK VINA RESULT:    -3.117     11.619     13.289
REMARK INTER + INTRA:          -4.314
REMARK INTER:                  -3.882
REMARK INTRA:                  -0.432
REMARK UNBOUND:                -0.286
REMARK SMILES CCO[C@H]1O[C@@H](CO)[C@H](O)[C@@H](O)[C@@H]1O
REMARK SMILES IDX 4 1 13 2 11 3 9 4 6 5 5 6 3 7 2 8 1 9 14 10 12 12 7 14 8 15
REMARK SMILES IDX 10 17
REMARK H PARENT 14 11 12 13 8 16 10 18
REMARK Flexibility Score: inf
ROOT
ATOM      1  C   UNL     1      18.105   7.782   1.562  1.00  0.00     0.281 C 
ATOM      2  C   UNL     1      17.211   8.746   0.736  1.00  0.00     0.202 C 
ATOM      3  C   UNL     1      16.059   9.270   1.598  1.00  0.00     0.179 C 
ATOM      4  C   UNL     1      16.634  10.031   2.807  1.00  0.00     0.177 C 
ATOM      5  C   UNL     1      17.895   9.324   3.387  1.00  0.00     0.178 C 
ATOM      6  O   UNL     1      18.005   7.967   2.973  1.00  0.00    -0.341 OA
ENDROOT
BRANCH   1   7
ATOM      7  O   UNL     1      19.450   7.908   1.134  1.00  0.00    -0.350 OA
BRANCH   7   8
ATOM      8  C   UNL     1      20.197   6.768   1.507  1.00  0.00     0.160 C 
ATOM      9  C   UNL     1      20.084   5.720   0.412  1.00  0.00     0.035 C 
ENDBRANCH   7   8
ENDBRANCH   1   7
BRANCH   2  10
ATOM     10  O   UNL     1      16.734   8.117  -0.429  1.00  0.00    -0.385 OA
ATOM     11  H   UNL     1      17.054   8.640  -1.210  1.00  0.00     0.211 HD
ENDBRANCH   2  10
BRANCH   3  12
ATOM     12  O   UNL     1      15.251  10.125   0.828  1.00  0.00    -0.387 OA
ATOM     13  H   UNL     1      15.727  10.276  -0.029  1.00  0.00     0.211 HD
ENDBRANCH   3  12
BRANCH   5  14
ATOM     14  C   UNL     1      19.196  10.121   3.150  1.00  0.00     0.191 C 
BRANCH  14  15
ATOM     15  O   UNL     1      20.294   9.457   3.715  1.00  0.00    -0.394 OA
ATOM     16  H   UNL     1      20.123   8.485   3.612  1.00  0.00     0.210 HD
ENDBRANCH  14  15
ENDBRANCH   5  14
BRANCH   4  17
ATOM     17  O   UNL     1      15.650  10.125   3.809  1.00  0.00    -0.387 OA
ATOM     18  H   UNL     1      14.802   9.790   3.417  1.00  0.00     0.211 HD
ENDBRANCH   4  17
TORSDOF 7
ENDMDL
