MODEL 1
REMARK VINA RESULT:    -2.638      0.000      0.000
REMARK INTER + INTRA:          -7.242
REMARK INTER:                  -5.106
REMARK INTRA:                  -2.137
REMARK UNBOUND:                -2.137
REMARK SMILES CCCCCCCCCCCCCCCCCC(=O)[O-]
REMARK SMILES IDX 10 1 11 2 12 3 13 4 14 5 15 6 16 7 17 8 18 9 19 10 20 11
REMARK SMILES IDX 9 12 8 13 7 14 6 15 5 16 4 17 3 18 2 19 1 20
REMARK H PARENT
REMARK Flexibility Score: inf
ROOT
ATOM      1  C   UNL     1       1.618  22.932   6.722  1.00  0.00     0.000 C 
ENDROOT
BRANCH   1   2
ATOM      2  C   UNL     1       0.340  22.077   6.841  1.00  0.00     0.000 C 
BRANCH   2   3
ATOM      3  C   UNL     1      -0.785  22.436   5.848  1.00  0.00     0.000 C 
BRANCH   3   4
ATOM      4  C   UNL     1      -1.364  21.245   5.064  1.00  0.00     0.000 C 
BRANCH   4   5
ATOM      5  C   UNL     1      -1.101  21.340   3.555  1.00  0.00     0.000 C 
BRANCH   5   6
ATOM      6  C   UNL     1      -2.041  22.359   2.895  1.00  0.00     0.000 C 
BRANCH   6   7
ATOM      7  C   UNL     1      -1.311  23.292   1.915  1.00  0.00     0.006 C 
BRANCH   7   8
ATOM      8  C   UNL     1      -0.595  24.449   2.623  1.00  0.00     0.053 C 
BRANCH   8   9
ATOM      9  C   UNL     1       0.836  24.518   2.194  1.00  0.00     0.041 C 
ATOM     10  O   UNL     1       1.396  25.635   2.033  1.00  0.00    -0.550 OA
ATOM     11  O   UNL     1       1.566  23.350   2.014  1.00  0.00    -0.550 OA
ENDBRANCH   8   9
ENDBRANCH   7   8
ENDBRANCH   6   7
ENDBRANCH   5   6
ENDBRANCH   4   5
ENDBRANCH   3   4
ENDBRANCH   2   3
ENDBRANCH   1   2
BRANCH   1  12
ATOM     12  C   UNL     1       2.396  22.754   5.407  1.00  0.00     0.000 C 
BRANCH  12  13
ATOM     13  C   UNL     1       3.357  21.555   5.443  1.00  0.00    -0.000 C 
BRANCH  13  14
ATOM     14  C   UNL     1       4.051  21.395   6.804  1.00  0.00    -0.000 C 
BRANCH  14  15
ATOM     15  C   UNL     1       5.435  22.068   6.841  1.00  0.00    -0.000 C 
BRANCH  15  16
ATOM     16  C   UNL     1       5.384  23.492   7.417  1.00  0.00    -0.000 C 
BRANCH  16  17
ATOM     17  C   UNL     1       5.996  24.539   6.469  1.00  0.00    -0.000 C 
BRANCH  17  18
ATOM     18  C   UNL     1       6.375  23.946   5.102  1.00  0.00    -0.000 C 
BRANCH  18  19
ATOM     19  C   UNL     1       6.063  24.898   3.940  1.00  0.00    -0.003 C 
ATOM     20  C   UNL     1       4.615  24.750   3.481  1.00  0.00     0.004 C 
ENDBRANCH  18  19
ENDBRANCH  17  18
ENDBRANCH  16  17
ENDBRANCH  15  16
ENDBRANCH  14  15
ENDBRANCH  13  14
ENDBRANCH  12  13
ENDBRANCH   1  12
TORSDOF 16
ENDMDL
MODEL 2
REMARK VINA RESULT:    -2.585      2.479      6.746
REMARK INTER + INTRA:          -7.139
REMARK INTER:                  -4.586
REMARK INTRA:                  -2.552
REMARK UNBOUND:                -2.137
REMARK SMILES CCCCCCCCCCCCCCCCCC(=O)[O-]
REMARK SMILES IDX 10 1 11 2 12 3 13 4 14 5 15 6 16 7 17 8 18 9 19 10 20 11
REMARK SMILES IDX 9 12 8 13 7 14 6 15 5 16 4 17 3 18 2 19 1 20
REMARK H PARENT
REMARK Flexibility Score: inf
ROOT
ATOM      1  C   UNL     1       1.334  24.825   2.227  1.00  0.00     0.000 C 
ENDROOT
BRANCH   1   2
ATOM      2  C   UNL     1       2.757  24.234   2.158  1.00  0.00     0.000 C 
BRANCH   2   3
ATOM      3  C   UNL     1       3.837  25.033   2.917  1.00  0.00     0.000 C 
BRANCH   3   4
ATOM      4  C   UNL     1       4.957  24.180   3.541  1.00  0.00     0.000 C 
BRANCH   4   5
ATOM      5  C   UNL     1       6.265  24.959   3.731  1.00  0.00     0.000 C 
BRANCH   5   6
ATOM      6  C   UNL     1       6.752  24.870   5.184  1.00  0.00     0.000 C 
BRANCH   6   7
ATOM      7  C   UNL     1       5.639  24.450   6.158  1.00  0.00     0.006 C 
BRANCH   7   8
ATOM      8  C   UNL     1       6.187  23.824   7.447  1.00  0.00     0.053 C 
BRANCH   8   9
ATOM      9  C   UNL     1       5.945  22.348   7.454  1.00  0.00     0.041 C 
ATOM     10  O   UNL     1       5.681  21.755   8.534  1.00  0.00    -0.550 OA
ATOM     11  O   UNL     1       5.969  21.633   6.263  1.00  0.00    -0.550 OA
ENDBRANCH   8   9
ENDBRANCH   7   8
ENDBRANCH   6   7
ENDBRANCH   5   6
ENDBRANCH   4   5
ENDBRANCH   3   4
ENDBRANCH   2   3
ENDBRANCH   1   2
BRANCH   1  12
ATOM     12  C   UNL     1       0.203  23.826   1.923  1.00  0.00     0.000 C 
BRANCH  12  13
ATOM     13  C   UNL     1       0.686  22.367   1.912  1.00  0.00    -0.000 C 
BRANCH  13  14
ATOM     14  C   UNL     1      -0.288  21.417   2.627  1.00  0.00    -0.000 C 
BRANCH  14  15
ATOM     15  C   UNL     1      -1.291  22.168   3.520  1.00  0.00    -0.000 C 
BRANCH  15  16
ATOM     16  C   UNL     1      -1.260  21.685   4.980  1.00  0.00    -0.000 C 
BRANCH  16  17
ATOM     17  C   UNL     1       0.172  21.458   5.499  1.00  0.00    -0.000 C 
BRANCH  17  18
ATOM     18  C   UNL     1       0.882  22.772   5.862  1.00  0.00    -0.000 C 
BRANCH  18  19
ATOM     19  C   UNL     1       2.405  22.685   5.688  1.00  0.00    -0.003 C 
ATOM     20  C   UNL     1       2.796  21.454   4.874  1.00  0.00     0.004 C 
ENDBRANCH  18  19
ENDBRANCH  17  18
ENDBRANCH  16  17
ENDBRANCH  15  16
ENDBRANCH  14  15
ENDBRANCH  13  14
ENDBRANCH  12  13
ENDBRANCH   1  12
TORSDOF 16
ENDMDL
MODEL 3
REMARK VINA RESULT:    -2.570      0.931      5.825
REMARK INTER + INTRA:          -7.111
REMARK INTER:                  -4.740
REMARK INTRA:                  -2.371
REMARK UNBOUND:                -2.137
REMARK SMILES CCCCCCCCCCCCCCCCCC(=O)[O-]
REMARK SMILES IDX 10 1 11 2 12 3 13 4 14 5 15 6 16 7 17 8 18 9 19 10 20 11
REMARK SMILES IDX 9 12 8 13 7 14 6 15 5 16 4 17 3 18 2 19 1 20
REMARK H PARENT
REMARK Flexibility Score: inf
ROOT
ATOM      1  C   UNL     1       3.764  21.517   6.967  1.00  0.00     0.000 C 
ENDROOT
BRANCH   1   2
ATOM      2  C   UNL     1       4.910  22.374   7.541  1.00  0.00     0.000 C 
BRANCH   2   3
ATOM      3  C   UNL     1       4.993  23.813   6.990  1.00  0.00     0.000 C 
BRANCH   3   4
ATOM      4  C   UNL     1       6.421  24.362   6.821  1.00  0.00     0.000 C 
BRANCH   4   5
ATOM      5  C   UNL     1       6.713  24.837   5.391  1.00  0.00     0.000 C 
BRANCH   5   6
ATOM      6  C   UNL     1       6.404  23.731   4.371  1.00  0.00     0.000 C 
BRANCH   6   7
ATOM      7  C   UNL     1       5.700  24.265   3.113  1.00  0.00     0.006 C 
BRANCH   7   8
ATOM      8  C   UNL     1       4.378  24.975   3.432  1.00  0.00     0.053 C 
BRANCH   8   9
ATOM      9  C   UNL     1       3.325  24.586   2.443  1.00  0.00     0.041 C 
ATOM     10  O   UNL     1       2.470  25.430   2.064  1.00  0.00    -0.550 OA
ATOM     11  O   UNL     1       3.313  23.305   1.908  1.00  0.00    -0.550 OA
ENDBRANCH   8   9
ENDBRANCH   7   8
ENDBRANCH   6   7
ENDBRANCH   5   6
ENDBRANCH   4   5
ENDBRANCH   3   4
ENDBRANCH   2   3
ENDBRANCH   1   2
BRANCH   1  12
ATOM     12  C   UNL     1       3.433  21.785   5.488  1.00  0.00     0.000 C 
BRANCH  12  13
ATOM     13  C   UNL     1       2.137  22.590   5.306  1.00  0.00    -0.000 C 
BRANCH  13  14
ATOM     14  C   UNL     1       1.316  22.689   6.601  1.00  0.00    -0.000 C 
BRANCH  14  15
ATOM     15  C   UNL     1      -0.126  22.180   6.423  1.00  0.00    -0.000 C 
BRANCH  15  16
ATOM     16  C   UNL     1      -0.299  21.328   5.155  1.00  0.00    -0.000 C 
BRANCH  16  17
ATOM     17  C   UNL     1      -1.576  21.682   4.372  1.00  0.00    -0.000 C 
BRANCH  17  18
ATOM     18  C   UNL     1      -1.295  21.984   2.891  1.00  0.00    -0.000 C 
BRANCH  18  19
ATOM     19  C   UNL     1      -0.322  23.156   2.704  1.00  0.00    -0.003 C 
ATOM     20  C   UNL     1      -0.929  24.461   3.214  1.00  0.00     0.004 C 
ENDBRANCH  18  19
ENDBRANCH  17  18
ENDBRANCH  16  17
ENDBRANCH  15  16
ENDBRANCH  14  15
ENDBRANCH  13  14
ENDBRANCH  12  13
ENDBRANCH   1  12
TORSDOF 16
ENDMDL
MODEL 4
REMARK VINA RESULT:    -2.528      1.355      2.828
REMARK INTER + INTRA:          -7.030
REMARK INTER:                  -5.137
REMARK INTRA:                  -1.893
REMARK UNBOUND:                -2.137
REMARK SMILES CCCCCCCCCCCCCCCCCC(=O)[O-]
REMARK SMILES IDX 10 1 11 2 12 3 13 4 14 5 15 6 16 7 17 8 18 9 19 10 20 11
REMARK SMILES IDX 9 12 8 13 7 14 6 15 5 16 4 17 3 18 2 19 1 20
REMARK H PARENT
REMARK Flexibility Score: inf
ROOT
ATOM      1  C   UNL     1       3.748  23.347   6.864  1.00  0.00     0.000 C 
ENDROOT
BRANCH   1   2
ATOM      2  C   UNL     1       2.674  22.316   6.460  1.00  0.00     0.000 C 
BRANCH   2   3
ATOM      3  C   UNL     1       1.221  22.722   6.781  1.00  0.00     0.000 C 
BRANCH   3   4
ATOM      4  C   UNL     1       0.166  21.638   6.494  1.00  0.00     0.000 C 
BRANCH   4   5
ATOM      5  C   UNL     1      -0.920  22.105   5.515  1.00  0.00     0.000 C 
BRANCH   5   6
ATOM      6  C   UNL     1      -0.751  21.432   4.145  1.00  0.00     0.000 C 
BRANCH   6   7
ATOM      7  C   UNL     1       0.437  21.996   3.349  1.00  0.00     0.006 C 
BRANCH   7   8
ATOM      8  C   UNL     1      -0.006  22.812   2.127  1.00  0.00     0.053 C 
BRANCH   8   9
ATOM      9  C   UNL     1      -0.174  24.252   2.493  1.00  0.00     0.041 C 
ATOM     10  O   UNL     1       0.769  25.067   2.312  1.00  0.00    -0.550 OA
ATOM     11  O   UNL     1      -1.389  24.705   2.994  1.00  0.00    -0.550 OA
ENDBRANCH   8   9
ENDBRANCH   7   8
ENDBRANCH   6   7
ENDBRANCH   5   6
ENDBRANCH   4   5
ENDBRANCH   3   4
ENDBRANCH   2   3
ENDBRANCH   1   2
BRANCH   1  12
ATOM     12  C   UNL     1       4.973  22.757   7.585  1.00  0.00     0.000 C 
BRANCH  12  13
ATOM     13  C   UNL     1       6.295  23.395   7.127  1.00  0.00    -0.000 C 
BRANCH  13  14
ATOM     14  C   UNL     1       6.081  24.700   6.346  1.00  0.00    -0.000 C 
BRANCH  14  15
ATOM     15  C   UNL     1       7.125  24.895   5.231  1.00  0.00    -0.000 C 
BRANCH  15  16
ATOM     16  C   UNL     1       6.485  25.027   3.839  1.00  0.00    -0.000 C 
BRANCH  16  17
ATOM     17  C   UNL     1       4.970  24.756   3.854  1.00  0.00    -0.000 C 
BRANCH  17  18
ATOM     18  C   UNL     1       4.347  24.813   2.449  1.00  0.00    -0.000 C 
BRANCH  18  19
ATOM     19  C   UNL     1       4.040  23.419   1.884  1.00  0.00    -0.003 C 
ATOM     20  C   UNL     1       4.037  22.367   2.990  1.00  0.00     0.004 C 
ENDBRANCH  18  19
ENDBRANCH  17  18
ENDBRANCH  16  17
ENDBRANCH  15  16
ENDBRANCH  14  15
ENDBRANCH  13  14
ENDBRANCH  12  13
ENDBRANCH   1  12
TORSDOF 16
ENDMDL
MODEL 5
REMARK VINA RESULT:    -2.491      2.211      6.591
REMARK INTER + INTRA:          -6.957
REMARK INTER:                  -4.699
REMARK INTRA:                  -2.258
REMARK UNBOUND:                -2.137
REMARK SMILES CCCCCCCCCCCCCCCCCC(=O)[O-]
REMARK SMILES IDX 10 1 11 2 12 3 13 4 14 5 15 6 16 7 17 8 18 9 19 10 20 11
REMARK SMILES IDX 9 12 8 13 7 14 6 15 5 16 4 17 3 18 2 19 1 20
REMARK H PARENT
REMARK Flexibility Score: inf
ROOT
ATOM      1  C   UNL     1       1.202  23.988   1.941  1.00  0.00     0.000 C 
ENDROOT
BRANCH   1   2
ATOM      2  C   UNL     1       2.530  24.764   2.046  1.00  0.00     0.000 C 
BRANCH   2   3
ATOM      3  C   UNL     1       3.509  24.247   3.120  1.00  0.00     0.000 C 
BRANCH   3   4
ATOM      4  C   UNL     1       3.620  22.714   3.214  1.00  0.00     0.000 C 
BRANCH   4   5
ATOM      5  C   UNL     1       2.898  22.137   4.439  1.00  0.00     0.000 C 
BRANCH   5   6
ATOM      6  C   UNL     1       2.992  23.096   5.634  1.00  0.00     0.000 C 
BRANCH   6   7
ATOM      7  C   UNL     1       3.823  22.521   6.792  1.00  0.00     0.006 C 
BRANCH   7   8
ATOM      8  C   UNL     1       4.976  23.445   7.207  1.00  0.00     0.053 C 
BRANCH   8   9
ATOM      9  C   UNL     1       5.913  23.659   6.061  1.00  0.00     0.041 C 
ATOM     10  O   UNL     1       6.521  22.682   5.549  1.00  0.00    -0.550 OA
ATOM     11  O   UNL     1       6.081  24.931   5.529  1.00  0.00    -0.550 OA
ENDBRANCH   8   9
ENDBRANCH   7   8
ENDBRANCH   6   7
ENDBRANCH   5   6
ENDBRANCH   4   5
ENDBRANCH   3   4
ENDBRANCH   2   3
ENDBRANCH   1   2
BRANCH   1  12
ATOM     12  C   UNL     1       0.010  24.642   2.661  1.00  0.00     0.000 C 
BRANCH  12  13
ATOM     13  C   UNL     1      -1.261  23.779   2.612  1.00  0.00    -0.000 C 
BRANCH  13  14
ATOM     14  C   UNL     1      -0.952  22.273   2.592  1.00  0.00    -0.000 C 
BRANCH  14  15
ATOM     15  C   UNL     1      -2.136  21.423   3.085  1.00  0.00    -0.000 C 
BRANCH  15  16
ATOM     16  C   UNL     1      -2.061  21.123   4.592  1.00  0.00    -0.000 C 
BRANCH  16  17
ATOM     17  C   UNL     1      -0.641  21.293   5.161  1.00  0.00    -0.000 C 
BRANCH  17  18
ATOM     18  C   UNL     1      -0.580  22.335   6.290  1.00  0.00    -0.000 C 
BRANCH  18  19
ATOM     19  C   UNL     1       0.086  21.787   7.561  1.00  0.00    -0.003 C 
ATOM     20  C   UNL     1      -0.960  21.332   8.575  1.00  0.00     0.004 C 
ENDBRANCH  18  19
ENDBRANCH  17  18
ENDBRANCH  16  17
ENDBRANCH  15  16
ENDBRANCH  14  15
ENDBRANCH  13  14
ENDBRANCH  12  13
ENDBRANCH   1  12
TORSDOF 16
ENDMDL
MODEL 6
REMARK VINA RESULT:    -2.477      1.817      6.227
REMARK INTER + INTRA:          -6.930
REMARK INTER:                  -4.643
REMARK INTRA:                  -2.287
REMARK UNBOUND:                -2.137
REMARK SMILES CCCCCCCCCCCCCCCCCC(=O)[O-]
REMARK SMILES IDX 10 1 11 2 12 3 13 4 14 5 15 6 16 7 17 8 18 9 19 10 20 11
REMARK SMILES IDX 9 12 8 13 7 14 6 15 5 16 4 17 3 18 2 19 1 20
REMARK H PARENT
REMARK Flexibility Score: inf
ROOT
ATOM      1  C   UNL     1       1.994  22.742   6.476  1.00  0.00     0.000 C 
ENDROOT
BRANCH   1   2
ATOM      2  C   UNL     1       3.433  22.196   6.575  1.00  0.00     0.000 C 
BRANCH   2   3
ATOM      3  C   UNL     1       4.444  23.131   7.271  1.00  0.00     0.000 C 
BRANCH   3   4
ATOM      4  C   UNL     1       5.859  22.548   7.438  1.00  0.00     0.000 C 
BRANCH   4   5
ATOM      5  C   UNL     1       6.962  23.605   7.292  1.00  0.00     0.000 C 
BRANCH   5   6
ATOM      6  C   UNL     1       6.438  24.849   6.560  1.00  0.00     0.000 C 
BRANCH   6   7
ATOM      7  C   UNL     1       6.878  24.899   5.087  1.00  0.00     0.006 C 
BRANCH   7   8
ATOM      8  C   UNL     1       5.704  24.733   4.114  1.00  0.00     0.053 C 
BRANCH   8   9
ATOM      9  C   UNL     1       5.818  23.439   3.372  1.00  0.00     0.041 C 
ATOM     10  O   UNL     1       6.330  22.432   3.931  1.00  0.00    -0.550 OA
ATOM     11  O   UNL     1       5.322  23.332   2.080  1.00  0.00    -0.550 OA
ENDBRANCH   8   9
ENDBRANCH   7   8
ENDBRANCH   6   7
ENDBRANCH   5   6
ENDBRANCH   4   5
ENDBRANCH   3   4
ENDBRANCH   2   3
ENDBRANCH   1   2
BRANCH   1  12
ATOM     12  C   UNL     1       0.896  21.757   6.918  1.00  0.00     0.000 C 
BRANCH  12  13
ATOM     13  C   UNL     1       0.096  21.190   5.734  1.00  0.00    -0.000 C 
BRANCH  13  14
ATOM     14  C   UNL     1      -1.071  22.100   5.321  1.00  0.00    -0.000 C 
BRANCH  14  15
ATOM     15  C   UNL     1      -1.654  21.721   3.947  1.00  0.00    -0.000 C 
BRANCH  15  16
ATOM     16  C   UNL     1      -1.499  22.846   2.909  1.00  0.00    -0.000 C 
BRANCH  16  17
ATOM     17  C   UNL     1      -0.564  23.971   3.388  1.00  0.00    -0.000 C 
BRANCH  17  18
ATOM     18  C   UNL     1       0.609  24.212   2.424  1.00  0.00    -0.000 C 
BRANCH  18  19
ATOM     19  C   UNL     1       1.933  23.644   2.955  1.00  0.00    -0.003 C 
ATOM     20  C   UNL     1       2.047  22.150   2.661  1.00  0.00     0.004 C 
ENDBRANCH  18  19
ENDBRANCH  17  18
ENDBRANCH  16  17
ENDBRANCH  15  16
ENDBRANCH  14  15
ENDBRANCH  13  14
ENDBRANCH  12  13
ENDBRANCH   1  12
TORSDOF 16
ENDMDL
MODEL 7
REMARK VINA RESULT:    -2.457      2.088      3.414
REMARK INTER + INTRA:          -6.892
REMARK INTER:                  -4.337
REMARK INTRA:                  -2.555
REMARK UNBOUND:                -2.137
REMARK SMILES CCCCCCCCCCCCCCCCCC(=O)[O-]
REMARK SMILES IDX 10 1 11 2 12 3 13 4 14 5 15 6 16 7 17 8 18 9 19 10 20 11
REMARK SMILES IDX 9 12 8 13 7 14 6 15 5 16 4 17 3 18 2 19 1 20
REMARK H PARENT
REMARK Flexibility Score: inf
ROOT
ATOM      1  C   UNL     1       2.659  22.425   6.680  1.00  0.00     0.000 C 
ENDROOT
BRANCH   1   2
ATOM      2  C   UNL     1       2.656  21.197   5.747  1.00  0.00     0.000 C 
BRANCH   2   3
ATOM      3  C   UNL     1       3.870  21.088   4.801  1.00  0.00     0.000 C 
BRANCH   3   4
ATOM      4  C   UNL     1       3.595  21.496   3.342  1.00  0.00     0.000 C 
BRANCH   4   5
ATOM      5  C   UNL     1       2.112  21.386   2.960  1.00  0.00     0.000 C 
BRANCH   5   6
ATOM      6  C   UNL     1       1.473  22.776   2.833  1.00  0.00     0.000 C 
BRANCH   6   7
ATOM      7  C   UNL     1      -0.060  22.737   2.940  1.00  0.00     0.006 C 
BRANCH   7   8
ATOM      8  C   UNL     1      -0.580  21.394   3.471  1.00  0.00     0.053 C 
BRANCH   8   9
ATOM      9  C   UNL     1      -1.356  21.597   4.733  1.00  0.00     0.041 C 
ATOM     10  O   UNL     1      -0.912  22.355   5.636  1.00  0.00    -0.550 OA
ATOM     11  O   UNL     1      -2.593  20.984   4.895  1.00  0.00    -0.550 OA
ENDBRANCH   8   9
ENDBRANCH   7   8
ENDBRANCH   6   7
ENDBRANCH   5   6
ENDBRANCH   4   5
ENDBRANCH   3   4
ENDBRANCH   2   3
ENDBRANCH   1   2
BRANCH   1  12
ATOM     12  C   UNL     1       3.781  23.442   6.408  1.00  0.00     0.000 C 
BRANCH  12  13
ATOM     13  C   UNL     1       4.915  23.369   7.444  1.00  0.00    -0.000 C 
BRANCH  13  14
ATOM     14  C   UNL     1       6.263  23.840   6.878  1.00  0.00    -0.000 C 
BRANCH  14  15
ATOM     15  C   UNL     1       6.938  22.771   6.000  1.00  0.00    -0.000 C 
BRANCH  15  16
ATOM     16  C   UNL     1       7.009  23.181   4.520  1.00  0.00    -0.000 C 
BRANCH  16  17
ATOM     17  C   UNL     1       6.751  24.683   4.306  1.00  0.00    -0.000 C 
BRANCH  17  18
ATOM     18  C   UNL     1       5.926  24.966   3.041  1.00  0.00    -0.000 C 
BRANCH  18  19
ATOM     19  C   UNL     1       4.417  25.005   3.319  1.00  0.00    -0.003 C 
ATOM     20  C   UNL     1       3.678  25.786   2.235  1.00  0.00     0.004 C 
ENDBRANCH  18  19
ENDBRANCH  17  18
ENDBRANCH  16  17
ENDBRANCH  15  16
ENDBRANCH  14  15
ENDBRANCH  13  14
ENDBRANCH  12  13
ENDBRANCH   1  12
TORSDOF 16
ENDMDL
MODEL 8
REMARK VINA RESULT:    -2.451      2.600      4.683
REMARK INTER + INTRA:          -6.880
REMARK INTER:                  -4.694
REMARK INTRA:                  -2.186
REMARK UNBOUND:                -2.137
REMARK SMILES CCCCCCCCCCCCCCCCCC(=O)[O-]
REMARK SMILES IDX 10 1 11 2 12 3 13 4 14 5 15 6 16 7 17 8 18 9 19 10 20 11
REMARK SMILES IDX 9 12 8 13 7 14 6 15 5 16 4 17 3 18 2 19 1 20
REMARK H PARENT
REMARK Flexibility Score: inf
ROOT
ATOM      1  C   UNL     1       3.848  25.003   3.000  1.00  0.00     0.000 C 
ENDROOT
BRANCH   1   2
ATOM      2  C   UNL     1       2.891  23.899   2.510  1.00  0.00     0.000 C 
BRANCH   2   3
ATOM      3  C   UNL     1       3.033  22.540   3.228  1.00  0.00     0.000 C 
BRANCH   3   4
ATOM      4  C   UNL     1       2.007  22.288   4.349  1.00  0.00     0.000 C 
BRANCH   4   5
ATOM      5  C   UNL     1       0.694  23.055   4.140  1.00  0.00     0.000 C 
BRANCH   5   6
ATOM      6  C   UNL     1      -0.513  22.110   4.220  1.00  0.00     0.000 C 
BRANCH   6   7
ATOM      7  C   UNL     1      -0.402  21.102   5.376  1.00  0.00     0.006 C 
BRANCH   7   8
ATOM      8  C   UNL     1      -1.036  21.619   6.674  1.00  0.00     0.053 C 
BRANCH   8   9
ATOM      9  C   UNL     1      -0.112  21.404   7.830  1.00  0.00     0.041 C 
ATOM     10  O   UNL     1      -0.559  21.408   9.007  1.00  0.00    -0.550 OA
ATOM     11  O   UNL     1       1.236  21.155   7.605  1.00  0.00    -0.550 OA
ENDBRANCH   8   9
ENDBRANCH   7   8
ENDBRANCH   6   7
ENDBRANCH   5   6
ENDBRANCH   4   5
ENDBRANCH   3   4
ENDBRANCH   2   3
ENDBRANCH   1   2
BRANCH   1  12
ATOM     12  C   UNL     1       4.983  25.359   2.022  1.00  0.00     0.000 C 
BRANCH  12  13
ATOM     13  C   UNL     1       6.378  25.092   2.609  1.00  0.00    -0.000 C 
BRANCH  13  14
ATOM     14  C   UNL     1       6.592  23.616   2.978  1.00  0.00    -0.000 C 
BRANCH  14  15
ATOM     15  C   UNL     1       6.991  23.431   4.453  1.00  0.00    -0.000 C 
BRANCH  15  16
ATOM     16  C   UNL     1       6.962  24.750   5.243  1.00  0.00    -0.000 C 
BRANCH  16  17
ATOM     17  C   UNL     1       6.055  24.678   6.485  1.00  0.00    -0.000 C 
BRANCH  17  18
ATOM     18  C   UNL     1       4.883  23.700   6.304  1.00  0.00    -0.000 C 
BRANCH  18  19
ATOM     19  C   UNL     1       4.718  22.752   7.500  1.00  0.00    -0.003 C 
ATOM     20  C   UNL     1       6.053  22.125   7.894  1.00  0.00     0.004 C 
ENDBRANCH  18  19
ENDBRANCH  17  18
ENDBRANCH  16  17
ENDBRANCH  15  16
ENDBRANCH  14  15
ENDBRANCH  13  14
ENDBRANCH  12  13
ENDBRANCH   1  12
TORSDOF 16
ENDMDL
MODEL 9
REMARK VINA RESULT:    -2.451      2.433      5.381
REMARK INTER + INTRA:          -6.880
REMARK INTER:                  -3.987
REMARK INTRA:                  -2.892
REMARK UNBOUND:                -2.137
REMARK SMILES CCCCCCCCCCCCCCCCCC(=O)[O-]
REMARK SMILES IDX 10 1 11 2 12 3 13 4 14 5 15 6 16 7 17 8 18 9 19 10 20 11
REMARK SMILES IDX 9 12 8 13 7 14 6 15 5 16 4 17 3 18 2 19 1 20
REMARK H PARENT
REMARK Flexibility Score: inf
ROOT
ATOM      1  C   UNL     1      -0.377  23.508   4.864  1.00  0.00     0.000 C 
ENDROOT
BRANCH   1   2
ATOM      2  C   UNL     1      -0.130  22.360   5.864  1.00  0.00     0.000 C 
BRANCH   2   3
ATOM      3  C   UNL     1       1.157  22.487   6.705  1.00  0.00     0.000 C 
BRANCH   3   4
ATOM      4  C   UNL     1       2.071  21.249   6.684  1.00  0.00     0.000 C 
BRANCH   4   5
ATOM      5  C   UNL     1       3.563  21.607   6.715  1.00  0.00     0.000 C 
BRANCH   5   6
ATOM      6  C   UNL     1       3.763  23.129   6.702  1.00  0.00     0.000 C 
BRANCH   6   7
ATOM      7  C   UNL     1       5.096  23.557   7.340  1.00  0.00     0.006 C 
BRANCH   7   8
ATOM      8  C   UNL     1       6.309  22.905   6.665  1.00  0.00     0.053 C 
BRANCH   8   9
ATOM      9  C   UNL     1       6.676  23.648   5.419  1.00  0.00     0.041 C 
ATOM     10  O   UNL     1       6.888  23.020   4.347  1.00  0.00    -0.550 OA
ATOM     11  O   UNL     1       6.740  25.035   5.429  1.00  0.00    -0.550 OA
ENDBRANCH   8   9
ENDBRANCH   7   8
ENDBRANCH   6   7
ENDBRANCH   5   6
ENDBRANCH   4   5
ENDBRANCH   3   4
ENDBRANCH   2   3
ENDBRANCH   1   2
BRANCH   1  12
ATOM     12  C   UNL     1      -0.887  23.065   3.481  1.00  0.00     0.000 C 
BRANCH  12  13
ATOM     13  C   UNL     1      -1.098  21.545   3.386  1.00  0.00    -0.000 C 
BRANCH  13  14
ATOM     14  C   UNL     1      -0.253  20.900   2.275  1.00  0.00    -0.000 C 
BRANCH  14  15
ATOM     15  C   UNL     1       1.065  21.656   2.027  1.00  0.00    -0.000 C 
BRANCH  15  16
ATOM     16  C   UNL     1       2.218  21.136   2.902  1.00  0.00    -0.000 C 
BRANCH  16  17
ATOM     17  C   UNL     1       3.313  22.193   3.131  1.00  0.00    -0.000 C 
BRANCH  17  18
ATOM     18  C   UNL     1       2.796  23.628   2.938  1.00  0.00    -0.000 C 
BRANCH  18  19
ATOM     19  C   UNL     1       3.804  24.685   3.410  1.00  0.00    -0.003 C 
ATOM     20  C   UNL     1       4.796  25.031   2.302  1.00  0.00     0.004 C 
ENDBRANCH  18  19
ENDBRANCH  17  18
ENDBRANCH  16  17
ENDBRANCH  15  16
ENDBRANCH  14  15
ENDBRANCH  13  14
ENDBRANCH  12  13
ENDBRANCH   1  12
TORSDOF 16
ENDMDL
