MODEL 1
REMARK VINA RESULT:    -2.407      0.000      0.000
REMARK INTER + INTRA:          -2.618
REMARK INTER:                  -2.618
REMARK INTRA:                   0.000
REMARK UNBOUND:                 0.000
REMARK SMILES [NH3+]CC(=O)[O-]
REMARK SMILES IDX 2 1 1 2 3 6 4 7 5 8
REMARK H PARENT 1 3 1 4 1 5
REMARK Flexibility Score: inf
ROOT
ATOM      1  C   UNL     1      14.946  16.812  45.803  1.00  0.00     0.312 C 
ENDROOT
BRANCH   1   2
ATOM      2  N   UNL     1      15.478  15.672  45.061  1.00  0.00    -0.353 N 
ATOM      3  H   UNL     1      15.382  14.809  45.644  1.00  0.00     0.344 HD
ATOM      4  H   UNL     1      16.490  15.824  44.845  1.00  0.00     0.344 HD
ATOM      5  H   UNL     1      14.942  15.541  44.172  1.00  0.00     0.344 HD
ENDBRANCH   1   2
BRANCH   1   6
ATOM      6  C   UNL     1      16.040  17.775  46.149  1.00  0.00     0.096 C 
ATOM      7  O   UNL     1      16.157  18.204  47.327  1.00  0.00    -0.544 OA
ATOM      8  O   UNL     1      16.960  18.157  45.182  1.00  0.00    -0.544 OA
ENDBRANCH   1   6
TORSDOF 2
ENDMDL
MODEL 2
REMARK VINA RESULT:    -2.380     18.311     18.761
REMARK INTER + INTRA:          -2.589
REMARK INTER:                  -2.589
REMARK INTRA:                   0.000
REMARK UNBOUND:                 0.000
REMARK SMILES [NH3+]CC(=O)[O-]
REMARK SMILES IDX 2 1 1 2 3 6 4 7 5 8
REMARK H PARENT 1 3 1 4 1 5
REMARK Flexibility Score: inf
ROOT
ATOM      1  C   UNL     1      21.170  30.716  58.696  1.00  0.00     0.312 C 
ENDROOT
BRANCH   1   2
ATOM      2  N   UNL     1      21.596  32.108  58.828  1.00  0.00    -0.353 N 
ATOM      3  H   UNL     1      21.495  32.403  59.826  1.00  0.00     0.344 HD
ATOM      4  H   UNL     1      21.001  32.724  58.229  1.00  0.00     0.344 HD
ATOM      5  H   UNL     1      22.600  32.203  58.547  1.00  0.00     0.344 HD
ENDBRANCH   1   2
BRANCH   1   6
ATOM      6  C   UNL     1      21.508  30.186  57.337  1.00  0.00     0.096 C 
ATOM      7  O   UNL     1      20.636  29.586  56.656  1.00  0.00    -0.544 OA
ATOM      8  O   UNL     1      22.772  30.401  56.803  1.00  0.00    -0.544 OA
ENDBRANCH   1   6
TORSDOF 2
ENDMDL
MODEL 3
REMARK VINA RESULT:    -2.352      8.062      8.197
REMARK INTER + INTRA:          -2.558
REMARK INTER:                  -2.558
REMARK INTRA:                   0.000
REMARK UNBOUND:                 0.000
REMARK SMILES [NH3+]CC(=O)[O-]
REMARK SMILES IDX 2 1 1 2 3 6 4 7 5 8
REMARK H PARENT 1 3 1 4 1 5
REMARK Flexibility Score: inf
ROOT
ATOM      1  C   UNL     1      23.151  17.437  43.938  1.00  0.00     0.312 C 
ENDROOT
BRANCH   1   2
ATOM      2  N   UNL     1      24.179  16.838  44.785  1.00  0.00    -0.353 N 
ATOM      3  H   UNL     1      23.839  16.817  45.774  1.00  0.00     0.344 HD
ATOM      4  H   UNL     1      25.057  17.405  44.740  1.00  0.00     0.344 HD
ATOM      5  H   UNL     1      24.374  15.858  44.474  1.00  0.00     0.344 HD
ENDBRANCH   1   2
BRANCH   1   6
ATOM      6  C   UNL     1      22.911  16.597  42.722  1.00  0.00     0.096 C 
ATOM      7  O   UNL     1      22.867  17.130  41.582  1.00  0.00    -0.544 OA
ATOM      8  O   UNL     1      22.788  15.219  42.843  1.00  0.00    -0.544 OA
ENDBRANCH   1   6
TORSDOF 2
ENDMDL
MODEL 4
REMARK VINA RESULT:    -2.343     16.556     16.898
REMARK INTER + INTRA:          -2.549
REMARK INTER:                  -2.549
REMARK INTRA:                   0.000
REMARK UNBOUND:                 0.000
REMARK SMILES [NH3+]CC(=O)[O-]
REMARK SMILES IDX 2 1 1 2 3 6 4 7 5 8
REMARK H PARENT 1 3 1 4 1 5
REMARK Flexibility Score: inf
ROOT
ATOM      1  C   UNL     1      32.255  16.432  39.004  1.00  0.00     0.312 C 
ENDROOT
BRANCH   1   2
ATOM      2  N   UNL     1      32.253  15.228  39.832  1.00  0.00    -0.353 N 
ATOM      3  H   UNL     1      31.426  14.640  39.579  1.00  0.00     0.344 HD
ATOM      4  H   UNL     1      32.187  15.488  40.843  1.00  0.00     0.344 HD
ATOM      5  H   UNL     1      33.125  14.675  39.664  1.00  0.00     0.344 HD
ENDBRANCH   1   2
BRANCH   1   6
ATOM      6  C   UNL     1      31.295  17.446  39.543  1.00  0.00     0.096 C 
ATOM      7  O   UNL     1      31.592  18.121  40.563  1.00  0.00    -0.544 OA
ATOM      8  O   UNL     1      30.094  17.683  38.886  1.00  0.00    -0.544 OA
ENDBRANCH   1   6
TORSDOF 2
ENDMDL
MODEL 5
REMARK VINA RESULT:    -2.340      8.521      8.790
REMARK INTER + INTRA:          -2.546
REMARK INTER:                  -2.546
REMARK INTRA:                   0.000
REMARK UNBOUND:                 0.000
REMARK SMILES [NH3+]CC(=O)[O-]
REMARK SMILES IDX 2 1 1 2 3 6 4 7 5 8
REMARK H PARENT 1 3 1 4 1 5
REMARK Flexibility Score: inf
ROOT
ATOM      1  C   UNL     1      23.140  17.556  40.095  1.00  0.00     0.312 C 
ENDROOT
BRANCH   1   2
ATOM      2  N   UNL     1      23.281  16.326  39.319  1.00  0.00    -0.353 N 
ATOM      3  H   UNL     1      23.527  15.541  39.964  1.00  0.00     0.344 HD
ATOM      4  H   UNL     1      24.041  16.434  38.610  1.00  0.00     0.344 HD
ATOM      5  H   UNL     1      22.378  16.100  38.840  1.00  0.00     0.344 HD
ENDBRANCH   1   2
BRANCH   1   6
ATOM      6  C   UNL     1      23.028  17.250  41.557  1.00  0.00     0.096 C 
ATOM      7  O   UNL     1      22.990  18.184  42.399  1.00  0.00    -0.544 OA
ATOM      8  O   UNL     1      22.913  15.932  41.983  1.00  0.00    -0.544 OA
ENDBRANCH   1   6
TORSDOF 2
ENDMDL
MODEL 6
REMARK VINA RESULT:    -2.308      8.638      8.931
REMARK INTER + INTRA:          -2.510
REMARK INTER:                  -2.510
REMARK INTRA:                   0.000
REMARK UNBOUND:                 0.000
REMARK SMILES [NH3+]CC(=O)[O-]
REMARK SMILES IDX 2 1 1 2 3 6 4 7 5 8
REMARK H PARENT 1 3 1 4 1 5
REMARK Flexibility Score: inf
ROOT
ATOM      1  C   UNL     1      23.280  17.530  39.668  1.00  0.00     0.312 C 
ENDROOT
BRANCH   1   2
ATOM      2  N   UNL     1      23.281  16.132  39.241  1.00  0.00    -0.353 N 
ATOM      3  H   UNL     1      22.297  15.833  39.048  1.00  0.00     0.344 HD
ATOM      4  H   UNL     1      23.677  15.527  39.996  1.00  0.00     0.344 HD
ATOM      5  H   UNL     1      23.845  16.025  38.367  1.00  0.00     0.344 HD
ENDBRANCH   1   2
BRANCH   1   6
ATOM      6  C   UNL     1      22.926  17.639  41.119  1.00  0.00     0.096 C 
ATOM      7  O   UNL     1      22.954  16.620  41.857  1.00  0.00    -0.544 OA
ATOM      8  O   UNL     1      22.617  18.878  41.667  1.00  0.00    -0.544 OA
ENDBRANCH   1   6
TORSDOF 2
ENDMDL
MODEL 7
REMARK VINA RESULT:    -2.222      6.994      7.421
REMARK INTER + INTRA:          -2.417
REMARK INTER:                  -2.417
REMARK INTRA:                   0.000
REMARK UNBOUND:                 0.000
REMARK SMILES [NH3+]CC(=O)[O-]
REMARK SMILES IDX 2 1 1 2 3 6 4 7 5 8
REMARK H PARENT 1 3 1 4 1 5
REMARK Flexibility Score: inf
ROOT
ATOM      1  C   UNL     1      22.874  16.322  42.440  1.00  0.00     0.312 C 
ENDROOT
BRANCH   1   2
ATOM      2  N   UNL     1      22.596  14.953  42.870  1.00  0.00    -0.353 N 
ATOM      3  H   UNL     1      23.131  14.290  42.264  1.00  0.00     0.344 HD
ATOM      4  H   UNL     1      21.575  14.748  42.778  1.00  0.00     0.344 HD
ATOM      5  H   UNL     1      22.897  14.822  43.864  1.00  0.00     0.344 HD
ENDBRANCH   1   2
BRANCH   1   6
ATOM      6  C   UNL     1      22.796  17.267  43.600  1.00  0.00     0.096 C 
ATOM      7  O   UNL     1      21.759  17.955  43.788  1.00  0.00    -0.544 OA
ATOM      8  O   UNL     1      23.850  17.348  44.501  1.00  0.00    -0.544 OA
ENDBRANCH   1   6
TORSDOF 2
ENDMDL
MODEL 8
REMARK VINA RESULT:    -2.088     19.574     19.952
REMARK INTER + INTRA:          -2.271
REMARK INTER:                  -2.271
REMARK INTRA:                   0.000
REMARK UNBOUND:                 0.000
REMARK SMILES [NH3+]CC(=O)[O-]
REMARK SMILES IDX 2 1 1 2 3 6 4 7 5 8
REMARK H PARENT 1 3 1 4 1 5
REMARK Flexibility Score: inf
ROOT
ATOM      1  C   UNL     1      25.595  33.266  51.177  1.00  0.00     0.312 C 
ENDROOT
BRANCH   1   2
ATOM      2  N   UNL     1      24.786  34.287  50.515  1.00  0.00    -0.353 N 
ATOM      3  H   UNL     1      25.382  35.125  50.325  1.00  0.00     0.344 HD
ATOM      4  H   UNL     1      23.991  34.570  51.132  1.00  0.00     0.344 HD
ATOM      5  H   UNL     1      24.418  33.920  49.607  1.00  0.00     0.344 HD
ENDBRANCH   1   2
BRANCH   1   6
ATOM      6  C   UNL     1      25.571  33.453  52.663  1.00  0.00     0.096 C 
ATOM      7  O   UNL     1      25.776  34.590  53.162  1.00  0.00    -0.544 OA
ATOM      8  O   UNL     1      25.271  32.380  53.493  1.00  0.00    -0.544 OA
ENDBRANCH   1   6
TORSDOF 2
ENDMDL
MODEL 9
REMARK VINA RESULT:    -2.051     22.783     23.102
REMARK INTER + INTRA:          -2.230
REMARK INTER:                  -2.230
REMARK INTRA:                   0.000
REMARK UNBOUND:                 0.000
REMARK SMILES [NH3+]CC(=O)[O-]
REMARK SMILES IDX 2 1 1 2 3 6 4 7 5 8
REMARK H PARENT 1 3 1 4 1 5
REMARK Flexibility Score: inf
ROOT
ATOM      1  C   UNL     1      30.290  34.898  53.755  1.00  0.00     0.312 C 
ENDROOT
BRANCH   1   2
ATOM      2  N   UNL     1      31.457  34.104  53.378  1.00  0.00    -0.353 N 
ATOM      3  H   UNL     1      31.980  33.833  54.243  1.00  0.00     0.344 HD
ATOM      4  H   UNL     1      32.088  34.665  52.762  1.00  0.00     0.344 HD
ATOM      5  H   UNL     1      31.154  33.236  52.879  1.00  0.00     0.344 HD
ENDBRANCH   1   2
BRANCH   1   6
ATOM      6  C   UNL     1      29.060  34.045  53.797  1.00  0.00     0.096 C 
ATOM      7  O   UNL     1      29.114  32.877  54.265  1.00  0.00    -0.544 OA
ATOM      8  O   UNL     1      27.843  34.558  53.365  1.00  0.00    -0.544 OA
ENDBRANCH   1   6
TORSDOF 2
ENDMDL
