MODEL 1
REMARK VINA RESULT:     1.079      0.000      0.000
REMARK INTER + INTRA:           2.019
REMARK INTER:                   1.520
REMARK INTRA:                   0.499
REMARK UNBOUND:                 0.499
REMARK SMILES OCC1=C[C@H](O)[C@H]2C=CO[C@H](O[C@@H]3O[C@@H](CO)[C@@H](O)[C@H](O)[C@@H]3O)[C@@H]12
REMARK SMILES IDX 12 1 11 2 8 3 9 4 7 5 10 6 24 7 5 8 3 9 4 10 6 11 2 13 1 14
REMARK SMILES IDX 13 16 22 17 14 18 20 19 15 20 18 21 23 22 21 24 16 26 17 27
REMARK SMILES IDX 19 29
REMARK H PARENT 6 12 1 15 23 23 21 25 17 28 19 30
REMARK Flexibility Score: inf
ROOT
ATOM      1  O   UNL     1      13.990  21.179  -1.587  1.00  0.00    -0.310 OA
ENDROOT
BRANCH   1   2
ATOM      2  C   UNL     1      13.344  22.435  -1.455  1.00  0.00     0.316 C 
ATOM      3  C   UNL     1      15.087  23.338   0.608  1.00  0.00     0.018 C 
ATOM      4  C   UNL     1      13.901  22.810   0.903  1.00  0.00     0.186 C 
ATOM      5  C   UNL     1      15.414  23.858  -0.778  1.00  0.00     0.061 C 
ATOM      6  O   UNL     1      12.954  22.594  -0.095  1.00  0.00    -0.472 OA
ATOM      7  C   UNL     1      14.326  23.566  -1.854  1.00  0.00     0.096 C 
ATOM      8  C   UNL     1      15.515  25.401  -0.736  1.00  0.00     0.145 C 
ATOM      9  C   UNL     1      13.646  24.888  -2.055  1.00  0.00    -0.036 C 
ATOM     10  C   UNL     1      14.300  25.879  -1.460  1.00  0.00     0.007 C 
BRANCH   8  11
ATOM     11  O   UNL     1      16.685  25.863  -1.369  1.00  0.00    -0.388 OA
ATOM     12  H   UNL     1      16.822  26.812  -1.107  1.00  0.00     0.211 HD
ENDBRANCH   8  11
BRANCH   9  13
ATOM     13  C   UNL     1      12.501  25.129  -3.000  1.00  0.00     0.187 C 
BRANCH  13  14
ATOM     14  O   UNL     1      12.991  25.469  -4.270  1.00  0.00    -0.392 OA
ATOM     15  H   UNL     1      12.441  26.231  -4.589  1.00  0.00     0.211 HD
ENDBRANCH  13  14
ENDBRANCH   9  13
ENDBRANCH   1   2
BRANCH   1  16
ATOM     16  C   UNL     1      13.272  20.321  -2.456  1.00  0.00     0.286 C 
ATOM     17  C   UNL     1      11.878  20.071  -1.851  1.00  0.00     0.202 C 
ATOM     18  O   UNL     1      13.160  20.939  -3.731  1.00  0.00    -0.341 OA
ATOM     19  C   UNL     1      11.068  19.153  -2.781  1.00  0.00     0.179 C 
ATOM     20  C   UNL     1      12.509  20.097  -4.676  1.00  0.00     0.178 C 
ATOM     21  C   UNL     1      11.073  19.731  -4.209  1.00  0.00     0.177 C 
BRANCH  17  22
ATOM     22  O   UNL     1      11.197  21.286  -1.673  1.00  0.00    -0.385 OA
ATOM     23  H   UNL     1      11.835  22.012  -1.903  1.00  0.00     0.211 HD
ENDBRANCH  17  22
BRANCH  19  24
ATOM     24  O   UNL     1       9.746  19.041  -2.323  1.00  0.00    -0.387 OA
ATOM     25  H   UNL     1       9.790  18.669  -1.404  1.00  0.00     0.211 HD
ENDBRANCH  19  24
BRANCH  20  26
ATOM     26  C   UNL     1      13.390  18.887  -5.075  1.00  0.00     0.191 C 
BRANCH  26  27
ATOM     27  O   UNL     1      14.746  19.241  -5.021  1.00  0.00    -0.394 OA
ATOM     28  H   UNL     1      15.198  18.551  -4.471  1.00  0.00     0.210 HD
ENDBRANCH  26  27
ENDBRANCH  20  26
BRANCH  21  29
ATOM     29  O   UNL     1      10.432  18.876  -5.125  1.00  0.00    -0.387 OA
ATOM     30  H   UNL     1      11.087  18.616  -5.824  1.00  0.00     0.211 HD
ENDBRANCH  21  29
ENDBRANCH   1  16
TORSDOF 10
ENDMDL
MODEL 2
REMARK VINA RESULT:     1.100      1.380      6.174
REMARK INTER + INTRA:           2.050
REMARK INTER:                   2.602
REMARK INTRA:                  -0.552
REMARK UNBOUND:                 0.499
REMARK SMILES OCC1=C[C@H](O)[C@H]2C=CO[C@H](O[C@@H]3O[C@@H](CO)[C@@H](O)[C@H](O)[C@@H]3O)[C@@H]12
REMARK SMILES IDX 12 1 11 2 8 3 9 4 7 5 10 6 24 7 5 8 3 9 4 10 6 11 2 13 1 14
REMARK SMILES IDX 13 16 22 17 14 18 20 19 15 20 18 21 23 22 21 24 16 26 17 27
REMARK SMILES IDX 19 29
REMARK H PARENT 6 12 1 15 23 23 21 25 17 28 19 30
REMARK Flexibility Score: inf
ROOT
ATOM      1  O   UNL     1      12.146  21.838  -1.199  1.00  0.00    -0.310 OA
ENDROOT
BRANCH   1   2
ATOM      2  C   UNL     1      12.745  20.918  -2.098  1.00  0.00     0.316 C 
ATOM      3  C   UNL     1      10.710  18.955  -1.756  1.00  0.00     0.018 C 
ATOM      4  C   UNL     1      11.850  18.878  -1.074  1.00  0.00     0.186 C 
ATOM      5  C   UNL     1      10.576  19.805  -3.005  1.00  0.00     0.061 C 
ATOM      6  O   UNL     1      12.933  19.685  -1.411  1.00  0.00    -0.472 OA
ATOM      7  C   UNL     1      11.811  20.701  -3.316  1.00  0.00     0.096 C 
ATOM      8  C   UNL     1      10.443  18.884  -4.241  1.00  0.00     0.145 C 
ATOM      9  C   UNL     1      12.490  20.006  -4.459  1.00  0.00    -0.036 C 
ATOM     10  C   UNL     1      11.742  19.032  -4.963  1.00  0.00     0.007 C 
BRANCH   8  11
ATOM     11  O   UNL     1       9.368  19.269  -5.064  1.00  0.00    -0.388 OA
ATOM     12  H   UNL     1       8.755  19.836  -4.524  1.00  0.00     0.211 HD
ENDBRANCH   8  11
BRANCH   9  13
ATOM     13  C   UNL     1      13.754  20.479  -5.121  1.00  0.00     0.187 C 
BRANCH  13  14
ATOM     14  O   UNL     1      13.812  21.880  -5.098  1.00  0.00    -0.392 OA
ATOM     15  H   UNL     1      14.757  22.126  -5.274  1.00  0.00     0.211 HD
ENDBRANCH  13  14
ENDBRANCH   9  13
ENDBRANCH   1   2
BRANCH   1  16
ATOM     16  C   UNL     1      12.841  23.072  -1.189  1.00  0.00     0.286 C 
ATOM     17  C   UNL     1      13.919  23.015  -0.090  1.00  0.00     0.202 C 
ATOM     18  O   UNL     1      13.436  23.281  -2.463  1.00  0.00    -0.341 OA
ATOM     19  C   UNL     1      14.701  24.337  -0.065  1.00  0.00     0.179 C 
ATOM     20  C   UNL     1      14.092  24.542  -2.544  1.00  0.00     0.178 C 
ATOM     21  C   UNL     1      15.219  24.660  -1.479  1.00  0.00     0.177 C 
BRANCH  17  22
ATOM     22  O   UNL     1      14.800  21.947  -0.325  1.00  0.00    -0.385 OA
ATOM     23  H   UNL     1      14.647  21.645  -1.259  1.00  0.00     0.211 HD
ENDBRANCH  17  22
BRANCH  19  24
ATOM     24  O   UNL     1      15.785  24.244   0.823  1.00  0.00    -0.387 OA
ATOM     25  H   UNL     1      15.450  24.518   1.716  1.00  0.00     0.211 HD
ENDBRANCH  19  24
BRANCH  20  26
ATOM     26  C   UNL     1      13.085  25.718  -2.557  1.00  0.00     0.191 C 
BRANCH  26  27
ATOM     27  O   UNL     1      12.416  25.764  -3.788  1.00  0.00    -0.394 OA
ATOM     28  H   UNL     1      12.407  26.714  -4.072  1.00  0.00     0.210 HD
ENDBRANCH  26  27
ENDBRANCH  20  26
BRANCH  21  29
ATOM     29  O   UNL     1      15.855  25.913  -1.535  1.00  0.00    -0.387 OA
ATOM     30  H   UNL     1      16.790  25.779  -1.838  1.00  0.00     0.211 HD
ENDBRANCH  21  29
ENDBRANCH   1  16
TORSDOF 10
ENDMDL
MODEL 3
REMARK VINA RESULT:     3.183      1.547      2.885
REMARK INTER + INTRA:           4.985
REMARK INTER:                   2.645
REMARK INTRA:                   2.340
REMARK UNBOUND:                 0.499
REMARK SMILES OCC1=C[C@H](O)[C@H]2C=CO[C@H](O[C@@H]3O[C@@H](CO)[C@@H](O)[C@H](O)[C@@H]3O)[C@@H]12
REMARK SMILES IDX 12 1 11 2 8 3 9 4 7 5 10 6 24 7 5 8 3 9 4 10 6 11 2 13 1 14
REMARK SMILES IDX 13 16 22 17 14 18 20 19 15 20 18 21 23 22 21 24 16 26 17 27
REMARK SMILES IDX 19 29
REMARK H PARENT 6 12 1 15 23 23 21 25 17 28 19 30
REMARK Flexibility Score: inf
ROOT
ATOM      1  O   UNL     1      13.601  20.834  -0.324  1.00  0.00    -0.310 OA
ENDROOT
BRANCH   1   2
ATOM      2  C   UNL     1      13.457  22.176   0.112  1.00  0.00     0.316 C 
ATOM      3  C   UNL     1      15.772  23.085  -1.276  1.00  0.00     0.018 C 
ATOM      4  C   UNL     1      15.832  22.776   0.017  1.00  0.00     0.186 C 
ATOM      5  C   UNL     1      14.455  23.365  -1.975  1.00  0.00     0.061 C 
ATOM      6  O   UNL     1      14.668  22.568   0.752  1.00  0.00    -0.472 OA
ATOM      7  C   UNL     1      13.190  23.092  -1.109  1.00  0.00     0.096 C 
ATOM      8  C   UNL     1      14.370  24.869  -2.325  1.00  0.00     0.145 C 
ATOM      9  C   UNL     1      12.709  24.460  -0.722  1.00  0.00    -0.036 C 
ATOM     10  C   UNL     1      13.341  25.416  -1.391  1.00  0.00     0.007 C 
BRANCH   8  11
ATOM     11  O   UNL     1      13.984  25.070  -3.664  1.00  0.00    -0.388 OA
ATOM     12  H   UNL     1      14.474  24.413  -4.228  1.00  0.00     0.211 HD
ENDBRANCH   8  11
BRANCH   9  13
ATOM     13  C   UNL     1      11.506  24.734   0.137  1.00  0.00     0.187 C 
BRANCH  13  14
ATOM     14  O   UNL     1      10.536  23.742  -0.066  1.00  0.00    -0.392 OA
ATOM     15  H   UNL     1       9.819  24.156  -0.613  1.00  0.00     0.211 HD
ENDBRANCH  13  14
ENDBRANCH   9  13
ENDBRANCH   1   2
BRANCH   1  16
ATOM     16  C   UNL     1      12.825  20.584  -1.482  1.00  0.00     0.286 C 
ATOM     17  C   UNL     1      13.609  21.083  -2.711  1.00  0.00     0.202 C 
ATOM     18  O   UNL     1      12.574  19.189  -1.582  1.00  0.00    -0.341 OA
ATOM     19  C   UNL     1      12.796  20.811  -3.986  1.00  0.00     0.179 C 
ATOM     20  C   UNL     1      11.735  18.875  -2.688  1.00  0.00     0.178 C 
ATOM     21  C   UNL     1      12.379  19.329  -4.028  1.00  0.00     0.177 C 
BRANCH  17  22
ATOM     22  O   UNL     1      14.852  20.435  -2.793  1.00  0.00    -0.385 OA
ATOM     23  H   UNL     1      14.907  19.815  -2.019  1.00  0.00     0.211 HD
ENDBRANCH  17  22
BRANCH  19  24
ATOM     24  O   UNL     1      13.560  21.117  -5.124  1.00  0.00    -0.387 OA
ATOM     25  H   UNL     1      13.442  20.365  -5.761  1.00  0.00     0.211 HD
ENDBRANCH  19  24
BRANCH  20  26
ATOM     26  C   UNL     1      10.282  19.362  -2.468  1.00  0.00     0.191 C 
BRANCH  26  27
ATOM     27  O   UNL     1       9.461  18.911  -3.511  1.00  0.00    -0.394 OA
ATOM     28  H   UNL     1       8.653  18.520  -3.089  1.00  0.00     0.210 HD
ENDBRANCH  26  27
ENDBRANCH  20  26
BRANCH  21  29
ATOM     29  O   UNL     1      11.544  19.047  -5.125  1.00  0.00    -0.387 OA
ATOM     30  H   UNL     1      12.108  18.732  -5.878  1.00  0.00     0.211 HD
ENDBRANCH  21  29
ENDBRANCH   1  16
TORSDOF 10
ENDMDL
