MODEL 1
REMARK VINA RESULT:    -6.507      0.000      0.000
REMARK INTER + INTRA:          -7.154
REMARK INTER:                  -6.888
REMARK INTRA:                  -0.266
REMARK UNBOUND:                -0.266
REMARK SMILES O=c1cc(-c2ccccc2)oc2ccccc12
REMARK SMILES IDX 4 1 3 2 2 3 1 4 17 5 16 6 15 7 14 8 13 9 12 10 11 11 5 12
REMARK SMILES IDX 8 13 7 14 9 15 6 16 10 17
REMARK H PARENT
REMARK Flexibility Score: inf
ROOT
ATOM      1  C   UNL     1      13.100  10.059  12.798  1.00  0.00     0.138 A 
ATOM      2  C   UNL     1      13.209  10.781  14.005  1.00  0.00     0.100 A 
ATOM      3  C   UNL     1      12.075  10.974  14.797  1.00  0.00     0.193 A 
ATOM      4  O   UNL     1      12.173  11.618  15.876  1.00  0.00    -0.289 OA
ATOM      5  C   UNL     1      10.845  10.448  14.379  1.00  0.00     0.065 A 
ATOM      6  C   UNL     1       9.665  10.606  15.130  1.00  0.00     0.016 A 
ATOM      7  C   UNL     1       8.463  10.061  14.667  1.00  0.00     0.001 A 
ATOM      8  C   UNL     1       8.428   9.358  13.460  1.00  0.00     0.004 A 
ATOM      9  C   UNL     1       9.596   9.196  12.708  1.00  0.00     0.048 A 
ATOM     10  C   UNL     1      10.804   9.737  13.162  1.00  0.00     0.138 A 
ATOM     11  O   UNL     1      11.909   9.577  12.440  1.00  0.00    -0.456 OA
ENDROOT
BRANCH   1  12
ATOM     12  C   UNL     1      14.264   9.807  11.892  1.00  0.00     0.017 A 
ATOM     13  C   UNL     1      16.516   9.387  10.243  1.00  0.00     0.000 A 
ATOM     14  C   UNL     1      15.283   8.835   9.896  1.00  0.00     0.001 A 
ATOM     15  C   UNL     1      16.635  10.148  11.406  1.00  0.00     0.001 A 
ATOM     16  C   UNL     1      14.164   9.040  10.710  1.00  0.00     0.012 A 
ATOM     17  C   UNL     1      15.521  10.357  12.224  1.00  0.00     0.012 A 
ENDBRANCH   1  12
TORSDOF 1
ENDMDL
MODEL 2
REMARK VINA RESULT:    -6.459      1.393      5.788
REMARK INTER + INTRA:          -7.102
REMARK INTER:                  -6.850
REMARK INTRA:                  -0.252
REMARK UNBOUND:                -0.266
REMARK SMILES O=c1cc(-c2ccccc2)oc2ccccc12
REMARK SMILES IDX 4 1 3 2 2 3 1 4 17 5 16 6 15 7 14 8 13 9 12 10 11 11 5 12
REMARK SMILES IDX 8 13 7 14 9 15 6 16 10 17
REMARK H PARENT
REMARK Flexibility Score: inf
ROOT
ATOM      1  C   UNL     1      11.923   9.871  13.323  1.00  0.00     0.138 A 
ATOM      2  C   UNL     1      12.868   9.681  14.352  1.00  0.00     0.100 A 
ATOM      3  C   UNL     1      14.228   9.847  14.078  1.00  0.00     0.193 A 
ATOM      4  O   UNL     1      15.073   9.679  14.999  1.00  0.00    -0.289 OA
ATOM      5  C   UNL     1      14.632  10.198  12.783  1.00  0.00     0.065 A 
ATOM      6  C   UNL     1      15.985  10.382  12.440  1.00  0.00     0.016 A 
ATOM      7  C   UNL     1      16.334  10.732  11.132  1.00  0.00     0.001 A 
ATOM      8  C   UNL     1      15.343  10.903  10.161  1.00  0.00     0.004 A 
ATOM      9  C   UNL     1      13.997  10.724  10.494  1.00  0.00     0.048 A 
ATOM     10  C   UNL     1      13.637  10.373  11.800  1.00  0.00     0.138 A 
ATOM     11  O   UNL     1      12.354  10.205  12.105  1.00  0.00    -0.456 OA
ENDROOT
BRANCH   1  12
ATOM     12  C   UNL     1      10.450   9.714  13.531  1.00  0.00     0.017 A 
ATOM     13  C   UNL     1       7.682   9.451  14.016  1.00  0.00     0.000 A 
ATOM     14  C   UNL     1       8.215   9.069  12.785  1.00  0.00     0.001 A 
ATOM     15  C   UNL     1       8.518   9.964  15.007  1.00  0.00     0.001 A 
ATOM     16  C   UNL     1       9.586   9.197  12.539  1.00  0.00     0.012 A 
ATOM     17  C   UNL     1       9.889  10.095  14.769  1.00  0.00     0.012 A 
ENDBRANCH   1  12
TORSDOF 1
ENDMDL
MODEL 3
REMARK VINA RESULT:    -6.356      1.631      5.981
REMARK INTER + INTRA:          -6.994
REMARK INTER:                  -6.766
REMARK INTRA:                  -0.228
REMARK UNBOUND:                -0.266
REMARK SMILES O=c1cc(-c2ccccc2)oc2ccccc12
REMARK SMILES IDX 4 1 3 2 2 3 1 4 17 5 16 6 15 7 14 8 13 9 12 10 11 11 5 12
REMARK SMILES IDX 8 13 7 14 9 15 6 16 10 17
REMARK H PARENT
REMARK Flexibility Score: inf
ROOT
ATOM      1  C   UNL     1      11.877  10.061  13.033  1.00  0.00     0.138 A 
ATOM      2  C   UNL     1      12.953   9.380  13.641  1.00  0.00     0.100 A 
ATOM      3  C   UNL     1      14.253   9.596  13.178  1.00  0.00     0.193 A 
ATOM      4  O   UNL     1      15.215   8.989  13.723  1.00  0.00    -0.289 OA
ATOM      5  C   UNL     1      14.469  10.484  12.116  1.00  0.00     0.065 A 
ATOM      6  C   UNL     1      15.753  10.747  11.603  1.00  0.00     0.016 A 
ATOM      7  C   UNL     1      15.913  11.643  10.541  1.00  0.00     0.001 A 
ATOM      8  C   UNL     1      14.800  12.281   9.986  1.00  0.00     0.004 A 
ATOM      9  C   UNL     1      13.521  12.026  10.490  1.00  0.00     0.048 A 
ATOM     10  C   UNL     1      13.350  11.132  11.553  1.00  0.00     0.138 A 
ATOM     11  O   UNL     1      12.130  10.896  12.024  1.00  0.00    -0.456 OA
ENDROOT
BRANCH   1  12
ATOM     12  C   UNL     1      10.456   9.887  13.466  1.00  0.00     0.017 A 
ATOM     13  C   UNL     1       7.755   9.516  14.197  1.00  0.00     0.000 A 
ATOM     14  C   UNL     1       8.633  10.157  15.070  1.00  0.00     0.001 A 
ATOM     15  C   UNL     1       8.213   9.058  12.962  1.00  0.00     0.001 A 
ATOM     16  C   UNL     1       9.973  10.344  14.713  1.00  0.00     0.012 A 
ATOM     17  C   UNL     1       9.550   9.241  12.598  1.00  0.00     0.012 A 
ENDBRANCH   1  12
TORSDOF 1
ENDMDL
MODEL 4
REMARK VINA RESULT:    -6.059      1.489      6.037
REMARK INTER + INTRA:          -6.679
REMARK INTER:                  -6.451
REMARK INTRA:                  -0.227
REMARK UNBOUND:                -0.266
REMARK SMILES O=c1cc(-c2ccccc2)oc2ccccc12
REMARK SMILES IDX 4 1 3 2 2 3 1 4 17 5 16 6 15 7 14 8 13 9 12 10 11 11 5 12
REMARK SMILES IDX 8 13 7 14 9 15 6 16 10 17
REMARK H PARENT
REMARK Flexibility Score: inf
ROOT
ATOM      1  C   UNL     1      11.929  10.417  12.650  1.00  0.00     0.138 A 
ATOM      2  C   UNL     1      12.313  11.702  12.213  1.00  0.00     0.100 A 
ATOM      3  C   UNL     1      13.574  11.886  11.641  1.00  0.00     0.193 A 
ATOM      4  O   UNL     1      13.916  13.035  11.249  1.00  0.00    -0.289 OA
ATOM      5  C   UNL     1      14.439  10.792  11.511  1.00  0.00     0.065 A 
ATOM      6  C   UNL     1      15.722  10.909  10.943  1.00  0.00     0.016 A 
ATOM      7  C   UNL     1      16.546   9.784  10.837  1.00  0.00     0.001 A 
ATOM      8  C   UNL     1      16.100   8.540  11.292  1.00  0.00     0.004 A 
ATOM      9  C   UNL     1      14.827   8.415  11.857  1.00  0.00     0.048 A 
ATOM     10  C   UNL     1      13.994   9.534  11.968  1.00  0.00     0.138 A 
ATOM     11  O   UNL     1      12.786   9.404  12.507  1.00  0.00    -0.456 OA
ENDROOT
BRANCH   1  12
ATOM     12  C   UNL     1      10.599  10.132  13.273  1.00  0.00     0.017 A 
ATOM     13  C   UNL     1       8.065   9.546  14.367  1.00  0.00     0.000 A 
ATOM     14  C   UNL     1       8.977  10.312  15.091  1.00  0.00     0.001 A 
ATOM     15  C   UNL     1       8.405   9.069  13.102  1.00  0.00     0.001 A 
ATOM     16  C   UNL     1      10.235  10.606  14.554  1.00  0.00     0.012 A 
ATOM     17  C   UNL     1       9.660   9.358  12.558  1.00  0.00     0.012 A 
ENDBRANCH   1  12
TORSDOF 1
ENDMDL
MODEL 5
REMARK VINA RESULT:    -6.054      1.600      2.991
REMARK INTER + INTRA:          -6.674
REMARK INTER:                  -6.446
REMARK INTRA:                  -0.228
REMARK UNBOUND:                -0.266
REMARK SMILES O=c1cc(-c2ccccc2)oc2ccccc12
REMARK SMILES IDX 4 1 3 2 2 3 1 4 17 5 16 6 15 7 14 8 13 9 12 10 11 11 5 12
REMARK SMILES IDX 8 13 7 14 9 15 6 16 10 17
REMARK H PARENT
REMARK Flexibility Score: inf
ROOT
ATOM      1  C   UNL     1      13.565  10.606  11.796  1.00  0.00     0.138 A 
ATOM      2  C   UNL     1      12.874   9.967  10.746  1.00  0.00     0.100 A 
ATOM      3  C   UNL     1      11.567   9.520  10.954  1.00  0.00     0.193 A 
ATOM      4  O   UNL     1      10.949   8.950  10.014  1.00  0.00    -0.289 OA
ATOM      5  C   UNL     1      10.963   9.712  12.203  1.00  0.00     0.065 A 
ATOM      6  C   UNL     1       9.650   9.287  12.478  1.00  0.00     0.016 A 
ATOM      7  C   UNL     1       9.094   9.503  13.743  1.00  0.00     0.001 A 
ATOM      8  C   UNL     1       9.839  10.143  14.738  1.00  0.00     0.004 A 
ATOM      9  C   UNL     1      11.144  10.569  14.473  1.00  0.00     0.048 A 
ATOM     10  C   UNL     1      11.709  10.358  13.211  1.00  0.00     0.138 A 
ATOM     11  O   UNL     1      12.951  10.767  12.969  1.00  0.00    -0.456 OA
ENDROOT
BRANCH   1  12
ATOM     12  C   UNL     1      14.965  11.114  11.658  1.00  0.00     0.017 A 
ATOM     13  C   UNL     1      17.574  12.142  11.335  1.00  0.00     0.000 A 
ATOM     14  C   UNL     1      17.353  11.049  12.172  1.00  0.00     0.001 A 
ATOM     15  C   UNL     1      16.505  12.727  10.657  1.00  0.00     0.001 A 
ATOM     16  C   UNL     1      16.062  10.536  12.337  1.00  0.00     0.012 A 
ATOM     17  C   UNL     1      15.213  12.220  10.816  1.00  0.00     0.012 A 
ENDBRANCH   1  12
TORSDOF 1
ENDMDL
MODEL 6
REMARK VINA RESULT:    -6.030      1.827      2.250
REMARK INTER + INTRA:          -6.648
REMARK INTER:                  -6.415
REMARK INTRA:                  -0.233
REMARK UNBOUND:                -0.266
REMARK SMILES O=c1cc(-c2ccccc2)oc2ccccc12
REMARK SMILES IDX 4 1 3 2 2 3 1 4 17 5 16 6 15 7 14 8 13 9 12 10 11 11 5 12
REMARK SMILES IDX 8 13 7 14 9 15 6 16 10 17
REMARK H PARENT
REMARK Flexibility Score: inf
ROOT
ATOM      1  C   UNL     1      13.318   9.542  12.689  1.00  0.00     0.138 A 
ATOM      2  C   UNL     1      13.387  10.930  12.451  1.00  0.00     0.100 A 
ATOM      3  C   UNL     1      12.480  11.783  13.084  1.00  0.00     0.193 A 
ATOM      4  O   UNL     1      12.542  13.025  12.873  1.00  0.00    -0.289 OA
ATOM      5  C   UNL     1      11.513  11.246  13.944  1.00  0.00     0.065 A 
ATOM      6  C   UNL     1      10.570  12.048  14.613  1.00  0.00     0.016 A 
ATOM      7  C   UNL     1       9.626  11.461  15.461  1.00  0.00     0.001 A 
ATOM      8  C   UNL     1       9.616  10.076  15.649  1.00  0.00     0.004 A 
ATOM      9  C   UNL     1      10.549   9.271  14.989  1.00  0.00     0.048 A 
ATOM     10  C   UNL     1      11.498   9.849  14.138  1.00  0.00     0.138 A 
ATOM     11  O   UNL     1      12.381   9.075  13.515  1.00  0.00    -0.456 OA
ENDROOT
BRANCH   1  12
ATOM     12  C   UNL     1      14.250   8.560  12.053  1.00  0.00     0.017 A 
ATOM     13  C   UNL     1      15.977   6.737  10.764  1.00  0.00     0.000 A 
ATOM     14  C   UNL     1      15.938   6.796  12.156  1.00  0.00     0.001 A 
ATOM     15  C   UNL     1      15.163   7.580  10.008  1.00  0.00     0.001 A 
ATOM     16  C   UNL     1      15.084   7.698  12.801  1.00  0.00     0.012 A 
ATOM     17  C   UNL     1      14.307   8.483  10.644  1.00  0.00     0.012 A 
ENDBRANCH   1  12
TORSDOF 1
ENDMDL
MODEL 7
REMARK VINA RESULT:    -5.813      2.860      3.762
REMARK INTER + INTRA:          -6.419
REMARK INTER:                  -6.154
REMARK INTRA:                  -0.266
REMARK UNBOUND:                -0.266
REMARK SMILES O=c1cc(-c2ccccc2)oc2ccccc12
REMARK SMILES IDX 4 1 3 2 2 3 1 4 17 5 16 6 15 7 14 8 13 9 12 10 11 11 5 12
REMARK SMILES IDX 8 13 7 14 9 15 6 16 10 17
REMARK H PARENT
REMARK Flexibility Score: inf
ROOT
ATOM      1  C   UNL     1      14.472   8.757  12.884  1.00  0.00     0.138 A 
ATOM      2  C   UNL     1      13.937   9.232  14.100  1.00  0.00     0.100 A 
ATOM      3  C   UNL     1      13.235  10.440  14.117  1.00  0.00     0.193 A 
ATOM      4  O   UNL     1      12.755  10.864  15.203  1.00  0.00    -0.289 OA
ATOM      5  C   UNL     1      13.073  11.161  12.927  1.00  0.00     0.065 A 
ATOM      6  C   UNL     1      12.377  12.383  12.875  1.00  0.00     0.016 A 
ATOM      7  C   UNL     1      12.246  13.063  11.660  1.00  0.00     0.001 A 
ATOM      8  C   UNL     1      12.803  12.533  10.493  1.00  0.00     0.004 A 
ATOM      9  C   UNL     1      13.496  11.319  10.536  1.00  0.00     0.048 A 
ATOM     10  C   UNL     1      13.633  10.630  11.746  1.00  0.00     0.138 A 
ATOM     11  O   UNL     1      14.294   9.477  11.775  1.00  0.00    -0.456 OA
ENDROOT
BRANCH   1  12
ATOM     12  C   UNL     1      15.236   7.475  12.777  1.00  0.00     0.017 A 
ATOM     13  C   UNL     1      16.678   5.051  12.674  1.00  0.00     0.000 A 
ATOM     14  C   UNL     1      16.346   5.716  11.495  1.00  0.00     0.001 A 
ATOM     15  C   UNL     1      16.297   5.584  13.905  1.00  0.00     0.001 A 
ATOM     16  C   UNL     1      15.631   6.918  11.540  1.00  0.00     0.012 A 
ATOM     17  C   UNL     1      15.583   6.785  13.958  1.00  0.00     0.012 A 
ENDBRANCH   1  12
TORSDOF 1
ENDMDL
MODEL 8
REMARK VINA RESULT:    -5.713      5.180      7.324
REMARK INTER + INTRA:          -6.313
REMARK INTER:                  -6.049
REMARK INTRA:                  -0.264
REMARK UNBOUND:                -0.266
REMARK SMILES O=c1cc(-c2ccccc2)oc2ccccc12
REMARK SMILES IDX 4 1 3 2 2 3 1 4 17 5 16 6 15 7 14 8 13 9 12 10 11 11 5 12
REMARK SMILES IDX 8 13 7 14 9 15 6 16 10 17
REMARK H PARENT
REMARK Flexibility Score: inf
ROOT
ATOM      1  C   UNL     1      15.637   6.105  12.811  1.00  0.00     0.138 A 
ATOM      2  C   UNL     1      16.044   5.468  14.003  1.00  0.00     0.100 A 
ATOM      3  C   UNL     1      16.407   4.120  13.973  1.00  0.00     0.193 A 
ATOM      4  O   UNL     1      16.772   3.551  15.038  1.00  0.00    -0.289 OA
ATOM      5  C   UNL     1      16.362   3.419  12.761  1.00  0.00     0.065 A 
ATOM      6  C   UNL     1      16.715   2.061  12.662  1.00  0.00     0.016 A 
ATOM      7  C   UNL     1      16.651   1.409  11.426  1.00  0.00     0.001 A 
ATOM      8  C   UNL     1      16.238   2.103  10.286  1.00  0.00     0.004 A 
ATOM      9  C   UNL     1      15.885   3.453  10.375  1.00  0.00     0.048 A 
ATOM     10  C   UNL     1      15.946   4.115  11.606  1.00  0.00     0.138 A 
ATOM     11  O   UNL     1      15.608   5.398  11.680  1.00  0.00    -0.456 OA
ENDROOT
BRANCH   1  12
ATOM     12  C   UNL     1      15.232   7.543  12.755  1.00  0.00     0.017 A 
ATOM     13  C   UNL     1      14.462  10.259  12.747  1.00  0.00     0.000 A 
ATOM     14  C   UNL     1      14.702   9.598  11.543  1.00  0.00     0.001 A 
ATOM     15  C   UNL     1      14.603   9.577  13.955  1.00  0.00     0.001 A 
ATOM     16  C   UNL     1      15.084   8.252  11.541  1.00  0.00     0.012 A 
ATOM     17  C   UNL     1      14.984   8.233  13.961  1.00  0.00     0.012 A 
ENDBRANCH   1  12
TORSDOF 1
ENDMDL
