MODEL 1
REMARK VINA RESULT:    -5.580      0.000      0.000
REMARK INTER + INTRA:          -9.575
REMARK INTER:                  -8.842
REMARK INTRA:                  -0.733
REMARK UNBOUND:                -0.733
REMARK SMILES CCCCCCCCCCCC(=O)[O-]
REMARK SMILES IDX 7 1 8 2 9 3 10 4 11 5 12 6 13 7 14 8 6 9 5 10 4 11 3 12 2 13
REMARK SMILES IDX 1 14
REMARK H PARENT
REMARK Flexibility Score: inf
ROOT
ATOM      1  C   UNL     1      17.772   9.470 -19.410  1.00  0.00     0.000 C 
ENDROOT
BRANCH   1   2
ATOM      2  C   UNL     1      19.135   9.276 -20.087  1.00  0.00     0.000 C 
BRANCH   2   3
ATOM      3  C   UNL     1      19.554  10.537 -20.853  1.00  0.00     0.000 C 
BRANCH   3   4
ATOM      4  C   UNL     1      18.428  11.581 -20.853  1.00  0.00     0.006 C 
BRANCH   4   5
ATOM      5  C   UNL     1      18.929  12.975 -20.457  1.00  0.00     0.053 C 
BRANCH   5   6
ATOM      6  C   UNL     1      17.805  13.868 -20.032  1.00  0.00     0.041 C 
ATOM      7  O   UNL     1      16.644  13.401 -19.885  1.00  0.00    -0.550 OA
ATOM      8  O   UNL     1      18.031  15.224 -19.829  1.00  0.00    -0.550 OA
ENDBRANCH   5   6
ENDBRANCH   4   5
ENDBRANCH   3   4
ENDBRANCH   2   3
ENDBRANCH   1   2
BRANCH   1   9
ATOM      9  C   UNL     1      16.778   8.386 -19.855  1.00  0.00     0.000 C 
BRANCH   9  10
ATOM     10  C   UNL     1      16.433   8.476 -21.352  1.00  0.00    -0.000 C 
BRANCH  10  11
ATOM     11  C   UNL     1      15.450   7.379 -21.798  1.00  0.00    -0.000 C 
BRANCH  11  12
ATOM     12  C   UNL     1      14.806   6.647 -20.610  1.00  0.00    -0.000 C 
BRANCH  12  13
ATOM     13  C   UNL     1      13.392   7.154 -20.296  1.00  0.00    -0.003 C 
ATOM     14  C   UNL     1      13.224   7.424 -18.804  1.00  0.00     0.004 C 
ENDBRANCH  12  13
ENDBRANCH  11  12
ENDBRANCH  10  11
ENDBRANCH   9  10
ENDBRANCH   1   9
TORSDOF 10
ENDMDL
MODEL 2
REMARK VINA RESULT:    -5.084      2.527      3.112
REMARK INTER + INTRA:          -8.789
REMARK INTER:                  -8.051
REMARK INTRA:                  -0.738
REMARK UNBOUND:                -0.733
REMARK SMILES CCCCCCCCCCCC(=O)[O-]
REMARK SMILES IDX 7 1 8 2 9 3 10 4 11 5 12 6 13 7 14 8 6 9 5 10 4 11 3 12 2 13
REMARK SMILES IDX 1 14
REMARK H PARENT
REMARK Flexibility Score: inf
ROOT
ATOM      1  C   UNL     1      19.191   9.005 -20.023  1.00  0.00     0.000 C 
ENDROOT
BRANCH   1   2
ATOM      2  C   UNL     1      19.713  10.198 -20.834  1.00  0.00     0.000 C 
BRANCH   2   3
ATOM      3  C   UNL     1      18.713  11.361 -20.811  1.00  0.00     0.000 C 
BRANCH   3   4
ATOM      4  C   UNL     1      18.983  12.341 -21.962  1.00  0.00     0.006 C 
BRANCH   4   5
ATOM      5  C   UNL     1      19.821  11.708 -23.079  1.00  0.00     0.053 C 
BRANCH   5   6
ATOM      6  C   UNL     1      19.044  11.585 -24.354  1.00  0.00     0.041 C 
ATOM      7  O   UNL     1      19.553  11.957 -25.445  1.00  0.00    -0.550 OA
ATOM      8  O   UNL     1      17.746  11.090 -24.333  1.00  0.00    -0.550 OA
ENDBRANCH   5   6
ENDBRANCH   4   5
ENDBRANCH   3   4
ENDBRANCH   2   3
ENDBRANCH   1   2
BRANCH   1   9
ATOM      9  C   UNL     1      17.871   9.355 -19.319  1.00  0.00     0.000 C 
BRANCH   9  10
ATOM     10  C   UNL     1      16.707   8.449 -19.756  1.00  0.00    -0.000 C 
BRANCH  10  11
ATOM     11  C   UNL     1      16.511   8.433 -21.282  1.00  0.00    -0.000 C 
BRANCH  11  12
ATOM     12  C   UNL     1      15.388   7.480 -21.722  1.00  0.00    -0.000 C 
BRANCH  12  13
ATOM     13  C   UNL     1      14.779   6.699 -20.549  1.00  0.00    -0.003 C 
ATOM     14  C   UNL     1      13.371   7.194 -20.231  1.00  0.00     0.004 C 
ENDBRANCH  12  13
ENDBRANCH  11  12
ENDBRANCH  10  11
ENDBRANCH   9  10
ENDBRANCH   1   9
TORSDOF 10
ENDMDL
MODEL 3
REMARK VINA RESULT:    -5.031      3.031      6.079
REMARK INTER + INTRA:          -8.705
REMARK INTER:                  -7.761
REMARK INTRA:                  -0.943
REMARK UNBOUND:                -0.733
REMARK SMILES CCCCCCCCCCCC(=O)[O-]
REMARK SMILES IDX 7 1 8 2 9 3 10 4 11 5 12 6 13 7 14 8 6 9 5 10 4 11 3 12 2 13
REMARK SMILES IDX 1 14
REMARK H PARENT
REMARK Flexibility Score: inf
ROOT
ATOM      1  C   UNL     1      16.595   8.602 -19.675  1.00  0.00     0.000 C 
ENDROOT
BRANCH   1   2
ATOM      2  C   UNL     1      16.440   8.626 -21.201  1.00  0.00     0.000 C 
BRANCH   2   3
ATOM      3  C   UNL     1      15.594   7.443 -21.688  1.00  0.00     0.000 C 
BRANCH   3   4
ATOM      4  C   UNL     1      14.942   6.710 -20.507  1.00  0.00     0.006 C 
BRANCH   4   5
ATOM      5  C   UNL     1      13.413   6.827 -20.523  1.00  0.00     0.053 C 
BRANCH   5   6
ATOM      6  C   UNL     1      12.909   7.670 -19.392  1.00  0.00     0.041 C 
ATOM      7  O   UNL     1      13.327   7.473 -18.220  1.00  0.00    -0.550 OA
ATOM      8  O   UNL     1      11.955   8.652 -19.627  1.00  0.00    -0.550 OA
ENDBRANCH   5   6
ENDBRANCH   4   5
ENDBRANCH   3   4
ENDBRANCH   2   3
ENDBRANCH   1   2
BRANCH   1   9
ATOM      9  C   UNL     1      17.885   9.315 -19.243  1.00  0.00     0.000 C 
BRANCH   9  10
ATOM     10  C   UNL     1      19.067   9.027 -20.184  1.00  0.00    -0.000 C 
BRANCH  10  11
ATOM     11  C   UNL     1      19.756  10.312 -20.677  1.00  0.00    -0.000 C 
BRANCH  11  12
ATOM     12  C   UNL     1      18.835  11.175 -21.554  1.00  0.00    -0.000 C 
BRANCH  12  13
ATOM     13  C   UNL     1      18.700  12.614 -21.036  1.00  0.00    -0.003 C 
ATOM     14  C   UNL     1      17.378  12.810 -20.301  1.00  0.00     0.004 C 
ENDBRANCH  12  13
ENDBRANCH  11  12
ENDBRANCH  10  11
ENDBRANCH   9  10
ENDBRANCH   1   9
TORSDOF 10
ENDMDL
MODEL 4
REMARK VINA RESULT:    -4.958      3.198      6.424
REMARK INTER + INTRA:          -8.589
REMARK INTER:                  -7.786
REMARK INTRA:                  -0.803
REMARK UNBOUND:                -0.733
REMARK SMILES CCCCCCCCCCCC(=O)[O-]
REMARK SMILES IDX 7 1 8 2 9 3 10 4 11 5 12 6 13 7 14 8 6 9 5 10 4 11 3 12 2 13
REMARK SMILES IDX 1 14
REMARK H PARENT
REMARK Flexibility Score: inf
ROOT
ATOM      1  C   UNL     1      16.329   9.612 -21.856  1.00  0.00     0.000 C 
ENDROOT
BRANCH   1   2
ATOM      2  C   UNL     1      15.239   8.558 -22.085  1.00  0.00     0.000 C 
BRANCH   2   3
ATOM      3  C   UNL     1      15.708   7.172 -21.624  1.00  0.00     0.000 C 
BRANCH   3   4
ATOM      4  C   UNL     1      14.764   6.599 -20.557  1.00  0.00     0.006 C 
BRANCH   4   5
ATOM      5  C   UNL     1      13.341   7.160 -20.679  1.00  0.00     0.053 C 
BRANCH   5   6
ATOM      6  C   UNL     1      12.836   7.681 -19.368  1.00  0.00     0.041 C 
ATOM      7  O   UNL     1      13.278   7.209 -18.286  1.00  0.00    -0.550 OA
ATOM      8  O   UNL     1      11.855   8.663 -19.341  1.00  0.00    -0.550 OA
ENDBRANCH   5   6
ENDBRANCH   4   5
ENDBRANCH   3   4
ENDBRANCH   2   3
ENDBRANCH   1   2
BRANCH   1   9
ATOM      9  C   UNL     1      17.273   9.190 -20.720  1.00  0.00     0.000 C 
BRANCH   9  10
ATOM     10  C   UNL     1      18.489  10.122 -20.580  1.00  0.00    -0.000 C 
BRANCH  10  11
ATOM     11  C   UNL     1      18.088  11.604 -20.476  1.00  0.00    -0.000 C 
BRANCH  11  12
ATOM     12  C   UNL     1      18.655  12.450 -21.627  1.00  0.00    -0.000 C 
BRANCH  12  13
ATOM     13  C   UNL     1      19.361  11.603 -22.695  1.00  0.00    -0.003 C 
ATOM     14  C   UNL     1      18.691  11.764 -24.056  1.00  0.00     0.004 C 
ENDBRANCH  12  13
ENDBRANCH  11  12
ENDBRANCH  10  11
ENDBRANCH   9  10
ENDBRANCH   1   9
TORSDOF 10
ENDMDL
MODEL 5
REMARK VINA RESULT:    -4.874      2.620      4.551
REMARK INTER + INTRA:          -8.456
REMARK INTER:                  -7.768
REMARK INTRA:                  -0.688
REMARK UNBOUND:                -0.733
REMARK SMILES CCCCCCCCCCCC(=O)[O-]
REMARK SMILES IDX 7 1 8 2 9 3 10 4 11 5 12 6 13 7 14 8 6 9 5 10 4 11 3 12 2 13
REMARK SMILES IDX 1 14
REMARK H PARENT
REMARK Flexibility Score: inf
ROOT
ATOM      1  C   UNL     1      13.852   7.022 -20.861  1.00  0.00     0.000 C 
ENDROOT
BRANCH   1   2
ATOM      2  C   UNL     1      15.293   7.203 -21.353  1.00  0.00     0.000 C 
BRANCH   2   3
ATOM      3  C   UNL     1      15.482   8.574 -22.014  1.00  0.00     0.000 C 
BRANCH   3   4
ATOM      4  C   UNL     1      16.667   9.327 -21.392  1.00  0.00     0.006 C 
BRANCH   4   5
ATOM      5  C   UNL     1      17.221   8.613 -20.152  1.00  0.00     0.053 C 
BRANCH   5   6
ATOM      6  C   UNL     1      17.692   9.587 -19.116  1.00  0.00     0.041 C 
ATOM      7  O   UNL     1      17.729  10.819 -19.374  1.00  0.00    -0.550 OA
ATOM      8  O   UNL     1      18.120   9.130 -17.876  1.00  0.00    -0.550 OA
ENDBRANCH   5   6
ENDBRANCH   4   5
ENDBRANCH   3   4
ENDBRANCH   2   3
ENDBRANCH   1   2
BRANCH   1   9
ATOM      9  C   UNL     1      13.816   6.773 -19.346  1.00  0.00     0.000 C 
BRANCH   9  10
ATOM     10  C   UNL     1      13.064   7.874 -18.579  1.00  0.00    -0.000 C 
BRANCH  10  11
ATOM     11  C   UNL     1      11.972   8.546 -19.431  1.00  0.00    -0.000 C 
BRANCH  11  12
ATOM     12  C   UNL     1      11.171   9.594 -18.642  1.00  0.00    -0.000 C 
BRANCH  12  13
ATOM     13  C   UNL     1      10.671  10.747 -19.524  1.00  0.00    -0.003 C 
ATOM     14  C   UNL     1      10.515  12.030 -18.715  1.00  0.00     0.004 C 
ENDBRANCH  12  13
ENDBRANCH  11  12
ENDBRANCH  10  11
ENDBRANCH   9  10
ENDBRANCH   1   9
TORSDOF 10
ENDMDL
MODEL 6
REMARK VINA RESULT:    -4.671      2.478      3.025
REMARK INTER + INTRA:          -8.134
REMARK INTER:                  -7.311
REMARK INTRA:                  -0.824
REMARK UNBOUND:                -0.733
REMARK SMILES CCCCCCCCCCCC(=O)[O-]
REMARK SMILES IDX 7 1 8 2 9 3 10 4 11 5 12 6 13 7 14 8 6 9 5 10 4 11 3 12 2 13
REMARK SMILES IDX 1 14
REMARK H PARENT
REMARK Flexibility Score: inf
ROOT
ATOM      1  C   UNL     1      16.156   9.507 -22.003  1.00  0.00     0.000 C 
ENDROOT
BRANCH   1   2
ATOM      2  C   UNL     1      17.129   9.090 -20.893  1.00  0.00     0.000 C 
BRANCH   2   3
ATOM      3  C   UNL     1      18.037  10.257 -20.488  1.00  0.00     0.000 C 
BRANCH   3   4
ATOM      4  C   UNL     1      17.973  11.389 -21.524  1.00  0.00     0.006 C 
BRANCH   4   5
ATOM      5  C   UNL     1      19.295  11.554 -22.285  1.00  0.00     0.053 C 
BRANCH   5   6
ATOM      6  C   UNL     1      19.081  11.580 -23.767  1.00  0.00     0.041 C 
ATOM      7  O   UNL     1      17.963  11.259 -24.253  1.00  0.00    -0.550 OA
ATOM      8  O   UNL     1      20.125  11.928 -24.615  1.00  0.00    -0.550 OA
ENDBRANCH   5   6
ENDBRANCH   4   5
ENDBRANCH   3   4
ENDBRANCH   2   3
ENDBRANCH   1   2
BRANCH   1   9
ATOM      9  C   UNL     1      14.981   8.523 -22.101  1.00  0.00     0.000 C 
BRANCH   9  10
ATOM     10  C   UNL     1      15.380   7.082 -21.742  1.00  0.00    -0.000 C 
BRANCH  10  11
ATOM     11  C   UNL     1      14.389   6.419 -20.770  1.00  0.00    -0.000 C 
BRANCH  11  12
ATOM     12  C   UNL     1      14.598   6.871 -19.316  1.00  0.00    -0.000 C 
BRANCH  12  13
ATOM     13  C   UNL     1      13.322   7.442 -18.682  1.00  0.00    -0.003 C 
ATOM     14  C   UNL     1      12.300   7.820 -19.749  1.00  0.00     0.004 C 
ENDBRANCH  12  13
ENDBRANCH  11  12
ENDBRANCH  10  11
ENDBRANCH   9  10
ENDBRANCH   1   9
TORSDOF 10
ENDMDL
MODEL 7
REMARK VINA RESULT:    -4.620      1.795      3.225
REMARK INTER + INTRA:          -8.053
REMARK INTER:                  -7.454
REMARK INTRA:                  -0.599
REMARK UNBOUND:                -0.733
REMARK SMILES CCCCCCCCCCCC(=O)[O-]
REMARK SMILES IDX 7 1 8 2 9 3 10 4 11 5 12 6 13 7 14 8 6 9 5 10 4 11 3 12 2 13
REMARK SMILES IDX 1 14
REMARK H PARENT
REMARK Flexibility Score: inf
ROOT
ATOM      1  C   UNL     1      15.560   7.246 -21.272  1.00  0.00     0.000 C 
ENDROOT
BRANCH   1   2
ATOM      2  C   UNL     1      16.385   8.531 -21.132  1.00  0.00     0.000 C 
BRANCH   2   3
ATOM      3  C   UNL     1      17.175   8.539 -19.818  1.00  0.00     0.000 C 
BRANCH   3   4
ATOM      4  C   UNL     1      17.758   9.931 -19.534  1.00  0.00     0.006 C 
BRANCH   4   5
ATOM      5  C   UNL     1      17.492  10.916 -20.679  1.00  0.00     0.053 C 
BRANCH   5   6
ATOM      6  C   UNL     1      17.698  12.336 -20.249  1.00  0.00     0.041 C 
ATOM      7  O   UNL     1      18.860  12.771 -20.034  1.00  0.00    -0.550 OA
ATOM      8  O   UNL     1      16.604  13.170 -20.055  1.00  0.00    -0.550 OA
ENDBRANCH   5   6
ENDBRANCH   4   5
ENDBRANCH   3   4
ENDBRANCH   2   3
ENDBRANCH   1   2
BRANCH   1   9
ATOM      9  C   UNL     1      14.087   7.498 -20.915  1.00  0.00     0.000 C 
BRANCH   9  10
ATOM     10  C   UNL     1      13.709   6.948 -19.529  1.00  0.00    -0.000 C 
BRANCH  10  11
ATOM     11  C   UNL     1      12.877   7.946 -18.705  1.00  0.00    -0.000 C 
BRANCH  11  12
ATOM     12  C   UNL     1      11.886   8.743 -19.569  1.00  0.00    -0.000 C 
BRANCH  12  13
ATOM     13  C   UNL     1      11.089   9.775 -18.759  1.00  0.00    -0.003 C 
ATOM     14  C   UNL     1      10.569  10.894 -19.657  1.00  0.00     0.004 C 
ENDBRANCH  12  13
ENDBRANCH  11  12
ENDBRANCH  10  11
ENDBRANCH   9  10
ENDBRANCH   1   9
TORSDOF 10
ENDMDL
MODEL 8
REMARK VINA RESULT:    -4.502      3.317      6.244
REMARK INTER + INTRA:          -7.867
REMARK INTER:                  -7.451
REMARK INTRA:                  -0.416
REMARK UNBOUND:                -0.733
REMARK SMILES CCCCCCCCCCCC(=O)[O-]
REMARK SMILES IDX 7 1 8 2 9 3 10 4 11 5 12 6 13 7 14 8 6 9 5 10 4 11 3 12 2 13
REMARK SMILES IDX 1 14
REMARK H PARENT
REMARK Flexibility Score: inf
ROOT
ATOM      1  C   UNL     1      13.875   6.848 -19.608  1.00  0.00     0.000 C 
ENDROOT
BRANCH   1   2
ATOM      2  C   UNL     1      12.745   7.734 -20.148  1.00  0.00     0.000 C 
BRANCH   2   3
ATOM      3  C   UNL     1      12.054   8.499 -19.013  1.00  0.00     0.000 C 
BRANCH   3   4
ATOM      4  C   UNL     1      11.174   9.629 -19.568  1.00  0.00     0.006 C 
BRANCH   4   5
ATOM      5  C   UNL     1      10.821  10.669 -18.497  1.00  0.00     0.053 C 
BRANCH   5   6
ATOM      6  C   UNL     1      10.322  11.944 -19.105  1.00  0.00     0.041 C 
ATOM      7  O   UNL     1      10.285  13.001 -18.420  1.00  0.00    -0.550 OA
ATOM      8  O   UNL     1       9.867  11.958 -20.417  1.00  0.00    -0.550 OA
ENDBRANCH   5   6
ENDBRANCH   4   5
ENDBRANCH   3   4
ENDBRANCH   2   3
ENDBRANCH   1   2
BRANCH   1   9
ATOM      9  C   UNL     1      14.788   6.367 -20.745  1.00  0.00     0.000 C 
BRANCH   9  10
ATOM     10  C   UNL     1      15.523   7.522 -21.446  1.00  0.00    -0.000 C 
BRANCH  10  11
ATOM     11  C   UNL     1      16.462   8.287 -20.497  1.00  0.00    -0.000 C 
BRANCH  11  12
ATOM     12  C   UNL     1      17.158   9.472 -21.184  1.00  0.00    -0.000 C 
BRANCH  12  13
ATOM     13  C   UNL     1      18.248  10.109 -20.311  1.00  0.00    -0.003 C 
ATOM     14  C   UNL     1      19.392   9.132 -20.060  1.00  0.00     0.004 C 
ENDBRANCH  12  13
ENDBRANCH  11  12
ENDBRANCH  10  11
ENDBRANCH   9  10
ENDBRANCH   1   9
TORSDOF 10
ENDMDL
MODEL 9
REMARK VINA RESULT:    -4.368      9.369     10.950
REMARK INTER + INTRA:          -7.654
REMARK INTER:                  -7.108
REMARK INTRA:                  -0.547
REMARK UNBOUND:                -0.733
REMARK SMILES CCCCCCCCCCCC(=O)[O-]
REMARK SMILES IDX 7 1 8 2 9 3 10 4 11 5 12 6 13 7 14 8 6 9 5 10 4 11 3 12 2 13
REMARK SMILES IDX 1 14
REMARK H PARENT
REMARK Flexibility Score: inf
ROOT
ATOM      1  C   UNL     1       7.484  13.617 -21.233  1.00  0.00     0.000 C 
ENDROOT
BRANCH   1   2
ATOM      2  C   UNL     1       8.912  13.649 -20.673  1.00  0.00     0.000 C 
BRANCH   2   3
ATOM      3  C   UNL     1       9.464  12.230 -20.489  1.00  0.00     0.000 C 
BRANCH   3   4
ATOM      4  C   UNL     1      10.164  12.084 -19.130  1.00  0.00     0.006 C 
BRANCH   4   5
ATOM      5  C   UNL     1       9.980  13.324 -18.246  1.00  0.00     0.053 C 
BRANCH   5   6
ATOM      6  C   UNL     1      10.136  12.997 -16.793  1.00  0.00     0.041 C 
ATOM      7  O   UNL     1      10.511  11.848 -16.438  1.00  0.00    -0.550 OA
ATOM      8  O   UNL     1       9.834  13.950 -15.829  1.00  0.00    -0.550 OA
ENDBRANCH   5   6
ENDBRANCH   4   5
ENDBRANCH   3   4
ENDBRANCH   2   3
ENDBRANCH   1   2
BRANCH   1   9
ATOM      9  C   UNL     1       6.882  15.029 -21.283  1.00  0.00     0.000 C 
BRANCH   9  10
ATOM     10  C   UNL     1       5.399  15.029 -21.691  1.00  0.00    -0.000 C 
BRANCH  10  11
ATOM     11  C   UNL     1       5.021  13.803 -22.541  1.00  0.00    -0.000 C 
BRANCH  11  12
ATOM     12  C   UNL     1       3.532  13.440 -22.422  1.00  0.00    -0.000 C 
BRANCH  12  13
ATOM     13  C   UNL     1       2.807  14.254 -21.340  1.00  0.00    -0.003 C 
ATOM     14  C   UNL     1       2.120  13.337 -20.332  1.00  0.00     0.004 C 
ENDBRANCH  12  13
ENDBRANCH  11  12
ENDBRANCH  10  11
ENDBRANCH   9  10
ENDBRANCH   1   9
TORSDOF 10
ENDMDL
