MODEL 1
REMARK VINA RESULT:    -2.235      0.000      0.000
REMARK INTER + INTRA:          -2.235
REMARK INTER:                  -2.235
REMARK INTRA:                   0.000
REMARK UNBOUND:                 0.000
REMARK SMILES CC(=O)[O-]
REMARK SMILES IDX 1 1 2 2 3 3 4 4
REMARK H PARENT
REMARK Flexibility Score: inf
ROOT
ATOM      1  C   UNL     1      85.462  87.266  69.722  1.00  0.00     0.063 C 
ATOM      2  C   UNL     1      85.405  88.756  69.732  1.00  0.00     0.038 C 
ATOM      3  O   UNL     1      84.598  89.351  70.493  1.00  0.00    -0.550 OA
ATOM      4  O   UNL     1      86.278  89.492  68.942  1.00  0.00    -0.550 OA
ENDROOT
TORSDOF 0
ENDMDL
MODEL 2
REMARK VINA RESULT:    -2.166     12.012     12.481
REMARK INTER + INTRA:          -2.166
REMARK INTER:                  -2.166
REMARK INTRA:                   0.000
REMARK UNBOUND:                 0.000
REMARK SMILES CC(=O)[O-]
REMARK SMILES IDX 1 1 2 2 3 3 4 4
REMARK H PARENT
REMARK Flexibility Score: inf
ROOT
ATOM      1  C   UNL     1      90.003  77.514  67.097  1.00  0.00     0.063 C 
ATOM      2  C   UNL     1      88.573  77.095  67.115  1.00  0.00     0.038 C 
ATOM      3  O   UNL     1      87.666  77.934  66.878  1.00  0.00    -0.550 OA
ATOM      4  O   UNL     1      88.240  75.766  67.343  1.00  0.00    -0.550 OA
ENDROOT
TORSDOF 0
ENDMDL
MODEL 3
REMARK VINA RESULT:    -2.146     16.210     16.444
REMARK INTER + INTRA:          -2.146
REMARK INTER:                  -2.146
REMARK INTRA:                   0.000
REMARK UNBOUND:                 0.000
REMARK SMILES CC(=O)[O-]
REMARK SMILES IDX 1 1 2 2 3 3 4 4
REMARK H PARENT
REMARK Flexibility Score: inf
ROOT
ATOM      1  C   UNL     1      96.249  81.378  79.288  1.00  0.00     0.063 C 
ATOM      2  C   UNL     1      97.396  82.265  78.939  1.00  0.00     0.038 C 
ATOM      3  O   UNL     1      98.566  81.944  79.271  1.00  0.00    -0.550 OA
ATOM      4  O   UNL     1      97.181  83.422  78.201  1.00  0.00    -0.550 OA
ENDROOT
TORSDOF 0
ENDMDL
MODEL 4
REMARK VINA RESULT:    -2.113     12.015     12.476
REMARK INTER + INTRA:          -2.113
REMARK INTER:                  -2.113
REMARK INTRA:                   0.000
REMARK UNBOUND:                 0.000
REMARK SMILES CC(=O)[O-]
REMARK SMILES IDX 1 1 2 2 3 3 4 4
REMARK H PARENT
REMARK Flexibility Score: inf
ROOT
ATOM      1  C   UNL     1      88.659  75.707  67.692  1.00  0.00     0.063 C 
ATOM      2  C   UNL     1      89.149  77.100  67.486  1.00  0.00     0.038 C 
ATOM      3  O   UNL     1      88.435  77.936  66.876  1.00  0.00    -0.550 OA
ATOM      4  O   UNL     1      90.372  77.492  68.014  1.00  0.00    -0.550 OA
ENDROOT
TORSDOF 0
ENDMDL
MODEL 5
REMARK VINA RESULT:    -2.055      9.438      9.636
REMARK INTER + INTRA:          -2.055
REMARK INTER:                  -2.055
REMARK INTRA:                   0.000
REMARK UNBOUND:                 0.000
REMARK SMILES CC(=O)[O-]
REMARK SMILES IDX 1 1 2 2 3 3 4 4
REMARK H PARENT
REMARK Flexibility Score: inf
ROOT
ATOM      1  C   UNL     1      91.659  83.548  76.946  1.00  0.00     0.063 C 
ATOM      2  C   UNL     1      90.347  84.064  76.459  1.00  0.00     0.038 C 
ATOM      3  O   UNL     1      89.275  83.586  76.910  1.00  0.00    -0.550 OA
ATOM      4  O   UNL     1      90.306  85.111  75.547  1.00  0.00    -0.550 OA
ENDROOT
TORSDOF 0
ENDMDL
MODEL 6
REMARK VINA RESULT:    -2.052     11.313     11.531
REMARK INTER + INTRA:          -2.052
REMARK INTER:                  -2.052
REMARK INTRA:                   0.000
REMARK UNBOUND:                 0.000
REMARK SMILES CC(=O)[O-]
REMARK SMILES IDX 1 1 2 2 3 3 4 4
REMARK H PARENT
REMARK Flexibility Score: inf
ROOT
ATOM      1  C   UNL     1      85.934  76.771  66.933  1.00  0.00     0.063 C 
ATOM      2  C   UNL     1      87.005  77.564  67.601  1.00  0.00     0.038 C 
ATOM      3  O   UNL     1      86.935  77.805  68.834  1.00  0.00    -0.550 OA
ATOM      4  O   UNL     1      88.108  77.994  66.875  1.00  0.00    -0.550 OA
ENDROOT
TORSDOF 0
ENDMDL
MODEL 7
REMARK VINA RESULT:    -2.047     11.179     11.594
REMARK INTER + INTRA:          -2.047
REMARK INTER:                  -2.047
REMARK INTRA:                   0.000
REMARK UNBOUND:                 0.000
REMARK SMILES CC(=O)[O-]
REMARK SMILES IDX 1 1 2 2 3 3 4 4
REMARK H PARENT
REMARK Flexibility Score: inf
ROOT
ATOM      1  C   UNL     1      88.142  77.631  66.876  1.00  0.00     0.063 C 
ATOM      2  C   UNL     1      86.783  77.559  67.487  1.00  0.00     0.038 C 
ATOM      3  O   UNL     1      85.899  76.826  66.973  1.00  0.00    -0.550 OA
ATOM      4  O   UNL     1      86.507  78.259  68.653  1.00  0.00    -0.550 OA
ENDROOT
TORSDOF 0
ENDMDL
MODEL 8
REMARK VINA RESULT:    -2.035     11.359     11.741
REMARK INTER + INTRA:          -2.035
REMARK INTER:                  -2.035
REMARK INTRA:                   0.000
REMARK UNBOUND:                 0.000
REMARK SMILES CC(=O)[O-]
REMARK SMILES IDX 1 1 2 2 3 3 4 4
REMARK H PARENT
REMARK Flexibility Score: inf
ROOT
ATOM      1  C   UNL     1      86.486  77.612  69.015  1.00  0.00     0.063 C 
ATOM      2  C   UNL     1      86.564  77.418  67.539  1.00  0.00     0.038 C 
ATOM      3  O   UNL     1      87.559  77.846  66.899  1.00  0.00    -0.550 OA
ATOM      4  O   UNL     1      85.564  76.720  66.875  1.00  0.00    -0.550 OA
ENDROOT
TORSDOF 0
ENDMDL
MODEL 9
REMARK VINA RESULT:    -1.968     14.816     15.243
REMARK INTER + INTRA:          -1.968
REMARK INTER:                  -1.968
REMARK INTRA:                   0.000
REMARK UNBOUND:                 0.000
REMARK SMILES CC(=O)[O-]
REMARK SMILES IDX 1 1 2 2 3 3 4 4
REMARK H PARENT
REMARK Flexibility Score: inf
ROOT
ATOM      1  C   UNL     1      87.291  73.179  67.311  1.00  0.00     0.063 C 
ATOM      2  C   UNL     1      88.319  73.890  68.122  1.00  0.00     0.038 C 
ATOM      3  O   UNL     1      88.882  73.303  69.082  1.00  0.00    -0.550 OA
ATOM      4  O   UNL     1      88.697  75.184  67.788  1.00  0.00    -0.550 OA
ENDROOT
TORSDOF 0
ENDMDL
