MODEL 1
REMARK VINA RESULT:     0.621      0.000      0.000
REMARK INTER + INTRA:           1.414
REMARK INTER:                   0.676
REMARK INTRA:                   0.738
REMARK UNBOUND:                 0.738
REMARK SMILES C[C@H]1[C@@H](C)CC[C@]2(C(=O)[O-])CC[C@]3(C)C(=CC[C@H]4[C@]5(C)CC[C@@H](O)C(C)(C)[C@@H]5CC[C@]43C)[C@@H]12
REMARK SMILES IDX 7 1 6 2 11 3 33 4 5 5 12 6 15 7 2 8 3 9 13 10 16 11 1 12
REMARK SMILES IDX 4 13 14 14 31 15 17 16 18 17 30 18 32 19 19 20 29 21 28 22
REMARK SMILES IDX 21 23 20 24 25 25 22 26 23 27 26 28 27 29 8 30 9 31 10 32
REMARK SMILES IDX 24 33
REMARK H PARENT 24 34
REMARK Flexibility Score: inf
ROOT
ATOM      1  C   UNL     1      43.156  12.901  34.564  1.00  0.00     0.017 C 
ATOM      2  C   UNL     1      42.818  12.933  33.040  1.00  0.00     0.014 C 
ATOM      3  C   UNL     1      43.349  11.418  34.972  1.00  0.00     0.014 C 
ATOM      4  C   UNL     1      41.943  13.516  35.342  1.00  0.00     0.030 C 
ATOM      5  C   UNL     1      42.434  14.329  32.522  1.00  0.00     0.004 C 
ATOM      6  C   UNL     1      43.392  11.182  36.497  1.00  0.00     0.013 C 
ATOM      7  C   UNL     1      42.021  13.217  36.854  1.00  0.00    -0.063 C 
ATOM      8  C   UNL     1      41.618  14.981  34.868  1.00  0.00    -0.003 C 
ATOM      9  C   UNL     1      41.285  14.950  33.346  1.00  0.00    -0.011 C 
ATOM     10  C   UNL     1      42.163  11.749  37.300  1.00  0.00    -0.006 C 
ATOM     11  C   UNL     1      41.979  14.206  37.750  1.00  0.00    -0.027 C 
ATOM     12  C   UNL     1      42.692  16.058  35.191  1.00  0.00     0.008 C 
ATOM     13  C   UNL     1      40.898  16.329  32.792  1.00  0.00     0.008 C 
ATOM     14  C   UNL     1      40.875  10.990  36.841  1.00  0.00     0.017 C 
ATOM     15  C   UNL     1      42.353  11.557  38.912  1.00  0.00    -0.020 C 
ATOM     16  C   UNL     1      42.542  14.105  39.120  1.00  0.00     0.032 C 
ATOM     17  C   UNL     1      43.208  12.742  39.517  1.00  0.00     0.006 C 
ATOM     18  C   UNL     1      41.002  11.577  39.690  1.00  0.00     0.008 C 
ATOM     19  C   UNL     1      42.997  10.147  39.137  1.00  0.00     0.012 C 
ATOM     20  C   UNL     1      43.460  12.735  41.109  1.00  0.00    -0.025 C 
ATOM     21  C   UNL     1      41.151  11.503  41.224  1.00  0.00     0.005 C 
ATOM     22  C   UNL     1      42.085  12.563  41.891  1.00  0.00     0.003 C 
ATOM     23  C   UNL     1      44.500  11.650  41.544  1.00  0.00     0.010 C 
ATOM     24  C   UNL     1      44.133  14.109  41.466  1.00  0.00     0.012 C 
ATOM     25  C   UNL     1      42.234  12.308  43.463  1.00  0.00    -0.006 C 
ATOM     26  C   UNL     1      44.644  11.478  43.064  1.00  0.00     0.033 C 
ATOM     27  C   UNL     1      43.297  11.199  43.742  1.00  0.00     0.120 C 
ATOM     28  C   UNL     1      40.878  11.847  44.079  1.00  0.00     0.014 C 
ATOM     29  C   UNL     1      42.590  13.623  44.220  1.00  0.00     0.014 C 
ENDROOT
BRANCH   1  30
ATOM     30  C   UNL     1      44.470  13.624  34.850  1.00  0.00     0.048 C 
ATOM     31  O   UNL     1      45.419  13.586  34.023  1.00  0.00    -0.550 OA
ATOM     32  O   UNL     1      44.680  14.257  36.070  1.00  0.00    -0.550 OA
ENDBRANCH   1  30
BRANCH  27  33
ATOM     33  O   UNL     1      43.522  11.058  45.124  1.00  0.00    -0.393 OA
ATOM     34  H   UNL     1      43.071  11.817  45.577  1.00  0.00     0.210 HD
ENDBRANCH  27  33
TORSDOF 2
ENDMDL
MODEL 2
REMARK VINA RESULT:     1.045      2.104      2.786
REMARK INTER + INTRA:           1.874
REMARK INTER:                   1.431
REMARK INTRA:                   0.443
REMARK UNBOUND:                 0.738
REMARK SMILES C[C@H]1[C@@H](C)CC[C@]2(C(=O)[O-])CC[C@]3(C)C(=CC[C@H]4[C@]5(C)CC[C@@H](O)C(C)(C)[C@@H]5CC[C@]43C)[C@@H]12
REMARK SMILES IDX 7 1 6 2 11 3 33 4 5 5 12 6 15 7 2 8 3 9 13 10 16 11 1 12
REMARK SMILES IDX 4 13 14 14 31 15 17 16 18 17 30 18 32 19 19 20 29 21 28 22
REMARK SMILES IDX 21 23 20 24 25 25 22 26 23 27 26 28 27 29 8 30 9 31 10 32
REMARK SMILES IDX 24 33
REMARK H PARENT 24 34
REMARK Flexibility Score: inf
ROOT
ATOM      1  C   UNL     1      43.186  12.844  34.846  1.00  0.00     0.017 C 
ATOM      2  C   UNL     1      42.662  12.242  33.504  1.00  0.00     0.014 C 
ATOM      3  C   UNL     1      43.110  11.731  35.922  1.00  0.00     0.014 C 
ATOM      4  C   UNL     1      42.248  14.035  35.241  1.00  0.00     0.030 C 
ATOM      5  C   UNL     1      42.519  13.277  32.376  1.00  0.00     0.004 C 
ATOM      6  C   UNL     1      43.305  12.236  37.368  1.00  0.00     0.013 C 
ATOM      7  C   UNL     1      42.462  14.471  36.706  1.00  0.00    -0.063 C 
ATOM      8  C   UNL     1      42.184  15.135  34.117  1.00  0.00    -0.003 C 
ATOM      9  C   UNL     1      41.651  14.479  32.808  1.00  0.00    -0.011 C 
ATOM     10  C   UNL     1      42.345  13.402  37.809  1.00  0.00    -0.006 C 
ATOM     11  C   UNL     1      42.753  15.739  37.007  1.00  0.00    -0.027 C 
ATOM     12  C   UNL     1      43.496  15.927  33.860  1.00  0.00     0.008 C 
ATOM     13  C   UNL     1      41.498  15.484  31.657  1.00  0.00     0.008 C 
ATOM     14  C   UNL     1      40.875  12.868  37.794  1.00  0.00     0.017 C 
ATOM     15  C   UNL     1      42.703  13.947  39.308  1.00  0.00    -0.020 C 
ATOM     16  C   UNL     1      43.460  16.153  38.245  1.00  0.00     0.032 C 
ATOM     17  C   UNL     1      43.866  15.018  39.247  1.00  0.00     0.006 C 
ATOM     18  C   UNL     1      41.505  14.669  39.995  1.00  0.00     0.008 C 
ATOM     19  C   UNL     1      43.055  12.697  40.183  1.00  0.00     0.012 C 
ATOM     20  C   UNL     1      44.321  15.695  40.636  1.00  0.00    -0.025 C 
ATOM     21  C   UNL     1      41.838  15.288  41.368  1.00  0.00     0.005 C 
ATOM     22  C   UNL     1      43.059  16.263  41.422  1.00  0.00     0.003 C 
ATOM     23  C   UNL     1      45.154  14.719  41.532  1.00  0.00     0.010 C 
ATOM     24  C   UNL     1      45.314  16.856  40.270  1.00  0.00     0.012 C 
ATOM     25  C   UNL     1      43.358  16.747  42.916  1.00  0.00    -0.006 C 
ATOM     26  C   UNL     1      45.460  15.249  42.941  1.00  0.00     0.033 C 
ATOM     27  C   UNL     1      44.187  15.671  43.687  1.00  0.00     0.120 C 
ATOM     28  C   UNL     1      42.031  16.987  43.697  1.00  0.00     0.014 C 
ATOM     29  C   UNL     1      44.086  18.125  42.932  1.00  0.00     0.014 C 
ENDROOT
BRANCH   1  30
ATOM     30  C   UNL     1      44.651  13.259  34.725  1.00  0.00     0.048 C 
ATOM     31  O   UNL     1      45.342  12.903  33.735  1.00  0.00    -0.550 OA
ATOM     32  O   UNL     1      45.277  13.955  35.754  1.00  0.00    -0.550 OA
ENDBRANCH   1  30
BRANCH  27  33
ATOM     33  O   UNL     1      44.560  16.142  44.959  1.00  0.00    -0.393 OA
ATOM     34  H   UNL     1      45.392  16.671  44.846  1.00  0.00     0.210 HD
ENDBRANCH  27  33
TORSDOF 2
ENDMDL
MODEL 3
REMARK VINA RESULT:     1.429      2.292      8.400
REMARK INTER + INTRA:           2.292
REMARK INTER:                   1.676
REMARK INTRA:                   0.616
REMARK UNBOUND:                 0.738
REMARK SMILES C[C@H]1[C@@H](C)CC[C@]2(C(=O)[O-])CC[C@]3(C)C(=CC[C@H]4[C@]5(C)CC[C@@H](O)C(C)(C)[C@@H]5CC[C@]43C)[C@@H]12
REMARK SMILES IDX 7 1 6 2 11 3 33 4 5 5 12 6 15 7 2 8 3 9 13 10 16 11 1 12
REMARK SMILES IDX 4 13 14 14 31 15 17 16 18 17 30 18 32 19 19 20 29 21 28 22
REMARK SMILES IDX 21 23 20 24 25 25 22 26 23 27 26 28 27 29 8 30 9 31 10 32
REMARK SMILES IDX 24 33
REMARK H PARENT 24 34
REMARK Flexibility Score: inf
ROOT
ATOM      1  C   UNL     1      44.351  15.130  42.274  1.00  0.00     0.017 C 
ATOM      2  C   UNL     1      44.506  15.438  43.797  1.00  0.00     0.014 C 
ATOM      3  C   UNL     1      45.370  16.013  41.509  1.00  0.00     0.014 C 
ATOM      4  C   UNL     1      42.890  15.507  41.850  1.00  0.00     0.030 C 
ATOM      5  C   UNL     1      43.444  14.759  44.676  1.00  0.00     0.004 C 
ATOM      6  C   UNL     1      45.146  16.056  39.982  1.00  0.00     0.013 C 
ATOM      7  C   UNL     1      42.738  15.572  40.316  1.00  0.00    -0.063 C 
ATOM      8  C   UNL     1      41.811  14.735  42.695  1.00  0.00    -0.003 C 
ATOM      9  C   UNL     1      42.011  15.085  44.200  1.00  0.00    -0.011 C 
ATOM     10  C   UNL     1      43.701  16.478  39.526  1.00  0.00    -0.006 C 
ATOM     11  C   UNL     1      41.804  14.851  39.691  1.00  0.00    -0.027 C 
ATOM     12  C   UNL     1      41.743  13.197  42.475  1.00  0.00     0.008 C 
ATOM     13  C   UNL     1      40.968  14.421  45.111  1.00  0.00     0.008 C 
ATOM     14  C   UNL     1      43.444  17.951  39.983  1.00  0.00     0.017 C 
ATOM     15  C   UNL     1      43.527  16.381  37.903  1.00  0.00    -0.020 C 
ATOM     16  C   UNL     1      41.892  14.441  38.267  1.00  0.00     0.032 C 
ATOM     17  C   UNL     1      43.160  14.905  37.469  1.00  0.00     0.006 C 
ATOM     18  C   UNL     1      42.371  17.276  37.361  1.00  0.00     0.008 C 
ATOM     19  C   UNL     1      44.857  16.905  37.263  1.00  0.00     0.012 C 
ATOM     20  C   UNL     1      42.910  14.636  35.900  1.00  0.00    -0.025 C 
ATOM     21  C   UNL     1      42.110  17.131  35.848  1.00  0.00     0.005 C 
ATOM     22  C   UNL     1      41.865  15.683  35.313  1.00  0.00     0.003 C 
ATOM     23  C   UNL     1      44.239  14.638  35.074  1.00  0.00     0.010 C 
ATOM     24  C   UNL     1      42.357  13.171  35.776  1.00  0.00     0.012 C 
ATOM     25  C   UNL     1      41.715  15.662  33.721  1.00  0.00    -0.006 C 
ATOM     26  C   UNL     1      44.045  14.565  33.552  1.00  0.00     0.033 C 
ATOM     27  C   UNL     1      43.119  15.673  33.036  1.00  0.00     0.120 C 
ATOM     28  C   UNL     1      40.922  16.908  33.224  1.00  0.00     0.014 C 
ATOM     29  C   UNL     1      40.875  14.438  33.245  1.00  0.00     0.014 C 
ENDROOT
BRANCH   1  30
ATOM     30  C   UNL     1      44.696  13.673  41.972  1.00  0.00     0.048 C 
ATOM     31  O   UNL     1      44.361  13.144  40.879  1.00  0.00    -0.550 OA
ATOM     32  O   UNL     1      45.302  12.875  42.936  1.00  0.00    -0.550 OA
ENDBRANCH   1  30
BRANCH  27  33
ATOM     33  O   UNL     1      42.997  15.530  31.642  1.00  0.00    -0.393 OA
ATOM     34  H   UNL     1      43.188  16.414  31.235  1.00  0.00     0.210 HD
ENDBRANCH  27  33
TORSDOF 2
ENDMDL
MODEL 4
REMARK VINA RESULT:     1.606      2.248      8.270
REMARK INTER + INTRA:           2.485
REMARK INTER:                   2.050
REMARK INTRA:                   0.435
REMARK UNBOUND:                 0.738
REMARK SMILES C[C@H]1[C@@H](C)CC[C@]2(C(=O)[O-])CC[C@]3(C)C(=CC[C@H]4[C@]5(C)CC[C@@H](O)C(C)(C)[C@@H]5CC[C@]43C)[C@@H]12
REMARK SMILES IDX 7 1 6 2 11 3 33 4 5 5 12 6 15 7 2 8 3 9 13 10 16 11 1 12
REMARK SMILES IDX 4 13 14 14 31 15 17 16 18 17 30 18 32 19 19 20 29 21 28 22
REMARK SMILES IDX 21 23 20 24 25 25 22 26 23 27 26 28 27 29 8 30 9 31 10 32
REMARK SMILES IDX 24 33
REMARK H PARENT 24 34
REMARK Flexibility Score: inf
ROOT
ATOM      1  C   UNL     1      42.639  12.572  42.891  1.00  0.00     0.017 C 
ATOM      2  C   UNL     1      42.839  11.512  44.020  1.00  0.00     0.014 C 
ATOM      3  C   UNL     1      41.431  12.121  42.031  1.00  0.00     0.014 C 
ATOM      4  C   UNL     1      43.939  12.600  42.017  1.00  0.00     0.030 C 
ATOM      5  C   UNL     1      44.108  11.734  44.859  1.00  0.00     0.004 C 
ATOM      6  C   UNL     1      41.281  12.889  40.701  1.00  0.00     0.013 C 
ATOM      7  C   UNL     1      43.718  13.348  40.686  1.00  0.00    -0.063 C 
ATOM      8  C   UNL     1      45.220  12.921  42.871  1.00  0.00    -0.003 C 
ATOM      9  C   UNL     1      45.371  11.831  43.975  1.00  0.00    -0.011 C 
ATOM     10  C   UNL     1      42.557  12.895  39.779  1.00  0.00    -0.006 C 
ATOM     11  C   UNL     1      44.504  14.369  40.336  1.00  0.00    -0.027 C 
ATOM     12  C   UNL     1      45.297  14.352  43.476  1.00  0.00     0.008 C 
ATOM     13  C   UNL     1      46.628  12.022  44.835  1.00  0.00     0.008 C 
ATOM     14  C   UNL     1      42.854  11.427  39.331  1.00  0.00     0.017 C 
ATOM     15  C   UNL     1      42.342  13.828  38.454  1.00  0.00    -0.020 C 
ATOM     16  C   UNL     1      44.095  15.443  39.396  1.00  0.00     0.032 C 
ATOM     17  C   UNL     1      42.656  15.343  38.783  1.00  0.00     0.006 C 
ATOM     18  C   UNL     1      43.297  13.448  37.282  1.00  0.00     0.008 C 
ATOM     19  C   UNL     1      40.877  13.591  37.954  1.00  0.00     0.012 C 
ATOM     20  C   UNL     1      42.535  16.402  37.575  1.00  0.00    -0.025 C 
ATOM     21  C   UNL     1      43.194  14.374  36.053  1.00  0.00     0.005 C 
ATOM     22  C   UNL     1      43.365  15.906  36.311  1.00  0.00     0.003 C 
ATOM     23  C   UNL     1      41.048  16.706  37.193  1.00  0.00     0.010 C 
ATOM     24  C   UNL     1      43.102  17.766  38.111  1.00  0.00     0.012 C 
ATOM     25  C   UNL     1      43.131  16.757  34.977  1.00  0.00    -0.006 C 
ATOM     26  C   UNL     1      40.876  17.568  35.933  1.00  0.00     0.033 C 
ATOM     27  C   UNL     1      41.605  16.972  34.723  1.00  0.00     0.120 C 
ATOM     28  C   UNL     1      43.729  16.021  33.740  1.00  0.00     0.014 C 
ATOM     29  C   UNL     1      43.883  18.120  35.033  1.00  0.00     0.014 C 
ENDROOT
BRANCH   1  30
ATOM     30  C   UNL     1      42.292  13.938  43.479  1.00  0.00     0.048 C 
ATOM     31  O   UNL     1      42.037  14.066  44.705  1.00  0.00    -0.550 OA
ATOM     32  O   UNL     1      42.155  15.049  42.654  1.00  0.00    -0.550 OA
ENDBRANCH   1  30
BRANCH  27  33
ATOM     33  O   UNL     1      41.396  17.823  33.622  1.00  0.00    -0.393 OA
ATOM     34  H   UNL     1      40.419  17.858  33.456  1.00  0.00     0.210 HD
ENDBRANCH  27  33
TORSDOF 2
ENDMDL
MODEL 5
REMARK VINA RESULT:     2.652      2.913      8.437
REMARK INTER + INTRA:           3.622
REMARK INTER:                   3.188
REMARK INTRA:                   0.434
REMARK UNBOUND:                 0.738
REMARK SMILES C[C@H]1[C@@H](C)CC[C@]2(C(=O)[O-])CC[C@]3(C)C(=CC[C@H]4[C@]5(C)CC[C@@H](O)C(C)(C)[C@@H]5CC[C@]43C)[C@@H]12
REMARK SMILES IDX 7 1 6 2 11 3 33 4 5 5 12 6 15 7 2 8 3 9 13 10 16 11 1 12
REMARK SMILES IDX 4 13 14 14 31 15 17 16 18 17 30 18 32 19 19 20 29 21 28 22
REMARK SMILES IDX 21 23 20 24 25 25 22 26 23 27 26 28 27 29 8 30 9 31 10 32
REMARK SMILES IDX 24 33
REMARK H PARENT 24 34
REMARK Flexibility Score: inf
ROOT
ATOM      1  C   UNL     1      42.291  15.857  42.952  1.00  0.00     0.017 C 
ATOM      2  C   UNL     1      42.445  15.650  44.492  1.00  0.00     0.014 C 
ATOM      3  C   UNL     1      41.171  14.905  42.459  1.00  0.00     0.014 C 
ATOM      4  C   UNL     1      43.652  15.479  42.274  1.00  0.00     0.030 C 
ATOM      5  C   UNL     1      43.636  16.407  45.101  1.00  0.00     0.004 C 
ATOM      6  C   UNL     1      41.094  14.763  40.923  1.00  0.00     0.013 C 
ATOM      7  C   UNL     1      43.505  15.313  40.747  1.00  0.00    -0.063 C 
ATOM      8  C   UNL     1      44.851  16.327  42.840  1.00  0.00    -0.003 C 
ATOM      9  C   UNL     1      44.958  16.076  44.374  1.00  0.00    -0.011 C 
ATOM     10  C   UNL     1      42.436  14.338  40.219  1.00  0.00    -0.006 C 
ATOM     11  C   UNL     1      44.276  16.007  39.906  1.00  0.00    -0.027 C 
ATOM     12  C   UNL     1      44.826  17.847  42.514  1.00  0.00     0.008 C 
ATOM     13  C   UNL     1      46.137  16.820  45.019  1.00  0.00     0.008 C 
ATOM     14  C   UNL     1      42.823  12.904  40.709  1.00  0.00     0.017 C 
ATOM     15  C   UNL     1      42.288  14.327  38.591  1.00  0.00    -0.020 C 
ATOM     16  C   UNL     1      43.899  16.318  38.504  1.00  0.00     0.032 C 
ATOM     17  C   UNL     1      42.516  15.777  38.002  1.00  0.00     0.006 C 
ATOM     18  C   UNL     1      43.343  13.419  37.890  1.00  0.00     0.008 C 
ATOM     19  C   UNL     1      40.875  13.737  38.259  1.00  0.00     0.012 C 
ATOM     20  C   UNL     1      42.448  15.944  36.401  1.00  0.00    -0.025 C 
ATOM     21  C   UNL     1      43.299  13.466  36.349  1.00  0.00     0.005 C 
ATOM     22  C   UNL     1      43.390  14.879  35.687  1.00  0.00     0.003 C 
ATOM     23  C   UNL     1      40.984  15.861  35.854  1.00  0.00     0.010 C 
ATOM     24  C   UNL     1      42.919  17.407  36.078  1.00  0.00     0.012 C 
ATOM     25  C   UNL     1      43.227  14.795  34.098  1.00  0.00    -0.006 C 
ATOM     26  C   UNL     1      40.875  15.834  34.321  1.00  0.00     0.033 C 
ATOM     27  C   UNL     1      41.718  14.710  33.705  1.00  0.00     0.120 C 
ATOM     28  C   UNL     1      43.946  13.532  33.534  1.00  0.00     0.014 C 
ATOM     29  C   UNL     1      43.919  15.998  33.391  1.00  0.00     0.014 C 
ENDROOT
BRANCH   1  30
ATOM     30  C   UNL     1      41.847  17.283  42.632  1.00  0.00     0.048 C 
ATOM     31  O   UNL     1      41.503  18.072  43.551  1.00  0.00    -0.550 OA
ATOM     32  O   UNL     1      41.722  17.707  41.314  1.00  0.00    -0.550 OA
ENDBRANCH   1  30
BRANCH  27  33
ATOM     33  O   UNL     1      41.561  14.761  32.307  1.00  0.00    -0.393 OA
ATOM     34  H   UNL     1      40.687  14.345  32.092  1.00  0.00     0.210 HD
ENDBRANCH  27  33
TORSDOF 2
ENDMDL
MODEL 6
REMARK VINA RESULT:     3.472      2.934      8.496
REMARK INTER + INTRA:           4.515
REMARK INTER:                   4.062
REMARK INTRA:                   0.452
REMARK UNBOUND:                 0.738
REMARK SMILES C[C@H]1[C@@H](C)CC[C@]2(C(=O)[O-])CC[C@]3(C)C(=CC[C@H]4[C@]5(C)CC[C@@H](O)C(C)(C)[C@@H]5CC[C@]43C)[C@@H]12
REMARK SMILES IDX 7 1 6 2 11 3 33 4 5 5 12 6 15 7 2 8 3 9 13 10 16 11 1 12
REMARK SMILES IDX 4 13 14 14 31 15 17 16 18 17 30 18 32 19 19 20 29 21 28 22
REMARK SMILES IDX 21 23 20 24 25 25 22 26 23 27 26 28 27 29 8 30 9 31 10 32
REMARK SMILES IDX 24 33
REMARK H PARENT 24 34
REMARK Flexibility Score: inf
ROOT
ATOM      1  C   UNL     1      43.842  15.519  43.226  1.00  0.00     0.017 C 
ATOM      2  C   UNL     1      43.870  15.146  44.742  1.00  0.00     0.014 C 
ATOM      3  C   UNL     1      42.583  16.387  42.979  1.00  0.00     0.014 C 
ATOM      4  C   UNL     1      43.747  14.189  42.403  1.00  0.00     0.030 C 
ATOM      5  C   UNL     1      44.975  14.144  45.112  1.00  0.00     0.004 C 
ATOM      6  C   UNL     1      42.240  16.591  41.487  1.00  0.00     0.013 C 
ATOM      7  C   UNL     1      43.365  14.453  40.931  1.00  0.00    -0.063 C 
ATOM      8  C   UNL     1      44.936  13.209  42.721  1.00  0.00    -0.003 C 
ATOM      9  C   UNL     1      44.909  12.870  44.242  1.00  0.00    -0.011 C 
ATOM     10  C   UNL     1      42.091  15.271  40.644  1.00  0.00    -0.006 C 
ATOM     11  C   UNL     1      44.127  13.996  39.934  1.00  0.00    -0.027 C 
ATOM     12  C   UNL     1      46.348  13.679  42.270  1.00  0.00     0.008 C 
ATOM     13  C   UNL     1      46.003  11.872  44.649  1.00  0.00     0.008 C 
ATOM     14  C   UNL     1      40.875  14.460  41.200  1.00  0.00     0.017 C 
ATOM     15  C   UNL     1      41.846  15.589  39.059  1.00  0.00    -0.020 C 
ATOM     16  C   UNL     1      44.157  14.594  38.576  1.00  0.00     0.032 C 
ATOM     17  C   UNL     1      43.223  15.827  38.320  1.00  0.00     0.006 C 
ATOM     18  C   UNL     1      41.161  14.411  38.302  1.00  0.00     0.008 C 
ATOM     19  C   UNL     1      40.877  16.817  38.979  1.00  0.00     0.012 C 
ATOM     20  C   UNL     1      43.171  16.113  36.735  1.00  0.00    -0.025 C 
ATOM     21  C   UNL     1      41.008  14.636  36.783  1.00  0.00     0.005 C 
ATOM     22  C   UNL     1      42.306  15.003  35.993  1.00  0.00     0.003 C 
ATOM     23  C   UNL     1      42.650  17.552  36.405  1.00  0.00     0.010 C 
ATOM     24  C   UNL     1      44.656  16.093  36.223  1.00  0.00     0.012 C 
ATOM     25  C   UNL     1      41.990  15.311  34.456  1.00  0.00    -0.006 C 
ATOM     26  C   UNL     1      42.411  17.817  34.910  1.00  0.00     0.033 C 
ATOM     27  C   UNL     1      41.475  16.775  34.284  1.00  0.00     0.120 C 
ATOM     28  C   UNL     1      40.896  14.344  33.911  1.00  0.00     0.014 C 
ATOM     29  C   UNL     1      43.237  15.052  33.557  1.00  0.00     0.014 C 
ENDROOT
BRANCH   1  30
ATOM     30  C   UNL     1      45.057  16.363  42.848  1.00  0.00     0.048 C 
ATOM     31  O   UNL     1      45.760  16.915  43.735  1.00  0.00    -0.550 OA
ATOM     32  O   UNL     1      45.354  16.618  41.513  1.00  0.00    -0.550 OA
ENDBRANCH   1  30
BRANCH  27  33
ATOM     33  O   UNL     1      41.314  17.093  32.922  1.00  0.00    -0.393 OA
ATOM     34  H   UNL     1      42.204  17.012  32.493  1.00  0.00     0.210 HD
ENDBRANCH  27  33
TORSDOF 2
ENDMDL
