MODEL 1
REMARK VINA RESULT:    -4.229      0.000      0.000
REMARK INTER + INTRA:          -4.610
REMARK INTER:                  -4.600
REMARK INTRA:                  -0.011
REMARK UNBOUND:                -0.011
REMARK SMILES OCc1ccccc1
REMARK SMILES IDX 2 1 3 2 6 3 5 4 7 5 4 6 8 7 1 8
REMARK H PARENT 1 9
REMARK Flexibility Score: inf
ROOT
ATOM      1  C   UNL     1     -23.836  -1.370 100.624  1.00  0.00     0.191 C 
ENDROOT
BRANCH   1   2
ATOM      2  C   UNL     1     -24.410  -1.733 101.966  1.00  0.00    -0.023 A 
ATOM      3  C   UNL     1     -25.544  -2.365 104.454  1.00  0.00     0.000 A 
ATOM      4  C   UNL     1     -25.839  -3.147 103.332  1.00  0.00     0.000 A 
ATOM      5  C   UNL     1     -24.692  -1.264 104.334  1.00  0.00     0.000 A 
ATOM      6  C   UNL     1     -25.279  -2.829 102.090  1.00  0.00     0.006 A 
ATOM      7  C   UNL     1     -24.131  -0.943 103.093  1.00  0.00     0.006 A 
ENDBRANCH   1   2
BRANCH   1   8
ATOM      8  O   UNL     1     -24.822  -0.780  99.822  1.00  0.00    -0.392 OA
ATOM      9  H   UNL     1     -24.648  -1.080  98.892  1.00  0.00     0.211 HD
ENDBRANCH   1   8
TORSDOF 2
ENDMDL
MODEL 2
REMARK VINA RESULT:    -4.225     13.877     14.579
REMARK INTER + INTRA:          -4.606
REMARK INTER:                  -4.594
REMARK INTRA:                  -0.012
REMARK UNBOUND:                -0.011
REMARK SMILES OCc1ccccc1
REMARK SMILES IDX 2 1 3 2 6 3 5 4 7 5 4 6 8 7 1 8
REMARK H PARENT 1 9
REMARK Flexibility Score: inf
ROOT
ATOM      1  C   UNL     1     -11.210  -4.267 108.989  1.00  0.00     0.191 C 
ENDROOT
BRANCH   1   2
ATOM      2  C   UNL     1     -11.633  -3.075 108.174  1.00  0.00    -0.023 A 
ATOM      3  C   UNL     1     -12.375  -0.806 106.698  1.00  0.00     0.000 A 
ATOM      4  C   UNL     1     -11.254  -1.552 106.318  1.00  0.00     0.000 A 
ATOM      5  C   UNL     1     -13.120  -1.186 107.818  1.00  0.00     0.000 A 
ATOM      6  C   UNL     1     -10.880  -2.679 107.056  1.00  0.00     0.006 A 
ATOM      7  C   UNL     1     -12.748  -2.313 108.559  1.00  0.00     0.006 A 
ENDBRANCH   1   2
BRANCH   1   8
ATOM      8  O   UNL     1     -10.825  -3.859 110.272  1.00  0.00    -0.392 OA
ATOM      9  H   UNL     1     -11.254  -2.978 110.430  1.00  0.00     0.211 HD
ENDBRANCH   1   8
TORSDOF 2
ENDMDL
MODEL 3
REMARK VINA RESULT:    -4.200     13.419     14.192
REMARK INTER + INTRA:          -4.579
REMARK INTER:                  -4.566
REMARK INTRA:                  -0.013
REMARK UNBOUND:                -0.011
REMARK SMILES OCc1ccccc1
REMARK SMILES IDX 2 1 3 2 6 3 5 4 7 5 4 6 8 7 1 8
REMARK H PARENT 1 9
REMARK Flexibility Score: inf
ROOT
ATOM      1  C   UNL     1     -13.510  -2.835 109.714  1.00  0.00     0.191 C 
ENDROOT
BRANCH   1   2
ATOM      2  C   UNL     1     -12.746  -2.410 108.490  1.00  0.00    -0.023 A 
ATOM      3  C   UNL     1     -11.272  -1.576 106.253  1.00  0.00     0.000 A 
ATOM      4  C   UNL     1     -10.909  -2.743 106.934  1.00  0.00     0.000 A 
ATOM      5  C   UNL     1     -12.362  -0.820 106.693  1.00  0.00     0.000 A 
ATOM      6  C   UNL     1     -11.640  -3.157 108.053  1.00  0.00     0.006 A 
ATOM      7  C   UNL     1     -13.095  -1.231 107.811  1.00  0.00     0.006 A 
ENDBRANCH   1   2
BRANCH   1   8
ATOM      8  O   UNL     1     -12.654  -2.890 110.822  1.00  0.00    -0.392 OA
ATOM      9  H   UNL     1     -11.772  -2.552 110.514  1.00  0.00     0.211 HD
ENDBRANCH   1   8
TORSDOF 2
ENDMDL
MODEL 4
REMARK VINA RESULT:    -4.194     13.435     14.238
REMARK INTER + INTRA:          -4.572
REMARK INTER:                  -4.561
REMARK INTRA:                  -0.011
REMARK UNBOUND:                -0.011
REMARK SMILES OCc1ccccc1
REMARK SMILES IDX 2 1 3 2 6 3 5 4 7 5 4 6 8 7 1 8
REMARK H PARENT 1 9
REMARK Flexibility Score: inf
ROOT
ATOM      1  C   UNL     1     -13.453  -2.875 109.670  1.00  0.00     0.191 C 
ENDROOT
BRANCH   1   2
ATOM      2  C   UNL     1     -12.674  -2.395 108.477  1.00  0.00    -0.023 A 
ATOM      3  C   UNL     1     -11.269  -1.539 106.204  1.00  0.00     0.000 A 
ATOM      4  C   UNL     1     -12.359  -0.799 106.671  1.00  0.00     0.000 A 
ATOM      5  C   UNL     1     -10.884  -2.711 106.862  1.00  0.00     0.000 A 
ATOM      6  C   UNL     1     -13.064  -1.227 107.801  1.00  0.00     0.006 A 
ATOM      7  C   UNL     1     -11.587  -3.142 107.992  1.00  0.00     0.006 A 
ENDBRANCH   1   2
BRANCH   1   8
ATOM      8  O   UNL     1     -12.634  -2.886 110.807  1.00  0.00    -0.392 OA
ATOM      9  H   UNL     1     -11.798  -3.355 110.549  1.00  0.00     0.211 HD
ENDBRANCH   1   8
TORSDOF 2
ENDMDL
MODEL 5
REMARK VINA RESULT:    -4.173     20.959     21.261
REMARK INTER + INTRA:          -4.549
REMARK INTER:                  -4.539
REMARK INTRA:                  -0.010
REMARK UNBOUND:                -0.011
REMARK SMILES OCc1ccccc1
REMARK SMILES IDX 2 1 3 2 6 3 5 4 7 5 4 6 8 7 1 8
REMARK H PARENT 1 9
REMARK Flexibility Score: inf
ROOT
ATOM      1  C   UNL     1     -10.221 -15.678 101.386  1.00  0.00     0.191 C 
ENDROOT
BRANCH   1   2
ATOM      2  C   UNL     1     -10.558 -16.853 102.263  1.00  0.00    -0.023 A 
ATOM      3  C   UNL     1     -11.126 -19.083 103.869  1.00  0.00     0.000 A 
ATOM      4  C   UNL     1     -10.245 -18.098 104.327  1.00  0.00     0.000 A 
ATOM      5  C   UNL     1     -11.716 -18.961 102.608  1.00  0.00     0.000 A 
ATOM      6  C   UNL     1      -9.956 -16.988 103.525  1.00  0.00     0.006 A 
ATOM      7  C   UNL     1     -11.429 -17.853 101.803  1.00  0.00     0.006 A 
ENDBRANCH   1   2
BRANCH   1   8
ATOM      8  O   UNL     1      -9.086 -15.963 100.615  1.00  0.00    -0.392 OA
ATOM      9  H   UNL     1      -9.272 -15.622  99.701  1.00  0.00     0.211 HD
ENDBRANCH   1   8
TORSDOF 2
ENDMDL
MODEL 6
REMARK VINA RESULT:    -4.166     20.749     21.058
REMARK INTER + INTRA:          -4.542
REMARK INTER:                  -4.530
REMARK INTRA:                  -0.012
REMARK UNBOUND:                -0.011
REMARK SMILES OCc1ccccc1
REMARK SMILES IDX 2 1 3 2 6 3 5 4 7 5 4 6 8 7 1 8
REMARK H PARENT 1 9
REMARK Flexibility Score: inf
ROOT
ATOM      1  C   UNL     1     -11.499 -17.392  99.141  1.00  0.00     0.191 C 
ENDROOT
BRANCH   1   2
ATOM      2  C   UNL     1     -11.247 -17.440 100.624  1.00  0.00    -0.023 A 
ATOM      3  C   UNL     1     -10.711 -17.570 103.375  1.00  0.00     0.000 A 
ATOM      4  C   UNL     1     -10.198 -16.516 102.612  1.00  0.00     0.000 A 
ATOM      5  C   UNL     1     -11.483 -18.563 102.766  1.00  0.00     0.000 A 
ATOM      6  C   UNL     1     -10.459 -16.453 101.239  1.00  0.00     0.006 A 
ATOM      7  C   UNL     1     -11.746 -18.503 101.393  1.00  0.00     0.006 A 
ENDBRANCH   1   2
BRANCH   1   8
ATOM      8  O   UNL     1     -10.285 -17.460  98.445  1.00  0.00    -0.392 OA
ATOM      9  H   UNL     1      -9.737 -18.153  98.898  1.00  0.00     0.211 HD
ENDBRANCH   1   8
TORSDOF 2
ENDMDL
MODEL 7
REMARK VINA RESULT:    -4.151     20.749     20.979
REMARK INTER + INTRA:          -4.525
REMARK INTER:                  -4.515
REMARK INTRA:                  -0.010
REMARK UNBOUND:                -0.011
REMARK SMILES OCc1ccccc1
REMARK SMILES IDX 2 1 3 2 6 3 5 4 7 5 4 6 8 7 1 8
REMARK H PARENT 1 9
REMARK Flexibility Score: inf
ROOT
ATOM      1  C   UNL     1     -11.571 -17.328  99.161  1.00  0.00     0.191 C 
ENDROOT
BRANCH   1   2
ATOM      2  C   UNL     1     -11.246 -17.433 100.626  1.00  0.00    -0.023 A 
ATOM      3  C   UNL     1     -10.706 -17.587 103.376  1.00  0.00     0.000 A 
ATOM      4  C   UNL     1     -11.508 -18.556 102.765  1.00  0.00     0.000 A 
ATOM      5  C   UNL     1     -10.181 -16.536 102.618  1.00  0.00     0.000 A 
ATOM      6  C   UNL     1     -11.783 -18.478 101.396  1.00  0.00     0.006 A 
ATOM      7  C   UNL     1     -10.455 -16.454 101.248  1.00  0.00     0.006 A 
ENDBRANCH   1   2
BRANCH   1   8
ATOM      8  O   UNL     1     -10.417 -17.542  98.396  1.00  0.00    -0.392 OA
ATOM      9  H   UNL     1     -10.051 -18.422  98.676  1.00  0.00     0.211 HD
ENDBRANCH   1   8
TORSDOF 2
ENDMDL
MODEL 8
REMARK VINA RESULT:    -4.130     15.107     16.194
REMARK INTER + INTRA:          -4.503
REMARK INTER:                  -4.486
REMARK INTRA:                  -0.016
REMARK UNBOUND:                -0.011
REMARK SMILES OCc1ccccc1
REMARK SMILES IDX 2 1 3 2 6 3 5 4 7 5 4 6 8 7 1 8
REMARK H PARENT 1 9
REMARK Flexibility Score: inf
ROOT
ATOM      1  C   UNL     1     -26.920 -16.488 102.832  1.00  0.00     0.191 C 
ENDROOT
BRANCH   1   2
ATOM      2  C   UNL     1     -25.776 -17.447 102.652  1.00  0.00    -0.023 A 
ATOM      3  C   UNL     1     -23.691 -19.297 102.328  1.00  0.00     0.000 A 
ATOM      4  C   UNL     1     -24.457 -18.906 101.225  1.00  0.00     0.000 A 
ATOM      5  C   UNL     1     -23.970 -18.773 103.594  1.00  0.00     0.000 A 
ATOM      6  C   UNL     1     -25.500 -17.989 101.386  1.00  0.00     0.006 A 
ATOM      7  C   UNL     1     -25.013 -17.856 103.758  1.00  0.00     0.006 A 
ENDBRANCH   1   2
BRANCH   1   8
ATOM      8  O   UNL     1     -27.074 -15.700 101.684  1.00  0.00    -0.392 OA
ATOM      9  H   UNL     1     -27.793 -15.046 101.884  1.00  0.00     0.211 HD
ENDBRANCH   1   8
TORSDOF 2
ENDMDL
MODEL 9
REMARK VINA RESULT:    -4.024     13.107     14.146
REMARK INTER + INTRA:          -4.388
REMARK INTER:                  -4.375
REMARK INTRA:                  -0.012
REMARK UNBOUND:                -0.011
REMARK SMILES OCc1ccccc1
REMARK SMILES IDX 2 1 3 2 6 3 5 4 7 5 4 6 8 7 1 8
REMARK H PARENT 1 9
REMARK Flexibility Score: inf
ROOT
ATOM      1  C   UNL     1     -26.179 -16.350 102.037  1.00  0.00     0.191 C 
ENDROOT
BRANCH   1   2
ATOM      2  C   UNL     1     -25.155 -15.801 101.081  1.00  0.00    -0.023 A 
ATOM      3  C   UNL     1     -23.188 -14.791  99.353  1.00  0.00     0.000 A 
ATOM      4  C   UNL     1     -23.467 -16.161  99.370  1.00  0.00     0.000 A 
ATOM      5  C   UNL     1     -23.882 -13.926 100.204  1.00  0.00     0.000 A 
ATOM      6  C   UNL     1     -24.443 -16.667 100.235  1.00  0.00     0.006 A 
ATOM      7  C   UNL     1     -24.859 -14.429 101.071  1.00  0.00     0.006 A 
ENDBRANCH   1   2
BRANCH   1   8
ATOM      8  O   UNL     1     -27.399 -15.681 101.870  1.00  0.00    -0.392 OA
ATOM      9  H   UNL     1     -27.914 -16.197 101.196  1.00  0.00     0.211 HD
ENDBRANCH   1   8
TORSDOF 2
ENDMDL
