MODEL 1
REMARK VINA RESULT:    -4.481      0.000      0.000
REMARK INTER + INTRA:          -5.401
REMARK INTER:                  -5.398
REMARK INTRA:                  -0.002
REMARK UNBOUND:                -0.002
REMARK SMILES OCC(O)CO
REMARK SMILES IDX 3 1 5 2 6 3 2 5 1 6 4 8
REMARK H PARENT 6 4 1 7 4 9
REMARK Flexibility Score: inf
ROOT
ATOM      1  C   UNL     1     -13.304   1.667  17.141  1.00  0.00     0.165 C 
ENDROOT
BRANCH   1   2
ATOM      2  C   UNL     1     -13.946   3.020  16.793  1.00  0.00     0.190 C 
BRANCH   2   3
ATOM      3  O   UNL     1     -13.305   3.604  15.692  1.00  0.00    -0.394 OA
ATOM      4  H   UNL     1     -13.798   4.444  15.499  1.00  0.00     0.210 HD
ENDBRANCH   2   3
ENDBRANCH   1   2
BRANCH   1   5
ATOM      5  C   UNL     1     -13.963   0.997  18.359  1.00  0.00     0.190 C 
BRANCH   5   6
ATOM      6  O   UNL     1     -15.041   0.203  17.947  1.00  0.00    -0.394 OA
ATOM      7  H   UNL     1     -15.809   0.464  18.519  1.00  0.00     0.210 HD
ENDBRANCH   5   6
ENDBRANCH   1   5
BRANCH   1   8
ATOM      8  O   UNL     1     -13.323   0.808  16.029  1.00  0.00    -0.388 OA
ATOM      9  H   UNL     1     -12.621   0.120  16.165  1.00  0.00     0.211 HD
ENDBRANCH   1   8
TORSDOF 5
ENDMDL
MODEL 2
REMARK VINA RESULT:    -4.173      1.282      2.991
REMARK INTER + INTRA:          -5.029
REMARK INTER:                  -5.026
REMARK INTRA:                  -0.003
REMARK UNBOUND:                -0.002
REMARK SMILES OCC(O)CO
REMARK SMILES IDX 3 1 5 2 6 3 2 5 1 6 4 8
REMARK H PARENT 6 4 1 7 4 9
REMARK Flexibility Score: inf
ROOT
ATOM      1  C   UNL     1     -13.974   2.909  16.733  1.00  0.00     0.165 C 
ENDROOT
BRANCH   1   2
ATOM      2  C   UNL     1     -13.245   1.683  17.308  1.00  0.00     0.190 C 
BRANCH   2   3
ATOM      3  O   UNL     1     -13.237   0.632  16.381  1.00  0.00    -0.394 OA
ATOM      4  H   UNL     1     -13.203  -0.206  16.914  1.00  0.00     0.210 HD
ENDBRANCH   2   3
ENDBRANCH   1   2
BRANCH   1   5
ATOM      5  C   UNL     1     -14.337   3.941  17.815  1.00  0.00     0.190 C 
BRANCH   5   6
ATOM      6  O   UNL     1     -15.114   4.967  17.261  1.00  0.00    -0.394 OA
ATOM      7  H   UNL     1     -15.972   4.961  17.759  1.00  0.00     0.210 HD
ENDBRANCH   5   6
ENDBRANCH   1   5
BRANCH   1   8
ATOM      8  O   UNL     1     -13.212   3.505  15.713  1.00  0.00    -0.388 OA
ATOM      9  H   UNL     1     -12.309   3.093  15.728  1.00  0.00     0.211 HD
ENDBRANCH   1   8
TORSDOF 5
ENDMDL
MODEL 3
REMARK VINA RESULT:    -4.127      1.546      1.938
REMARK INTER + INTRA:          -4.974
REMARK INTER:                  -4.971
REMARK INTRA:                  -0.002
REMARK UNBOUND:                -0.002
REMARK SMILES OCC(O)CO
REMARK SMILES IDX 3 1 5 2 6 3 2 5 1 6 4 8
REMARK H PARENT 6 4 1 7 4 9
REMARK Flexibility Score: inf
ROOT
ATOM      1  C   UNL     1     -13.128   2.704  17.373  1.00  0.00     0.165 C 
ENDROOT
BRANCH   1   2
ATOM      2  C   UNL     1     -14.346   3.642  17.362  1.00  0.00     0.190 C 
BRANCH   2   3
ATOM      3  O   UNL     1     -14.337   4.479  18.486  1.00  0.00    -0.394 OA
ATOM      4  H   UNL     1     -13.408   4.821  18.568  1.00  0.00     0.210 HD
ENDBRANCH   2   3
ENDBRANCH   1   2
BRANCH   1   5
ATOM      5  C   UNL     1     -13.507   1.247  17.690  1.00  0.00     0.190 C 
BRANCH   5   6
ATOM      6  O   UNL     1     -13.129   0.410  16.631  1.00  0.00    -0.394 OA
ATOM      7  H   UNL     1     -13.518  -0.480  16.834  1.00  0.00     0.210 HD
ENDBRANCH   5   6
ENDBRANCH   1   5
BRANCH   1   8
ATOM      8  O   UNL     1     -12.431   2.783  16.154  1.00  0.00    -0.388 OA
ATOM      9  H   UNL     1     -12.378   3.740  15.896  1.00  0.00     0.211 HD
ENDBRANCH   1   8
TORSDOF 5
ENDMDL
MODEL 4
REMARK VINA RESULT:    -4.005      0.640      3.092
REMARK INTER + INTRA:          -4.827
REMARK INTER:                  -4.825
REMARK INTRA:                  -0.003
REMARK UNBOUND:                -0.002
REMARK SMILES OCC(O)CO
REMARK SMILES IDX 3 1 5 2 6 3 2 5 1 6 4 8
REMARK H PARENT 6 4 1 7 4 9
REMARK Flexibility Score: inf
ROOT
ATOM      1  C   UNL     1     -13.793   1.567  17.092  1.00  0.00     0.165 C 
ENDROOT
BRANCH   1   2
ATOM      2  C   UNL     1     -13.682   0.894  18.470  1.00  0.00     0.190 C 
BRANCH   2   3
ATOM      3  O   UNL     1     -14.322  -0.352  18.467  1.00  0.00    -0.394 OA
ATOM      4  H   UNL     1     -15.236  -0.193  18.821  1.00  0.00     0.210 HD
ENDBRANCH   2   3
ENDBRANCH   1   2
BRANCH   1   5
ATOM      5  C   UNL     1     -13.007   2.887  17.014  1.00  0.00     0.190 C 
BRANCH   5   6
ATOM      6  O   UNL     1     -13.168   3.470  15.749  1.00  0.00    -0.394 OA
ATOM      7  H   UNL     1     -13.881   2.949  15.296  1.00  0.00     0.210 HD
ENDBRANCH   5   6
ENDBRANCH   1   5
BRANCH   1   8
ATOM      8  O   UNL     1     -13.386   0.685  16.075  1.00  0.00    -0.388 OA
ATOM      9  H   UNL     1     -12.803   1.190  15.451  1.00  0.00     0.211 HD
ENDBRANCH   1   8
TORSDOF 5
ENDMDL
MODEL 5
REMARK VINA RESULT:    -4.000      1.581      2.965
REMARK INTER + INTRA:          -4.821
REMARK INTER:                  -4.617
REMARK INTRA:                  -0.204
REMARK UNBOUND:                -0.002
REMARK SMILES OCC(O)CO
REMARK SMILES IDX 3 1 5 2 6 3 2 5 1 6 4 8
REMARK H PARENT 6 4 1 7 4 9
REMARK Flexibility Score: inf
ROOT
ATOM      1  C   UNL     1     -13.176   2.162  18.022  1.00  0.00     0.165 C 
ENDROOT
BRANCH   1   2
ATOM      2  C   UNL     1     -13.731   0.729  17.953  1.00  0.00     0.190 C 
BRANCH   2   3
ATOM      3  O   UNL     1     -13.187   0.039  16.862  1.00  0.00    -0.394 OA
ATOM      4  H   UNL     1     -13.435   0.561  16.054  1.00  0.00     0.210 HD
ENDBRANCH   2   3
ENDBRANCH   1   2
BRANCH   1   5
ATOM      5  C   UNL     1     -12.908   2.759  16.630  1.00  0.00     0.190 C 
BRANCH   5   6
ATOM      6  O   UNL     1     -13.972   2.467  15.767  1.00  0.00    -0.394 OA
ATOM      7  H   UNL     1     -14.736   3.019  16.076  1.00  0.00     0.210 HD
ENDBRANCH   5   6
ENDBRANCH   1   5
BRANCH   1   8
ATOM      8  O   UNL     1     -14.036   2.992  18.763  1.00  0.00    -0.388 OA
ATOM      9  H   UNL     1     -13.516   3.786  19.053  1.00  0.00     0.211 HD
ENDBRANCH   1   8
TORSDOF 5
ENDMDL
MODEL 6
REMARK VINA RESULT:    -3.972      1.655      1.905
REMARK INTER + INTRA:          -4.787
REMARK INTER:                  -4.603
REMARK INTRA:                  -0.183
REMARK UNBOUND:                -0.002
REMARK SMILES OCC(O)CO
REMARK SMILES IDX 3 1 5 2 6 3 2 5 1 6 4 8
REMARK H PARENT 6 4 1 7 4 9
REMARK Flexibility Score: inf
ROOT
ATOM      1  C   UNL     1     -13.705   2.154  18.094  1.00  0.00     0.165 C 
ENDROOT
BRANCH   1   2
ATOM      2  C   UNL     1     -13.209   2.824  16.801  1.00  0.00     0.190 C 
BRANCH   2   3
ATOM      3  O   UNL     1     -14.044   2.500  15.723  1.00  0.00    -0.394 OA
ATOM      4  H   UNL     1     -14.972   2.527  16.075  1.00  0.00     0.210 HD
ENDBRANCH   2   3
ENDBRANCH   1   2
BRANCH   1   5
ATOM      5  C   UNL     1     -13.830   0.627  17.958  1.00  0.00     0.190 C 
BRANCH   5   6
ATOM      6  O   UNL     1     -13.150   0.188  16.814  1.00  0.00    -0.394 OA
ATOM      7  H   UNL     1     -12.363   0.784  16.717  1.00  0.00     0.210 HD
ENDBRANCH   5   6
ENDBRANCH   1   5
BRANCH   1   8
ATOM      8  O   UNL     1     -12.875   2.492  19.177  1.00  0.00    -0.388 OA
ATOM      9  H   UNL     1     -13.169   1.960  19.961  1.00  0.00     0.211 HD
ENDBRANCH   1   8
TORSDOF 5
ENDMDL
MODEL 7
REMARK VINA RESULT:    -3.392     11.450     11.856
REMARK INTER + INTRA:          -4.088
REMARK INTER:                  -3.867
REMARK INTRA:                  -0.221
REMARK UNBOUND:                -0.002
REMARK SMILES OCC(O)CO
REMARK SMILES IDX 3 1 5 2 6 3 2 5 1 6 4 8
REMARK H PARENT 6 4 1 7 4 9
REMARK Flexibility Score: inf
ROOT
ATOM      1  C   UNL     1      -3.871   5.477  21.342  1.00  0.00     0.165 C 
ENDROOT
BRANCH   1   2
ATOM      2  C   UNL     1      -4.712   6.754  21.507  1.00  0.00     0.190 C 
BRANCH   2   3
ATOM      3  O   UNL     1      -5.232   6.842  22.805  1.00  0.00    -0.394 OA
ATOM      4  H   UNL     1      -5.668   7.732  22.868  1.00  0.00     0.210 HD
ENDBRANCH   2   3
ENDBRANCH   1   2
BRANCH   1   5
ATOM      5  C   UNL     1      -3.390   4.909  22.688  1.00  0.00     0.190 C 
BRANCH   5   6
ATOM      6  O   UNL     1      -2.472   5.787  23.281  1.00  0.00    -0.394 OA
ATOM      7  H   UNL     1      -3.003   6.556  23.614  1.00  0.00     0.210 HD
ENDBRANCH   5   6
ENDBRANCH   1   5
BRANCH   1   8
ATOM      8  O   UNL     1      -4.582   4.505  20.617  1.00  0.00    -0.388 OA
ATOM      9  H   UNL     1      -3.925   3.853  20.258  1.00  0.00     0.211 HD
ENDBRANCH   1   8
TORSDOF 5
ENDMDL
MODEL 8
REMARK VINA RESULT:    -3.368     10.647     10.972
REMARK INTER + INTRA:          -4.060
REMARK INTER:                  -4.033
REMARK INTRA:                  -0.027
REMARK UNBOUND:                -0.002
REMARK SMILES OCC(O)CO
REMARK SMILES IDX 3 1 5 2 6 3 2 5 1 6 4 8
REMARK H PARENT 6 4 1 7 4 9
REMARK Flexibility Score: inf
ROOT
ATOM      1  C   UNL     1      -4.427   6.532  20.439  1.00  0.00     0.165 C 
ENDROOT
BRANCH   1   2
ATOM      2  C   UNL     1      -5.324   7.554  21.157  1.00  0.00     0.190 C 
BRANCH   2   3
ATOM      3  O   UNL     1      -5.370   7.294  22.533  1.00  0.00    -0.394 OA
ATOM      4  H   UNL     1      -5.007   8.103  22.979  1.00  0.00     0.210 HD
ENDBRANCH   2   3
ENDBRANCH   1   2
BRANCH   1   5
ATOM      5  C   UNL     1      -3.967   5.395  21.367  1.00  0.00     0.190 C 
BRANCH   5   6
ATOM      6  O   UNL     1      -4.399   4.160  20.866  1.00  0.00    -0.394 OA
ATOM      7  H   UNL     1      -4.745   4.339  19.954  1.00  0.00     0.210 HD
ENDBRANCH   5   6
ENDBRANCH   1   5
BRANCH   1   8
ATOM      8  O   UNL     1      -5.075   6.016  19.303  1.00  0.00    -0.388 OA
ATOM      9  H   UNL     1      -5.739   6.689  19.000  1.00  0.00     0.211 HD
ENDBRANCH   1   8
TORSDOF 5
ENDMDL
MODEL 9
REMARK VINA RESULT:    -3.291     10.716     11.449
REMARK INTER + INTRA:          -3.967
REMARK INTER:                  -3.743
REMARK INTRA:                  -0.224
REMARK UNBOUND:                -0.002
REMARK SMILES OCC(O)CO
REMARK SMILES IDX 3 1 5 2 6 3 2 5 1 6 4 8
REMARK H PARENT 6 4 1 7 4 9
REMARK Flexibility Score: inf
ROOT
ATOM      1  C   UNL     1      -4.125   6.281  21.409  1.00  0.00     0.165 C 
ENDROOT
BRANCH   1   2
ATOM      2  C   UNL     1      -3.614   4.851  21.650  1.00  0.00     0.190 C 
BRANCH   2   3
ATOM      3  O   UNL     1      -4.387   3.922  20.942  1.00  0.00    -0.394 OA
ATOM      4  H   UNL     1      -3.764   3.459  20.323  1.00  0.00     0.210 HD
ENDBRANCH   2   3
ENDBRANCH   1   2
BRANCH   1   5
ATOM      5  C   UNL     1      -4.769   6.452  20.022  1.00  0.00     0.190 C 
BRANCH   5   6
ATOM      6  O   UNL     1      -3.864   6.077  19.021  1.00  0.00    -0.394 OA
ATOM      7  H   UNL     1      -3.056   5.745  19.491  1.00  0.00     0.210 HD
ENDBRANCH   5   6
ENDBRANCH   1   5
BRANCH   1   8
ATOM      8  O   UNL     1      -5.018   6.667  22.423  1.00  0.00    -0.388 OA
ATOM      9  H   UNL     1      -4.874   7.633  22.603  1.00  0.00     0.211 HD
ENDBRANCH   1   8
TORSDOF 5
ENDMDL
