MODEL 1
REMARK VINA RESULT:    27.774      0.000      0.000
REMARK INTER + INTRA:          33.718
REMARK INTER:                  33.457
REMARK INTRA:                   0.261
REMARK UNBOUND:                 0.261
REMARK SMILES Oc1cc(O)c2cc(O)c(-c3ccc(O)c(O)c3)[o+]c2c1
REMARK SMILES IDX 10 1 19 2 20 3 21 4 2 5 3 6 4 7 6 8 7 9 8 10 11 11 12 12
REMARK SMILES IDX 13 13 14 14 18 15 16 16 15 17 17 19 9 21 1 23 5 25
REMARK H PARENT 15 18 17 20 9 22 1 24 5 26
REMARK Flexibility Score: inf
ROOT
ATOM      1  C   UNL     1      10.479  11.235  30.605  1.00  0.00     0.402 A 
ATOM      2  O   UNL     1      10.336  11.776  29.395  1.00  0.00    -0.202 OA
ATOM      3  C   UNL     1      11.215  12.626  28.871  1.00  0.00     0.368 A 
ATOM      4  C   UNL     1      10.991  13.153  27.595  1.00  0.00     0.162 A 
ATOM      5  C   UNL     1      11.904  14.050  27.034  1.00  0.00     0.128 A 
ATOM      6  C   UNL     1      13.049  14.423  27.750  1.00  0.00     0.093 A 
ATOM      7  C   UNL     1      13.288  13.901  29.030  1.00  0.00     0.136 A 
ATOM      8  C   UNL     1      12.368  12.998  29.595  1.00  0.00     0.125 A 
ATOM      9  C   UNL     1      12.559  12.440  30.864  1.00  0.00     0.078 A 
ATOM     10  C   UNL     1      11.618  11.541  31.377  1.00  0.00     0.223 A 
ENDROOT
BRANCH   1  11
ATOM     11  C   UNL     1       9.428  10.308  31.084  1.00  0.00     0.087 A 
ATOM     12  C   UNL     1       8.104  10.484  30.655  1.00  0.00     0.022 A 
ATOM     13  C   UNL     1       7.093   9.634  31.109  1.00  0.00     0.051 A 
ATOM     14  C   UNL     1       7.385   8.606  32.010  1.00  0.00     0.157 A 
ATOM     15  C   UNL     1       9.718   9.286  32.005  1.00  0.00     0.068 A 
ATOM     16  C   UNL     1       8.704   8.432  32.465  1.00  0.00     0.158 A 
BRANCH  14  17
ATOM     17  O   UNL     1       6.357   7.771  32.444  1.00  0.00    -0.504 OA
ATOM     18  H   UNL     1       6.005   7.010  31.876  1.00  0.00     0.293 HD
ENDBRANCH  14  17
BRANCH  16  19
ATOM     19  O   UNL     1       9.001   7.418  33.373  1.00  0.00    -0.504 OA
ATOM     20  H   UNL     1       8.296   6.758  33.682  1.00  0.00     0.293 HD
ENDBRANCH  16  19
ENDBRANCH   1  11
BRANCH  10  21
ATOM     21  O   UNL     1      11.827  10.943  32.619  1.00  0.00    -0.500 OA
ATOM     22  H   UNL     1      12.348  10.080  32.712  1.00  0.00     0.294 HD
ENDBRANCH  10  21
BRANCH   5  23
ATOM     23  O   UNL     1      11.664  14.566  25.761  1.00  0.00    -0.507 OA
ATOM     24  H   UNL     1      10.998  15.314  25.611  1.00  0.00     0.293 HD
ENDBRANCH   5  23
BRANCH   7  25
ATOM     25  O   UNL     1      14.433  14.277  29.734  1.00  0.00    -0.507 OA
ATOM     26  H   UNL     1      14.710  15.249  29.817  1.00  0.00     0.293 HD
ENDBRANCH   7  25
TORSDOF 6
ENDMDL
MODEL 2
REMARK VINA RESULT:    27.886      1.710      2.778
REMARK INTER + INTRA:          33.853
REMARK INTER:                  34.207
REMARK INTRA:                  -0.354
REMARK UNBOUND:                 0.261
REMARK SMILES Oc1cc(O)c2cc(O)c(-c3ccc(O)c(O)c3)[o+]c2c1
REMARK SMILES IDX 10 1 19 2 20 3 21 4 2 5 3 6 4 7 6 8 7 9 8 10 11 11 12 12
REMARK SMILES IDX 13 13 14 14 18 15 16 16 15 17 17 19 9 21 1 23 5 25
REMARK H PARENT 15 18 17 20 9 22 1 24 5 26
REMARK Flexibility Score: inf
ROOT
ATOM      1  C   UNL     1      10.388  11.171  30.799  1.00  0.00     0.402 A 
ATOM      2  O   UNL     1      11.621  10.695  30.626  1.00  0.00    -0.202 OA
ATOM      3  C   UNL     1      12.581  11.374  30.006  1.00  0.00     0.368 A 
ATOM      4  C   UNL     1      13.850  10.802  29.861  1.00  0.00     0.162 A 
ATOM      5  C   UNL     1      14.867  11.503  29.208  1.00  0.00     0.128 A 
ATOM      6  C   UNL     1      14.618  12.783  28.696  1.00  0.00     0.093 A 
ATOM      7  C   UNL     1      13.352  13.370  28.835  1.00  0.00     0.136 A 
ATOM      8  C   UNL     1      12.327  12.664  29.492  1.00  0.00     0.125 A 
ATOM      9  C   UNL     1      11.047  13.203  29.667  1.00  0.00     0.078 A 
ATOM     10  C   UNL     1      10.066  12.462  30.334  1.00  0.00     0.223 A 
ENDROOT
BRANCH   1  11
ATOM     11  C   UNL     1       9.401  10.317  31.499  1.00  0.00     0.087 A 
ATOM     12  C   UNL     1       9.328  10.351  32.899  1.00  0.00     0.022 A 
ATOM     13  C   UNL     1       8.418   9.540  33.582  1.00  0.00     0.051 A 
ATOM     14  C   UNL     1       7.579   8.672  32.878  1.00  0.00     0.157 A 
ATOM     15  C   UNL     1       8.569   9.430  30.793  1.00  0.00     0.068 A 
ATOM     16  C   UNL     1       7.656   8.612  31.476  1.00  0.00     0.158 A 
BRANCH  14  17
ATOM     17  O   UNL     1       6.678   7.876  33.584  1.00  0.00    -0.504 OA
ATOM     18  H   UNL     1       6.326   8.141  34.496  1.00  0.00     0.293 HD
ENDBRANCH  14  17
BRANCH  16  19
ATOM     19  O   UNL     1       6.832   7.740  30.768  1.00  0.00    -0.504 OA
ATOM     20  H   UNL     1       6.051   8.076  30.216  1.00  0.00     0.293 HD
ENDBRANCH  16  19
ENDBRANCH   1  11
BRANCH  10  21
ATOM     21  O   UNL     1       8.804  13.013  30.555  1.00  0.00    -0.500 OA
ATOM     22  H   UNL     1       8.488  13.259  31.486  1.00  0.00     0.294 HD
ENDBRANCH  10  21
BRANCH   5  23
ATOM     23  O   UNL     1      16.125  10.917  29.072  1.00  0.00    -0.507 OA
ATOM     24  H   UNL     1      16.737  10.786  29.869  1.00  0.00     0.293 HD
ENDBRANCH   5  23
BRANCH   7  25
ATOM     25  O   UNL     1      13.115  14.646  28.323  1.00  0.00    -0.507 OA
ATOM     26  H   UNL     1      13.780  15.402  28.449  1.00  0.00     0.293 HD
ENDBRANCH   7  25
TORSDOF 6
ENDMDL
MODEL 3
REMARK VINA RESULT:    28.315      1.715      2.745
REMARK INTER + INTRA:          34.370
REMARK INTER:                  34.077
REMARK INTRA:                   0.292
REMARK UNBOUND:                 0.261
REMARK SMILES Oc1cc(O)c2cc(O)c(-c3ccc(O)c(O)c3)[o+]c2c1
REMARK SMILES IDX 10 1 19 2 20 3 21 4 2 5 3 6 4 7 6 8 7 9 8 10 11 11 12 12
REMARK SMILES IDX 13 13 14 14 18 15 16 16 15 17 17 19 9 21 1 23 5 25
REMARK H PARENT 15 18 17 20 9 22 1 24 5 26
REMARK Flexibility Score: inf
ROOT
ATOM      1  C   UNL     1      10.745  11.407  30.925  1.00  0.00     0.402 A 
ATOM      2  O   UNL     1      11.112  12.568  31.465  1.00  0.00    -0.202 OA
ATOM      3  C   UNL     1      12.038  13.358  30.930  1.00  0.00     0.368 A 
ATOM      4  C   UNL     1      12.371  14.561  31.560  1.00  0.00     0.162 A 
ATOM      5  C   UNL     1      13.345  15.399  31.010  1.00  0.00     0.128 A 
ATOM      6  C   UNL     1      13.991  15.034  29.821  1.00  0.00     0.093 A 
ATOM      7  C   UNL     1      13.667  13.832  29.176  1.00  0.00     0.136 A 
ATOM      8  C   UNL     1      12.686  12.988  29.731  1.00  0.00     0.125 A 
ATOM      9  C   UNL     1      12.317  11.781  29.127  1.00  0.00     0.078 A 
ATOM     10  C   UNL     1      11.331  10.982  29.716  1.00  0.00     0.223 A 
ENDROOT
BRANCH   1  11
ATOM     11  C   UNL     1       9.708  10.609  31.621  1.00  0.00     0.087 A 
ATOM     12  C   UNL     1       9.562  10.730  33.011  1.00  0.00     0.022 A 
ATOM     13  C   UNL     1       8.604   9.974  33.691  1.00  0.00     0.051 A 
ATOM     14  C   UNL     1       7.789   9.075  32.995  1.00  0.00     0.157 A 
ATOM     15  C   UNL     1       8.901   9.691  30.925  1.00  0.00     0.068 A 
ATOM     16  C   UNL     1       7.940   8.929  31.606  1.00  0.00     0.158 A 
BRANCH  14  17
ATOM     17  O   UNL     1       6.839   8.336  33.699  1.00  0.00    -0.504 OA
ATOM     18  H   UNL     1       6.147   8.775  34.294  1.00  0.00     0.293 HD
ENDBRANCH  14  17
BRANCH  16  19
ATOM     19  O   UNL     1       7.141   8.025  30.908  1.00  0.00    -0.504 OA
ATOM     20  H   UNL     1       7.263   7.024  31.004  1.00  0.00     0.293 HD
ENDBRANCH  16  19
ENDBRANCH   1  11
BRANCH  10  21
ATOM     21  O   UNL     1      10.923   9.803  29.093  1.00  0.00    -0.500 OA
ATOM     22  H   UNL     1      10.491   9.808  28.177  1.00  0.00     0.294 HD
ENDBRANCH  10  21
BRANCH   5  23
ATOM     23  O   UNL     1      13.665  16.594  31.653  1.00  0.00    -0.507 OA
ATOM     24  H   UNL     1      14.499  16.682  32.221  1.00  0.00     0.293 HD
ENDBRANCH   5  23
BRANCH   7  25
ATOM     25  O   UNL     1      14.315  13.479  27.992  1.00  0.00    -0.507 OA
ATOM     26  H   UNL     1      15.325  13.414  27.937  1.00  0.00     0.293 HD
ENDBRANCH   7  25
TORSDOF 6
ENDMDL
MODEL 4
REMARK VINA RESULT:    29.028      1.394      6.945
REMARK INTER + INTRA:          35.229
REMARK INTER:                  34.743
REMARK INTRA:                   0.486
REMARK UNBOUND:                 0.261
REMARK SMILES Oc1cc(O)c2cc(O)c(-c3ccc(O)c(O)c3)[o+]c2c1
REMARK SMILES IDX 10 1 19 2 20 3 21 4 2 5 3 6 4 7 6 8 7 9 8 10 11 11 12 12
REMARK SMILES IDX 13 13 14 14 18 15 16 16 15 17 17 19 9 21 1 23 5 25
REMARK H PARENT 15 18 17 20 9 22 1 24 5 26
REMARK Flexibility Score: inf
ROOT
ATOM      1  C   UNL     1      11.567  13.043  28.726  1.00  0.00     0.402 A 
ATOM      2  O   UNL     1      10.479  12.319  28.981  1.00  0.00    -0.202 OA
ATOM      3  C   UNL     1      10.325  11.604  30.092  1.00  0.00     0.368 A 
ATOM      4  C   UNL     1       9.153  10.866  30.284  1.00  0.00     0.162 A 
ATOM      5  C   UNL     1       8.981  10.108  31.445  1.00  0.00     0.128 A 
ATOM      6  C   UNL     1       9.984  10.086  32.423  1.00  0.00     0.093 A 
ATOM      7  C   UNL     1      11.165  10.824  32.246  1.00  0.00     0.136 A 
ATOM      8  C   UNL     1      11.339  11.587  31.076  1.00  0.00     0.125 A 
ATOM      9  C   UNL     1      12.491  12.347  30.849  1.00  0.00     0.078 A 
ATOM     10  C   UNL     1      12.611  13.094  29.673  1.00  0.00     0.223 A 
ENDROOT
BRANCH   1  11
ATOM     11  C   UNL     1      11.626  13.791  27.448  1.00  0.00     0.087 A 
ATOM     12  C   UNL     1      12.772  14.538  27.138  1.00  0.00     0.022 A 
ATOM     13  C   UNL     1      12.842  15.266  25.948  1.00  0.00     0.051 A 
ATOM     14  C   UNL     1      11.764  15.271  25.058  1.00  0.00     0.157 A 
ATOM     15  C   UNL     1      10.535  13.813  26.562  1.00  0.00     0.068 A 
ATOM     16  C   UNL     1      10.601  14.545  25.367  1.00  0.00     0.158 A 
BRANCH  14  17
ATOM     17  O   UNL     1      11.862  16.005  23.877  1.00  0.00    -0.504 OA
ATOM     18  H   UNL     1      11.206  16.740  23.643  1.00  0.00     0.293 HD
ENDBRANCH  14  17
BRANCH  16  19
ATOM     19  O   UNL     1       9.517  14.557  24.492  1.00  0.00    -0.504 OA
ATOM     20  H   UNL     1       8.579  14.340  24.806  1.00  0.00     0.293 HD
ENDBRANCH  16  19
ENDBRANCH   1  11
BRANCH  10  21
ATOM     21  O   UNL     1      13.734  13.893  29.463  1.00  0.00    -0.500 OA
ATOM     22  H   UNL     1      14.426  13.662  28.760  1.00  0.00     0.294 HD
ENDBRANCH  10  21
BRANCH   5  23
ATOM     23  O   UNL     1       7.806   9.377  31.619  1.00  0.00    -0.507 OA
ATOM     24  H   UNL     1       7.100   9.662  32.287  1.00  0.00     0.293 HD
ENDBRANCH   5  23
BRANCH   7  25
ATOM     25  O   UNL     1      12.157  10.797  33.227  1.00  0.00    -0.507 OA
ATOM     26  H   UNL     1      12.217  11.513  33.941  1.00  0.00     0.293 HD
ENDBRANCH   7  25
TORSDOF 6
ENDMDL
