MODEL 1
REMARK VINA RESULT:    -6.200      0.000      0.000
REMARK INTER + INTRA:          -7.783
REMARK INTER:                  -7.469
REMARK INTRA:                  -0.314
REMARK UNBOUND:                -0.314
REMARK SMILES O=c1c(O)c(-c2ccc(O)c(O)c2)oc2cc(O)cc(O)c12
REMARK SMILES IDX 5 1 3 2 2 3 1 4 22 5 20 6 19 7 17 8 16 9 15 10 14 11 6 12
REMARK SMILES IDX 7 13 8 14 9 15 13 16 11 17 10 18 12 20 4 22 21 24 18 26
REMARK H PARENT 10 19 12 21 4 23 21 25 18 27
REMARK Flexibility Score: inf
ROOT
ATOM      1  C   UNL     1     114.230  48.607  22.502  1.00  0.00     0.180 A 
ATOM      2  C   UNL     1     114.675  48.858  23.812  1.00  0.00     0.208 A 
ATOM      3  C   UNL     1     115.904  49.510  23.999  1.00  0.00     0.238 A 
ATOM      4  O   UNL     1     116.332  49.665  25.172  1.00  0.00    -0.285 OA
ATOM      5  C   UNL     1     116.647  49.952  22.877  1.00  0.00     0.111 A 
ATOM      6  C   UNL     1     117.884  50.662  22.950  1.00  0.00     0.134 A 
ATOM      7  C   UNL     1     118.582  50.956  21.772  1.00  0.00     0.093 A 
ATOM      8  C   UNL     1     118.060  50.623  20.523  1.00  0.00     0.123 A 
ATOM      9  C   UNL     1     116.826  49.977  20.438  1.00  0.00     0.094 A 
ATOM     10  C   UNL     1     116.124  49.636  21.595  1.00  0.00     0.146 A 
ATOM     11  O   UNL     1     114.963  49.003  21.470  1.00  0.00    -0.452 OA
ENDROOT
BRANCH   1  12
ATOM     12  C   UNL     1     112.953  47.912  22.224  1.00  0.00     0.025 A 
ATOM     13  C   UNL     1     112.914  46.509  22.234  1.00  0.00     0.016 A 
ATOM     14  C   UNL     1     111.715  45.831  21.995  1.00  0.00     0.051 A 
ATOM     15  C   UNL     1     110.536  46.544  21.758  1.00  0.00     0.157 A 
ATOM     16  C   UNL     1     111.761  48.627  22.007  1.00  0.00     0.062 A 
ATOM     17  C   UNL     1     110.556  47.949  21.768  1.00  0.00     0.158 A 
BRANCH  15  18
ATOM     18  O   UNL     1     109.356  45.841  21.520  1.00  0.00    -0.504 OA
ATOM     19  H   UNL     1     109.039  45.622  20.583  1.00  0.00     0.293 HD
ENDBRANCH  15  18
BRANCH  17  20
ATOM     20  O   UNL     1     109.381  48.666  21.547  1.00  0.00    -0.504 OA
ATOM     21  H   UNL     1     109.377  49.529  21.018  1.00  0.00     0.293 HD
ENDBRANCH  17  20
ENDBRANCH   1  12
BRANCH   2  22
ATOM     22  O   UNL     1     113.891  48.482  24.906  1.00  0.00    -0.502 OA
ATOM     23  H   UNL     1     113.952  48.946  25.804  1.00  0.00     0.293 HD
ENDBRANCH   2  22
BRANCH   6  24
ATOM     24  O   UNL     1     118.454  51.122  24.141  1.00  0.00    -0.507 OA
ATOM     25  H   UNL     1     118.862  52.035  24.272  1.00  0.00     0.293 HD
ENDBRANCH   6  24
BRANCH   8  26
ATOM     26  O   UNL     1     118.774  50.945  19.371  1.00  0.00    -0.508 OA
ATOM     27  H   UNL     1     118.977  51.907  19.124  1.00  0.00     0.293 HD
ENDBRANCH   8  26
TORSDOF 6
ENDMDL
MODEL 2
REMARK VINA RESULT:    -6.037      1.811      7.091
REMARK INTER + INTRA:          -7.586
REMARK INTER:                  -7.263
REMARK INTRA:                  -0.323
REMARK UNBOUND:                -0.314
REMARK SMILES O=c1c(O)c(-c2ccc(O)c(O)c2)oc2cc(O)cc(O)c12
REMARK SMILES IDX 5 1 3 2 2 3 1 4 22 5 20 6 19 7 17 8 16 9 15 10 14 11 6 12
REMARK SMILES IDX 7 13 8 14 9 15 13 16 11 17 10 18 12 20 4 22 21 24 18 26
REMARK H PARENT 10 19 12 21 4 23 21 25 18 27
REMARK Flexibility Score: inf
ROOT
ATOM      1  C   UNL     1     115.254  48.256  21.732  1.00  0.00     0.180 A 
ATOM      2  C   UNL     1     115.629  47.044  21.127  1.00  0.00     0.208 A 
ATOM      3  C   UNL     1     114.636  46.095  20.833  1.00  0.00     0.238 A 
ATOM      4  O   UNL     1     114.987  44.983  20.361  1.00  0.00    -0.285 OA
ATOM      5  C   UNL     1     113.277  46.392  21.095  1.00  0.00     0.111 A 
ATOM      6  C   UNL     1     112.183  45.522  20.796  1.00  0.00     0.134 A 
ATOM      7  C   UNL     1     110.889  45.878  21.197  1.00  0.00     0.093 A 
ATOM      8  C   UNL     1     110.639  47.096  21.828  1.00  0.00     0.123 A 
ATOM      9  C   UNL     1     111.693  47.977  22.076  1.00  0.00     0.094 A 
ATOM     10  C   UNL     1     112.999  47.635  21.723  1.00  0.00     0.146 A 
ATOM     11  O   UNL     1     113.975  48.493  21.996  1.00  0.00    -0.452 OA
ENDROOT
BRANCH   1  12
ATOM     12  C   UNL     1     116.243  49.299  22.086  1.00  0.00     0.025 A 
ATOM     13  C   UNL     1     116.866  49.261  23.343  1.00  0.00     0.016 A 
ATOM     14  C   UNL     1     117.819  50.222  23.691  1.00  0.00     0.051 A 
ATOM     15  C   UNL     1     118.174  51.226  22.785  1.00  0.00     0.157 A 
ATOM     16  C   UNL     1     116.617  50.297  21.168  1.00  0.00     0.062 A 
ATOM     17  C   UNL     1     117.574  51.262  21.515  1.00  0.00     0.158 A 
BRANCH  15  18
ATOM     18  O   UNL     1     119.125  52.173  23.161  1.00  0.00    -0.504 OA
ATOM     19  H   UNL     1     119.973  52.326  22.629  1.00  0.00     0.293 HD
ENDBRANCH  15  18
BRANCH  17  20
ATOM     20  O   UNL     1     117.934  52.252  20.601  1.00  0.00    -0.504 OA
ATOM     21  H   UNL     1     117.717  52.168  19.615  1.00  0.00     0.293 HD
ENDBRANCH  17  20
ENDBRANCH   1  12
BRANCH   2  22
ATOM     22  O   UNL     1     116.967  46.801  20.807  1.00  0.00    -0.502 OA
ATOM     23  H   UNL     1     117.248  46.365  19.938  1.00  0.00     0.293 HD
ENDBRANCH   2  22
BRANCH   6  24
ATOM     24  O   UNL     1     112.307  44.322  20.091  1.00  0.00    -0.507 OA
ATOM     25  H   UNL     1     113.145  44.009  19.625  1.00  0.00     0.293 HD
ENDBRANCH   6  24
BRANCH   8  26
ATOM     26  O   UNL     1     109.336  47.424  22.198  1.00  0.00    -0.508 OA
ATOM     27  H   UNL     1     108.656  47.744  21.518  1.00  0.00     0.293 HD
ENDBRANCH   8  26
TORSDOF 6
ENDMDL
MODEL 3
REMARK VINA RESULT:    -6.007      1.518      2.070
REMARK INTER + INTRA:          -7.550
REMARK INTER:                  -7.389
REMARK INTRA:                  -0.161
REMARK UNBOUND:                -0.314
REMARK SMILES O=c1c(O)c(-c2ccc(O)c(O)c2)oc2cc(O)cc(O)c12
REMARK SMILES IDX 5 1 3 2 2 3 1 4 22 5 20 6 19 7 17 8 16 9 15 10 14 11 6 12
REMARK SMILES IDX 7 13 8 14 9 15 13 16 11 17 10 18 12 20 4 22 21 24 18 26
REMARK H PARENT 10 19 12 21 4 23 21 25 18 27
REMARK Flexibility Score: inf
ROOT
ATOM      1  C   UNL     1     113.459  48.083  21.965  1.00  0.00     0.180 A 
ATOM      2  C   UNL     1     113.687  47.939  23.345  1.00  0.00     0.208 A 
ATOM      3  C   UNL     1     114.791  48.585  23.924  1.00  0.00     0.238 A 
ATOM      4  O   UNL     1     115.031  48.391  25.143  1.00  0.00    -0.285 OA
ATOM      5  C   UNL     1     115.621  49.411  23.128  1.00  0.00     0.111 A 
ATOM      6  C   UNL     1     116.741  50.150  23.619  1.00  0.00     0.134 A 
ATOM      7  C   UNL     1     117.554  50.851  22.718  1.00  0.00     0.093 A 
ATOM      8  C   UNL     1     117.252  50.893  21.358  1.00  0.00     0.123 A 
ATOM      9  C   UNL     1     116.128  50.220  20.876  1.00  0.00     0.094 A 
ATOM     10  C   UNL     1     115.321  49.481  21.742  1.00  0.00     0.146 A 
ATOM     11  O   UNL     1     114.273  48.838  21.239  1.00  0.00    -0.452 OA
ENDROOT
BRANCH   1  12
ATOM     12  C   UNL     1     112.326  47.421  21.280  1.00  0.00     0.025 A 
ATOM     13  C   UNL     1     111.012  47.809  21.586  1.00  0.00     0.016 A 
ATOM     14  C   UNL     1     109.927  47.214  20.938  1.00  0.00     0.051 A 
ATOM     15  C   UNL     1     110.138  46.234  19.963  1.00  0.00     0.157 A 
ATOM     16  C   UNL     1     112.537  46.450  20.284  1.00  0.00     0.062 A 
ATOM     17  C   UNL     1     111.449  45.852  19.630  1.00  0.00     0.158 A 
BRANCH  15  18
ATOM     18  O   UNL     1     109.037  45.655  19.334  1.00  0.00    -0.504 OA
ATOM     19  H   UNL     1     108.360  45.096  19.839  1.00  0.00     0.293 HD
ENDBRANCH  15  18
BRANCH  17  20
ATOM     20  O   UNL     1     111.667  44.886  18.649  1.00  0.00    -0.504 OA
ATOM     21  H   UNL     1     112.536  44.368  18.597  1.00  0.00     0.293 HD
ENDBRANCH  17  20
ENDBRANCH   1  12
BRANCH   2  22
ATOM     22  O   UNL     1     112.811  47.180  24.127  1.00  0.00    -0.502 OA
ATOM     23  H   UNL     1     112.110  47.602  24.723  1.00  0.00     0.293 HD
ENDBRANCH   2  22
BRANCH   6  24
ATOM     24  O   UNL     1     117.083  50.249  24.970  1.00  0.00    -0.507 OA
ATOM     25  H   UNL     1     116.497  50.650  25.686  1.00  0.00     0.293 HD
ENDBRANCH   6  24
BRANCH   8  26
ATOM     26  O   UNL     1     118.073  51.615  20.493  1.00  0.00    -0.508 OA
ATOM     27  H   UNL     1     119.082  51.527  20.524  1.00  0.00     0.293 HD
ENDBRANCH   8  26
TORSDOF 6
ENDMDL
MODEL 4
REMARK VINA RESULT:    -5.971      2.916      6.862
REMARK INTER + INTRA:          -7.506
REMARK INTER:                  -7.178
REMARK INTRA:                  -0.328
REMARK UNBOUND:                -0.314
REMARK SMILES O=c1c(O)c(-c2ccc(O)c(O)c2)oc2cc(O)cc(O)c12
REMARK SMILES IDX 5 1 3 2 2 3 1 4 22 5 20 6 19 7 17 8 16 9 15 10 14 11 6 12
REMARK SMILES IDX 7 13 8 14 9 15 13 16 11 17 10 18 12 20 4 22 21 24 18 26
REMARK H PARENT 10 19 12 21 4 23 21 25 18 27
REMARK Flexibility Score: inf
ROOT
ATOM      1  C   UNL     1     115.519  47.861  21.321  1.00  0.00     0.180 A 
ATOM      2  C   UNL     1     114.114  47.882  21.322  1.00  0.00     0.208 A 
ATOM      3  C   UNL     1     113.416  46.744  20.887  1.00  0.00     0.238 A 
ATOM      4  O   UNL     1     112.161  46.796  20.819  1.00  0.00    -0.285 OA
ATOM      5  C   UNL     1     114.130  45.581  20.510  1.00  0.00     0.111 A 
ATOM      6  C   UNL     1     113.524  44.355  20.095  1.00  0.00     0.134 A 
ATOM      7  C   UNL     1     114.333  43.304  19.643  1.00  0.00     0.093 A 
ATOM      8  C   UNL     1     115.723  43.409  19.652  1.00  0.00     0.123 A 
ATOM      9  C   UNL     1     116.326  44.583  20.107  1.00  0.00     0.094 A 
ATOM     10  C   UNL     1     115.547  45.662  20.526  1.00  0.00     0.146 A 
ATOM     11  O   UNL     1     116.161  46.767  20.932  1.00  0.00    -0.452 OA
ENDROOT
BRANCH   1  12
ATOM     12  C   UNL     1     116.325  49.027  21.752  1.00  0.00     0.025 A 
ATOM     13  C   UNL     1     116.697  49.148  23.100  1.00  0.00     0.016 A 
ATOM     14  C   UNL     1     117.475  50.228  23.525  1.00  0.00     0.051 A 
ATOM     15  C   UNL     1     117.905  51.194  22.610  1.00  0.00     0.157 A 
ATOM     16  C   UNL     1     116.776  49.987  20.829  1.00  0.00     0.062 A 
ATOM     17  C   UNL     1     117.558  51.072  21.253  1.00  0.00     0.158 A 
BRANCH  15  18
ATOM     18  O   UNL     1     118.677  52.262  23.063  1.00  0.00    -0.504 OA
ATOM     19  H   UNL     1     119.620  52.135  23.412  1.00  0.00     0.293 HD
ENDBRANCH  15  18
BRANCH  17  20
ATOM     20  O   UNL     1     117.996  52.023  20.333  1.00  0.00    -0.504 OA
ATOM     21  H   UNL     1     118.918  51.973  19.915  1.00  0.00     0.293 HD
ENDBRANCH  17  20
ENDBRANCH   1  12
BRANCH   2  22
ATOM     22  O   UNL     1     113.427  49.014  21.770  1.00  0.00    -0.502 OA
ATOM     23  H   UNL     1     112.742  49.495  21.201  1.00  0.00     0.293 HD
ENDBRANCH   2  22
BRANCH   6  24
ATOM     24  O   UNL     1     112.149  44.110  20.130  1.00  0.00    -0.507 OA
ATOM     25  H   UNL     1     111.468  44.702  20.580  1.00  0.00     0.293 HD
ENDBRANCH   6  24
BRANCH   8  26
ATOM     26  O   UNL     1     116.496  42.337  19.211  1.00  0.00    -0.508 OA
ATOM     27  H   UNL     1     117.479  42.260  19.446  1.00  0.00     0.293 HD
ENDBRANCH   8  26
TORSDOF 6
ENDMDL
MODEL 5
REMARK VINA RESULT:    -5.896      7.252      9.704
REMARK INTER + INTRA:          -7.416
REMARK INTER:                  -7.103
REMARK INTRA:                  -0.313
REMARK UNBOUND:                -0.314
REMARK SMILES O=c1c(O)c(-c2ccc(O)c(O)c2)oc2cc(O)cc(O)c12
REMARK SMILES IDX 5 1 3 2 2 3 1 4 22 5 20 6 19 7 17 8 16 9 15 10 14 11 6 12
REMARK SMILES IDX 7 13 8 14 9 15 13 16 11 17 10 18 12 20 4 22 21 24 18 26
REMARK H PARENT 10 19 12 21 4 23 21 25 18 27
REMARK Flexibility Score: inf
ROOT
ATOM      1  C   UNL     1     107.647  43.330  24.200  1.00  0.00     0.180 A 
ATOM      2  C   UNL     1     108.403  44.412  24.685  1.00  0.00     0.208 A 
ATOM      3  C   UNL     1     108.702  45.475  23.818  1.00  0.00     0.238 A 
ATOM      4  O   UNL     1     109.441  46.404  24.235  1.00  0.00    -0.285 OA
ATOM      5  C   UNL     1     108.197  45.469  22.495  1.00  0.00     0.111 A 
ATOM      6  C   UNL     1     108.401  46.516  21.544  1.00  0.00     0.134 A 
ATOM      7  C   UNL     1     107.943  46.353  20.230  1.00  0.00     0.093 A 
ATOM      8  C   UNL     1     107.234  45.214  19.850  1.00  0.00     0.123 A 
ATOM      9  C   UNL     1     106.982  44.210  20.786  1.00  0.00     0.094 A 
ATOM     10  C   UNL     1     107.459  44.325  22.093  1.00  0.00     0.146 A 
ATOM     11  O   UNL     1     107.215  43.337  22.946  1.00  0.00    -0.452 OA
ENDROOT
BRANCH   1  12
ATOM     12  C   UNL     1     107.304  42.166  25.049  1.00  0.00     0.025 A 
ATOM     13  C   UNL     1     108.233  41.126  25.204  1.00  0.00     0.016 A 
ATOM     14  C   UNL     1     107.940  40.028  26.017  1.00  0.00     0.051 A 
ATOM     15  C   UNL     1     106.720  39.959  26.698  1.00  0.00     0.157 A 
ATOM     16  C   UNL     1     106.086  42.105  25.752  1.00  0.00     0.062 A 
ATOM     17  C   UNL     1     105.790  41.005  26.569  1.00  0.00     0.158 A 
BRANCH  15  18
ATOM     18  O   UNL     1     106.453  38.851  27.500  1.00  0.00    -0.504 OA
ATOM     19  H   UNL     1     106.916  38.705  28.389  1.00  0.00     0.293 HD
ENDBRANCH  15  18
BRANCH  17  20
ATOM     20  O   UNL     1     104.579  40.949  27.258  1.00  0.00    -0.504 OA
ATOM     21  H   UNL     1     104.490  40.455  28.138  1.00  0.00     0.293 HD
ENDBRANCH  17  20
ENDBRANCH   1  12
BRANCH   2  22
ATOM     22  O   UNL     1     108.827  44.434  26.016  1.00  0.00    -0.502 OA
ATOM     23  H   UNL     1     109.663  44.923  26.313  1.00  0.00     0.293 HD
ENDBRANCH   2  22
BRANCH   6  24
ATOM     24  O   UNL     1     109.018  47.734  21.839  1.00  0.00    -0.507 OA
ATOM     25  H   UNL     1     108.596  48.641  21.715  1.00  0.00     0.293 HD
ENDBRANCH   6  24
BRANCH   8  26
ATOM     26  O   UNL     1     106.778  45.093  18.539  1.00  0.00    -0.508 OA
ATOM     27  H   UNL     1     106.889  44.232  18.015  1.00  0.00     0.293 HD
ENDBRANCH   8  26
TORSDOF 6
ENDMDL
MODEL 6
REMARK VINA RESULT:    -5.876      2.609      7.933
REMARK INTER + INTRA:          -7.392
REMARK INTER:                  -7.100
REMARK INTRA:                  -0.292
REMARK UNBOUND:                -0.314
REMARK SMILES O=c1c(O)c(-c2ccc(O)c(O)c2)oc2cc(O)cc(O)c12
REMARK SMILES IDX 5 1 3 2 2 3 1 4 22 5 20 6 19 7 17 8 16 9 15 10 14 11 6 12
REMARK SMILES IDX 7 13 8 14 9 15 13 16 11 17 10 18 12 20 4 22 21 24 18 26
REMARK H PARENT 10 19 12 21 4 23 21 25 18 27
REMARK Flexibility Score: inf
ROOT
ATOM      1  C   UNL     1     112.565  46.837  21.453  1.00  0.00     0.180 A 
ATOM      2  C   UNL     1     111.728  46.695  20.333  1.00  0.00     0.208 A 
ATOM      3  C   UNL     1     110.385  46.334  20.529  1.00  0.00     0.238 A 
ATOM      4  O   UNL     1     109.661  46.136  19.519  1.00  0.00    -0.285 OA
ATOM      5  C   UNL     1     109.883  46.173  21.843  1.00  0.00     0.111 A 
ATOM      6  C   UNL     1     108.527  45.851  22.160  1.00  0.00     0.134 A 
ATOM      7  C   UNL     1     108.169  45.612  23.493  1.00  0.00     0.093 A 
ATOM      8  C   UNL     1     109.097  45.746  24.524  1.00  0.00     0.123 A 
ATOM      9  C   UNL     1     110.411  46.113  24.231  1.00  0.00     0.094 A 
ATOM     10  C   UNL     1     110.809  46.320  22.908  1.00  0.00     0.146 A 
ATOM     11  O   UNL     1     112.074  46.648  22.671  1.00  0.00    -0.452 OA
ENDROOT
BRANCH   1  12
ATOM     12  C   UNL     1     113.995  47.202  21.327  1.00  0.00     0.025 A 
ATOM     13  C   UNL     1     114.408  48.500  21.665  1.00  0.00     0.016 A 
ATOM     14  C   UNL     1     115.755  48.861  21.574  1.00  0.00     0.051 A 
ATOM     15  C   UNL     1     116.710  47.928  21.159  1.00  0.00     0.157 A 
ATOM     16  C   UNL     1     114.960  46.259  20.930  1.00  0.00     0.062 A 
ATOM     17  C   UNL     1     116.313  46.618  20.840  1.00  0.00     0.158 A 
BRANCH  15  18
ATOM     18  O   UNL     1     118.046  48.317  21.075  1.00  0.00    -0.504 OA
ATOM     19  H   UNL     1     118.805  47.698  21.336  1.00  0.00     0.293 HD
ENDBRANCH  15  18
BRANCH  17  20
ATOM     20  O   UNL     1     117.262  45.679  20.440  1.00  0.00    -0.504 OA
ATOM     21  H   UNL     1     117.496  44.880  21.018  1.00  0.00     0.293 HD
ENDBRANCH  17  20
ENDBRANCH   1  12
BRANCH   2  22
ATOM     22  O   UNL     1     112.224  46.933  19.049  1.00  0.00    -0.502 OA
ATOM     23  H   UNL     1     112.902  47.660  18.854  1.00  0.00     0.293 HD
ENDBRANCH   2  22
BRANCH   6  24
ATOM     24  O   UNL     1     107.498  45.778  21.217  1.00  0.00    -0.507 OA
ATOM     25  H   UNL     1     107.562  46.107  20.266  1.00  0.00     0.293 HD
ENDBRANCH   6  24
BRANCH   8  26
ATOM     26  O   UNL     1     108.701  45.517  25.841  1.00  0.00    -0.508 OA
ATOM     27  H   UNL     1     108.801  46.228  26.556  1.00  0.00     0.293 HD
ENDBRANCH   8  26
TORSDOF 6
ENDMDL
MODEL 7
REMARK VINA RESULT:    -5.810      3.851      4.516
REMARK INTER + INTRA:          -7.312
REMARK INTER:                  -6.989
REMARK INTRA:                  -0.323
REMARK UNBOUND:                -0.314
REMARK SMILES O=c1c(O)c(-c2ccc(O)c(O)c2)oc2cc(O)cc(O)c12
REMARK SMILES IDX 5 1 3 2 2 3 1 4 22 5 20 6 19 7 17 8 16 9 15 10 14 11 6 12
REMARK SMILES IDX 7 13 8 14 9 15 13 16 11 17 10 18 12 20 4 22 21 24 18 26
REMARK H PARENT 10 19 12 21 4 23 21 25 18 27
REMARK Flexibility Score: inf
ROOT
ATOM      1  C   UNL     1     116.087  46.114  21.320  1.00  0.00     0.180 A 
ATOM      2  C   UNL     1     115.660  46.101  22.660  1.00  0.00     0.208 A 
ATOM      3  C   UNL     1     115.724  47.290  23.405  1.00  0.00     0.238 A 
ATOM      4  O   UNL     1     115.411  47.255  24.623  1.00  0.00    -0.285 OA
ATOM      5  C   UNL     1     116.162  48.487  22.788  1.00  0.00     0.111 A 
ATOM      6  C   UNL     1     116.224  49.759  23.435  1.00  0.00     0.134 A 
ATOM      7  C   UNL     1     116.774  50.853  22.755  1.00  0.00     0.093 A 
ATOM      8  C   UNL     1     117.203  50.739  21.434  1.00  0.00     0.123 A 
ATOM      9  C   UNL     1     117.095  49.514  20.773  1.00  0.00     0.094 A 
ATOM     10  C   UNL     1     116.588  48.395  21.436  1.00  0.00     0.146 A 
ATOM     11  O   UNL     1     116.522  47.244  20.778  1.00  0.00    -0.452 OA
ENDROOT
BRANCH   1  12
ATOM     12  C   UNL     1     116.063  44.898  20.475  1.00  0.00     0.025 A 
ATOM     13  C   UNL     1     117.176  44.043  20.464  1.00  0.00     0.016 A 
ATOM     14  C   UNL     1     117.168  42.880  19.690  1.00  0.00     0.051 A 
ATOM     15  C   UNL     1     116.044  42.546  18.928  1.00  0.00     0.157 A 
ATOM     16  C   UNL     1     114.926  44.550  19.724  1.00  0.00     0.062 A 
ATOM     17  C   UNL     1     114.915  43.382  18.947  1.00  0.00     0.158 A 
BRANCH  15  18
ATOM     18  O   UNL     1     116.066  41.380  18.164  1.00  0.00    -0.504 OA
ATOM     19  H   UNL     1     116.718  41.249  17.399  1.00  0.00     0.293 HD
ENDBRANCH  15  18
BRANCH  17  20
ATOM     20  O   UNL     1     113.786  43.047  18.201  1.00  0.00    -0.504 OA
ATOM     21  H   UNL     1     113.360  43.703  17.557  1.00  0.00     0.293 HD
ENDBRANCH  17  20
ENDBRANCH   1  12
BRANCH   2  22
ATOM     22  O   UNL     1     115.160  44.927  23.228  1.00  0.00    -0.502 OA
ATOM     23  H   UNL     1     114.169  44.730  23.285  1.00  0.00     0.293 HD
ENDBRANCH   2  22
BRANCH   6  24
ATOM     24  O   UNL     1     115.743  50.006  24.724  1.00  0.00    -0.507 OA
ATOM     25  H   UNL     1     116.031  50.773  25.311  1.00  0.00     0.293 HD
ENDBRANCH   6  24
BRANCH   8  26
ATOM     26  O   UNL     1     117.729  51.853  20.782  1.00  0.00    -0.508 OA
ATOM     27  H   UNL     1     118.181  52.602  21.294  1.00  0.00     0.293 HD
ENDBRANCH   8  26
TORSDOF 6
ENDMDL
MODEL 8
REMARK VINA RESULT:    -5.794      4.985      7.397
REMARK INTER + INTRA:          -7.293
REMARK INTER:                  -6.990
REMARK INTRA:                  -0.303
REMARK UNBOUND:                -0.314
REMARK SMILES O=c1c(O)c(-c2ccc(O)c(O)c2)oc2cc(O)cc(O)c12
REMARK SMILES IDX 5 1 3 2 2 3 1 4 22 5 20 6 19 7 17 8 16 9 15 10 14 11 6 12
REMARK SMILES IDX 7 13 8 14 9 15 13 16 11 17 10 18 12 20 4 22 21 24 18 26
REMARK H PARENT 10 19 12 21 4 23 21 25 18 27
REMARK Flexibility Score: inf
ROOT
ATOM      1  C   UNL     1     108.426  45.897  20.096  1.00  0.00     0.180 A 
ATOM      2  C   UNL     1     108.374  44.794  20.966  1.00  0.00     0.208 A 
ATOM      3  C   UNL     1     109.575  44.229  21.422  1.00  0.00     0.238 A 
ATOM      4  O   UNL     1     109.522  43.197  22.140  1.00  0.00    -0.285 OA
ATOM      5  C   UNL     1     110.813  44.807  21.048  1.00  0.00     0.111 A 
ATOM      6  C   UNL     1     112.091  44.344  21.487  1.00  0.00     0.134 A 
ATOM      7  C   UNL     1     113.253  44.929  20.967  1.00  0.00     0.093 A 
ATOM      8  C   UNL     1     113.184  45.999  20.076  1.00  0.00     0.123 A 
ATOM      9  C   UNL     1     111.940  46.494  19.682  1.00  0.00     0.094 A 
ATOM     10  C   UNL     1     110.764  45.908  20.153  1.00  0.00     0.146 A 
ATOM     11  O   UNL     1     109.602  46.397  19.737  1.00  0.00    -0.452 OA
ENDROOT
BRANCH   1  12
ATOM     12  C   UNL     1     107.203  46.538  19.561  1.00  0.00     0.025 A 
ATOM     13  C   UNL     1     106.734  46.175  18.290  1.00  0.00     0.016 A 
ATOM     14  C   UNL     1     105.570  46.751  17.773  1.00  0.00     0.051 A 
ATOM     15  C   UNL     1     104.851  47.685  18.524  1.00  0.00     0.157 A 
ATOM     16  C   UNL     1     106.467  47.463  20.324  1.00  0.00     0.062 A 
ATOM     17  C   UNL     1     105.298  48.041  19.808  1.00  0.00     0.158 A 
BRANCH  15  18
ATOM     18  O   UNL     1     103.695  48.245  17.982  1.00  0.00    -0.504 OA
ATOM     19  H   UNL     1     103.727  48.998  17.304  1.00  0.00     0.293 HD
ENDBRANCH  15  18
BRANCH  17  20
ATOM     20  O   UNL     1     104.577  48.961  20.567  1.00  0.00    -0.504 OA
ATOM     21  H   UNL     1     104.699  49.960  20.448  1.00  0.00     0.293 HD
ENDBRANCH  17  20
ENDBRANCH   1  12
BRANCH   2  22
ATOM     22  O   UNL     1     107.141  44.286  21.384  1.00  0.00    -0.502 OA
ATOM     23  H   UNL     1     106.953  43.292  21.441  1.00  0.00     0.293 HD
ENDBRANCH   2  22
BRANCH   6  24
ATOM     24  O   UNL     1     112.275  43.341  22.442  1.00  0.00    -0.507 OA
ATOM     25  H   UNL     1     112.435  42.367  22.234  1.00  0.00     0.293 HD
ENDBRANCH   6  24
BRANCH   8  26
ATOM     26  O   UNL     1     114.361  46.567  19.592  1.00  0.00    -0.508 OA
ATOM     27  H   UNL     1     115.197  46.013  19.447  1.00  0.00     0.293 HD
ENDBRANCH   8  26
TORSDOF 6
ENDMDL
MODEL 9
REMARK VINA RESULT:    -5.646      2.889      4.557
REMARK INTER + INTRA:          -7.115
REMARK INTER:                  -6.862
REMARK INTRA:                  -0.253
REMARK UNBOUND:                -0.314
REMARK SMILES O=c1c(O)c(-c2ccc(O)c(O)c2)oc2cc(O)cc(O)c12
REMARK SMILES IDX 5 1 3 2 2 3 1 4 22 5 20 6 19 7 17 8 16 9 15 10 14 11 6 12
REMARK SMILES IDX 7 13 8 14 9 15 13 16 11 17 10 18 12 20 4 22 21 24 18 26
REMARK H PARENT 10 19 12 21 4 23 21 25 18 27
REMARK Flexibility Score: inf
ROOT
ATOM      1  C   UNL     1     111.317  46.268  21.042  1.00  0.00     0.180 A 
ATOM      2  C   UNL     1     111.583  47.458  21.742  1.00  0.00     0.208 A 
ATOM      3  C   UNL     1     112.917  47.828  21.974  1.00  0.00     0.238 A 
ATOM      4  O   UNL     1     113.147  48.853  22.665  1.00  0.00    -0.285 OA
ATOM      5  C   UNL     1     113.969  47.034  21.456  1.00  0.00     0.111 A 
ATOM      6  C   UNL     1     115.359  47.337  21.592  1.00  0.00     0.134 A 
ATOM      7  C   UNL     1     116.313  46.422  21.129  1.00  0.00     0.093 A 
ATOM      8  C   UNL     1     115.932  45.249  20.480  1.00  0.00     0.123 A 
ATOM      9  C   UNL     1     114.578  44.969  20.293  1.00  0.00     0.094 A 
ATOM     10  C   UNL     1     113.601  45.842  20.777  1.00  0.00     0.146 A 
ATOM     11  O   UNL     1     112.324  45.527  20.597  1.00  0.00    -0.452 OA
ENDROOT
BRANCH   1  12
ATOM     12  C   UNL     1     109.938  45.804  20.772  1.00  0.00     0.025 A 
ATOM     13  C   UNL     1     109.170  45.273  21.820  1.00  0.00     0.016 A 
ATOM     14  C   UNL     1     107.858  44.848  21.593  1.00  0.00     0.051 A 
ATOM     15  C   UNL     1     107.289  44.961  20.321  1.00  0.00     0.157 A 
ATOM     16  C   UNL     1     109.356  45.936  19.498  1.00  0.00     0.062 A 
ATOM     17  C   UNL     1     108.039  45.512  19.268  1.00  0.00     0.158 A 
BRANCH  15  18
ATOM     18  O   UNL     1     105.979  44.527  20.124  1.00  0.00    -0.504 OA
ATOM     19  H   UNL     1     105.588  44.397  19.199  1.00  0.00     0.293 HD
ENDBRANCH  15  18
BRANCH  17  20
ATOM     20  O   UNL     1     107.472  45.641  18.001  1.00  0.00    -0.504 OA
ATOM     21  H   UNL     1     106.894  46.436  17.756  1.00  0.00     0.293 HD
ENDBRANCH  17  20
ENDBRANCH   1  12
BRANCH   2  22
ATOM     22  O   UNL     1     110.531  48.267  22.179  1.00  0.00    -0.502 OA
ATOM     23  H   UNL     1     110.682  49.128  22.690  1.00  0.00     0.293 HD
ENDBRANCH   2  22
BRANCH   6  24
ATOM     24  O   UNL     1     115.851  48.523  22.144  1.00  0.00    -0.507 OA
ATOM     25  H   UNL     1     116.811  48.826  22.099  1.00  0.00     0.293 HD
ENDBRANCH   6  24
BRANCH   8  26
ATOM     26  O   UNL     1     116.910  44.370  20.017  1.00  0.00    -0.508 OA
ATOM     27  H   UNL     1     117.799  44.270  20.491  1.00  0.00     0.293 HD
ENDBRANCH   8  26
TORSDOF 6
ENDMDL
