MODEL 1
REMARK VINA RESULT:    -4.370      0.000      0.000
REMARK INTER + INTRA:          -4.643
REMARK INTER:                  -4.626
REMARK INTRA:                  -0.017
REMARK UNBOUND:                -0.017
REMARK SMILES O=C([O-])c1cccnc1
REMARK SMILES IDX 4 1 5 2 9 3 6 4 8 5 7 6 2 7 1 8 3 9
REMARK H PARENT
REMARK Flexibility Score: inf
ROOT
ATOM      1  C   UNL     1       7.963   4.320   0.271  1.00  0.00     0.016 A 
ATOM      2  C   UNL     1       8.243   5.131  -0.841  1.00  0.00     0.013 A 
ATOM      3  C   UNL     1       7.893   2.928   0.082  1.00  0.00     0.120 A 
ATOM      4  C   UNL     1       8.445   4.554  -2.096  1.00  0.00     0.021 A 
ATOM      5  N   UNL     1       8.094   2.392  -1.151  1.00  0.00    -0.264 NA
ATOM      6  C   UNL     1       8.366   3.168  -2.233  1.00  0.00     0.111 A 
ENDROOT
BRANCH   1   7
ATOM      7  C   UNL     1       7.746   4.920   1.605  1.00  0.00     0.073 C 
ATOM      8  O   UNL     1       6.601   4.918   2.129  1.00  0.00    -0.545 OA
ATOM      9  O   UNL     1       8.805   5.495   2.299  1.00  0.00    -0.545 OA
ENDBRANCH   1   7
TORSDOF 1
ENDMDL
MODEL 2
REMARK VINA RESULT:    -4.342     15.901     16.643
REMARK INTER + INTRA:          -4.612
REMARK INTER:                  -4.591
REMARK INTRA:                  -0.021
REMARK UNBOUND:                -0.017
REMARK SMILES O=C([O-])c1cccnc1
REMARK SMILES IDX 4 1 5 2 9 3 6 4 8 5 7 6 2 7 1 8 3 9
REMARK H PARENT
REMARK Flexibility Score: inf
ROOT
ATOM      1  C   UNL     1      -2.992  -7.239  -3.616  1.00  0.00     0.016 A 
ATOM      2  C   UNL     1      -3.392  -6.108  -4.347  1.00  0.00     0.013 A 
ATOM      3  C   UNL     1      -3.935  -8.256  -3.388  1.00  0.00     0.120 A 
ATOM      4  C   UNL     1      -4.699  -6.013  -4.829  1.00  0.00     0.021 A 
ATOM      5  N   UNL     1      -5.201  -8.137  -3.867  1.00  0.00    -0.264 NA
ATOM      6  C   UNL     1      -5.599  -7.048  -4.576  1.00  0.00     0.111 A 
ENDROOT
BRANCH   1   7
ATOM      7  C   UNL     1      -1.609  -7.352  -3.101  1.00  0.00     0.073 C 
ATOM      8  O   UNL     1      -1.040  -8.473  -3.038  1.00  0.00    -0.545 OA
ATOM      9  O   UNL     1      -0.920  -6.220  -2.681  1.00  0.00    -0.545 OA
ENDBRANCH   1   7
TORSDOF 1
ENDMDL
MODEL 3
REMARK VINA RESULT:    -4.323     11.937     12.856
REMARK INTER + INTRA:          -4.592
REMARK INTER:                  -4.569
REMARK INTRA:                  -0.024
REMARK UNBOUND:                -0.017
REMARK SMILES O=C([O-])c1cccnc1
REMARK SMILES IDX 4 1 5 2 9 3 6 4 8 5 7 6 2 7 1 8 3 9
REMARK H PARENT
REMARK Flexibility Score: inf
ROOT
ATOM      1  C   UNL     1       4.178  -7.670  -1.134  1.00  0.00     0.016 A 
ATOM      2  C   UNL     1       3.178  -8.639  -0.950  1.00  0.00     0.013 A 
ATOM      3  C   UNL     1       4.132  -6.874  -2.291  1.00  0.00     0.120 A 
ATOM      4  C   UNL     1       2.170  -8.795  -1.902  1.00  0.00     0.021 A 
ATOM      5  N   UNL     1       3.139  -7.046  -3.204  1.00  0.00    -0.264 NA
ATOM      6  C   UNL     1       2.166  -7.980  -3.034  1.00  0.00     0.111 A 
ENDROOT
BRANCH   1   7
ATOM      7  C   UNL     1       5.252  -7.496  -0.131  1.00  0.00     0.073 C 
ATOM      8  O   UNL     1       5.421  -8.351   0.779  1.00  0.00    -0.545 OA
ATOM      9  O   UNL     1       6.089  -6.388  -0.180  1.00  0.00    -0.545 OA
ENDBRANCH   1   7
TORSDOF 1
ENDMDL
MODEL 4
REMARK VINA RESULT:    -4.252     12.013     12.789
REMARK INTER + INTRA:          -4.518
REMARK INTER:                  -4.495
REMARK INTRA:                  -0.022
REMARK UNBOUND:                -0.017
REMARK SMILES O=C([O-])c1cccnc1
REMARK SMILES IDX 4 1 5 2 9 3 6 4 8 5 7 6 2 7 1 8 3 9
REMARK H PARENT
REMARK Flexibility Score: inf
ROOT
ATOM      1  C   UNL     1       4.264  -7.648  -1.145  1.00  0.00     0.016 A 
ATOM      2  C   UNL     1       4.032  -6.838  -2.270  1.00  0.00     0.013 A 
ATOM      3  C   UNL     1       3.321  -8.641  -0.831  1.00  0.00     0.120 A 
ATOM      4  C   UNL     1       2.888  -7.028  -3.045  1.00  0.00     0.021 A 
ATOM      5  N   UNL     1       2.214  -8.805  -1.603  1.00  0.00    -0.264 NA
ATOM      6  C   UNL     1       1.980  -8.027  -2.693  1.00  0.00     0.111 A 
ENDROOT
BRANCH   1   7
ATOM      7  C   UNL     1       5.474  -7.455  -0.316  1.00  0.00     0.073 C 
ATOM      8  O   UNL     1       6.033  -6.328  -0.252  1.00  0.00    -0.545 OA
ATOM      9  O   UNL     1       6.011  -8.516   0.404  1.00  0.00    -0.545 OA
ENDBRANCH   1   7
TORSDOF 1
ENDMDL
MODEL 5
REMARK VINA RESULT:    -4.240     11.784     12.609
REMARK INTER + INTRA:          -4.505
REMARK INTER:                  -4.488
REMARK INTRA:                  -0.017
REMARK UNBOUND:                -0.017
REMARK SMILES O=C([O-])c1cccnc1
REMARK SMILES IDX 4 1 5 2 9 3 6 4 8 5 7 6 2 7 1 8 3 9
REMARK H PARENT
REMARK Flexibility Score: inf
ROOT
ATOM      1  C   UNL     1       4.673  -7.587  -1.688  1.00  0.00     0.016 A 
ATOM      2  C   UNL     1       5.483  -8.178  -2.672  1.00  0.00     0.013 A 
ATOM      3  C   UNL     1       3.306  -7.414  -1.963  1.00  0.00     0.120 A 
ATOM      4  C   UNL     1       4.928  -8.578  -3.888  1.00  0.00     0.021 A 
ATOM      5  N   UNL     1       2.791  -7.811  -3.157  1.00  0.00    -0.264 NA
ATOM      6  C   UNL     1       3.565  -8.384  -4.115  1.00  0.00     0.111 A 
ENDROOT
BRANCH   1   7
ATOM      7  C   UNL     1       5.251  -7.160  -0.394  1.00  0.00     0.073 C 
ATOM      8  O   UNL     1       4.880  -7.700   0.681  1.00  0.00    -0.545 OA
ATOM      9  O   UNL     1       6.212  -6.157  -0.349  1.00  0.00    -0.545 OA
ENDBRANCH   1   7
TORSDOF 1
ENDMDL
MODEL 6
REMARK VINA RESULT:    -4.218      2.977      3.783
REMARK INTER + INTRA:          -4.482
REMARK INTER:                  -4.459
REMARK INTRA:                  -0.022
REMARK UNBOUND:                -0.017
REMARK SMILES O=C([O-])c1cccnc1
REMARK SMILES IDX 4 1 5 2 9 3 6 4 8 5 7 6 2 7 1 8 3 9
REMARK H PARENT
REMARK Flexibility Score: inf
ROOT
ATOM      1  C   UNL     1       8.266   3.307  -0.765  1.00  0.00     0.016 A 
ATOM      2  C   UNL     1       8.625   4.660  -0.885  1.00  0.00     0.013 A 
ATOM      3  C   UNL     1       7.691   2.873   0.442  1.00  0.00     0.120 A 
ATOM      4  C   UNL     1       8.407   5.539   0.178  1.00  0.00     0.021 A 
ATOM      5  N   UNL     1       7.491   3.750   1.461  1.00  0.00    -0.264 NA
ATOM      6  C   UNL     1       7.833   5.061   1.355  1.00  0.00     0.111 A 
ENDROOT
BRANCH   1   7
ATOM      7  C   UNL     1       8.492   2.367  -1.884  1.00  0.00     0.073 C 
ATOM      8  O   UNL     1       9.404   2.582  -2.726  1.00  0.00    -0.545 OA
ATOM      9  O   UNL     1       7.699   1.234  -2.023  1.00  0.00    -0.545 OA
ENDBRANCH   1   7
TORSDOF 1
ENDMDL
MODEL 7
REMARK VINA RESULT:    -4.165      0.956      1.644
REMARK INTER + INTRA:          -4.426
REMARK INTER:                  -4.409
REMARK INTRA:                  -0.017
REMARK UNBOUND:                -0.017
REMARK SMILES O=C([O-])c1cccnc1
REMARK SMILES IDX 4 1 5 2 9 3 6 4 8 5 7 6 2 7 1 8 3 9
REMARK H PARENT
REMARK Flexibility Score: inf
ROOT
ATOM      1  C   UNL     1       7.922   4.478   0.565  1.00  0.00     0.016 A 
ATOM      2  C   UNL     1       7.925   3.077   0.459  1.00  0.00     0.013 A 
ATOM      3  C   UNL     1       8.241   5.235  -0.575  1.00  0.00     0.120 A 
ATOM      4  C   UNL     1       8.239   2.468  -0.757  1.00  0.00     0.021 A 
ATOM      5  N   UNL     1       8.544   4.617  -1.747  1.00  0.00    -0.264 NA
ATOM      6  C   UNL     1       8.549   3.262  -1.861  1.00  0.00     0.111 A 
ENDROOT
BRANCH   1   7
ATOM      7  C   UNL     1       7.590   5.134   1.848  1.00  0.00     0.073 C 
ATOM      8  O   UNL     1       6.406   5.136   2.278  1.00  0.00    -0.545 OA
ATOM      9  O   UNL     1       8.581   5.759   2.597  1.00  0.00    -0.545 OA
ENDBRANCH   1   7
TORSDOF 1
ENDMDL
MODEL 8
REMARK VINA RESULT:    -4.061      3.104      4.124
REMARK INTER + INTRA:          -4.315
REMARK INTER:                  -4.294
REMARK INTRA:                  -0.021
REMARK UNBOUND:                -0.017
REMARK SMILES O=C([O-])c1cccnc1
REMARK SMILES IDX 4 1 5 2 9 3 6 4 8 5 7 6 2 7 1 8 3 9
REMARK H PARENT
REMARK Flexibility Score: inf
ROOT
ATOM      1  C   UNL     1       8.330   3.305  -1.026  1.00  0.00     0.016 A 
ATOM      2  C   UNL     1       7.979   2.897   0.272  1.00  0.00     0.013 A 
ATOM      3  C   UNL     1       8.530   4.675  -1.265  1.00  0.00     0.120 A 
ATOM      4  C   UNL     1       7.835   3.843   1.288  1.00  0.00     0.021 A 
ATOM      5  N   UNL     1       8.382   5.576  -0.257  1.00  0.00    -0.264 NA
ATOM      6  C   UNL     1       8.044   5.193   1.002  1.00  0.00     0.111 A 
ENDROOT
BRANCH   1   7
ATOM      7  C   UNL     1       8.486   2.311  -2.110  1.00  0.00     0.073 C 
ATOM      8  O   UNL     1       9.319   2.499  -3.035  1.00  0.00    -0.545 OA
ATOM      9  O   UNL     1       7.713   1.155  -2.122  1.00  0.00    -0.545 OA
ENDBRANCH   1   7
TORSDOF 1
ENDMDL
MODEL 9
REMARK VINA RESULT:    -3.851     17.073     17.899
REMARK INTER + INTRA:          -4.093
REMARK INTER:                  -4.077
REMARK INTRA:                  -0.016
REMARK UNBOUND:                -0.017
REMARK SMILES O=C([O-])c1cccnc1
REMARK SMILES IDX 4 1 5 2 9 3 6 4 8 5 7 6 2 7 1 8 3 9
REMARK H PARENT
REMARK Flexibility Score: inf
ROOT
ATOM      1  C   UNL     1      -4.332  -6.931  -5.838  1.00  0.00     0.016 A 
ATOM      2  C   UNL     1      -3.716  -6.252  -4.774  1.00  0.00     0.013 A 
ATOM      3  C   UNL     1      -4.833  -8.224  -5.606  1.00  0.00     0.120 A 
ATOM      4  C   UNL     1      -3.613  -6.860  -3.522  1.00  0.00     0.021 A 
ATOM      5  N   UNL     1      -4.718  -8.794  -4.377  1.00  0.00    -0.264 NA
ATOM      6  C   UNL     1      -4.125  -8.145  -3.341  1.00  0.00     0.111 A 
ENDROOT
BRANCH   1   7
ATOM      7  C   UNL     1      -4.448  -6.296  -7.169  1.00  0.00     0.073 C 
ATOM      8  O   UNL     1      -5.556  -5.852  -7.572  1.00  0.00    -0.545 OA
ATOM      9  O   UNL     1      -3.335  -6.180  -7.994  1.00  0.00    -0.545 OA
ENDBRANCH   1   7
TORSDOF 1
ENDMDL
