MODEL 1
REMARK VINA RESULT:    -3.680      0.000      0.000
REMARK INTER + INTRA:          -3.791
REMARK INTER:                  -4.540
REMARK INTRA:                   0.750
REMARK UNBOUND:                 0.750
REMARK SMILES CC1=CC=CC(C)(C)CC1=O
REMARK SMILES IDX 1 1 2 2 3 3 10 4 11 5 9 6 4 8 5 9 6 10 7 11 8 12
REMARK H PARENT
REMARK Flexibility Score: 80.00
ROOT
ATOM      1  C   UNL     1      28.320  39.978 -24.488  1.00  0.00     0.048 C 
ATOM      2  C   UNL     1      29.302  38.954 -23.969  1.00  0.00    -0.008 C 
ATOM      3  C   UNL     1      29.214  38.607 -22.668  1.00  0.00     0.007 C 
ENDROOT
BRANCH   2   4
ATOM      4  C   UNL     1      30.335  38.468 -24.917  1.00  0.00     0.159 C 
ATOM      5  O   UNL     1      30.474  39.061 -26.023  1.00  0.00    -0.295 OA
BRANCH   4   6
ATOM      6  C   UNL     1      31.224  37.295 -24.641  1.00  0.00     0.091 CG0
ATOM      7  G   UNL     1      32.086  37.469 -23.371  1.00  0.00     0.000 G0
ENDBRANCH   4   6
ENDBRANCH   2   4
BRANCH   3   8
ATOM      8  C   UNL     1      30.041  37.665 -21.877  1.00  0.00    -0.003 C 
ATOM      9  C   UNL     1      31.260  37.180 -22.146  1.00  0.00    -0.020 C 
BRANCH   9  10
ATOM     10  C   UNL     1      32.089  37.470 -23.375  1.00  0.00    -0.010 CG0
ATOM     11  C   UNL     1      33.232  36.431 -23.444  1.00  0.00     0.016 C 
ATOM     12  C   UNL     1      32.727  38.874 -23.261  1.00  0.00     0.016 C 
ATOM     13  G   UNL     1      31.218  37.312 -24.640  1.00  0.00     0.000 G0
ENDBRANCH   9  10
ENDBRANCH   3   8
TORSDOF 0
ENDMDL
MODEL 2
REMARK VINA RESULT:    -3.596     16.282     17.008
REMARK INTER + INTRA:          -3.687
REMARK INTER:                  -4.434
REMARK INTRA:                   0.747
REMARK UNBOUND:                 0.750
REMARK SMILES CC1=CC=CC(C)(C)CC1=O
REMARK SMILES IDX 1 1 2 2 3 3 10 4 11 5 9 6 4 8 5 9 6 10 7 11 8 12
REMARK H PARENT
REMARK Flexibility Score: 80.00
ROOT
ATOM      1  C   UNL     1      25.408  21.503 -26.927  1.00  0.00     0.048 C 
ATOM      2  C   UNL     1      24.623  22.440 -26.041  1.00  0.00    -0.008 C 
ATOM      3  C   UNL     1      24.960  22.497 -24.735  1.00  0.00     0.007 C 
ENDROOT
BRANCH   2   4
ATOM      4  C   UNL     1      23.490  23.169 -26.665  1.00  0.00     0.159 C 
ATOM      5  O   UNL     1      23.114  22.834 -27.823  1.00  0.00    -0.295 OA
BRANCH   4   6
ATOM      6  C   UNL     1      22.767  24.299 -25.999  1.00  0.00     0.091 CG0
ATOM      7  G   UNL     1      22.099  23.894 -24.666  1.00  0.00     0.000 G0
ENDBRANCH   4   6
ENDBRANCH   2   4
BRANCH   3   8
ATOM      8  C   UNL     1      24.366  23.290 -23.633  1.00  0.00    -0.003 C 
ATOM      9  C   UNL     1      23.167  23.881 -23.569  1.00  0.00    -0.020 C 
BRANCH   9  10
ATOM     10  C   UNL     1      22.117  23.901 -24.656  1.00  0.00    -0.010 CG0
ATOM     11  C   UNL     1      21.075  24.988 -24.304  1.00  0.00     0.016 C 
ATOM     12  C   UNL     1      21.387  22.540 -24.709  1.00  0.00     0.016 C 
ATOM     13  G   UNL     1      22.771  24.280 -26.003  1.00  0.00     0.000 G0
ENDBRANCH   9  10
ENDBRANCH   3   8
TORSDOF 0
ENDMDL
MODEL 3
REMARK VINA RESULT:    -3.532     14.690     15.783
REMARK INTER + INTRA:          -3.608
REMARK INTER:                  -4.357
REMARK INTRA:                   0.749
REMARK UNBOUND:                 0.750
REMARK SMILES CC1=CC=CC(C)(C)CC1=O
REMARK SMILES IDX 1 1 2 2 3 3 10 4 11 5 9 6 4 8 5 9 6 10 7 11 8 12
REMARK H PARENT
REMARK Flexibility Score: 80.00
ROOT
ATOM      1  C   UNL     1      19.078  28.218 -14.106  1.00  0.00     0.048 C 
ATOM      2  C   UNL     1      20.532  28.149 -14.510  1.00  0.00    -0.008 C 
ATOM      3  C   UNL     1      21.415  28.877 -13.794  1.00  0.00     0.007 C 
ENDROOT
BRANCH   2   4
ATOM      4  C   UNL     1      20.862  27.345 -15.713  1.00  0.00     0.159 C 
ATOM      5  O   UNL     1      19.919  26.909 -16.431  1.00  0.00    -0.295 OA
BRANCH   4   6
ATOM      6  C   UNL     1      22.262  27.006 -16.122  1.00  0.00     0.091 CG0
ATOM      7  G   UNL     1      23.148  28.250 -16.353  1.00  0.00     0.000 G0
ENDBRANCH   4   6
ENDBRANCH   2   4
BRANCH   3   8
ATOM      8  C   UNL     1      22.880  29.030 -13.963  1.00  0.00    -0.003 C 
ATOM      9  C   UNL     1      23.637  28.776 -15.038  1.00  0.00    -0.020 C 
BRANCH   9  10
ATOM     10  C   UNL     1      23.160  28.228 -16.362  1.00  0.00    -0.010 CG0
ATOM     11  C   UNL     1      24.393  27.747 -17.161  1.00  0.00     0.016 C 
ATOM     12  C   UNL     1      22.470  29.345 -17.177  1.00  0.00     0.016 C 
ATOM     13  G   UNL     1      22.239  27.011 -16.120  1.00  0.00     0.000 G0
ENDBRANCH   9  10
ENDBRANCH   3   8
TORSDOF 0
ENDMDL
MODEL 4
REMARK VINA RESULT:    -3.520      1.607      3.404
REMARK INTER + INTRA:          -3.594
REMARK INTER:                  -4.354
REMARK INTRA:                   0.761
REMARK UNBOUND:                 0.750
REMARK SMILES CC1=CC=CC(C)(C)CC1=O
REMARK SMILES IDX 1 1 2 2 3 3 10 4 11 5 9 6 4 8 5 9 6 10 7 11 8 12
REMARK H PARENT
REMARK Flexibility Score: 80.00
ROOT
ATOM      1  C   UNL     1      32.202  36.293 -21.294  1.00  0.00     0.048 C 
ATOM      2  C   UNL     1      31.363  37.285 -22.063  1.00  0.00    -0.008 C 
ATOM      3  C   UNL     1      30.081  37.454 -21.675  1.00  0.00     0.007 C 
ENDROOT
BRANCH   2   4
ATOM      4  C   UNL     1      31.996  37.941 -23.235  1.00  0.00     0.159 C 
ATOM      5  O   UNL     1      33.115  37.517 -23.639  1.00  0.00    -0.295 OA
BRANCH   4   6
ATOM      6  C   UNL     1      31.384  39.095 -23.966  1.00  0.00     0.091 CG0
ATOM      7  G   UNL     1      29.985  38.781 -24.540  1.00  0.00     0.000 G0
ENDBRANCH   4   6
ENDBRANCH   2   4
BRANCH   3   8
ATOM      8  C   UNL     1      29.023  38.323 -22.241  1.00  0.00    -0.003 C 
ATOM      9  C   UNL     1      28.954  38.892 -23.451  1.00  0.00    -0.020 C 
BRANCH   9  10
ATOM     10  C   UNL     1      29.990  38.798 -24.546  1.00  0.00    -0.010 CG0
ATOM     11  C   UNL     1      29.677  39.880 -25.605  1.00  0.00     0.016 C 
ATOM     12  C   UNL     1      29.906  37.418 -25.236  1.00  0.00     0.016 C 
ATOM     13  G   UNL     1      31.391  39.088 -23.963  1.00  0.00     0.000 G0
ENDBRANCH   9  10
ENDBRANCH   3   8
TORSDOF 0
ENDMDL
MODEL 5
REMARK VINA RESULT:    -3.504     10.285     11.526
REMARK INTER + INTRA:          -3.574
REMARK INTER:                  -4.353
REMARK INTRA:                   0.779
REMARK UNBOUND:                 0.750
REMARK SMILES CC1=CC=CC(C)(C)CC1=O
REMARK SMILES IDX 1 1 2 2 3 3 10 4 11 5 9 6 4 8 5 9 6 10 7 11 8 12
REMARK H PARENT
REMARK Flexibility Score: 80.00
ROOT
ATOM      1  C   UNL     1      35.323  31.646 -14.195  1.00  0.00     0.048 C 
ATOM      2  C   UNL     1      33.821  31.497 -14.254  1.00  0.00    -0.008 C 
ATOM      3  C   UNL     1      33.274  30.426 -13.639  1.00  0.00     0.007 C 
ENDROOT
BRANCH   2   4
ATOM      4  C   UNL     1      33.073  32.501 -15.050  1.00  0.00     0.159 C 
ATOM      5  O   UNL     1      33.719  33.305 -15.778  1.00  0.00    -0.295 OA
BRANCH   4   6
ATOM      6  C   UNL     1      31.581  32.626 -15.031  1.00  0.00     0.091 CG0
ATOM      7  G   UNL     1      30.856  31.336 -15.476  1.00  0.00     0.000 G0
ENDBRANCH   4   6
ENDBRANCH   2   4
BRANCH   3   8
ATOM      8  C   UNL     1      31.857  30.003 -13.548  1.00  0.00    -0.003 C 
ATOM      9  C   UNL     1      30.818  30.363 -14.312  1.00  0.00    -0.020 C 
BRANCH   9  10
ATOM     10  C   UNL     1      30.846  31.340 -15.463  1.00  0.00    -0.010 CG0
ATOM     11  C   UNL     1      29.388  31.704 -15.827  1.00  0.00     0.016 C 
ATOM     12  C   UNL     1      31.495  30.678 -16.700  1.00  0.00     0.016 C 
ATOM     13  G   UNL     1      31.571  32.634 -15.030  1.00  0.00     0.000 G0
ENDBRANCH   9  10
ENDBRANCH   3   8
TORSDOF 0
ENDMDL
MODEL 6
REMARK VINA RESULT:    -3.478      1.215      1.853
REMARK INTER + INTRA:          -3.541
REMARK INTER:                  -4.292
REMARK INTRA:                   0.751
REMARK UNBOUND:                 0.750
REMARK SMILES CC1=CC=CC(C)(C)CC1=O
REMARK SMILES IDX 1 1 2 2 3 3 10 4 11 5 9 6 4 8 5 9 6 10 7 11 8 12
REMARK H PARENT
REMARK Flexibility Score: 80.00
ROOT
ATOM      1  C   UNL     1      28.726  38.327 -21.721  1.00  0.00     0.048 C 
ATOM      2  C   UNL     1      29.983  37.865 -22.419  1.00  0.00    -0.008 C 
ATOM      3  C   UNL     1      30.804  37.032 -21.744  1.00  0.00     0.007 C 
ENDROOT
BRANCH   2   4
ATOM      4  C   UNL     1      30.253  38.426 -23.767  1.00  0.00     0.159 C 
ATOM      5  O   UNL     1      29.557  39.399 -24.172  1.00  0.00    -0.295 OA
BRANCH   4   6
ATOM      6  C   UNL     1      31.305  37.892 -24.689  1.00  0.00     0.091 CG0
ATOM      7  G   UNL     1      32.728  37.952 -24.090  1.00  0.00     0.000 G0
ENDBRANCH   4   6
ENDBRANCH   2   4
BRANCH   3   8
ATOM      8  C   UNL     1      32.101  36.440 -22.150  1.00  0.00    -0.003 C 
ATOM      9  C   UNL     1      32.936  36.821 -23.124  1.00  0.00    -0.020 C 
BRANCH   9  10
ATOM     10  C   UNL     1      32.727  37.966 -24.087  1.00  0.00    -0.010 CG0
ATOM     11  C   UNL     1      33.736  37.813 -25.249  1.00  0.00     0.016 C 
ATOM     12  C   UNL     1      33.015  39.310 -23.380  1.00  0.00     0.016 C 
ATOM     13  G   UNL     1      31.301  37.896 -24.677  1.00  0.00     0.000 G0
ENDBRANCH   9  10
ENDBRANCH   3   8
TORSDOF 0
ENDMDL
MODEL 7
REMARK VINA RESULT:    -3.427      2.438      3.350
REMARK INTER + INTRA:          -3.479
REMARK INTER:                  -4.227
REMARK INTRA:                   0.748
REMARK UNBOUND:                 0.750
REMARK SMILES CC1=CC=CC(C)(C)CC1=O
REMARK SMILES IDX 1 1 2 2 3 3 10 4 11 5 9 6 4 8 5 9 6 10 7 11 8 12
REMARK H PARENT
REMARK Flexibility Score: 80.00
ROOT
ATOM      1  C   UNL     1      29.849  38.261 -21.747  1.00  0.00     0.048 C 
ATOM      2  C   UNL     1      31.191  37.918 -22.349  1.00  0.00    -0.008 C 
ATOM      3  C   UNL     1      31.699  38.766 -23.269  1.00  0.00     0.007 C 
ENDROOT
BRANCH   2   4
ATOM      4  C   UNL     1      31.810  36.634 -21.935  1.00  0.00     0.159 C 
ATOM      5  O   UNL     1      31.112  35.801 -21.293  1.00  0.00    -0.295 OA
BRANCH   4   6
ATOM      6  C   UNL     1      33.233  36.270 -22.227  1.00  0.00     0.091 CG0
ATOM      7  G   UNL     1      33.552  36.225 -23.738  1.00  0.00     0.000 G0
ENDBRANCH   4   6
ENDBRANCH   2   4
BRANCH   3   8
ATOM      8  C   UNL     1      32.962  38.686 -24.041  1.00  0.00    -0.003 C 
ATOM      9  C   UNL     1      33.751  37.628 -24.263  1.00  0.00    -0.020 C 
BRANCH   9  10
ATOM     10  C   UNL     1      33.543  36.228 -23.735  1.00  0.00    -0.010 CG0
ATOM     11  C   UNL     1      34.863  35.443 -23.910  1.00  0.00     0.016 C 
ATOM     12  C   UNL     1      32.449  35.510 -24.558  1.00  0.00     0.016 C 
ATOM     13  G   UNL     1      33.213  36.284 -22.226  1.00  0.00     0.000 G0
ENDBRANCH   9  10
ENDBRANCH   3   8
TORSDOF 0
ENDMDL
MODEL 8
REMARK VINA RESULT:    -3.368     16.411     17.193
REMARK INTER + INTRA:          -3.406
REMARK INTER:                  -4.175
REMARK INTRA:                   0.769
REMARK UNBOUND:                 0.750
REMARK SMILES CC1=CC=CC(C)(C)CC1=O
REMARK SMILES IDX 1 1 2 2 3 3 10 4 11 5 9 6 4 8 5 9 6 10 7 11 8 12
REMARK H PARENT
REMARK Flexibility Score: 80.00
ROOT
ATOM      1  C   UNL     1      23.997  23.189 -23.589  1.00  0.00     0.048 C 
ATOM      2  C   UNL     1      22.526  23.505 -23.724  1.00  0.00    -0.008 C 
ATOM      3  C   UNL     1      21.794  22.735 -24.557  1.00  0.00     0.007 C 
ENDROOT
BRANCH   2   4
ATOM      4  C   UNL     1      22.020  24.690 -22.986  1.00  0.00     0.159 C 
ATOM      5  O   UNL     1      22.851  25.476 -22.452  1.00  0.00    -0.295 OA
BRANCH   4   6
ATOM      6  C   UNL     1      20.564  25.002 -22.825  1.00  0.00     0.091 CG0
ATOM      7  G   UNL     1      19.828  25.189 -24.170  1.00  0.00     0.000 G0
ENDBRANCH   4   6
ENDBRANCH   2   4
BRANCH   3   8
ATOM      8  C   UNL     1      20.357  22.817 -24.911  1.00  0.00    -0.003 C 
ATOM      9  C   UNL     1      19.511  23.845 -24.773  1.00  0.00    -0.020 C 
BRANCH   9  10
ATOM     10  C   UNL     1      19.829  25.196 -24.177  1.00  0.00    -0.010 CG0
ATOM     11  C   UNL     1      18.497  25.932 -23.906  1.00  0.00     0.016 C 
ATOM     12  C   UNL     1      20.643  26.038 -25.185  1.00  0.00     0.016 C 
ATOM     13  G   UNL     1      20.559  25.011 -22.828  1.00  0.00     0.000 G0
ENDBRANCH   9  10
ENDBRANCH   3   8
TORSDOF 0
ENDMDL
MODEL 9
REMARK VINA RESULT:    -3.334     16.600     17.299
REMARK INTER + INTRA:          -3.363
REMARK INTER:                  -4.121
REMARK INTRA:                   0.758
REMARK UNBOUND:                 0.750
REMARK SMILES CC1=CC=CC(C)(C)CC1=O
REMARK SMILES IDX 1 1 2 2 3 3 10 4 11 5 9 6 4 8 5 9 6 10 7 11 8 12
REMARK H PARENT
REMARK Flexibility Score: 80.00
ROOT
ATOM      1  C   UNL     1      25.098  22.855 -23.640  1.00  0.00     0.048 C 
ATOM      2  C   UNL     1      23.791  23.452 -24.107  1.00  0.00    -0.008 C 
ATOM      3  C   UNL     1      23.117  24.237 -23.240  1.00  0.00     0.007 C 
ENDROOT
BRANCH   2   4
ATOM      4  C   UNL     1      23.315  23.064 -25.458  1.00  0.00     0.159 C 
ATOM      5  O   UNL     1      23.907  22.130 -26.067  1.00  0.00    -0.295 OA
BRANCH   4   6
ATOM      6  C   UNL     1      22.169  23.731 -26.154  1.00  0.00     0.091 CG0
ATOM      7  G   UNL     1      20.844  23.648 -25.364  1.00  0.00     0.000 G0
ENDBRANCH   4   6
ENDBRANCH   2   4
BRANCH   3   8
ATOM      8  C   UNL     1      21.817  24.931 -23.398  1.00  0.00    -0.003 C 
ATOM      9  C   UNL     1      20.835  24.695 -24.277  1.00  0.00    -0.020 C 
BRANCH   9  10
ATOM     10  C   UNL     1      20.839  23.650 -25.367  1.00  0.00    -0.010 CG0
ATOM     11  C   UNL     1      19.686  23.966 -26.347  1.00  0.00     0.016 C 
ATOM     12  C   UNL     1      20.579  22.253 -24.759  1.00  0.00     0.016 C 
ATOM     13  G   UNL     1      22.169  23.721 -26.151  1.00  0.00     0.000 G0
ENDBRANCH   9  10
ENDBRANCH   3   8
TORSDOF 0
ENDMDL
