MODEL 1
REMARK VINA RESULT:    -6.300      0.000      0.000
REMARK INTER + INTRA:         -10.960
REMARK INTER:                  -9.799
REMARK INTRA:                  -1.161
REMARK UNBOUND:                -1.161
REMARK SMILES COc1cc(CNC(=O)CCCCC=CC(C)C)ccc1O
REMARK SMILES IDX 11 1 12 2 13 3 14 4 15 5 16 6 17 7 18 8 10 9 8 10 9 11 7 12
REMARK SMILES IDX 6 14 5 15 4 16 19 17 3 18 20 19 21 20 2 21 1 22 22 23
REMARK H PARENT 7 13 22 24
REMARK Flexibility Score: inf
ROOT
ATOM      1  C   UNL     1      -6.004 -16.977  34.370  1.00  0.00     0.010 C 
ENDROOT
BRANCH   1   2
ATOM      2  C   UNL     1      -6.372 -18.255  33.595  1.00  0.00     0.005 C 
BRANCH   2   3
ATOM      3  C   UNL     1      -5.533 -18.461  32.321  1.00  0.00     0.027 C 
BRANCH   3   4
ATOM      4  C   UNL     1      -5.956 -17.531  31.210  1.00  0.00    -0.031 C 
ATOM      5  C   UNL     1      -5.589 -17.656  29.920  1.00  0.00    -0.028 C 
BRANCH   5   6
ATOM      6  C   UNL     1      -4.613 -18.688  29.393  1.00  0.00     0.005 C 
ATOM      7  C   UNL     1      -3.418 -17.983  28.746  1.00  0.00     0.012 C 
ATOM      8  C   UNL     1      -5.314 -19.600  28.383  1.00  0.00     0.012 C 
ENDBRANCH   5   6
ENDBRANCH   3   4
ENDBRANCH   2   3
ENDBRANCH   1   2
BRANCH   1   9
ATOM      9  C   UNL     1      -6.165 -17.146  35.888  1.00  0.00     0.100 C 
BRANCH   9  10
ATOM     10  C   UNL     1      -4.820 -17.284  36.531  1.00  0.00     0.220 C 
ATOM     11  O   UNL     1      -4.549 -16.610  37.559  1.00  0.00    -0.275 OA
ATOM     12  N   UNL     1      -3.832 -18.141  35.945  1.00  0.00    -0.352 N 
ATOM     13  H   UNL     1      -4.108 -18.741  35.136  1.00  0.00     0.163 HD
BRANCH  12  14
ATOM     14  C   UNL     1      -2.406 -17.988  36.221  1.00  0.00     0.151 C 
BRANCH  14  15
ATOM     15  C   UNL     1      -1.612 -18.576  35.088  1.00  0.00    -0.025 A 
ATOM     16  C   UNL     1      -0.263 -18.914  35.268  1.00  0.00     0.056 A 
ATOM     17  C   UNL     1      -2.192 -18.704  33.818  1.00  0.00     0.009 A 
ATOM     18  C   UNL     1       0.504 -19.403  34.192  1.00  0.00     0.160 A 
ATOM     19  C   UNL     1      -1.439 -19.190  32.747  1.00  0.00     0.050 A 
ATOM     20  C   UNL     1      -0.097 -19.541  32.927  1.00  0.00     0.157 A 
BRANCH  18  21
ATOM     21  O   UNL     1       1.857 -19.753  34.341  1.00  0.00    -0.493 OA
ATOM     22  C   UNL     1       2.945 -18.843  34.221  1.00  0.00     0.278 C 
ENDBRANCH  18  21
BRANCH  20  23
ATOM     23  O   UNL     1       0.624 -20.022  31.834  1.00  0.00    -0.504 OA
ATOM     24  H   UNL     1       1.072 -19.404  31.168  1.00  0.00     0.293 HD
ENDBRANCH  20  23
ENDBRANCH  14  15
ENDBRANCH  12  14
ENDBRANCH   9  10
ENDBRANCH   1   9
TORSDOF 10
ENDMDL
MODEL 2
REMARK VINA RESULT:    -5.744      1.672      5.474
REMARK INTER + INTRA:         -10.095
REMARK INTER:                  -9.859
REMARK INTRA:                  -0.236
REMARK UNBOUND:                -1.161
REMARK SMILES COc1cc(CNC(=O)CCCCC=CC(C)C)ccc1O
REMARK SMILES IDX 11 1 12 2 13 3 14 4 15 5 16 6 17 7 18 8 10 9 8 10 9 11 7 12
REMARK SMILES IDX 6 14 5 15 4 16 19 17 3 18 20 19 21 20 2 21 1 22 22 23
REMARK H PARENT 7 13 22 24
REMARK Flexibility Score: inf
ROOT
ATOM      1  C   UNL     1      -1.300 -18.997  32.248  1.00  0.00     0.010 C 
ENDROOT
BRANCH   1   2
ATOM      2  C   UNL     1      -2.694 -19.644  32.163  1.00  0.00     0.005 C 
BRANCH   2   3
ATOM      3  C   UNL     1      -3.679 -18.861  31.275  1.00  0.00     0.027 C 
BRANCH   3   4
ATOM      4  C   UNL     1      -3.064 -18.479  29.951  1.00  0.00    -0.031 C 
ATOM      5  C   UNL     1      -3.760 -18.184  28.836  1.00  0.00    -0.028 C 
BRANCH   5   6
ATOM      6  C   UNL     1      -5.266 -18.287  28.702  1.00  0.00     0.005 C 
ATOM      7  C   UNL     1      -5.932 -17.800  29.993  1.00  0.00     0.012 C 
ATOM      8  C   UNL     1      -5.665 -19.734  28.402  1.00  0.00     0.012 C 
ENDBRANCH   5   6
ENDBRANCH   3   4
ENDBRANCH   2   3
ENDBRANCH   1   2
BRANCH   1   9
ATOM      9  C   UNL     1      -0.355 -19.762  33.186  1.00  0.00     0.100 C 
BRANCH   9  10
ATOM     10  C   UNL     1      -0.523 -19.272  34.591  1.00  0.00     0.220 C 
ATOM     11  O   UNL     1       0.114 -19.827  35.524  1.00  0.00    -0.275 OA
ATOM     12  N   UNL     1      -1.446 -18.212  34.873  1.00  0.00    -0.352 N 
ATOM     13  H   UNL     1      -1.906 -17.725  34.072  1.00  0.00     0.163 HD
BRANCH  12  14
ATOM     14  C   UNL     1      -1.998 -17.996  36.207  1.00  0.00     0.151 C 
BRANCH  14  15
ATOM     15  C   UNL     1      -3.416 -17.511  36.089  1.00  0.00    -0.025 A 
ATOM     16  C   UNL     1      -3.992 -16.748  37.115  1.00  0.00     0.056 A 
ATOM     17  C   UNL     1      -4.199 -17.897  34.992  1.00  0.00     0.009 A 
ATOM     18  C   UNL     1      -5.342 -16.347  37.039  1.00  0.00     0.160 A 
ATOM     19  C   UNL     1      -5.536 -17.502  34.910  1.00  0.00     0.050 A 
ATOM     20  C   UNL     1      -6.110 -16.729  35.924  1.00  0.00     0.157 A 
BRANCH  18  21
ATOM     21  O   UNL     1      -5.947 -15.581  38.049  1.00  0.00    -0.493 OA
ATOM     22  C   UNL     1      -5.901 -14.160  38.123  1.00  0.00     0.278 C 
ENDBRANCH  18  21
BRANCH  20  23
ATOM     23  O   UNL     1      -7.449 -16.355  35.807  1.00  0.00    -0.504 OA
ATOM     24  H   UNL     1      -8.208 -16.987  36.030  1.00  0.00     0.293 HD
ENDBRANCH  20  23
ENDBRANCH  14  15
ENDBRANCH  12  14
ENDBRANCH   9  10
ENDBRANCH   1   9
TORSDOF 10
ENDMDL
MODEL 3
REMARK VINA RESULT:    -5.655      1.876      4.880
REMARK INTER + INTRA:          -9.956
REMARK INTER:                  -8.726
REMARK INTRA:                  -1.230
REMARK UNBOUND:                -1.161
REMARK SMILES COc1cc(CNC(=O)CCCCC=CC(C)C)ccc1O
REMARK SMILES IDX 11 1 12 2 13 3 14 4 15 5 16 6 17 7 18 8 10 9 8 10 9 11 7 12
REMARK SMILES IDX 6 14 5 15 4 16 19 17 3 18 20 19 21 20 2 21 1 22 22 23
REMARK H PARENT 7 13 22 24
REMARK Flexibility Score: inf
ROOT
ATOM      1  C   UNL     1      -5.618 -17.417  30.592  1.00  0.00     0.010 C 
ENDROOT
BRANCH   1   2
ATOM      2  C   UNL     1      -6.475 -18.235  31.574  1.00  0.00     0.005 C 
BRANCH   2   3
ATOM      3  C   UNL     1      -5.942 -18.211  33.018  1.00  0.00     0.027 C 
BRANCH   3   4
ATOM      4  C   UNL     1      -7.015 -17.829  34.010  1.00  0.00    -0.031 C 
ATOM      5  C   UNL     1      -6.812 -17.083  35.112  1.00  0.00    -0.028 C 
BRANCH   5   6
ATOM      6  C   UNL     1      -5.460 -16.593  35.591  1.00  0.00     0.005 C 
ATOM      7  C   UNL     1      -5.066 -17.339  36.868  1.00  0.00     0.012 C 
ATOM      8  C   UNL     1      -5.513 -15.084  35.842  1.00  0.00     0.012 C 
ENDBRANCH   5   6
ENDBRANCH   3   4
ENDBRANCH   2   3
ENDBRANCH   1   2
BRANCH   1   9
ATOM      9  C   UNL     1      -4.936 -18.297  29.535  1.00  0.00     0.100 C 
BRANCH   9  10
ATOM     10  C   UNL     1      -3.469 -18.390  29.816  1.00  0.00     0.220 C 
ATOM     11  O   UNL     1      -2.645 -18.278  28.871  1.00  0.00    -0.275 OA
ATOM     12  N   UNL     1      -3.011 -18.658  31.148  1.00  0.00    -0.352 N 
ATOM     13  H   UNL     1      -3.712 -18.675  31.922  1.00  0.00     0.163 HD
BRANCH  12  14
ATOM     14  C   UNL     1      -1.685 -19.206  31.420  1.00  0.00     0.151 C 
BRANCH  14  15
ATOM     15  C   UNL     1      -1.414 -19.147  32.898  1.00  0.00    -0.025 A 
ATOM     16  C   UNL     1      -0.108 -19.296  33.385  1.00  0.00     0.056 A 
ATOM     17  C   UNL     1      -2.480 -19.035  33.801  1.00  0.00     0.009 A 
ATOM     18  C   UNL     1       0.143 -19.308  34.772  1.00  0.00     0.160 A 
ATOM     19  C   UNL     1      -2.239 -19.044  35.177  1.00  0.00     0.050 A 
ATOM     20  C   UNL     1      -0.935 -19.178  35.666  1.00  0.00     0.157 A 
BRANCH  18  21
ATOM     21  O   UNL     1       1.440 -19.453  35.292  1.00  0.00    -0.493 OA
ATOM     22  C   UNL     1       2.628 -19.039  34.627  1.00  0.00     0.278 C 
ENDBRANCH  18  21
BRANCH  20  23
ATOM     23  O   UNL     1      -0.733 -19.184  37.047  1.00  0.00    -0.504 OA
ATOM     24  H   UNL     1       0.181 -19.042  37.459  1.00  0.00     0.293 HD
ENDBRANCH  20  23
ENDBRANCH  14  15
ENDBRANCH  12  14
ENDBRANCH   9  10
ENDBRANCH   1   9
TORSDOF 10
ENDMDL
MODEL 4
REMARK VINA RESULT:    -5.591      1.850      5.541
REMARK INTER + INTRA:          -9.857
REMARK INTER:                  -9.731
REMARK INTRA:                  -0.126
REMARK UNBOUND:                -1.161
REMARK SMILES COc1cc(CNC(=O)CCCCC=CC(C)C)ccc1O
REMARK SMILES IDX 11 1 12 2 13 3 14 4 15 5 16 6 17 7 18 8 10 9 8 10 9 11 7 12
REMARK SMILES IDX 6 14 5 15 4 16 19 17 3 18 20 19 21 20 2 21 1 22 22 23
REMARK H PARENT 7 13 22 24
REMARK Flexibility Score: inf
ROOT
ATOM      1  C   UNL     1      -2.403 -19.697  32.922  1.00  0.00     0.010 C 
ENDROOT
BRANCH   1   2
ATOM      2  C   UNL     1      -2.124 -19.004  31.576  1.00  0.00     0.005 C 
BRANCH   2   3
ATOM      3  C   UNL     1      -3.398 -18.710  30.763  1.00  0.00     0.027 C 
BRANCH   3   4
ATOM      4  C   UNL     1      -3.080 -18.263  29.357  1.00  0.00    -0.031 C 
ATOM      5  C   UNL     1      -3.995 -18.063  28.389  1.00  0.00    -0.028 C 
BRANCH   5   6
ATOM      6  C   UNL     1      -5.476 -18.351  28.523  1.00  0.00     0.005 C 
ATOM      7  C   UNL     1      -5.978 -17.844  29.878  1.00  0.00     0.012 C 
ATOM      8  C   UNL     1      -5.730 -19.854  28.381  1.00  0.00     0.012 C 
ENDBRANCH   5   6
ENDBRANCH   3   4
ENDBRANCH   2   3
ENDBRANCH   1   2
BRANCH   1   9
ATOM      9  C   UNL     1      -1.113 -20.079  33.663  1.00  0.00     0.100 C 
BRANCH   9  10
ATOM     10  C   UNL     1      -1.035 -19.344  34.964  1.00  0.00     0.220 C 
ATOM     11  O   UNL     1      -0.177 -19.682  35.820  1.00  0.00    -0.275 OA
ATOM     12  N   UNL     1      -1.970 -18.296  35.251  1.00  0.00    -0.352 N 
ATOM     13  H   UNL     1      -2.623 -17.989  34.496  1.00  0.00     0.163 HD
BRANCH  12  14
ATOM     14  C   UNL     1      -2.257 -17.860  36.615  1.00  0.00     0.151 C 
BRANCH  14  15
ATOM     15  C   UNL     1      -3.557 -17.104  36.634  1.00  0.00    -0.025 A 
ATOM     16  C   UNL     1      -4.559 -17.393  35.697  1.00  0.00     0.056 A 
ATOM     17  C   UNL     1      -3.737 -16.044  37.533  1.00  0.00     0.009 A 
ATOM     18  C   UNL     1      -5.752 -16.643  35.668  1.00  0.00     0.160 A 
ATOM     19  C   UNL     1      -4.918 -15.298  37.512  1.00  0.00     0.050 A 
ATOM     20  C   UNL     1      -5.925 -15.592  36.587  1.00  0.00     0.157 A 
BRANCH  18  21
ATOM     21  O   UNL     1      -6.776 -16.910  34.743  1.00  0.00    -0.493 OA
ATOM     22  C   UNL     1      -6.695 -17.882  33.707  1.00  0.00     0.278 C 
ENDBRANCH  18  21
BRANCH  20  23
ATOM     23  O   UNL     1      -7.090 -14.825  36.595  1.00  0.00    -0.504 OA
ATOM     24  H   UNL     1      -7.827 -14.969  37.276  1.00  0.00     0.293 HD
ENDBRANCH  20  23
ENDBRANCH  14  15
ENDBRANCH  12  14
ENDBRANCH   9  10
ENDBRANCH   1   9
TORSDOF 10
ENDMDL
MODEL 5
REMARK VINA RESULT:    -5.510      2.395      5.107
REMARK INTER + INTRA:          -9.731
REMARK INTER:                  -8.672
REMARK INTRA:                  -1.059
REMARK UNBOUND:                -1.161
REMARK SMILES COc1cc(CNC(=O)CCCCC=CC(C)C)ccc1O
REMARK SMILES IDX 11 1 12 2 13 3 14 4 15 5 16 6 17 7 18 8 10 9 8 10 9 11 7 12
REMARK SMILES IDX 6 14 5 15 4 16 19 17 3 18 20 19 21 20 2 21 1 22 22 23
REMARK H PARENT 7 13 22 24
REMARK Flexibility Score: inf
ROOT
ATOM      1  C   UNL     1      -6.505 -17.101  34.264  1.00  0.00     0.010 C 
ENDROOT
BRANCH   1   2
ATOM      2  C   UNL     1      -6.527 -17.425  35.769  1.00  0.00     0.005 C 
BRANCH   2   3
ATOM      3  C   UNL     1      -5.169 -17.209  36.461  1.00  0.00     0.027 C 
BRANCH   3   4
ATOM      4  C   UNL     1      -5.327 -16.629  37.846  1.00  0.00    -0.031 C 
ATOM      5  C   UNL     1      -5.425 -15.315  38.123  1.00  0.00    -0.028 C 
BRANCH   5   6
ATOM      6  C   UNL     1      -5.292 -14.202  37.104  1.00  0.00     0.005 C 
ATOM      7  C   UNL     1      -4.665 -12.971  37.765  1.00  0.00     0.012 C 
ATOM      8  C   UNL     1      -6.666 -13.861  36.522  1.00  0.00     0.012 C 
ENDBRANCH   5   6
ENDBRANCH   3   4
ENDBRANCH   2   3
ENDBRANCH   1   2
BRANCH   1   9
ATOM      9  C   UNL     1      -6.513 -18.365  33.392  1.00  0.00     0.100 C 
BRANCH   9  10
ATOM     10  C   UNL     1      -5.212 -18.489  32.661  1.00  0.00     0.220 C 
ATOM     11  O   UNL     1      -5.155 -18.203  31.438  1.00  0.00    -0.275 OA
ATOM     12  N   UNL     1      -4.053 -18.983  33.345  1.00  0.00    -0.352 N 
ATOM     13  H   UNL     1      -4.111 -19.144  34.375  1.00  0.00     0.163 HD
BRANCH  12  14
ATOM     14  C   UNL     1      -2.914 -19.555  32.632  1.00  0.00     0.151 C 
BRANCH  14  15
ATOM     15  C   UNL     1      -1.673 -19.398  33.465  1.00  0.00    -0.025 A 
ATOM     16  C   UNL     1      -0.425 -19.791  32.960  1.00  0.00     0.056 A 
ATOM     17  C   UNL     1      -1.770 -18.942  34.787  1.00  0.00     0.009 A 
ATOM     18  C   UNL     1       0.732 -19.708  33.761  1.00  0.00     0.160 A 
ATOM     19  C   UNL     1      -0.627 -18.855  35.586  1.00  0.00     0.050 A 
ATOM     20  C   UNL     1       0.621 -19.234  35.081  1.00  0.00     0.157 A 
BRANCH  18  21
ATOM     21  O   UNL     1       1.996 -20.092  33.284  1.00  0.00    -0.493 OA
ATOM     22  C   UNL     1       2.213 -20.989  32.200  1.00  0.00     0.278 C 
ENDBRANCH  18  21
BRANCH  20  23
ATOM     23  O   UNL     1       1.739 -19.134  35.909  1.00  0.00    -0.504 OA
ATOM     24  H   UNL     1       2.532 -18.547  35.678  1.00  0.00     0.293 HD
ENDBRANCH  20  23
ENDBRANCH  14  15
ENDBRANCH  12  14
ENDBRANCH   9  10
ENDBRANCH   1   9
TORSDOF 10
ENDMDL
MODEL 6
REMARK VINA RESULT:    -5.070      3.132      7.566
REMARK INTER + INTRA:          -9.047
REMARK INTER:                  -7.698
REMARK INTRA:                  -1.349
REMARK UNBOUND:                -1.161
REMARK SMILES COc1cc(CNC(=O)CCCCC=CC(C)C)ccc1O
REMARK SMILES IDX 11 1 12 2 13 3 14 4 15 5 16 6 17 7 18 8 10 9 8 10 9 11 7 12
REMARK SMILES IDX 6 14 5 15 4 16 19 17 3 18 20 19 21 20 2 21 1 22 22 23
REMARK H PARENT 7 13 22 24
REMARK Flexibility Score: inf
ROOT
ATOM      1  C   UNL     1       3.243 -20.067  31.857  1.00  0.00     0.010 C 
ENDROOT
BRANCH   1   2
ATOM      2  C   UNL     1       3.835 -21.461  32.133  1.00  0.00     0.005 C 
BRANCH   2   3
ATOM      3  C   UNL     1       2.769 -22.565  32.257  1.00  0.00     0.027 C 
BRANCH   3   4
ATOM      4  C   UNL     1       1.542 -22.084  32.992  1.00  0.00    -0.031 C 
ATOM      5  C   UNL     1       0.998 -22.695  34.062  1.00  0.00    -0.028 C 
BRANCH   5   6
ATOM      6  C   UNL     1       1.468 -24.016  34.637  1.00  0.00     0.005 C 
ATOM      7  C   UNL     1       0.323 -25.032  34.594  1.00  0.00     0.012 C 
ATOM      8  C   UNL     1       1.956 -23.814  36.074  1.00  0.00     0.012 C 
ENDBRANCH   5   6
ENDBRANCH   3   4
ENDBRANCH   2   3
ENDBRANCH   1   2
BRANCH   1   9
ATOM      9  C   UNL     1       3.795 -18.997  32.810  1.00  0.00     0.100 C 
BRANCH   9  10
ATOM     10  C   UNL     1       3.005 -18.988  34.081  1.00  0.00     0.220 C 
ATOM     11  O   UNL     1       3.552 -19.343  35.157  1.00  0.00    -0.275 OA
ATOM     12  N   UNL     1       1.618 -18.627  34.058  1.00  0.00    -0.352 N 
ATOM     13  H   UNL     1       1.210 -18.269  33.166  1.00  0.00     0.163 HD
BRANCH  12  14
ATOM     14  C   UNL     1       0.693 -19.023  35.117  1.00  0.00     0.151 C 
BRANCH  14  15
ATOM     15  C   UNL     1      -0.714 -18.993  34.588  1.00  0.00    -0.025 A 
ATOM     16  C   UNL     1      -1.709 -18.270  35.261  1.00  0.00     0.056 A 
ATOM     17  C   UNL     1      -1.058 -19.763  33.469  1.00  0.00     0.009 A 
ATOM     18  C   UNL     1      -3.044 -18.292  34.807  1.00  0.00     0.160 A 
ATOM     19  C   UNL     1      -2.377 -19.789  33.012  1.00  0.00     0.050 A 
ATOM     20  C   UNL     1      -3.370 -19.058  33.673  1.00  0.00     0.157 A 
BRANCH  18  21
ATOM     21  O   UNL     1      -4.063 -17.577  35.458  1.00  0.00    -0.493 OA
ATOM     22  C   UNL     1      -3.965 -17.050  36.776  1.00  0.00     0.278 C 
ENDBRANCH  18  21
BRANCH  20  23
ATOM     23  O   UNL     1      -4.677 -19.109  33.188  1.00  0.00    -0.504 OA
ATOM     24  H   UNL     1      -5.098 -18.334  32.688  1.00  0.00     0.293 HD
ENDBRANCH  20  23
ENDBRANCH  14  15
ENDBRANCH  12  14
ENDBRANCH   9  10
ENDBRANCH   1   9
TORSDOF 10
ENDMDL
MODEL 7
REMARK VINA RESULT:    -4.906      2.835      4.356
REMARK INTER + INTRA:          -8.791
REMARK INTER:                  -8.294
REMARK INTRA:                  -0.497
REMARK UNBOUND:                -1.161
REMARK SMILES COc1cc(CNC(=O)CCCCC=CC(C)C)ccc1O
REMARK SMILES IDX 11 1 12 2 13 3 14 4 15 5 16 6 17 7 18 8 10 9 8 10 9 11 7 12
REMARK SMILES IDX 6 14 5 15 4 16 19 17 3 18 20 19 21 20 2 21 1 22 22 23
REMARK H PARENT 7 13 22 24
REMARK Flexibility Score: inf
ROOT
ATOM      1  C   UNL     1      -1.893 -18.606  34.152  1.00  0.00     0.010 C 
ENDROOT
BRANCH   1   2
ATOM      2  C   UNL     1      -2.172 -19.617  33.024  1.00  0.00     0.005 C 
BRANCH   2   3
ATOM      3  C   UNL     1      -3.254 -19.147  32.035  1.00  0.00     0.027 C 
BRANCH   3   4
ATOM      4  C   UNL     1      -2.662 -18.709  30.717  1.00  0.00    -0.031 C 
ATOM      5  C   UNL     1      -3.376 -18.418  29.613  1.00  0.00    -0.028 C 
BRANCH   5   6
ATOM      6  C   UNL     1      -4.877 -18.580  29.483  1.00  0.00     0.005 C 
ATOM      7  C   UNL     1      -5.291 -18.386  28.022  1.00  0.00     0.012 C 
ATOM      8  C   UNL     1      -5.590 -17.569  30.386  1.00  0.00     0.012 C 
ENDBRANCH   5   6
ENDBRANCH   3   4
ENDBRANCH   2   3
ENDBRANCH   1   2
BRANCH   1   9
ATOM      9  C   UNL     1      -1.357 -19.281  35.424  1.00  0.00     0.100 C 
BRANCH   9  10
ATOM     10  C   UNL     1       0.139 -19.329  35.384  1.00  0.00     0.220 C 
ATOM     11  O   UNL     1       0.761 -18.650  34.527  1.00  0.00    -0.275 OA
ATOM     12  N   UNL     1       0.850 -20.187  36.286  1.00  0.00    -0.352 N 
ATOM     13  H   UNL     1       0.313 -20.683  37.031  1.00  0.00     0.163 HD
BRANCH  12  14
ATOM     14  C   UNL     1       2.215 -20.633  36.021  1.00  0.00     0.151 C 
BRANCH  14  15
ATOM     15  C   UNL     1       2.210 -21.599  34.868  1.00  0.00    -0.025 A 
ATOM     16  C   UNL     1       3.039 -21.382  33.758  1.00  0.00     0.056 A 
ATOM     17  C   UNL     1       1.309 -22.672  34.858  1.00  0.00     0.009 A 
ATOM     18  C   UNL     1       2.989 -22.247  32.646  1.00  0.00     0.160 A 
ATOM     19  C   UNL     1       1.256 -23.534  33.760  1.00  0.00     0.050 A 
ATOM     20  C   UNL     1       2.090 -23.329  32.657  1.00  0.00     0.157 A 
BRANCH  18  21
ATOM     21  O   UNL     1       3.808 -22.057  31.520  1.00  0.00    -0.493 OA
ATOM     22  C   UNL     1       4.125 -20.790  30.955  1.00  0.00     0.278 C 
ENDBRANCH  18  21
BRANCH  20  23
ATOM     23  O   UNL     1       2.009 -24.211  31.579  1.00  0.00    -0.504 OA
ATOM     24  H   UNL     1       1.221 -24.834  31.450  1.00  0.00     0.293 HD
ENDBRANCH  20  23
ENDBRANCH  14  15
ENDBRANCH  12  14
ENDBRANCH   9  10
ENDBRANCH   1   9
TORSDOF 10
ENDMDL
MODEL 8
REMARK VINA RESULT:    -4.861      3.424      4.871
REMARK INTER + INTRA:          -8.721
REMARK INTER:                  -8.020
REMARK INTRA:                  -0.701
REMARK UNBOUND:                -1.161
REMARK SMILES COc1cc(CNC(=O)CCCCC=CC(C)C)ccc1O
REMARK SMILES IDX 11 1 12 2 13 3 14 4 15 5 16 6 17 7 18 8 10 9 8 10 9 11 7 12
REMARK SMILES IDX 6 14 5 15 4 16 19 17 3 18 20 19 21 20 2 21 1 22 22 23
REMARK H PARENT 7 13 22 24
REMARK Flexibility Score: inf
ROOT
ATOM      1  C   UNL     1      -1.425 -19.475  33.289  1.00  0.00     0.010 C 
ENDROOT
BRANCH   1   2
ATOM      2  C   UNL     1      -2.948 -19.335  33.472  1.00  0.00     0.005 C 
BRANCH   2   3
ATOM      3  C   UNL     1      -3.731 -19.385  32.149  1.00  0.00     0.027 C 
BRANCH   3   4
ATOM      4  C   UNL     1      -2.963 -18.752  31.013  1.00  0.00    -0.031 C 
ATOM      5  C   UNL     1      -3.503 -18.362  29.843  1.00  0.00    -0.028 C 
BRANCH   5   6
ATOM      6  C   UNL     1      -4.946 -18.586  29.436  1.00  0.00     0.005 C 
ATOM      7  C   UNL     1      -5.108 -18.303  27.940  1.00  0.00     0.012 C 
ATOM      8  C   UNL     1      -5.866 -17.680  30.259  1.00  0.00     0.012 C 
ENDBRANCH   5   6
ENDBRANCH   3   4
ENDBRANCH   2   3
ENDBRANCH   1   2
BRANCH   1   9
ATOM      9  C   UNL     1      -0.644 -18.360  33.999  1.00  0.00     0.100 C 
BRANCH   9  10
ATOM     10  C   UNL     1       0.610 -18.917  34.597  1.00  0.00     0.220 C 
ATOM     11  O   UNL     1       1.709 -18.343  34.386  1.00  0.00    -0.275 OA
ATOM     12  N   UNL     1       0.560 -20.128  35.362  1.00  0.00    -0.352 N 
ATOM     13  H   UNL     1      -0.373 -20.543  35.581  1.00  0.00     0.163 HD
BRANCH  12  14
ATOM     14  C   UNL     1       1.741 -20.961  35.579  1.00  0.00     0.151 C 
BRANCH  14  15
ATOM     15  C   UNL     1       1.824 -22.001  34.497  1.00  0.00    -0.025 A 
ATOM     16  C   UNL     1       1.509 -23.339  34.774  1.00  0.00     0.056 A 
ATOM     17  C   UNL     1       2.306 -21.654  33.228  1.00  0.00     0.009 A 
ATOM     18  C   UNL     1       1.649 -24.330  33.781  1.00  0.00     0.160 A 
ATOM     19  C   UNL     1       2.445 -22.629  32.238  1.00  0.00     0.050 A 
ATOM     20  C   UNL     1       2.119 -23.963  32.507  1.00  0.00     0.157 A 
BRANCH  18  21
ATOM     21  O   UNL     1       1.340 -25.678  34.027  1.00  0.00    -0.493 OA
ATOM     22  C   UNL     1       0.339 -26.125  34.934  1.00  0.00     0.278 C 
ENDBRANCH  18  21
BRANCH  20  23
ATOM     23  O   UNL     1       2.272 -24.909  31.494  1.00  0.00    -0.504 OA
ATOM     24  H   UNL     1       1.723 -24.883  30.643  1.00  0.00     0.293 HD
ENDBRANCH  20  23
ENDBRANCH  14  15
ENDBRANCH  12  14
ENDBRANCH   9  10
ENDBRANCH   1   9
TORSDOF 10
ENDMDL
MODEL 9
REMARK VINA RESULT:    -4.853      3.833      6.171
REMARK INTER + INTRA:          -8.709
REMARK INTER:                  -7.999
REMARK INTRA:                  -0.709
REMARK UNBOUND:                -1.161
REMARK SMILES COc1cc(CNC(=O)CCCCC=CC(C)C)ccc1O
REMARK SMILES IDX 11 1 12 2 13 3 14 4 15 5 16 6 17 7 18 8 10 9 8 10 9 11 7 12
REMARK SMILES IDX 6 14 5 15 4 16 19 17 3 18 20 19 21 20 2 21 1 22 22 23
REMARK H PARENT 7 13 22 24
REMARK Flexibility Score: inf
ROOT
ATOM      1  C   UNL     1      -2.528 -17.855  35.073  1.00  0.00     0.010 C 
ENDROOT
BRANCH   1   2
ATOM      2  C   UNL     1      -3.119 -17.501  36.450  1.00  0.00     0.005 C 
BRANCH   2   3
ATOM      3  C   UNL     1      -4.579 -17.019  36.384  1.00  0.00     0.027 C 
BRANCH   3   4
ATOM      4  C   UNL     1      -5.108 -16.631  37.744  1.00  0.00    -0.031 C 
ATOM      5  C   UNL     1      -5.440 -15.379  38.112  1.00  0.00    -0.028 C 
BRANCH   5   6
ATOM      6  C   UNL     1      -5.241 -14.143  37.258  1.00  0.00     0.005 C 
ATOM      7  C   UNL     1      -4.646 -13.019  38.110  1.00  0.00     0.012 C 
ATOM      8  C   UNL     1      -6.578 -13.710  36.650  1.00  0.00     0.012 C 
ENDBRANCH   5   6
ENDBRANCH   3   4
ENDBRANCH   2   3
ENDBRANCH   1   2
BRANCH   1   9
ATOM      9  C   UNL     1      -1.850 -19.233  35.063  1.00  0.00     0.100 C 
BRANCH   9  10
ATOM     10  C   UNL     1      -0.678 -19.218  34.132  1.00  0.00     0.220 C 
ATOM     11  O   UNL     1      -0.870 -19.177  32.889  1.00  0.00    -0.275 OA
ATOM     12  N   UNL     1       0.653 -19.304  34.657  1.00  0.00    -0.352 N 
ATOM     13  H   UNL     1       0.785 -19.265  35.692  1.00  0.00     0.163 HD
BRANCH  12  14
ATOM     14  C   UNL     1       1.783 -19.749  33.845  1.00  0.00     0.151 C 
BRANCH  14  15
ATOM     15  C   UNL     1       1.714 -21.240  33.667  1.00  0.00    -0.025 A 
ATOM     16  C   UNL     1       1.590 -22.082  34.782  1.00  0.00     0.056 A 
ATOM     17  C   UNL     1       1.865 -21.801  32.392  1.00  0.00     0.009 A 
ATOM     18  C   UNL     1       1.592 -23.483  34.627  1.00  0.00     0.160 A 
ATOM     19  C   UNL     1       1.866 -23.189  32.230  1.00  0.00     0.050 A 
ATOM     20  C   UNL     1       1.729 -24.031  33.338  1.00  0.00     0.157 A 
BRANCH  18  21
ATOM     21  O   UNL     1       1.467 -24.353  35.723  1.00  0.00    -0.493 OA
ATOM     22  C   UNL     1       2.522 -24.679  36.620  1.00  0.00     0.278 C 
ENDBRANCH  18  21
BRANCH  20  23
ATOM     23  O   UNL     1       1.735 -25.412  33.137  1.00  0.00    -0.504 OA
ATOM     24  H   UNL     1       1.236 -25.848  32.371  1.00  0.00     0.293 HD
ENDBRANCH  20  23
ENDBRANCH  14  15
ENDBRANCH  12  14
ENDBRANCH   9  10
ENDBRANCH   1   9
TORSDOF 10
ENDMDL
