MODEL 1
REMARK VINA RESULT:    -5.149      0.000      0.000
REMARK INTER + INTRA:          -8.619
REMARK INTER:                  -7.556
REMARK INTRA:                  -1.063
REMARK UNBOUND:                -1.063
REMARK SMILES O=c1c(O[C@@H]2O[C@@H](CO)[C@@H](O)[C@@H](O)[C@H]2O)c(-c2ccc(O)c(O)c2)oc2cc(O)cc(O)c12
REMARK SMILES IDX 4 1 3 2 16 3 25 4 2 5 26 6 1 7 33 8 27 9 31 10 28 11 30 12
REMARK SMILES IDX 17 13 18 14 19 15 20 16 24 17 22 18 21 19 23 21 32 23 29 25
REMARK SMILES IDX 5 27 14 28 6 29 12 30 7 31 10 32 15 33 13 35 8 37 9 38 11 40
REMARK H PARENT 21 20 23 22 32 24 29 26 15 34 13 36 9 39 11 41
REMARK Flexibility Score: inf
ROOT
ATOM      1  O   UNL     1       4.252  -3.345  -8.115  1.00  0.00    -0.454 OA
ENDROOT
BRANCH   1   2
ATOM      2  C   UNL     1       2.944  -3.010  -8.490  1.00  0.00     0.214 A 
ATOM      3  C   UNL     1       2.632  -1.781  -9.103  1.00  0.00     0.180 A 
ATOM      4  O   UNL     1       1.390  -1.546  -9.507  1.00  0.00    -0.452 OA
ATOM      5  C   UNL     1       1.917  -3.932  -8.258  1.00  0.00     0.239 A 
ATOM      6  C   UNL     1       0.392  -2.406  -9.344  1.00  0.00     0.146 A 
ATOM      7  O   UNL     1       2.192  -4.984  -7.624  1.00  0.00    -0.285 OA
ATOM      8  C   UNL     1       0.606  -3.664  -8.722  1.00  0.00     0.111 A 
ATOM      9  C   UNL     1      -0.882  -2.038  -9.785  1.00  0.00     0.094 A 
ATOM     10  C   UNL     1      -0.502  -4.556  -8.592  1.00  0.00     0.134 A 
ATOM     11  C   UNL     1      -1.964  -2.895  -9.608  1.00  0.00     0.123 A 
ATOM     12  C   UNL     1      -1.773  -4.142  -9.011  1.00  0.00     0.093 A 
BRANCH   3  13
ATOM     13  C   UNL     1       3.638  -0.717  -9.299  1.00  0.00     0.025 A 
ATOM     14  C   UNL     1       4.849  -1.016  -9.941  1.00  0.00     0.016 A 
ATOM     15  C   UNL     1       5.814  -0.022 -10.125  1.00  0.00     0.051 A 
ATOM     16  C   UNL     1       5.577   1.284  -9.686  1.00  0.00     0.157 A 
ATOM     17  C   UNL     1       3.389   0.601  -8.881  1.00  0.00     0.062 A 
ATOM     18  C   UNL     1       4.356   1.600  -9.064  1.00  0.00     0.158 A 
BRANCH  16  19
ATOM     19  O   UNL     1       6.561   2.253  -9.877  1.00  0.00    -0.504 OA
ATOM     20  H   UNL     1       7.405   2.066 -10.405  1.00  0.00     0.293 HD
ENDBRANCH  16  19
BRANCH  18  21
ATOM     21  O   UNL     1       4.110   2.902  -8.630  1.00  0.00    -0.504 OA
ATOM     22  H   UNL     1       3.284   3.412  -8.924  1.00  0.00     0.293 HD
ENDBRANCH  18  21
ENDBRANCH   3  13
BRANCH  10  23
ATOM     23  O   UNL     1      -0.407  -5.855  -8.087  1.00  0.00    -0.507 OA
ATOM     24  H   UNL     1      -1.180  -6.495  -7.981  1.00  0.00     0.293 HD
ENDBRANCH  10  23
BRANCH  11  25
ATOM     25  O   UNL     1      -3.230  -2.500 -10.038  1.00  0.00    -0.508 OA
ATOM     26  H   UNL     1      -4.037  -2.551  -9.426  1.00  0.00     0.293 HD
ENDBRANCH  11  25
ENDBRANCH   1   2
BRANCH   1  27
ATOM     27  C   UNL     1       4.811  -2.957  -6.860  1.00  0.00     0.339 C 
ATOM     28  C   UNL     1       5.330  -4.215  -6.140  1.00  0.00     0.214 C 
ATOM     29  O   UNL     1       5.875  -2.051  -7.096  1.00  0.00    -0.332 OA
ATOM     30  C   UNL     1       5.994  -3.852  -4.794  1.00  0.00     0.180 C 
ATOM     31  C   UNL     1       6.423  -1.536  -5.891  1.00  0.00     0.179 C 
ATOM     32  C   UNL     1       6.963  -2.663  -4.960  1.00  0.00     0.177 C 
BRANCH  28  33
ATOM     33  O   UNL     1       4.319  -5.178  -5.971  1.00  0.00    -0.384 OA
ATOM     34  H   UNL     1       3.474  -4.705  -5.755  1.00  0.00     0.211 HD
ENDBRANCH  28  33
BRANCH  30  35
ATOM     35  O   UNL     1       5.066  -3.632  -3.754  1.00  0.00    -0.387 OA
ATOM     36  H   UNL     1       5.538  -3.237  -2.981  1.00  0.00     0.211 HD
ENDBRANCH  30  35
BRANCH  31  37
ATOM     37  C   UNL     1       5.489  -0.496  -5.228  1.00  0.00     0.191 C 
BRANCH  37  38
ATOM     38  O   UNL     1       5.154  -0.899  -3.925  1.00  0.00    -0.394 OA
ATOM     39  H   UNL     1       4.200  -1.172  -3.935  1.00  0.00     0.210 HD
ENDBRANCH  37  38
ENDBRANCH  31  37
BRANCH  32  40
ATOM     40  O   UNL     1       7.329  -2.160  -3.700  1.00  0.00    -0.387 OA
ATOM     41  H   UNL     1       7.193  -2.895  -3.047  1.00  0.00     0.211 HD
ENDBRANCH  32  40
ENDBRANCH   1  27
TORSDOF 12
ENDMDL
MODEL 2
REMARK VINA RESULT:    -5.053      2.420      6.168
REMARK INTER + INTRA:          -8.479
REMARK INTER:                  -7.474
REMARK INTRA:                  -1.005
REMARK UNBOUND:                -1.063
REMARK SMILES O=c1c(O[C@@H]2O[C@@H](CO)[C@@H](O)[C@@H](O)[C@H]2O)c(-c2ccc(O)c(O)c2)oc2cc(O)cc(O)c12
REMARK SMILES IDX 4 1 3 2 16 3 25 4 2 5 26 6 1 7 33 8 27 9 31 10 28 11 30 12
REMARK SMILES IDX 17 13 18 14 19 15 20 16 24 17 22 18 21 19 23 21 32 23 29 25
REMARK SMILES IDX 5 27 14 28 6 29 12 30 7 31 10 32 15 33 13 35 8 37 9 38 11 40
REMARK H PARENT 21 20 23 22 32 24 29 26 15 34 13 36 9 39 11 41
REMARK Flexibility Score: inf
ROOT
ATOM      1  O   UNL     1       4.904  -0.060  -8.568  1.00  0.00    -0.454 OA
ENDROOT
BRANCH   1   2
ATOM      2  C   UNL     1       4.173   1.109  -8.815  1.00  0.00     0.214 A 
ATOM      3  C   UNL     1       2.781   1.090  -9.028  1.00  0.00     0.180 A 
ATOM      4  O   UNL     1       2.126   2.234  -9.183  1.00  0.00    -0.452 OA
ATOM      5  C   UNL     1       4.846   2.336  -8.840  1.00  0.00     0.239 A 
ATOM      6  C   UNL     1       2.716   3.423  -9.174  1.00  0.00     0.146 A 
ATOM      7  O   UNL     1       6.101   2.329  -8.743  1.00  0.00    -0.285 OA
ATOM      8  C   UNL     1       4.117   3.541  -8.982  1.00  0.00     0.111 A 
ATOM      9  C   UNL     1       1.927   4.559  -9.375  1.00  0.00     0.094 A 
ATOM     10  C   UNL     1       4.693   4.848  -8.962  1.00  0.00     0.134 A 
ATOM     11  C   UNL     1       2.506   5.824  -9.404  1.00  0.00     0.123 A 
ATOM     12  C   UNL     1       3.881   5.963  -9.204  1.00  0.00     0.093 A 
BRANCH   3  13
ATOM     13  C   UNL     1       2.010  -0.167  -9.111  1.00  0.00     0.025 A 
ATOM     14  C   UNL     1       2.393  -1.157 -10.028  1.00  0.00     0.016 A 
ATOM     15  C   UNL     1       1.667  -2.348 -10.124  1.00  0.00     0.051 A 
ATOM     16  C   UNL     1       0.561  -2.571  -9.299  1.00  0.00     0.157 A 
ATOM     17  C   UNL     1       0.914  -0.402  -8.264  1.00  0.00     0.062 A 
ATOM     18  C   UNL     1       0.183  -1.595  -8.360  1.00  0.00     0.158 A 
BRANCH  16  19
ATOM     19  O   UNL     1      -0.147  -3.765  -9.422  1.00  0.00    -0.504 OA
ATOM     20  H   UNL     1      -0.207  -4.268 -10.300  1.00  0.00     0.293 HD
ENDBRANCH  16  19
BRANCH  18  21
ATOM     21  O   UNL     1      -0.914  -1.814  -7.528  1.00  0.00    -0.504 OA
ATOM     22  H   UNL     1      -1.447  -2.675  -7.568  1.00  0.00     0.293 HD
ENDBRANCH  18  21
ENDBRANCH   3  13
BRANCH  10  23
ATOM     23  O   UNL     1       6.039   5.108  -8.689  1.00  0.00    -0.507 OA
ATOM     24  H   UNL     1       6.526   5.959  -8.927  1.00  0.00     0.293 HD
ENDBRANCH  10  23
BRANCH  11  25
ATOM     25  O   UNL     1       1.704   6.942  -9.626  1.00  0.00    -0.508 OA
ATOM     26  H   UNL     1       1.134   7.340  -8.888  1.00  0.00     0.293 HD
ENDBRANCH  11  25
ENDBRANCH   1   2
BRANCH   1  27
ATOM     27  C   UNL     1       5.517  -0.326  -7.306  1.00  0.00     0.339 C 
ATOM     28  C   UNL     1       5.082  -1.724  -6.830  1.00  0.00     0.214 C 
ATOM     29  O   UNL     1       6.924  -0.276  -7.464  1.00  0.00    -0.332 OA
ATOM     30  C   UNL     1       5.755  -2.091  -5.489  1.00  0.00     0.180 C 
ATOM     31  C   UNL     1       7.612  -0.431  -6.231  1.00  0.00     0.179 C 
ATOM     32  C   UNL     1       7.266  -1.778  -5.528  1.00  0.00     0.177 C 
BRANCH  28  33
ATOM     33  O   UNL     1       3.682  -1.840  -6.750  1.00  0.00    -0.384 OA
ATOM     34  H   UNL     1       3.459  -2.795  -6.604  1.00  0.00     0.211 HD
ENDBRANCH  28  33
BRANCH  30  35
ATOM     35  O   UNL     1       5.127  -1.506  -4.370  1.00  0.00    -0.387 OA
ATOM     36  H   UNL     1       5.637  -1.739  -3.557  1.00  0.00     0.211 HD
ENDBRANCH  30  35
BRANCH  31  37
ATOM     37  C   UNL     1       7.519   0.838  -5.353  1.00  0.00     0.191 C 
BRANCH  37  38
ATOM     38  O   UNL     1       7.701   1.991  -6.136  1.00  0.00    -0.394 OA
ATOM     39  H   UNL     1       7.667   1.712  -7.087  1.00  0.00     0.210 HD
ENDBRANCH  37  38
ENDBRANCH  31  37
BRANCH  32  40
ATOM     40  O   UNL     1       7.803  -1.835  -4.231  1.00  0.00    -0.387 OA
ATOM     41  H   UNL     1       7.630  -0.954  -3.809  1.00  0.00     0.211 HD
ENDBRANCH  32  40
ENDBRANCH   1  27
TORSDOF 12
ENDMDL
MODEL 3
REMARK VINA RESULT:    -4.976      1.561      1.934
REMARK INTER + INTRA:          -8.366
REMARK INTER:                  -7.732
REMARK INTRA:                  -0.634
REMARK UNBOUND:                -1.063
REMARK SMILES O=c1c(O[C@@H]2O[C@@H](CO)[C@@H](O)[C@@H](O)[C@H]2O)c(-c2ccc(O)c(O)c2)oc2cc(O)cc(O)c12
REMARK SMILES IDX 4 1 3 2 16 3 25 4 2 5 26 6 1 7 33 8 27 9 31 10 28 11 30 12
REMARK SMILES IDX 17 13 18 14 19 15 20 16 24 17 22 18 21 19 23 21 32 23 29 25
REMARK SMILES IDX 5 27 14 28 6 29 12 30 7 31 10 32 15 33 13 35 8 37 9 38 11 40
REMARK H PARENT 21 20 23 22 32 24 29 26 15 34 13 36 9 39 11 41
REMARK Flexibility Score: inf
ROOT
ATOM      1  O   UNL     1       4.554  -1.797  -8.454  1.00  0.00    -0.454 OA
ENDROOT
BRANCH   1   2
ATOM      2  C   UNL     1       3.169  -1.837  -8.666  1.00  0.00     0.214 A 
ATOM      3  C   UNL     1       2.449  -0.714  -9.119  1.00  0.00     0.180 A 
ATOM      4  O   UNL     1       1.152  -0.827  -9.376  1.00  0.00    -0.452 OA
ATOM      5  C   UNL     1       2.482  -3.033  -8.431  1.00  0.00     0.239 A 
ATOM      6  C   UNL     1       0.466  -1.952  -9.206  1.00  0.00     0.146 A 
ATOM      7  O   UNL     1       3.120  -3.999  -7.936  1.00  0.00    -0.285 OA
ATOM      8  C   UNL     1       1.104  -3.131  -8.738  1.00  0.00     0.111 A 
ATOM      9  C   UNL     1      -0.903  -1.945  -9.483  1.00  0.00     0.094 A 
ATOM     10  C   UNL     1       0.320  -4.315  -8.593  1.00  0.00     0.134 A 
ATOM     11  C   UNL     1      -1.667  -3.092  -9.291  1.00  0.00     0.123 A 
ATOM     12  C   UNL     1      -1.058  -4.266  -8.843  1.00  0.00     0.093 A 
BRANCH   3  13
ATOM     13  C   UNL     1       3.079   0.610  -9.302  1.00  0.00     0.025 A 
ATOM     14  C   UNL     1       4.318   0.705  -9.952  1.00  0.00     0.016 A 
ATOM     15  C   UNL     1       4.930   1.949 -10.124  1.00  0.00     0.051 A 
ATOM     16  C   UNL     1       4.309   3.114  -9.663  1.00  0.00     0.157 A 
ATOM     17  C   UNL     1       2.441   1.782  -8.862  1.00  0.00     0.062 A 
ATOM     18  C   UNL     1       3.055   3.032  -9.032  1.00  0.00     0.158 A 
BRANCH  16  19
ATOM     19  O   UNL     1       4.947   4.340  -9.843  1.00  0.00    -0.504 OA
ATOM     20  H   UNL     1       4.612   5.191  -9.405  1.00  0.00     0.293 HD
ENDBRANCH  16  19
BRANCH  18  21
ATOM     21  O   UNL     1       2.425   4.189  -8.577  1.00  0.00    -0.504 OA
ATOM     22  H   UNL     1       2.508   4.495  -7.614  1.00  0.00     0.293 HD
ENDBRANCH  18  21
ENDBRANCH   3  13
BRANCH  10  23
ATOM     23  O   UNL     1       0.840  -5.562  -8.233  1.00  0.00    -0.507 OA
ATOM     24  H   UNL     1       1.454  -6.122  -8.805  1.00  0.00     0.293 HD
ENDBRANCH  10  23
BRANCH  11  25
ATOM     25  O   UNL     1      -3.035  -3.058  -9.554  1.00  0.00    -0.508 OA
ATOM     26  H   UNL     1      -3.639  -3.840  -9.326  1.00  0.00     0.293 HD
ENDBRANCH  11  25
ENDBRANCH   1   2
BRANCH   1  27
ATOM     27  C   UNL     1       5.140  -1.090  -7.361  1.00  0.00     0.339 C 
ATOM     28  C   UNL     1       5.497  -2.099  -6.255  1.00  0.00     0.214 C 
ATOM     29  O   UNL     1       6.307  -0.430  -7.820  1.00  0.00    -0.332 OA
ATOM     30  C   UNL     1       6.184  -1.398  -5.062  1.00  0.00     0.180 C 
ATOM     31  C   UNL     1       6.899   0.381  -6.816  1.00  0.00     0.179 C 
ATOM     32  C   UNL     1       7.290  -0.439  -5.550  1.00  0.00     0.177 C 
BRANCH  28  33
ATOM     33  O   UNL     1       4.377  -2.841  -5.838  1.00  0.00    -0.384 OA
ATOM     34  H   UNL     1       3.813  -3.021  -6.634  1.00  0.00     0.211 HD
ENDBRANCH  28  33
BRANCH  30  35
ATOM     35  O   UNL     1       5.278  -0.756  -4.193  1.00  0.00    -0.387 OA
ATOM     36  H   UNL     1       5.010   0.108  -4.591  1.00  0.00     0.211 HD
ENDBRANCH  30  35
BRANCH  31  37
ATOM     37  C   UNL     1       6.089   1.675  -6.565  1.00  0.00     0.191 C 
BRANCH  37  38
ATOM     38  O   UNL     1       6.942   2.717  -6.163  1.00  0.00    -0.394 OA
ATOM     39  H   UNL     1       7.144   3.261  -6.966  1.00  0.00     0.210 HD
ENDBRANCH  37  38
ENDBRANCH  31  37
BRANCH  32  40
ATOM     40  O   UNL     1       7.699   0.399  -4.499  1.00  0.00    -0.387 OA
ATOM     41  H   UNL     1       7.899  -0.189  -3.724  1.00  0.00     0.211 HD
ENDBRANCH  32  40
ENDBRANCH   1  27
TORSDOF 12
ENDMDL
MODEL 4
REMARK VINA RESULT:    -4.620      2.377      7.462
REMARK INTER + INTRA:          -7.844
REMARK INTER:                  -6.412
REMARK INTRA:                  -1.432
REMARK UNBOUND:                -1.063
REMARK SMILES O=c1c(O[C@@H]2O[C@@H](CO)[C@@H](O)[C@@H](O)[C@H]2O)c(-c2ccc(O)c(O)c2)oc2cc(O)cc(O)c12
REMARK SMILES IDX 4 1 3 2 16 3 25 4 2 5 26 6 1 7 33 8 27 9 31 10 28 11 30 12
REMARK SMILES IDX 17 13 18 14 19 15 20 16 24 17 22 18 21 19 23 21 32 23 29 25
REMARK SMILES IDX 5 27 14 28 6 29 12 30 7 31 10 32 15 33 13 35 8 37 9 38 11 40
REMARK H PARENT 21 20 23 22 32 24 29 26 15 34 13 36 9 39 11 41
REMARK Flexibility Score: inf
ROOT
ATOM      1  O   UNL     1       4.556  -0.254  -9.585  1.00  0.00    -0.454 OA
ENDROOT
BRANCH   1   2
ATOM      2  C   UNL     1       5.035   0.772  -8.759  1.00  0.00     0.214 A 
ATOM      3  C   UNL     1       5.797   0.508  -7.605  1.00  0.00     0.180 A 
ATOM      4  O   UNL     1       6.291   1.519  -6.900  1.00  0.00    -0.452 OA
ATOM      5  C   UNL     1       4.757   2.101  -9.099  1.00  0.00     0.239 A 
ATOM      6  C   UNL     1       6.087   2.794  -7.206  1.00  0.00     0.146 A 
ATOM      7  O   UNL     1       3.996   2.319 -10.078  1.00  0.00    -0.285 OA
ATOM      8  C   UNL     1       5.318   3.158  -8.343  1.00  0.00     0.111 A 
ATOM      9  C   UNL     1       6.633   3.774  -6.373  1.00  0.00     0.094 A 
ATOM     10  C   UNL     1       5.148   4.546  -8.633  1.00  0.00     0.134 A 
ATOM     11  C   UNL     1       6.420   5.124  -6.638  1.00  0.00     0.123 A 
ATOM     12  C   UNL     1       5.677   5.503  -7.758  1.00  0.00     0.093 A 
BRANCH   3  13
ATOM     13  C   UNL     1       6.057  -0.865  -7.124  1.00  0.00     0.025 A 
ATOM     14  C   UNL     1       6.923  -1.701  -7.845  1.00  0.00     0.016 A 
ATOM     15  C   UNL     1       7.170  -3.005  -7.408  1.00  0.00     0.051 A 
ATOM     16  C   UNL     1       6.571  -3.485  -6.240  1.00  0.00     0.157 A 
ATOM     17  C   UNL     1       5.475  -1.339  -5.936  1.00  0.00     0.062 A 
ATOM     18  C   UNL     1       5.721  -2.647  -5.496  1.00  0.00     0.158 A 
BRANCH  16  19
ATOM     19  O   UNL     1       6.832  -4.792  -5.832  1.00  0.00    -0.504 OA
ATOM     20  H   UNL     1       6.864  -5.055  -4.853  1.00  0.00     0.293 HD
ENDBRANCH  16  19
BRANCH  18  21
ATOM     21  O   UNL     1       5.126  -3.117  -4.326  1.00  0.00    -0.504 OA
ATOM     22  H   UNL     1       4.263  -2.719  -3.974  1.00  0.00     0.293 HD
ENDBRANCH  18  21
ENDBRANCH   3  13
BRANCH  10  23
ATOM     23  O   UNL     1       4.497   5.036  -9.768  1.00  0.00    -0.507 OA
ATOM     24  H   UNL     1       4.871   5.020 -10.705  1.00  0.00     0.293 HD
ENDBRANCH  10  23
BRANCH  11  25
ATOM     25  O   UNL     1       6.957   6.084  -5.783  1.00  0.00    -0.508 OA
ATOM     26  H   UNL     1       6.690   7.060  -5.848  1.00  0.00     0.293 HD
ENDBRANCH  11  25
ENDBRANCH   1   2
BRANCH   1  27
ATOM     27  C   UNL     1       3.526  -1.151  -9.171  1.00  0.00     0.339 C 
ATOM     28  C   UNL     1       2.220  -0.770  -9.891  1.00  0.00     0.214 C 
ATOM     29  O   UNL     1       3.909  -2.472  -9.514  1.00  0.00    -0.332 OA
ATOM     30  C   UNL     1       1.076  -1.740  -9.521  1.00  0.00     0.180 C 
ATOM     31  C   UNL     1       2.982  -3.441  -9.046  1.00  0.00     0.179 C 
ATOM     32  C   UNL     1       1.548  -3.206  -9.609  1.00  0.00     0.177 C 
BRANCH  28  33
ATOM     33  O   UNL     1       1.857   0.568  -9.647  1.00  0.00    -0.384 OA
ATOM     34  H   UNL     1       0.880   0.655  -9.795  1.00  0.00     0.211 HD
ENDBRANCH  28  33
BRANCH  30  35
ATOM     35  O   UNL     1       0.482  -1.454  -8.274  1.00  0.00    -0.387 OA
ATOM     36  H   UNL     1      -0.172  -0.722  -8.390  1.00  0.00     0.211 HD
ENDBRANCH  30  35
BRANCH  31  37
ATOM     37  C   UNL     1       3.087  -3.651  -7.517  1.00  0.00     0.191 C 
BRANCH  37  38
ATOM     38  O   UNL     1       2.873  -5.001  -7.192  1.00  0.00    -0.394 OA
ATOM     39  H   UNL     1       3.762  -5.434  -7.120  1.00  0.00     0.210 HD
ENDBRANCH  37  38
ENDBRANCH  31  37
BRANCH  32  40
ATOM     40  O   UNL     1       0.609  -4.052  -8.996  1.00  0.00    -0.387 OA
ATOM     41  H   UNL     1      -0.142  -3.477  -8.694  1.00  0.00     0.211 HD
ENDBRANCH  32  40
ENDBRANCH   1  27
TORSDOF 12
ENDMDL
MODEL 5
REMARK VINA RESULT:    -4.375      1.662      5.732
REMARK INTER + INTRA:          -7.484
REMARK INTER:                  -6.971
REMARK INTRA:                  -0.513
REMARK UNBOUND:                -1.063
REMARK SMILES O=c1c(O[C@@H]2O[C@@H](CO)[C@@H](O)[C@@H](O)[C@H]2O)c(-c2ccc(O)c(O)c2)oc2cc(O)cc(O)c12
REMARK SMILES IDX 4 1 3 2 16 3 25 4 2 5 26 6 1 7 33 8 27 9 31 10 28 11 30 12
REMARK SMILES IDX 17 13 18 14 19 15 20 16 24 17 22 18 21 19 23 21 32 23 29 25
REMARK SMILES IDX 5 27 14 28 6 29 12 30 7 31 10 32 15 33 13 35 8 37 9 38 11 40
REMARK H PARENT 21 20 23 22 32 24 29 26 15 34 13 36 9 39 11 41
REMARK Flexibility Score: inf
ROOT
ATOM      1  O   UNL     1       4.501  -1.752  -8.122  1.00  0.00    -0.454 OA
ENDROOT
BRANCH   1   2
ATOM      2  C   UNL     1       3.968  -0.505  -8.477  1.00  0.00     0.214 A 
ATOM      3  C   UNL     1       2.594  -0.323  -8.730  1.00  0.00     0.180 A 
ATOM      4  O   UNL     1       2.130   0.893  -8.987  1.00  0.00    -0.452 OA
ATOM      5  C   UNL     1       4.826   0.596  -8.571  1.00  0.00     0.239 A 
ATOM      6  C   UNL     1       2.900   1.973  -9.047  1.00  0.00     0.146 A 
ATOM      7  O   UNL     1       6.063   0.401  -8.437  1.00  0.00    -0.285 OA
ATOM      8  C   UNL     1       4.299   1.886  -8.822  1.00  0.00     0.111 A 
ATOM      9  C   UNL     1       2.304   3.199  -9.354  1.00  0.00     0.094 A 
ATOM     10  C   UNL     1       5.073   3.084  -8.881  1.00  0.00     0.134 A 
ATOM     11  C   UNL     1       3.075   4.352  -9.458  1.00  0.00     0.123 A 
ATOM     12  C   UNL     1       4.451   4.291  -9.228  1.00  0.00     0.093 A 
BRANCH   3  13
ATOM     13  C   UNL     1       1.636  -1.448  -8.743  1.00  0.00     0.025 A 
ATOM     14  C   UNL     1       0.383  -1.300  -8.129  1.00  0.00     0.016 A 
ATOM     15  C   UNL     1      -0.529  -2.358  -8.125  1.00  0.00     0.051 A 
ATOM     16  C   UNL     1      -0.211  -3.570  -8.746  1.00  0.00     0.157 A 
ATOM     17  C   UNL     1       1.946  -2.656  -9.390  1.00  0.00     0.062 A 
ATOM     18  C   UNL     1       1.032  -3.720  -9.386  1.00  0.00     0.158 A 
BRANCH  16  19
ATOM     19  O   UNL     1      -1.139  -4.610  -8.721  1.00  0.00    -0.504 OA
ATOM     20  H   UNL     1      -1.924  -4.647  -9.361  1.00  0.00     0.293 HD
ENDBRANCH  16  19
BRANCH  18  21
ATOM     21  O   UNL     1       1.354  -4.922 -10.014  1.00  0.00    -0.504 OA
ATOM     22  H   UNL     1       0.649  -5.623 -10.211  1.00  0.00     0.293 HD
ENDBRANCH  18  21
ENDBRANCH   3  13
BRANCH  10  23
ATOM     23  O   UNL     1       6.438   3.152  -8.588  1.00  0.00    -0.507 OA
ATOM     24  H   UNL     1       6.913   3.961  -8.217  1.00  0.00     0.293 HD
ENDBRANCH  10  23
BRANCH  11  25
ATOM     25  O   UNL     1       2.463   5.561  -9.785  1.00  0.00    -0.508 OA
ATOM     26  H   UNL     1       1.454   5.658  -9.796  1.00  0.00     0.293 HD
ENDBRANCH  11  25
ENDBRANCH   1   2
BRANCH   1  27
ATOM     27  C   UNL     1       4.946  -2.044  -6.798  1.00  0.00     0.339 C 
ATOM     28  C   UNL     1       4.825  -3.560  -6.559  1.00  0.00     0.214 C 
ATOM     29  O   UNL     1       6.297  -1.633  -6.671  1.00  0.00    -0.332 OA
ATOM     30  C   UNL     1       5.341  -3.946  -5.156  1.00  0.00     0.180 C 
ATOM     31  C   UNL     1       6.789  -1.797  -5.349  1.00  0.00     0.179 C 
ATOM     32  C   UNL     1       6.700  -3.276  -4.866  1.00  0.00     0.177 C 
BRANCH  28  33
ATOM     33  O   UNL     1       3.512  -4.021  -6.768  1.00  0.00    -0.384 OA
ATOM     34  H   UNL     1       3.553  -4.991  -6.971  1.00  0.00     0.211 HD
ENDBRANCH  28  33
BRANCH  30  35
ATOM     35  O   UNL     1       4.406  -3.702  -4.129  1.00  0.00    -0.387 OA
ATOM     36  H   UNL     1       4.128  -2.754  -4.165  1.00  0.00     0.211 HD
ENDBRANCH  30  35
BRANCH  31  37
ATOM     37  C   UNL     1       6.221  -0.731  -4.384  1.00  0.00     0.191 C 
BRANCH  37  38
ATOM     38  O   UNL     1       7.063  -0.579  -3.270  1.00  0.00    -0.394 OA
ATOM     39  H   UNL     1       7.651  -1.377  -3.231  1.00  0.00     0.210 HD
ENDBRANCH  37  38
ENDBRANCH  31  37
BRANCH  32  40
ATOM     40  O   UNL     1       7.013  -3.392  -3.500  1.00  0.00    -0.387 OA
ATOM     41  H   UNL     1       6.965  -2.478  -3.116  1.00  0.00     0.211 HD
ENDBRANCH  32  40
ENDBRANCH   1  27
TORSDOF 12
ENDMDL
MODEL 6
REMARK VINA RESULT:    -4.285      2.468      6.449
REMARK INTER + INTRA:          -7.352
REMARK INTER:                  -6.874
REMARK INTRA:                  -0.478
REMARK UNBOUND:                -1.063
REMARK SMILES O=c1c(O[C@@H]2O[C@@H](CO)[C@@H](O)[C@@H](O)[C@H]2O)c(-c2ccc(O)c(O)c2)oc2cc(O)cc(O)c12
REMARK SMILES IDX 4 1 3 2 16 3 25 4 2 5 26 6 1 7 33 8 27 9 31 10 28 11 30 12
REMARK SMILES IDX 17 13 18 14 19 15 20 16 24 17 22 18 21 19 23 21 32 23 29 25
REMARK SMILES IDX 5 27 14 28 6 29 12 30 7 31 10 32 15 33 13 35 8 37 9 38 11 40
REMARK H PARENT 21 20 23 22 32 24 29 26 15 34 13 36 9 39 11 41
REMARK Flexibility Score: inf
ROOT
ATOM      1  O   UNL     1       5.221   0.331  -9.217  1.00  0.00    -0.454 OA
ENDROOT
BRANCH   1   2
ATOM      2  C   UNL     1       4.362   1.435  -9.303  1.00  0.00     0.214 A 
ATOM      3  C   UNL     1       2.961   1.295  -9.287  1.00  0.00     0.180 A 
ATOM      4  O   UNL     1       2.194   2.378  -9.294  1.00  0.00    -0.452 OA
ATOM      5  C   UNL     1       4.915   2.717  -9.396  1.00  0.00     0.239 A 
ATOM      6  C   UNL     1       2.673   3.615  -9.342  1.00  0.00     0.146 A 
ATOM      7  O   UNL     1       6.164   2.821  -9.506  1.00  0.00    -0.285 OA
ATOM      8  C   UNL     1       4.072   3.854  -9.377  1.00  0.00     0.111 A 
ATOM      9  C   UNL     1       1.768   4.679  -9.374  1.00  0.00     0.094 A 
ATOM     10  C   UNL     1       4.529   5.207  -9.408  1.00  0.00     0.134 A 
ATOM     11  C   UNL     1       2.224   5.991  -9.454  1.00  0.00     0.123 A 
ATOM     12  C   UNL     1       3.596   6.250  -9.477  1.00  0.00     0.093 A 
BRANCH   3  13
ATOM     13  C   UNL     1       2.297  -0.025  -9.285  1.00  0.00     0.025 A 
ATOM     14  C   UNL     1       2.786  -1.049 -10.109  1.00  0.00     0.016 A 
ATOM     15  C   UNL     1       2.162  -2.300 -10.125  1.00  0.00     0.051 A 
ATOM     16  C   UNL     1       1.054  -2.549  -9.310  1.00  0.00     0.157 A 
ATOM     17  C   UNL     1       1.199  -0.283  -8.446  1.00  0.00     0.062 A 
ATOM     18  C   UNL     1       0.571  -1.536  -8.462  1.00  0.00     0.158 A 
BRANCH  16  19
ATOM     19  O   UNL     1       0.449  -3.804  -9.352  1.00  0.00    -0.504 OA
ATOM     20  H   UNL     1      -0.486  -3.963  -8.995  1.00  0.00     0.293 HD
ENDBRANCH  16  19
BRANCH  18  21
ATOM     21  O   UNL     1      -0.529  -1.779  -7.640  1.00  0.00    -0.504 OA
ATOM     22  H   UNL     1      -1.029  -2.660  -7.669  1.00  0.00     0.293 HD
ENDBRANCH  18  21
ENDBRANCH   3  13
BRANCH  10  23
ATOM     23  O   UNL     1       5.874   5.582  -9.349  1.00  0.00    -0.507 OA
ATOM     24  H   UNL     1       6.502   5.620 -10.139  1.00  0.00     0.293 HD
ENDBRANCH  10  23
BRANCH  11  25
ATOM     25  O   UNL     1       1.303   7.036  -9.505  1.00  0.00    -0.508 OA
ATOM     26  H   UNL     1       1.303   7.777  -8.812  1.00  0.00     0.293 HD
ENDBRANCH  11  25
ENDBRANCH   1   2
BRANCH   1  27
ATOM     27  C   UNL     1       5.630  -0.224  -7.967  1.00  0.00     0.339 C 
ATOM     28  C   UNL     1       6.561   0.778  -7.261  1.00  0.00     0.214 C 
ATOM     29  O   UNL     1       4.477  -0.464  -7.178  1.00  0.00    -0.332 OA
ATOM     30  C   UNL     1       6.997   0.253  -5.876  1.00  0.00     0.180 C 
ATOM     31  C   UNL     1       4.787  -1.112  -5.952  1.00  0.00     0.179 C 
ATOM     32  C   UNL     1       5.787  -0.288  -5.086  1.00  0.00     0.177 C 
BRANCH  28  33
ATOM     33  O   UNL     1       7.672   1.112  -8.057  1.00  0.00    -0.384 OA
ATOM     34  H   UNL     1       8.030   1.981  -7.738  1.00  0.00     0.211 HD
ENDBRANCH  28  33
BRANCH  30  35
ATOM     35  O   UNL     1       8.046  -0.688  -5.939  1.00  0.00    -0.387 OA
ATOM     36  H   UNL     1       7.763  -1.516  -5.480  1.00  0.00     0.211 HD
ENDBRANCH  30  35
BRANCH  31  37
ATOM     37  C   UNL     1       5.137  -2.605  -6.159  1.00  0.00     0.191 C 
BRANCH  37  38
ATOM     38  O   UNL     1       4.773  -3.354  -5.028  1.00  0.00    -0.394 OA
ATOM     39  H   UNL     1       5.577  -3.434  -4.453  1.00  0.00     0.210 HD
ENDBRANCH  37  38
ENDBRANCH  31  37
BRANCH  32  40
ATOM     40  O   UNL     1       6.228  -1.020  -3.971  1.00  0.00    -0.387 OA
ATOM     41  H   UNL     1       6.719  -0.386  -3.387  1.00  0.00     0.211 HD
ENDBRANCH  32  40
ENDBRANCH   1  27
TORSDOF 12
ENDMDL
MODEL 7
REMARK VINA RESULT:    -4.255      2.628      6.226
REMARK INTER + INTRA:          -7.308
REMARK INTER:                  -6.283
REMARK INTRA:                  -1.025
REMARK UNBOUND:                -1.063
REMARK SMILES O=c1c(O[C@@H]2O[C@@H](CO)[C@@H](O)[C@@H](O)[C@H]2O)c(-c2ccc(O)c(O)c2)oc2cc(O)cc(O)c12
REMARK SMILES IDX 4 1 3 2 16 3 25 4 2 5 26 6 1 7 33 8 27 9 31 10 28 11 30 12
REMARK SMILES IDX 17 13 18 14 19 15 20 16 24 17 22 18 21 19 23 21 32 23 29 25
REMARK SMILES IDX 5 27 14 28 6 29 12 30 7 31 10 32 15 33 13 35 8 37 9 38 11 40
REMARK H PARENT 21 20 23 22 32 24 29 26 15 34 13 36 9 39 11 41
REMARK Flexibility Score: inf
ROOT
ATOM      1  O   UNL     1       6.648   0.595  -8.258  1.00  0.00    -0.454 OA
ENDROOT
BRANCH   1   2
ATOM      2  C   UNL     1       5.612   1.493  -8.547  1.00  0.00     0.214 A 
ATOM      3  C   UNL     1       4.290   1.062  -8.775  1.00  0.00     0.180 A 
ATOM      4  O   UNL     1       3.332   1.959  -8.969  1.00  0.00    -0.452 OA
ATOM      5  C   UNL     1       5.897   2.862  -8.598  1.00  0.00     0.239 A 
ATOM      6  C   UNL     1       3.548   3.269  -8.987  1.00  0.00     0.146 A 
ATOM      7  O   UNL     1       7.097   3.226  -8.487  1.00  0.00    -0.285 OA
ATOM      8  C   UNL     1       4.850   3.797  -8.782  1.00  0.00     0.111 A 
ATOM      9  C   UNL     1       2.465   4.119  -9.229  1.00  0.00     0.094 A 
ATOM     10  C   UNL     1       5.017   5.215  -8.793  1.00  0.00     0.134 A 
ATOM     11  C   UNL     1       2.649   5.497  -9.287  1.00  0.00     0.123 A 
ATOM     12  C   UNL     1       3.919   6.038  -9.075  1.00  0.00     0.093 A 
BRANCH   3  13
ATOM     13  C   UNL     1       3.923  -0.368  -8.831  1.00  0.00     0.025 A 
ATOM     14  C   UNL     1       3.555  -0.943 -10.057  1.00  0.00     0.016 A 
ATOM     15  C   UNL     1       3.195  -2.291 -10.124  1.00  0.00     0.051 A 
ATOM     16  C   UNL     1       3.212  -3.086  -8.974  1.00  0.00     0.157 A 
ATOM     17  C   UNL     1       3.964  -1.173  -7.680  1.00  0.00     0.062 A 
ATOM     18  C   UNL     1       3.602  -2.526  -7.745  1.00  0.00     0.158 A 
BRANCH  16  19
ATOM     19  O   UNL     1       2.842  -4.427  -9.070  1.00  0.00    -0.504 OA
ATOM     20  H   UNL     1       2.811  -5.036  -8.262  1.00  0.00     0.293 HD
ENDBRANCH  16  19
BRANCH  18  21
ATOM     21  O   UNL     1       3.629  -3.314  -6.595  1.00  0.00    -0.504 OA
ATOM     22  H   UNL     1       4.370  -3.984  -6.428  1.00  0.00     0.293 HD
ENDBRANCH  18  21
ENDBRANCH   3  13
BRANCH  10  23
ATOM     23  O   UNL     1       6.223   5.865  -8.512  1.00  0.00    -0.507 OA
ATOM     24  H   UNL     1       6.306   6.792  -8.123  1.00  0.00     0.293 HD
ENDBRANCH  10  23
BRANCH  11  25
ATOM     25  O   UNL     1       1.559   6.325  -9.549  1.00  0.00    -0.508 OA
ATOM     26  H   UNL     1       0.958   6.172 -10.351  1.00  0.00     0.293 HD
ENDBRANCH  11  25
ENDBRANCH   1   2
BRANCH   1  27
ATOM     27  C   UNL     1       6.648  -0.221  -7.087  1.00  0.00     0.339 C 
ATOM     28  C   UNL     1       7.628  -1.390  -7.298  1.00  0.00     0.214 C 
ATOM     29  O   UNL     1       7.056   0.568  -5.982  1.00  0.00    -0.332 OA
ATOM     30  C   UNL     1       7.710  -2.283  -6.041  1.00  0.00     0.180 C 
ATOM     31  C   UNL     1       6.987  -0.143  -4.755  1.00  0.00     0.179 C 
ATOM     32  C   UNL     1       7.871  -1.426  -4.767  1.00  0.00     0.177 C 
BRANCH  28  33
ATOM     33  O   UNL     1       7.308  -2.142  -8.443  1.00  0.00    -0.384 OA
ATOM     34  H   UNL     1       7.885  -1.833  -9.188  1.00  0.00     0.211 HD
ENDBRANCH  28  33
BRANCH  30  35
ATOM     35  O   UNL     1       6.638  -3.192  -5.930  1.00  0.00    -0.387 OA
ATOM     36  H   UNL     1       5.919  -2.777  -5.394  1.00  0.00     0.211 HD
ENDBRANCH  30  35
BRANCH  31  37
ATOM     37  C   UNL     1       5.529  -0.326  -4.273  1.00  0.00     0.191 C 
BRANCH  37  38
ATOM     38  O   UNL     1       5.134  -1.668  -4.408  1.00  0.00    -0.394 OA
ATOM     39  H   UNL     1       5.163  -1.891  -5.374  1.00  0.00     0.210 HD
ENDBRANCH  37  38
ENDBRANCH  31  37
BRANCH  32  40
ATOM     40  O   UNL     1       7.650  -2.216  -3.626  1.00  0.00    -0.387 OA
ATOM     41  H   UNL     1       7.969  -1.690  -2.847  1.00  0.00     0.211 HD
ENDBRANCH  32  40
ENDBRANCH   1  27
TORSDOF 12
ENDMDL
MODEL 8
REMARK VINA RESULT:    -4.206      2.170      6.485
REMARK INTER + INTRA:          -7.236
REMARK INTER:                  -5.569
REMARK INTRA:                  -1.667
REMARK UNBOUND:                -1.063
REMARK SMILES O=c1c(O[C@@H]2O[C@@H](CO)[C@@H](O)[C@@H](O)[C@H]2O)c(-c2ccc(O)c(O)c2)oc2cc(O)cc(O)c12
REMARK SMILES IDX 4 1 3 2 16 3 25 4 2 5 26 6 1 7 33 8 27 9 31 10 28 11 30 12
REMARK SMILES IDX 17 13 18 14 19 15 20 16 24 17 22 18 21 19 23 21 32 23 29 25
REMARK SMILES IDX 5 27 14 28 6 29 12 30 7 31 10 32 15 33 13 35 8 37 9 38 11 40
REMARK H PARENT 21 20 23 22 32 24 29 26 15 34 13 36 9 39 11 41
REMARK Flexibility Score: inf
ROOT
ATOM      1  O   UNL     1       4.790  -1.081  -6.093  1.00  0.00    -0.454 OA
ENDROOT
BRANCH   1   2
ATOM      2  C   UNL     1       5.050  -0.013  -6.962  1.00  0.00     0.214 A 
ATOM      3  C   UNL     1       4.331   0.170  -8.159  1.00  0.00     0.180 A 
ATOM      4  O   UNL     1       4.564   1.241  -8.907  1.00  0.00    -0.452 OA
ATOM      5  C   UNL     1       6.047   0.908  -6.623  1.00  0.00     0.239 A 
ATOM      6  C   UNL     1       5.472   2.161  -8.606  1.00  0.00     0.146 A 
ATOM      7  O   UNL     1       6.746   0.681  -5.600  1.00  0.00    -0.285 OA
ATOM      8  C   UNL     1       6.257   2.054  -7.427  1.00  0.00     0.111 A 
ATOM      9  C   UNL     1       5.651   3.233  -9.484  1.00  0.00     0.094 A 
ATOM     10  C   UNL     1       7.204   3.085  -7.146  1.00  0.00     0.134 A 
ATOM     11  C   UNL     1       6.612   4.206  -9.225  1.00  0.00     0.123 A 
ATOM     12  C   UNL     1       7.385   4.126  -8.065  1.00  0.00     0.093 A 
BRANCH   3  13
ATOM     13  C   UNL     1       3.328  -0.804  -8.637  1.00  0.00     0.025 A 
ATOM     14  C   UNL     1       3.711  -1.809  -9.538  1.00  0.00     0.016 A 
ATOM     15  C   UNL     1       2.771  -2.732 -10.006  1.00  0.00     0.051 A 
ATOM     16  C   UNL     1       1.444  -2.673  -9.571  1.00  0.00     0.157 A 
ATOM     17  C   UNL     1       2.000  -0.760  -8.180  1.00  0.00     0.062 A 
ATOM     18  C   UNL     1       1.055  -1.685  -8.650  1.00  0.00     0.158 A 
BRANCH  16  19
ATOM     19  O   UNL     1       0.528  -3.602 -10.061  1.00  0.00    -0.504 OA
ATOM     20  H   UNL     1      -0.300  -3.324 -10.575  1.00  0.00     0.293 HD
ENDBRANCH  16  19
BRANCH  18  21
ATOM     21  O   UNL     1      -0.265  -1.624  -8.205  1.00  0.00    -0.504 OA
ATOM     22  H   UNL     1      -1.005  -1.253  -8.790  1.00  0.00     0.293 HD
ENDBRANCH  18  21
ENDBRANCH   3  13
BRANCH  10  23
ATOM     23  O   UNL     1       7.969   3.149  -5.978  1.00  0.00    -0.507 OA
ATOM     24  H   UNL     1       7.926   2.487  -5.218  1.00  0.00     0.293 HD
ENDBRANCH  10  23
BRANCH  11  25
ATOM     25  O   UNL     1       6.787   5.255 -10.125  1.00  0.00    -0.508 OA
ATOM     26  H   UNL     1       6.709   6.223  -9.833  1.00  0.00     0.293 HD
ENDBRANCH  11  25
ENDBRANCH   1   2
BRANCH   1  27
ATOM     27  C   UNL     1       5.570  -2.277  -6.097  1.00  0.00     0.339 C 
ATOM     28  C   UNL     1       5.931  -2.637  -4.645  1.00  0.00     0.214 C 
ATOM     29  O   UNL     1       4.807  -3.316  -6.686  1.00  0.00    -0.332 OA
ATOM     30  C   UNL     1       6.735  -3.954  -4.580  1.00  0.00     0.180 C 
ATOM     31  C   UNL     1       5.548  -4.520  -6.822  1.00  0.00     0.179 C 
ATOM     32  C   UNL     1       6.077  -5.044  -5.453  1.00  0.00     0.177 C 
BRANCH  28  33
ATOM     33  O   UNL     1       6.610  -1.589  -3.997  1.00  0.00    -0.384 OA
ATOM     34  H   UNL     1       6.032  -0.783  -4.025  1.00  0.00     0.211 HD
ENDBRANCH  28  33
BRANCH  30  35
ATOM     35  O   UNL     1       8.102  -3.791  -4.887  1.00  0.00    -0.387 OA
ATOM     36  H   UNL     1       8.639  -4.334  -4.261  1.00  0.00     0.211 HD
ENDBRANCH  30  35
BRANCH  31  37
ATOM     37  C   UNL     1       6.586  -4.435  -7.965  1.00  0.00     0.191 C 
BRANCH  37  38
ATOM     38  O   UNL     1       6.856  -5.715  -8.478  1.00  0.00    -0.394 OA
ATOM     39  H   UNL     1       7.162  -5.602  -9.414  1.00  0.00     0.210 HD
ENDBRANCH  37  38
ENDBRANCH  31  37
BRANCH  32  40
ATOM     40  O   UNL     1       6.960  -6.124  -5.620  1.00  0.00    -0.387 OA
ATOM     41  H   UNL     1       7.867  -5.791  -5.395  1.00  0.00     0.211 HD
ENDBRANCH  32  40
ENDBRANCH   1  27
TORSDOF 12
ENDMDL
MODEL 9
REMARK VINA RESULT:    -4.078      1.538      6.314
REMARK INTER + INTRA:          -7.048
REMARK INTER:                  -6.846
REMARK INTRA:                  -0.202
REMARK UNBOUND:                -1.063
REMARK SMILES O=c1c(O[C@@H]2O[C@@H](CO)[C@@H](O)[C@@H](O)[C@H]2O)c(-c2ccc(O)c(O)c2)oc2cc(O)cc(O)c12
REMARK SMILES IDX 4 1 3 2 16 3 25 4 2 5 26 6 1 7 33 8 27 9 31 10 28 11 30 12
REMARK SMILES IDX 17 13 18 14 19 15 20 16 24 17 22 18 21 19 23 21 32 23 29 25
REMARK SMILES IDX 5 27 14 28 6 29 12 30 7 31 10 32 15 33 13 35 8 37 9 38 11 40
REMARK H PARENT 21 20 23 22 32 24 29 26 15 34 13 36 9 39 11 41
REMARK Flexibility Score: inf
ROOT
ATOM      1  O   UNL     1       2.986  -2.216  -9.084  1.00  0.00    -0.454 OA
ENDROOT
BRANCH   1   2
ATOM      2  C   UNL     1       3.903  -2.244  -8.025  1.00  0.00     0.214 A 
ATOM      3  C   UNL     1       4.553  -1.081  -7.566  1.00  0.00     0.180 A 
ATOM      4  O   UNL     1       5.354  -1.151  -6.510  1.00  0.00    -0.452 OA
ATOM      5  C   UNL     1       4.174  -3.465  -7.396  1.00  0.00     0.239 A 
ATOM      6  C   UNL     1       5.610  -2.279  -5.858  1.00  0.00     0.146 A 
ATOM      7  O   UNL     1       3.661  -4.509  -7.877  1.00  0.00    -0.285 OA
ATOM      8  C   UNL     1       5.014  -3.504  -6.257  1.00  0.00     0.111 A 
ATOM      9  C   UNL     1       6.493  -2.237  -4.776  1.00  0.00     0.094 A 
ATOM     10  C   UNL     1       5.311  -4.681  -5.505  1.00  0.00     0.134 A 
ATOM     11  C   UNL     1       6.814  -3.399  -4.082  1.00  0.00     0.123 A 
ATOM     12  C   UNL     1       6.230  -4.612  -4.450  1.00  0.00     0.093 A 
BRANCH   3  13
ATOM     13  C   UNL     1       4.395   0.228  -8.231  1.00  0.00     0.025 A 
ATOM     14  C   UNL     1       5.515   0.859  -8.795  1.00  0.00     0.016 A 
ATOM     15  C   UNL     1       5.383   2.102  -9.420  1.00  0.00     0.051 A 
ATOM     16  C   UNL     1       4.133   2.725  -9.502  1.00  0.00     0.157 A 
ATOM     17  C   UNL     1       3.135   0.841  -8.336  1.00  0.00     0.062 A 
ATOM     18  C   UNL     1       3.001   2.090  -8.961  1.00  0.00     0.158 A 
BRANCH  16  19
ATOM     19  O   UNL     1       4.034   3.968 -10.125  1.00  0.00    -0.504 OA
ATOM     20  H   UNL     1       3.158   4.316 -10.496  1.00  0.00     0.293 HD
ENDBRANCH  16  19
BRANCH  18  21
ATOM     21  O   UNL     1       1.751   2.700  -9.046  1.00  0.00    -0.504 OA
ATOM     22  H   UNL     1       0.975   2.402  -8.467  1.00  0.00     0.293 HD
ENDBRANCH  18  21
ENDBRANCH   3  13
BRANCH  10  23
ATOM     23  O   UNL     1       4.720  -5.927  -5.733  1.00  0.00    -0.507 OA
ATOM     24  H   UNL     1       5.209  -6.754  -6.041  1.00  0.00     0.293 HD
ENDBRANCH  10  23
BRANCH  11  25
ATOM     25  O   UNL     1       7.714  -3.337  -3.018  1.00  0.00    -0.508 OA
ATOM     26  H   UNL     1       8.666  -3.673  -3.109  1.00  0.00     0.293 HD
ENDBRANCH  11  25
ENDBRANCH   1   2
BRANCH   1  27
ATOM     27  C   UNL     1       1.704  -2.837  -9.001  1.00  0.00     0.339 C 
ATOM     28  C   UNL     1       0.619  -1.752  -9.124  1.00  0.00     0.214 C 
ATOM     29  O   UNL     1       1.584  -3.774 -10.059  1.00  0.00    -0.332 OA
ATOM     30  C   UNL     1      -0.795  -2.372  -9.092  1.00  0.00     0.180 C 
ATOM     31  C   UNL     1       0.372  -4.512  -9.991  1.00  0.00     0.179 C 
ATOM     32  C   UNL     1      -0.883  -3.590 -10.035  1.00  0.00     0.177 C 
BRANCH  28  33
ATOM     33  O   UNL     1       0.763  -0.752  -8.144  1.00  0.00    -0.384 OA
ATOM     34  H   UNL     1      -0.100  -0.663  -7.664  1.00  0.00     0.211 HD
ENDBRANCH  28  33
BRANCH  30  35
ATOM     35  O   UNL     1      -1.242  -2.681  -7.791  1.00  0.00    -0.387 OA
ATOM     36  H   UNL     1      -1.517  -1.847  -7.338  1.00  0.00     0.211 HD
ENDBRANCH  30  35
BRANCH  31  37
ATOM     37  C   UNL     1       0.401  -5.569  -8.862  1.00  0.00     0.191 C 
BRANCH  37  38
ATOM     38  O   UNL     1      -0.492  -5.215  -7.837  1.00  0.00    -0.394 OA
ATOM     39  H   UNL     1      -0.360  -5.857  -7.093  1.00  0.00     0.210 HD
ENDBRANCH  37  38
ENDBRANCH  31  37
BRANCH  32  40
ATOM     40  O   UNL     1      -2.062  -4.312  -9.780  1.00  0.00    -0.387 OA
ATOM     41  H   UNL     1      -1.904  -4.836  -8.952  1.00  0.00     0.211 HD
ENDBRANCH  32  40
ENDBRANCH   1  27
TORSDOF 12
ENDMDL
