MODEL 1
REMARK VINA RESULT:    -3.514      0.000      0.000
REMARK INTER + INTRA:          -5.327
REMARK INTER:                  -4.849
REMARK INTRA:                  -0.478
REMARK UNBOUND:                -0.478
REMARK SMILES CCCCCCCCO
REMARK SMILES IDX 5 1 4 2 3 3 2 4 1 5 6 6 7 7 8 8 9 9
REMARK H PARENT 9 10
REMARK Flexibility Score: inf
ROOT
ATOM      1  C   UNL     1     177.075 177.532 181.850  1.00  0.00     0.000 C 
ENDROOT
BRANCH   1   2
ATOM      2  C   UNL     1     175.874 176.648 182.220  1.00  0.00    -0.000 C 
BRANCH   2   3
ATOM      3  C   UNL     1     176.282 175.402 183.025  1.00  0.00    -0.000 C 
BRANCH   3   4
ATOM      4  C   UNL     1     176.278 174.123 182.173  1.00  0.00    -0.003 C 
ATOM      5  C   UNL     1     177.686 173.637 181.832  1.00  0.00     0.004 C 
ENDBRANCH   3   4
ENDBRANCH   2   3
ENDBRANCH   1   2
BRANCH   1   6
ATOM      6  C   UNL     1     177.164 177.809 180.342  1.00  0.00     0.002 C 
BRANCH   6   7
ATOM      7  C   UNL     1     176.085 177.030 179.577  1.00  0.00     0.028 C 
BRANCH   7   8
ATOM      8  C   UNL     1     176.632 176.407 178.288  1.00  0.00     0.156 C 
BRANCH   8   9
ATOM      9  O   UNL     1     177.232 175.167 178.552  1.00  0.00    -0.396 OA
ATOM     10  H   UNL     1     176.507 174.550 178.835  1.00  0.00     0.210 HD
ENDBRANCH   8   9
ENDBRANCH   7   8
ENDBRANCH   6   7
ENDBRANCH   1   6
TORSDOF 7
ENDMDL
MODEL 2
REMARK VINA RESULT:    -3.510      1.298      2.029
REMARK INTER + INTRA:          -5.322
REMARK INTER:                  -4.858
REMARK INTRA:                  -0.464
REMARK UNBOUND:                -0.478
REMARK SMILES CCCCCCCCO
REMARK SMILES IDX 5 1 4 2 3 3 2 4 1 5 6 6 7 7 8 8 9 9
REMARK H PARENT 9 10
REMARK Flexibility Score: inf
ROOT
ATOM      1  C   UNL     1     177.292 177.762 181.716  1.00  0.00     0.000 C 
ENDROOT
BRANCH   1   2
ATOM      2  C   UNL     1     176.973 176.308 182.096  1.00  0.00    -0.000 C 
BRANCH   2   3
ATOM      3  C   UNL     1     175.918 176.207 183.213  1.00  0.00    -0.000 C 
BRANCH   3   4
ATOM      4  C   UNL     1     174.538 175.791 182.682  1.00  0.00    -0.003 C 
ATOM      5  C   UNL     1     173.563 176.964 182.589  1.00  0.00     0.004 C 
ENDBRANCH   3   4
ENDBRANCH   2   3
ENDBRANCH   1   2
BRANCH   1   6
ATOM      6  C   UNL     1     177.148 178.025 180.210  1.00  0.00     0.002 C 
BRANCH   6   7
ATOM      7  C   UNL     1     176.142 177.054 179.578  1.00  0.00     0.028 C 
BRANCH   7   8
ATOM      8  C   UNL     1     176.702 176.390 178.314  1.00  0.00     0.156 C 
BRANCH   8   9
ATOM      9  O   UNL     1     177.234 175.127 178.611  1.00  0.00    -0.396 OA
ATOM     10  H   UNL     1     176.632 174.711 179.282  1.00  0.00     0.210 HD
ENDBRANCH   8   9
ENDBRANCH   7   8
ENDBRANCH   6   7
ENDBRANCH   1   6
TORSDOF 7
ENDMDL
MODEL 3
REMARK VINA RESULT:    -3.386      1.321      3.093
REMARK INTER + INTRA:          -5.151
REMARK INTER:                  -4.696
REMARK INTRA:                  -0.455
REMARK UNBOUND:                -0.478
REMARK SMILES CCCCCCCCO
REMARK SMILES IDX 5 1 4 2 3 3 2 4 1 5 6 6 7 7 8 8 9 9
REMARK H PARENT 9 10
REMARK Flexibility Score: inf
ROOT
ATOM      1  C   UNL     1     175.033 175.221 182.104  1.00  0.00     0.000 C 
ENDROOT
BRANCH   1   2
ATOM      2  C   UNL     1     175.220 176.687 182.526  1.00  0.00    -0.000 C 
BRANCH   2   3
ATOM      3  C   UNL     1     176.595 176.946 183.167  1.00  0.00    -0.000 C 
BRANCH   3   4
ATOM      4  C   UNL     1     177.409 178.004 182.406  1.00  0.00    -0.003 C 
ATOM      5  C   UNL     1     177.284 177.866 180.889  1.00  0.00     0.004 C 
ENDBRANCH   3   4
ENDBRANCH   2   3
ENDBRANCH   1   2
BRANCH   1   6
ATOM      6  C   UNL     1     176.229 174.337 182.489  1.00  0.00     0.002 C 
BRANCH   6   7
ATOM      7  C   UNL     1     177.141 174.092 181.279  1.00  0.00     0.028 C 
BRANCH   7   8
ATOM      8  C   UNL     1     176.380 174.210 179.954  1.00  0.00     0.156 C 
BRANCH   8   9
ATOM      9  O   UNL     1     177.197 174.766 178.960  1.00  0.00    -0.396 OA
ATOM     10  H   UNL     1     176.594 175.120 178.255  1.00  0.00     0.210 HD
ENDBRANCH   8   9
ENDBRANCH   7   8
ENDBRANCH   6   7
ENDBRANCH   1   6
TORSDOF 7
ENDMDL
MODEL 4
REMARK VINA RESULT:    -3.361      1.193      1.494
REMARK INTER + INTRA:          -5.116
REMARK INTER:                  -4.650
REMARK INTRA:                  -0.466
REMARK UNBOUND:                -0.478
REMARK SMILES CCCCCCCCO
REMARK SMILES IDX 5 1 4 2 3 3 2 4 1 5 6 6 7 7 8 8 9 9
REMARK H PARENT 9 10
REMARK Flexibility Score: inf
ROOT
ATOM      1  C   UNL     1     177.359 176.947 181.328  1.00  0.00     0.000 C 
ENDROOT
BRANCH   1   2
ATOM      2  C   UNL     1     176.910 177.441 182.713  1.00  0.00    -0.000 C 
BRANCH   2   3
ATOM      3  C   UNL     1     175.755 176.605 183.293  1.00  0.00    -0.000 C 
BRANCH   3   4
ATOM      4  C   UNL     1     175.948 175.098 183.065  1.00  0.00    -0.003 C 
ATOM      5  C   UNL     1     174.627 174.357 182.866  1.00  0.00     0.004 C 
ENDBRANCH   3   4
ENDBRANCH   2   3
ENDBRANCH   1   2
BRANCH   1   6
ATOM      6  C   UNL     1     176.692 177.721 180.180  1.00  0.00     0.002 C 
BRANCH   6   7
ATOM      7  C   UNL     1     175.879 176.778 179.283  1.00  0.00     0.028 C 
BRANCH   7   8
ATOM      8  C   UNL     1     176.395 175.336 179.352  1.00  0.00     0.156 C 
BRANCH   8   9
ATOM      9  O   UNL     1     177.318 175.089 178.325  1.00  0.00    -0.396 OA
ATOM     10  H   UNL     1     178.183 174.873 178.761  1.00  0.00     0.210 HD
ENDBRANCH   8   9
ENDBRANCH   7   8
ENDBRANCH   6   7
ENDBRANCH   1   6
TORSDOF 7
ENDMDL
MODEL 5
REMARK VINA RESULT:    -3.331      1.625      2.638
REMARK INTER + INTRA:          -5.074
REMARK INTER:                  -4.820
REMARK INTRA:                  -0.255
REMARK UNBOUND:                -0.478
REMARK SMILES CCCCCCCCO
REMARK SMILES IDX 5 1 4 2 3 3 2 4 1 5 6 6 7 7 8 8 9 9
REMARK H PARENT 9 10
REMARK Flexibility Score: inf
ROOT
ATOM      1  C   UNL     1     176.811 177.153 182.140  1.00  0.00     0.000 C 
ENDROOT
BRANCH   1   2
ATOM      2  C   UNL     1     176.038 176.345 183.194  1.00  0.00    -0.000 C 
BRANCH   2   3
ATOM      3  C   UNL     1     174.639 175.926 182.709  1.00  0.00    -0.000 C 
BRANCH   3   4
ATOM      4  C   UNL     1     173.801 177.121 182.229  1.00  0.00    -0.003 C 
ATOM      5  C   UNL     1     172.307 176.937 182.490  1.00  0.00     0.004 C 
ENDBRANCH   3   4
ENDBRANCH   2   3
ENDBRANCH   1   2
BRANCH   1   6
ATOM      6  C   UNL     1     177.039 176.365 180.841  1.00  0.00     0.002 C 
BRANCH   6   7
ATOM      7  C   UNL     1     176.727 177.231 179.613  1.00  0.00     0.028 C 
BRANCH   7   8
ATOM      8  C   UNL     1     176.579 176.390 178.341  1.00  0.00     0.156 C 
BRANCH   8   9
ATOM      9  O   UNL     1     177.237 175.159 178.480  1.00  0.00    -0.396 OA
ATOM     10  H   UNL     1     178.165 175.289 178.151  1.00  0.00     0.210 HD
ENDBRANCH   8   9
ENDBRANCH   7   8
ENDBRANCH   6   7
ENDBRANCH   1   6
TORSDOF 7
ENDMDL
MODEL 6
REMARK VINA RESULT:    -3.268      1.561      3.602
REMARK INTER + INTRA:          -4.988
REMARK INTER:                  -4.485
REMARK INTRA:                  -0.502
REMARK UNBOUND:                -0.478
REMARK SMILES CCCCCCCCO
REMARK SMILES IDX 5 1 4 2 3 3 2 4 1 5 6 6 7 7 8 8 9 9
REMARK H PARENT 9 10
REMARK Flexibility Score: inf
ROOT
ATOM      1  C   UNL     1     176.316 175.444 183.198  1.00  0.00     0.000 C 
ENDROOT
BRANCH   1   2
ATOM      2  C   UNL     1     175.927 176.887 182.841  1.00  0.00    -0.000 C 
BRANCH   2   3
ATOM      3  C   UNL     1     177.038 177.625 182.072  1.00  0.00    -0.000 C 
BRANCH   3   4
ATOM      4  C   UNL     1     177.017 177.314 180.568  1.00  0.00    -0.003 C 
ATOM      5  C   UNL     1     175.606 177.329 179.981  1.00  0.00     0.004 C 
ENDBRANCH   3   4
ENDBRANCH   2   3
ENDBRANCH   1   2
BRANCH   1   6
ATOM      6  C   UNL     1     175.233 174.426 182.809  1.00  0.00     0.002 C 
BRANCH   6   7
ATOM      7  C   UNL     1     175.689 173.567 181.622  1.00  0.00     0.028 C 
BRANCH   7   8
ATOM      8  C   UNL     1     177.181 173.751 181.321  1.00  0.00     0.156 C 
BRANCH   8   9
ATOM      9  O   UNL     1     177.817 172.509 181.186  1.00  0.00    -0.396 OA
ATOM     10  H   UNL     1     177.560 172.148 180.298  1.00  0.00     0.210 HD
ENDBRANCH   8   9
ENDBRANCH   7   8
ENDBRANCH   6   7
ENDBRANCH   1   6
TORSDOF 7
ENDMDL
MODEL 7
REMARK VINA RESULT:    -3.207      2.335      3.516
REMARK INTER + INTRA:          -4.903
REMARK INTER:                  -4.424
REMARK INTRA:                  -0.479
REMARK UNBOUND:                -0.478
REMARK SMILES CCCCCCCCO
REMARK SMILES IDX 5 1 4 2 3 3 2 4 1 5 6 6 7 7 8 8 9 9
REMARK H PARENT 9 10
REMARK Flexibility Score: inf
ROOT
ATOM      1  C   UNL     1     174.705 176.165 182.515  1.00  0.00     0.000 C 
ENDROOT
BRANCH   1   2
ATOM      2  C   UNL     1     175.959 176.535 183.322  1.00  0.00    -0.000 C 
BRANCH   2   3
ATOM      3  C   UNL     1     177.026 177.242 182.467  1.00  0.00    -0.000 C 
BRANCH   3   4
ATOM      4  C   UNL     1     177.068 176.713 181.025  1.00  0.00    -0.003 C 
ATOM      5  C   UNL     1     177.156 177.832 179.988  1.00  0.00     0.004 C 
ENDBRANCH   3   4
ENDBRANCH   2   3
ENDBRANCH   1   2
BRANCH   1   6
ATOM      6  C   UNL     1     173.554 177.161 182.722  1.00  0.00     0.002 C 
BRANCH   6   7
ATOM      7  C   UNL     1     172.704 177.288 181.450  1.00  0.00     0.028 C 
BRANCH   7   8
ATOM      8  C   UNL     1     173.414 176.702 180.225  1.00  0.00     0.156 C 
BRANCH   8   9
ATOM      9  O   UNL     1     173.678 177.701 179.278  1.00  0.00    -0.396 OA
ATOM     10  H   UNL     1     173.146 177.481 178.470  1.00  0.00     0.210 HD
ENDBRANCH   8   9
ENDBRANCH   7   8
ENDBRANCH   6   7
ENDBRANCH   1   6
TORSDOF 7
ENDMDL
MODEL 8
REMARK VINA RESULT:    -3.085      1.918      2.676
REMARK INTER + INTRA:          -4.735
REMARK INTER:                  -4.227
REMARK INTRA:                  -0.507
REMARK UNBOUND:                -0.478
REMARK SMILES CCCCCCCCO
REMARK SMILES IDX 5 1 4 2 3 3 2 4 1 5 6 6 7 7 8 8 9 9
REMARK H PARENT 9 10
REMARK Flexibility Score: inf
ROOT
ATOM      1  C   UNL     1     176.997 177.012 181.818  1.00  0.00     0.000 C 
ENDROOT
BRANCH   1   2
ATOM      2  C   UNL     1     176.081 176.728 183.019  1.00  0.00    -0.000 C 
BRANCH   2   3
ATOM      3  C   UNL     1     175.308 175.406 182.872  1.00  0.00    -0.000 C 
BRANCH   3   4
ATOM      4  C   UNL     1     173.827 175.626 182.528  1.00  0.00    -0.003 C 
ATOM      5  C   UNL     1     173.418 177.097 182.589  1.00  0.00     0.004 C 
ENDBRANCH   3   4
ENDBRANCH   2   3
ENDBRANCH   1   2
BRANCH   1   6
ATOM      6  C   UNL     1     176.979 175.880 180.780  1.00  0.00     0.002 C 
BRANCH   6   7
ATOM      7  C   UNL     1     176.455 176.385 179.428  1.00  0.00     0.028 C 
BRANCH   7   8
ATOM      8  C   UNL     1     175.801 177.766 179.546  1.00  0.00     0.156 C 
BRANCH   8   9
ATOM      9  O   UNL     1     174.432 177.694 179.251  1.00  0.00    -0.396 OA
ATOM     10  H   UNL     1     174.348 177.726 178.262  1.00  0.00     0.210 HD
ENDBRANCH   8   9
ENDBRANCH   7   8
ENDBRANCH   6   7
ENDBRANCH   1   6
TORSDOF 7
ENDMDL
MODEL 9
REMARK VINA RESULT:    -3.083      2.054      2.598
REMARK INTER + INTRA:          -4.732
REMARK INTER:                  -4.371
REMARK INTRA:                  -0.362
REMARK UNBOUND:                -0.478
REMARK SMILES CCCCCCCCO
REMARK SMILES IDX 5 1 4 2 3 3 2 4 1 5 6 6 7 7 8 8 9 9
REMARK H PARENT 9 10
REMARK Flexibility Score: inf
ROOT
ATOM      1  C   UNL     1     175.735 176.087 182.737  1.00  0.00     0.000 C 
ENDROOT
BRANCH   1   2
ATOM      2  C   UNL     1     174.454 176.925 182.601  1.00  0.00    -0.000 C 
BRANCH   2   3
ATOM      3  C   UNL     1     173.186 176.057 182.525  1.00  0.00    -0.000 C 
BRANCH   3   4
ATOM      4  C   UNL     1     173.505 174.558 182.409  1.00  0.00    -0.003 C 
ATOM      5  C   UNL     1     172.852 173.728 183.513  1.00  0.00     0.004 C 
ENDBRANCH   3   4
ENDBRANCH   2   3
ENDBRANCH   1   2
BRANCH   1   6
ATOM      6  C   UNL     1     176.913 176.676 181.944  1.00  0.00     0.002 C 
BRANCH   6   7
ATOM      7  C   UNL     1     176.643 176.613 180.435  1.00  0.00     0.028 C 
BRANCH   7   8
ATOM      8  C   UNL     1     176.542 175.169 179.930  1.00  0.00     0.156 C 
BRANCH   8   9
ATOM      9  O   UNL     1     177.219 175.020 178.711  1.00  0.00    -0.396 OA
ATOM     10  H   UNL     1     177.161 175.892 178.240  1.00  0.00     0.210 HD
ENDBRANCH   8   9
ENDBRANCH   7   8
ENDBRANCH   6   7
ENDBRANCH   1   6
TORSDOF 7
ENDMDL
