MODEL 1
REMARK VINA RESULT:    -3.723      0.000      0.000
REMARK INTER + INTRA:          -3.738
REMARK INTER:                  -4.593
REMARK INTRA:                   0.855
REMARK UNBOUND:                 0.855
REMARK SMILES CC1=CC=CC(C)(C)CC1=O
REMARK SMILES IDX 1 1 2 2 3 3 10 4 11 5 9 6 4 8 5 9 6 10 7 11 8 12
REMARK H PARENT
REMARK Flexibility Score: 80.00
ROOT
ATOM      1  C   UNL     1     -16.126 -41.208 213.476  1.00  0.00     0.048 C 
ATOM      2  C   UNL     1     -16.761 -40.183 212.565  1.00  0.00    -0.008 C 
ATOM      3  C   UNL     1     -16.537 -38.878 212.830  1.00  0.00     0.007 C 
ENDROOT
BRANCH   2   4
ATOM      4  C   UNL     1     -17.632 -40.705 211.478  1.00  0.00     0.159 C 
ATOM      5  O   UNL     1     -17.723 -41.954 211.325  1.00  0.00    -0.295 OA
BRANCH   4   6
ATOM      6  C   UNL     1     -18.448 -39.838 210.566  1.00  0.00     0.091 CG0
ATOM      7  G   UNL     1     -17.649 -38.689 209.912  1.00  0.00     0.000 G0
ENDBRANCH   4   6
ENDBRANCH   2   4
BRANCH   3   8
ATOM      8  C   UNL     1     -17.012 -37.672 212.115  1.00  0.00    -0.003 C 
ATOM      9  C   UNL     1     -17.460 -37.568 210.860  1.00  0.00    -0.020 C 
BRANCH   9  10
ATOM     10  C   UNL     1     -17.649 -38.707 209.885  1.00  0.00    -0.010 CG0
ATOM     11  C   UNL     1     -16.282 -39.180 209.340  1.00  0.00     0.016 C 
ATOM     12  C   UNL     1     -18.481 -38.186 208.690  1.00  0.00     0.016 C 
ATOM     13  G   UNL     1     -18.445 -39.841 210.567  1.00  0.00     0.000 G0
ENDBRANCH   9  10
ENDBRANCH   3   8
TORSDOF 0
ENDMDL
MODEL 2
REMARK VINA RESULT:    -3.523      1.604      3.509
REMARK INTER + INTRA:          -3.491
REMARK INTER:                  -4.340
REMARK INTRA:                   0.848
REMARK UNBOUND:                 0.855
REMARK SMILES CC1=CC=CC(C)(C)CC1=O
REMARK SMILES IDX 1 1 2 2 3 3 10 4 11 5 9 6 4 8 5 9 6 10 7 11 8 12
REMARK H PARENT
REMARK Flexibility Score: 80.00
ROOT
ATOM      1  C   UNL     1     -17.901 -37.229 208.852  1.00  0.00     0.048 C 
ATOM      2  C   UNL     1     -17.341 -38.066 209.979  1.00  0.00    -0.008 C 
ATOM      3  C   UNL     1     -17.425 -37.572 211.233  1.00  0.00     0.007 C 
ENDROOT
BRANCH   2   4
ATOM      4  C   UNL     1     -16.690 -39.348 209.599  1.00  0.00     0.159 C 
ATOM      5  O   UNL     1     -16.725 -39.707 208.390  1.00  0.00    -0.295 OA
BRANCH   4   6
ATOM      6  C   UNL     1     -15.954 -40.234 210.559  1.00  0.00     0.091 CG0
ATOM      7  G   UNL     1     -16.764 -40.599 211.823  1.00  0.00     0.000 G0
ENDBRANCH   4   6
ENDBRANCH   2   4
BRANCH   3   8
ATOM      8  C   UNL     1     -16.980 -38.164 212.515  1.00  0.00    -0.003 C 
ATOM      9  C   UNL     1     -16.722 -39.446 212.798  1.00  0.00    -0.020 C 
BRANCH   9  10
ATOM     10  C   UNL     1     -16.766 -40.599 211.823  1.00  0.00    -0.010 CG0
ATOM     11  C   UNL     1     -18.231 -40.986 211.515  1.00  0.00     0.016 C 
ATOM     12  C   UNL     1     -16.082 -41.818 212.485  1.00  0.00     0.016 C 
ATOM     13  G   UNL     1     -15.967 -40.230 210.554  1.00  0.00     0.000 G0
ENDBRANCH   9  10
ENDBRANCH   3   8
TORSDOF 0
ENDMDL
MODEL 3
REMARK VINA RESULT:    -3.485     11.432     12.850
REMARK INTER + INTRA:          -3.445
REMARK INTER:                  -4.285
REMARK INTRA:                   0.840
REMARK UNBOUND:                 0.855
REMARK SMILES CC1=CC=CC(C)(C)CC1=O
REMARK SMILES IDX 1 1 2 2 3 3 10 4 11 5 9 6 4 8 5 9 6 10 7 11 8 12
REMARK H PARENT
REMARK Flexibility Score: 80.00
ROOT
ATOM      1  C   UNL     1      -3.582 -37.890 215.598  1.00  0.00     0.048 C 
ATOM      2  C   UNL     1      -4.878 -38.661 215.697  1.00  0.00    -0.008 C 
ATOM      3  C   UNL     1      -5.773 -38.521 214.696  1.00  0.00     0.007 C 
ENDROOT
BRANCH   2   4
ATOM      4  C   UNL     1      -5.081 -39.471 216.928  1.00  0.00     0.159 C 
ATOM      5  O   UNL     1      -4.150 -39.519 217.779  1.00  0.00    -0.295 OA
BRANCH   4   6
ATOM      6  C   UNL     1      -6.345 -40.211 217.248  1.00  0.00     0.091 CG0
ATOM      7  G   UNL     1      -6.849 -41.117 216.102  1.00  0.00     0.000 G0
ENDBRANCH   4   6
ENDBRANCH   2   4
BRANCH   3   8
ATOM      8  C   UNL     1      -7.101 -39.151 214.518  1.00  0.00    -0.003 C 
ATOM      9  C   UNL     1      -7.578 -40.265 215.083  1.00  0.00    -0.020 C 
BRANCH   9  10
ATOM     10  C   UNL     1      -6.870 -41.118 216.108  1.00  0.00    -0.010 CG0
ATOM     11  C   UNL     1      -5.766 -41.964 215.434  1.00  0.00     0.016 C 
ATOM     12  C   UNL     1      -7.902 -42.090 216.726  1.00  0.00     0.016 C 
ATOM     13  G   UNL     1      -6.324 -40.216 217.238  1.00  0.00     0.000 G0
ENDBRANCH   9  10
ENDBRANCH   3   8
TORSDOF 0
ENDMDL
MODEL 4
REMARK VINA RESULT:    -3.344      2.195      3.385
REMARK INTER + INTRA:          -3.270
REMARK INTER:                  -4.124
REMARK INTRA:                   0.854
REMARK UNBOUND:                 0.855
REMARK SMILES CC1=CC=CC(C)(C)CC1=O
REMARK SMILES IDX 1 1 2 2 3 3 10 4 11 5 9 6 4 8 5 9 6 10 7 11 8 12
REMARK H PARENT
REMARK Flexibility Score: 80.00
ROOT
ATOM      1  C   UNL     1     -17.251 -37.273 212.421  1.00  0.00     0.048 C 
ATOM      2  C   UNL     1     -16.701 -38.596 211.941  1.00  0.00    -0.008 C 
ATOM      3  C   UNL     1     -16.746 -39.644 212.792  1.00  0.00     0.007 C 
ENDROOT
BRANCH   2   4
ATOM      4  C   UNL     1     -16.100 -38.617 210.581  1.00  0.00     0.159 C 
ATOM      5  O   UNL     1     -16.178 -37.576 209.871  1.00  0.00    -0.295 OA
BRANCH   4   6
ATOM      6  C   UNL     1     -15.367 -39.790 210.003  1.00  0.00     0.091 CG0
ATOM      7  G   UNL     1     -16.164 -41.113 210.051  1.00  0.00     0.000 G0
ENDBRANCH   4   6
ENDBRANCH   2   4
BRANCH   3   8
ATOM      8  C   UNL     1     -16.300 -41.042 212.597  1.00  0.00    -0.003 C 
ATOM      9  C   UNL     1     -16.077 -41.695 211.452  1.00  0.00    -0.020 C 
BRANCH   9  10
ATOM     10  C   UNL     1     -16.171 -41.111 210.061  1.00  0.00    -0.010 CG0
ATOM     11  C   UNL     1     -17.651 -40.939 209.649  1.00  0.00     0.016 C 
ATOM     12  C   UNL     1     -15.516 -42.106 209.075  1.00  0.00     0.016 C 
ATOM     13  G   UNL     1     -15.377 -39.787 210.006  1.00  0.00     0.000 G0
ENDBRANCH   9  10
ENDBRANCH   3   8
TORSDOF 0
ENDMDL
MODEL 5
REMARK VINA RESULT:    -3.335      1.912      3.864
REMARK INTER + INTRA:          -3.260
REMARK INTER:                  -4.089
REMARK INTRA:                   0.829
REMARK UNBOUND:                 0.855
REMARK SMILES CC1=CC=CC(C)(C)CC1=O
REMARK SMILES IDX 1 1 2 2 3 3 10 4 11 5 9 6 4 8 5 9 6 10 7 11 8 12
REMARK H PARENT
REMARK Flexibility Score: 80.00
ROOT
ATOM      1  C   UNL     1     -17.901 -37.258 208.960  1.00  0.00     0.048 C 
ATOM      2  C   UNL     1     -17.841 -38.295 210.058  1.00  0.00    -0.008 C 
ATOM      3  C   UNL     1     -18.811 -39.234 210.091  1.00  0.00     0.007 C 
ENDROOT
BRANCH   2   4
ATOM      4  C   UNL     1     -16.741 -38.156 211.048  1.00  0.00     0.159 C 
ATOM      5  O   UNL     1     -15.873 -37.258 210.864  1.00  0.00    -0.295 OA
BRANCH   4   6
ATOM      6  C   UNL     1     -16.611 -38.996 212.284  1.00  0.00     0.091 CG0
ATOM      7  G   UNL     1     -16.676 -40.516 212.019  1.00  0.00     0.000 G0
ENDBRANCH   4   6
ENDBRANCH   2   4
BRANCH   3   8
ATOM      8  C   UNL     1     -19.002 -40.365 211.028  1.00  0.00    -0.003 C 
ATOM      9  C   UNL     1     -18.103 -40.942 211.833  1.00  0.00    -0.020 C 
BRANCH   9  10
ATOM     10  C   UNL     1     -16.667 -40.512 212.018  1.00  0.00    -0.010 CG0
ATOM     11  C   UNL     1     -15.812 -40.962 210.812  1.00  0.00     0.016 C 
ATOM     12  C   UNL     1     -16.112 -41.212 213.281  1.00  0.00     0.016 C 
ATOM     13  G   UNL     1     -16.614 -38.986 212.252  1.00  0.00     0.000 G0
ENDBRANCH   9  10
ENDBRANCH   3   8
TORSDOF 0
ENDMDL
MODEL 6
REMARK VINA RESULT:    -3.176      1.735      2.608
REMARK INTER + INTRA:          -3.063
REMARK INTER:                  -3.913
REMARK INTRA:                   0.850
REMARK UNBOUND:                 0.855
REMARK SMILES CC1=CC=CC(C)(C)CC1=O
REMARK SMILES IDX 1 1 2 2 3 3 10 4 11 5 9 6 4 8 5 9 6 10 7 11 8 12
REMARK H PARENT
REMARK Flexibility Score: 80.00
ROOT
ATOM      1  C   UNL     1     -16.396 -39.783 213.299  1.00  0.00     0.048 C 
ATOM      2  C   UNL     1     -16.736 -39.473 211.860  1.00  0.00    -0.008 C 
ATOM      3  C   UNL     1     -16.484 -40.422 210.933  1.00  0.00     0.007 C 
ENDROOT
BRANCH   2   4
ATOM      4  C   UNL     1     -17.273 -38.115 211.578  1.00  0.00     0.159 C 
ATOM      5  O   UNL     1     -17.492 -37.339 212.550  1.00  0.00    -0.295 OA
BRANCH   4   6
ATOM      6  C   UNL     1     -17.539 -37.584 210.201  1.00  0.00     0.091 CG0
ATOM      7  G   UNL     1     -18.402 -38.519 209.325  1.00  0.00     0.000 G0
ENDBRANCH   4   6
ENDBRANCH   2   4
BRANCH   3   8
ATOM      8  C   UNL     1     -16.721 -40.405 209.472  1.00  0.00    -0.003 C 
ATOM      9  C   UNL     1     -17.552 -39.627 208.770  1.00  0.00    -0.020 C 
BRANCH   9  10
ATOM     10  C   UNL     1     -18.410 -38.514 209.323  1.00  0.00    -0.010 CG0
ATOM     11  C   UNL     1     -19.626 -39.098 210.078  1.00  0.00     0.016 C 
ATOM     12  C   UNL     1     -18.944 -37.679 208.136  1.00  0.00     0.016 C 
ATOM     13  G   UNL     1     -17.545 -37.590 210.209  1.00  0.00     0.000 G0
ENDBRANCH   9  10
ENDBRANCH   3   8
TORSDOF 0
ENDMDL
MODEL 7
REMARK VINA RESULT:    -3.148     12.158     13.252
REMARK INTER + INTRA:          -3.029
REMARK INTER:                  -3.891
REMARK INTRA:                   0.862
REMARK UNBOUND:                 0.855
REMARK SMILES CC1=CC=CC(C)(C)CC1=O
REMARK SMILES IDX 1 1 2 2 3 3 10 4 11 5 9 6 4 8 5 9 6 10 7 11 8 12
REMARK H PARENT
REMARK Flexibility Score: 80.00
ROOT
ATOM      1  C   UNL     1      -5.165 -38.419 218.979  1.00  0.00     0.048 C 
ATOM      2  C   UNL     1      -5.205 -38.949 217.565  1.00  0.00    -0.008 C 
ATOM      3  C   UNL     1      -4.323 -38.442 216.676  1.00  0.00     0.007 C 
ENDROOT
BRANCH   2   4
ATOM      4  C   UNL     1      -6.259 -39.951 217.256  1.00  0.00     0.159 C 
ATOM      5  O   UNL     1      -6.991 -40.366 218.197  1.00  0.00    -0.295 OA
BRANCH   4   6
ATOM      6  C   UNL     1      -6.540 -40.481 215.882  1.00  0.00     0.091 CG0
ATOM      7  G   UNL     1      -5.291 -41.023 215.152  1.00  0.00     0.000 G0
ENDBRANCH   4   6
ENDBRANCH   2   4
BRANCH   3   8
ATOM      8  C   UNL     1      -4.124 -38.771 215.247  1.00  0.00    -0.003 C 
ATOM      9  C   UNL     1      -4.503 -39.868 214.583  1.00  0.00    -0.020 C 
BRANCH   9  10
ATOM     10  C   UNL     1      -5.301 -41.020 215.147  1.00  0.00    -0.010 CG0
ATOM     11  C   UNL     1      -4.411 -41.895 216.059  1.00  0.00     0.016 C 
ATOM     12  C   UNL     1      -5.782 -41.899 213.969  1.00  0.00     0.016 C 
ATOM     13  G   UNL     1      -6.548 -40.472 215.878  1.00  0.00     0.000 G0
ENDBRANCH   9  10
ENDBRANCH   3   8
TORSDOF 0
ENDMDL
MODEL 8
REMARK VINA RESULT:    -3.093     11.528     12.839
REMARK INTER + INTRA:          -2.961
REMARK INTER:                  -3.809
REMARK INTRA:                   0.848
REMARK UNBOUND:                 0.855
REMARK SMILES CC1=CC=CC(C)(C)CC1=O
REMARK SMILES IDX 1 1 2 2 3 3 10 4 11 5 9 6 4 8 5 9 6 10 7 11 8 12
REMARK H PARENT
REMARK Flexibility Score: 80.00
ROOT
ATOM      1  C   UNL     1      -5.064 -38.229 218.163  1.00  0.00     0.048 C 
ATOM      2  C   UNL     1      -5.350 -39.214 217.054  1.00  0.00    -0.008 C 
ATOM      3  C   UNL     1      -6.184 -40.243 217.323  1.00  0.00     0.007 C 
ENDROOT
BRANCH   2   4
ATOM      4  C   UNL     1      -4.640 -38.996 215.766  1.00  0.00     0.159 C 
ATOM      5  O   UNL     1      -3.921 -37.966 215.641  1.00  0.00    -0.295 OA
BRANCH   4   6
ATOM      6  C   UNL     1      -4.689 -39.945 214.607  1.00  0.00     0.091 CG0
ATOM      7  G   UNL     1      -6.121 -40.338 214.178  1.00  0.00     0.000 G0
ENDBRANCH   4   6
ENDBRANCH   2   4
BRANCH   3   8
ATOM      8  C   UNL     1      -6.650 -41.338 216.444  1.00  0.00    -0.003 C 
ATOM      9  C   UNL     1      -6.661 -41.389 215.107  1.00  0.00    -0.020 C 
BRANCH   9  10
ATOM     10  C   UNL     1      -6.122 -40.332 214.172  1.00  0.00    -0.010 CG0
ATOM     11  C   UNL     1      -7.087 -39.126 214.111  1.00  0.00     0.016 C 
ATOM     12  C   UNL     1      -6.034 -40.941 212.753  1.00  0.00     0.016 C 
ATOM     13  G   UNL     1      -4.696 -39.935 214.613  1.00  0.00     0.000 G0
ENDBRANCH   9  10
ENDBRANCH   3   8
TORSDOF 0
ENDMDL
MODEL 9
REMARK VINA RESULT:    -3.071      1.613      2.821
REMARK INTER + INTRA:          -2.933
REMARK INTER:                  -3.787
REMARK INTRA:                   0.854
REMARK UNBOUND:                 0.855
REMARK SMILES CC1=CC=CC(C)(C)CC1=O
REMARK SMILES IDX 1 1 2 2 3 3 10 4 11 5 9 6 4 8 5 9 6 10 7 11 8 12
REMARK H PARENT
REMARK Flexibility Score: 80.00
ROOT
ATOM      1  C   UNL     1     -17.369 -37.256 212.486  1.00  0.00     0.048 C 
ATOM      2  C   UNL     1     -17.316 -38.215 211.320  1.00  0.00    -0.008 C 
ATOM      3  C   UNL     1     -17.615 -37.733 210.094  1.00  0.00     0.007 C 
ENDROOT
BRANCH   2   4
ATOM      4  C   UNL     1     -16.991 -39.631 211.634  1.00  0.00     0.159 C 
ATOM      5  O   UNL     1     -16.706 -39.935 212.825  1.00  0.00    -0.295 OA
BRANCH   4   6
ATOM      6  C   UNL     1     -17.017 -40.743 210.627  1.00  0.00     0.091 CG0
ATOM      7  G   UNL     1     -16.204 -40.449 209.347  1.00  0.00     0.000 G0
ENDBRANCH   4   6
ENDBRANCH   2   4
BRANCH   3   8
ATOM      8  C   UNL     1     -17.635 -38.425 208.785  1.00  0.00    -0.003 C 
ATOM      9  C   UNL     1     -17.027 -39.562 208.432  1.00  0.00    -0.020 C 
BRANCH   9  10
ATOM     10  C   UNL     1     -16.212 -40.454 209.338  1.00  0.00    -0.010 CG0
ATOM     11  C   UNL     1     -14.830 -39.820 209.616  1.00  0.00     0.016 C 
ATOM     12  C   UNL     1     -15.980 -41.799 208.611  1.00  0.00     0.016 C 
ATOM     13  G   UNL     1     -17.009 -40.739 210.631  1.00  0.00     0.000 G0
ENDBRANCH   9  10
ENDBRANCH   3   8
TORSDOF 0
ENDMDL
