MODEL 1
REMARK VINA RESULT:    12.176      0.000      0.000
REMARK INTER + INTRA:          14.663
REMARK INTER:                  15.379
REMARK INTRA:                  -0.716
REMARK UNBOUND:                -0.716
REMARK SMILES Oc1cc(O)cc(CCc2ccccc2O)c1
REMARK SMILES IDX 9 1 10 2 12 3 13 4 11 5 14 6 15 7 16 8 8 10 7 11 6 12 17 13
REMARK SMILES IDX 4 14 2 15 3 16 5 17 1 19
REMARK H PARENT 16 9 5 18 1 20
REMARK Flexibility Score: inf
ROOT
ATOM      1  C   UNL     1      15.324  55.091  60.107  1.00  0.00     0.044 C 
ENDROOT
BRANCH   1   2
ATOM      2  C   UNL     1      15.124  55.125  61.601  1.00  0.00    -0.006 A 
ATOM      3  C   UNL     1      13.618  55.123  63.511  1.00  0.00     0.001 A 
ATOM      4  C   UNL     1      14.712  55.118  64.379  1.00  0.00     0.004 A 
ATOM      5  C   UNL     1      13.821  55.121  62.129  1.00  0.00     0.007 A 
ATOM      6  C   UNL     1      16.011  55.106  63.867  1.00  0.00     0.046 A 
ATOM      7  C   UNL     1      16.225  55.104  62.481  1.00  0.00     0.118 A 
BRANCH   7   8
ATOM      8  O   UNL     1      17.526  55.078  61.977  1.00  0.00    -0.508 OA
ATOM      9  H   UNL     1      18.195  55.806  62.197  1.00  0.00     0.293 HD
ENDBRANCH   7   8
ENDBRANCH   1   2
BRANCH   1  10
ATOM     10  C   UNL     1      14.752  53.798  59.516  1.00  0.00     0.040 C 
BRANCH  10  11
ATOM     11  C   UNL     1      15.483  52.600  60.060  1.00  0.00    -0.040 A 
ATOM     12  C   UNL     1      16.878  52.502  59.929  1.00  0.00     0.050 A 
ATOM     13  C   UNL     1      14.782  51.599  60.753  1.00  0.00     0.050 A 
ATOM     14  C   UNL     1      17.562  51.403  60.465  1.00  0.00     0.119 A 
ATOM     15  C   UNL     1      15.467  50.499  61.288  1.00  0.00     0.119 A 
ATOM     16  C   UNL     1      16.854  50.403  61.139  1.00  0.00     0.092 A 
BRANCH  14  17
ATOM     17  O   UNL     1      18.944  51.294  60.333  1.00  0.00    -0.508 OA
ATOM     18  H   UNL     1      19.541  51.123  61.135  1.00  0.00     0.293 HD
ENDBRANCH  14  17
BRANCH  15  19
ATOM     19  O   UNL     1      14.778  49.499  61.971  1.00  0.00    -0.508 OA
ATOM     20  H   UNL     1      14.943  48.517  61.780  1.00  0.00     0.293 HD
ENDBRANCH  15  19
ENDBRANCH  10  11
ENDBRANCH   1  10
TORSDOF 6
ENDMDL
MODEL 2
REMARK VINA RESULT:    12.226      1.194      2.627
REMARK INTER + INTRA:          14.727
REMARK INTER:                  14.930
REMARK INTRA:                  -0.203
REMARK UNBOUND:                -0.716
REMARK SMILES Oc1cc(O)cc(CCc2ccccc2O)c1
REMARK SMILES IDX 9 1 10 2 12 3 13 4 11 5 14 6 15 7 16 8 8 10 7 11 6 12 17 13
REMARK SMILES IDX 4 14 2 15 3 16 5 17 1 19
REMARK H PARENT 16 9 5 18 1 20
REMARK Flexibility Score: inf
ROOT
ATOM      1  C   UNL     1      15.076  55.123  59.983  1.00  0.00     0.044 C 
ENDROOT
BRANCH   1   2
ATOM      2  C   UNL     1      15.274  55.071  61.477  1.00  0.00    -0.006 A 
ATOM      3  C   UNL     1      16.777  55.044  63.389  1.00  0.00     0.001 A 
ATOM      4  C   UNL     1      15.682  55.043  64.255  1.00  0.00     0.004 A 
ATOM      5  C   UNL     1      16.576  55.062  62.006  1.00  0.00     0.007 A 
ATOM      6  C   UNL     1      14.383  55.066  63.742  1.00  0.00     0.046 A 
ATOM      7  C   UNL     1      14.172  55.086  62.355  1.00  0.00     0.118 A 
BRANCH   7   8
ATOM      8  O   UNL     1      12.871  55.123  61.850  1.00  0.00    -0.508 OA
ATOM      9  H   UNL     1      12.579  54.519  61.092  1.00  0.00     0.293 HD
ENDBRANCH   7   8
ENDBRANCH   1   2
BRANCH   1  10
ATOM     10  C   UNL     1      14.572  53.775  59.459  1.00  0.00     0.040 C 
BRANCH  10  11
ATOM     11  C   UNL     1      15.351  52.644  60.076  1.00  0.00    -0.040 A 
ATOM     12  C   UNL     1      14.697  51.676  60.856  1.00  0.00     0.050 A 
ATOM     13  C   UNL     1      16.728  52.517  59.829  1.00  0.00     0.050 A 
ATOM     14  C   UNL     1      15.417  50.605  61.403  1.00  0.00     0.119 A 
ATOM     15  C   UNL     1      17.448  51.446  60.377  1.00  0.00     0.119 A 
ATOM     16  C   UNL     1      16.791  50.496  61.164  1.00  0.00     0.092 A 
BRANCH  14  17
ATOM     17  O   UNL     1      14.778  49.645  62.183  1.00  0.00    -0.508 OA
ATOM     18  H   UNL     1      15.130  49.386  63.097  1.00  0.00     0.293 HD
ENDBRANCH  14  17
BRANCH  15  19
ATOM     19  O   UNL     1      18.816  51.317  60.141  1.00  0.00    -0.508 OA
ATOM     20  H   UNL     1      19.495  51.459  60.879  1.00  0.00     0.293 HD
ENDBRANCH  15  19
ENDBRANCH  10  11
ENDBRANCH   1  10
TORSDOF 6
ENDMDL
MODEL 3
REMARK VINA RESULT:    13.052      0.114      2.032
REMARK INTER + INTRA:          15.770
REMARK INTER:                  16.539
REMARK INTRA:                  -0.769
REMARK UNBOUND:                -0.716
REMARK SMILES Oc1cc(O)cc(CCc2ccccc2O)c1
REMARK SMILES IDX 9 1 10 2 12 3 13 4 11 5 14 6 15 7 16 8 8 10 7 11 6 12 17 13
REMARK SMILES IDX 4 14 2 15 3 16 5 17 1 19
REMARK H PARENT 16 9 5 18 1 20
REMARK Flexibility Score: inf
ROOT
ATOM      1  C   UNL     1      15.331  55.125  60.227  1.00  0.00     0.044 C 
ENDROOT
BRANCH   1   2
ATOM      2  C   UNL     1      15.124  55.125  61.720  1.00  0.00    -0.006 A 
ATOM      3  C   UNL     1      13.610  55.061  63.623  1.00  0.00     0.001 A 
ATOM      4  C   UNL     1      14.700  55.054  64.496  1.00  0.00     0.004 A 
ATOM      5  C   UNL     1      13.819  55.091  62.242  1.00  0.00     0.007 A 
ATOM      6  C   UNL     1      16.002  55.072  63.990  1.00  0.00     0.046 A 
ATOM      7  C   UNL     1      16.221  55.102  62.604  1.00  0.00     0.118 A 
BRANCH   7   8
ATOM      8  O   UNL     1      17.525  55.106  62.106  1.00  0.00    -0.508 OA
ATOM      9  H   UNL     1      18.311  55.390  62.678  1.00  0.00     0.293 HD
ENDBRANCH   7   8
ENDBRANCH   1   2
BRANCH   1  10
ATOM     10  C   UNL     1      14.776  53.839  59.606  1.00  0.00     0.040 C 
BRANCH  10  11
ATOM     11  C   UNL     1      15.503  52.636  60.145  1.00  0.00    -0.040 A 
ATOM     12  C   UNL     1      14.801  51.637  60.840  1.00  0.00     0.050 A 
ATOM     13  C   UNL     1      16.878  52.477  59.908  1.00  0.00     0.050 A 
ATOM     14  C   UNL     1      15.472  50.502  61.313  1.00  0.00     0.119 A 
ATOM     15  C   UNL     1      17.549  51.341  60.382  1.00  0.00     0.119 A 
ATOM     16  C   UNL     1      16.845  50.359  61.086  1.00  0.00     0.092 A 
BRANCH  14  17
ATOM     17  O   UNL     1      14.786  49.510  62.009  1.00  0.00    -0.508 OA
ATOM     18  H   UNL     1      15.272  48.842  62.596  1.00  0.00     0.293 HD
ENDBRANCH  14  17
BRANCH  15  19
ATOM     19  O   UNL     1      18.915  51.179  60.156  1.00  0.00    -0.508 OA
ATOM     20  H   UNL     1      19.581  51.176  60.920  1.00  0.00     0.293 HD
ENDBRANCH  15  19
ENDBRANCH  10  11
ENDBRANCH   1  10
TORSDOF 6
ENDMDL
MODEL 4
REMARK VINA RESULT:    13.559      1.590      2.817
REMARK INTER + INTRA:          16.410
REMARK INTER:                  15.671
REMARK INTRA:                   0.739
REMARK UNBOUND:                -0.716
REMARK SMILES Oc1cc(O)cc(CCc2ccccc2O)c1
REMARK SMILES IDX 9 1 10 2 12 3 13 4 11 5 14 6 15 7 16 8 8 10 7 11 6 12 17 13
REMARK SMILES IDX 4 14 2 15 3 16 5 17 1 19
REMARK H PARENT 16 9 5 18 1 20
REMARK Flexibility Score: inf
ROOT
ATOM      1  C   UNL     1      17.592  54.528  62.004  1.00  0.00     0.044 C 
ENDROOT
BRANCH   1   2
ATOM      2  C   UNL     1      16.204  54.691  62.572  1.00  0.00    -0.006 A 
ATOM      3  C   UNL     1      14.738  54.835  64.507  1.00  0.00     0.001 A 
ATOM      4  C   UNL     1      13.645  55.061  63.668  1.00  0.00     0.004 A 
ATOM      5  C   UNL     1      16.013  54.656  63.964  1.00  0.00     0.007 A 
ATOM      6  C   UNL     1      13.824  55.114  62.284  1.00  0.00     0.046 A 
ATOM      7  C   UNL     1      15.101  54.935  61.729  1.00  0.00     0.118 A 
BRANCH   7   8
ATOM      8  O   UNL     1      15.274  55.003  60.346  1.00  0.00    -0.508 OA
ATOM      9  H   UNL     1      15.300  54.168  59.773  1.00  0.00     0.293 HD
ENDBRANCH   7   8
ENDBRANCH   1   2
BRANCH   1  10
ATOM     10  C   UNL     1      17.987  53.048  61.965  1.00  0.00     0.040 C 
BRANCH  10  11
ATOM     11  C   UNL     1      16.897  52.227  61.329  1.00  0.00    -0.040 A 
ATOM     12  C   UNL     1      16.349  51.128  62.010  1.00  0.00     0.050 A 
ATOM     13  C   UNL     1      16.382  52.590  60.073  1.00  0.00     0.050 A 
ATOM     14  C   UNL     1      15.312  50.384  61.431  1.00  0.00     0.119 A 
ATOM     15  C   UNL     1      15.345  51.844  59.495  1.00  0.00     0.119 A 
ATOM     16  C   UNL     1      14.815  50.742  60.174  1.00  0.00     0.092 A 
BRANCH  14  17
ATOM     17  O   UNL     1      14.768  49.288  62.096  1.00  0.00    -0.508 OA
ATOM     18  H   UNL     1      13.778  49.233  62.304  1.00  0.00     0.293 HD
ENDBRANCH  14  17
BRANCH  15  19
ATOM     19  O   UNL     1      14.832  52.193  58.246  1.00  0.00    -0.508 OA
ATOM     20  H   UNL     1      13.895  51.929  57.966  1.00  0.00     0.293 HD
ENDBRANCH  15  19
ENDBRANCH  10  11
ENDBRANCH   1  10
TORSDOF 6
ENDMDL
MODEL 5
REMARK VINA RESULT:    13.626      1.606      2.416
REMARK INTER + INTRA:          16.495
REMARK INTER:                  15.704
REMARK INTRA:                   0.791
REMARK UNBOUND:                -0.716
REMARK SMILES Oc1cc(O)cc(CCc2ccccc2O)c1
REMARK SMILES IDX 9 1 10 2 12 3 13 4 11 5 14 6 15 7 16 8 8 10 7 11 6 12 17 13
REMARK SMILES IDX 4 14 2 15 3 16 5 17 1 19
REMARK H PARENT 16 9 5 18 1 20
REMARK Flexibility Score: inf
ROOT
ATOM      1  C   UNL     1      17.529  54.571  62.006  1.00  0.00     0.044 C 
ENDROOT
BRANCH   1   2
ATOM      2  C   UNL     1      16.154  54.737  62.601  1.00  0.00    -0.006 A 
ATOM      3  C   UNL     1      14.732  54.923  64.566  1.00  0.00     0.001 A 
ATOM      4  C   UNL     1      13.617  55.112  63.747  1.00  0.00     0.004 A 
ATOM      5  C   UNL     1      15.996  54.741  63.997  1.00  0.00     0.007 A 
ATOM      6  C   UNL     1      13.763  55.125  62.357  1.00  0.00     0.046 A 
ATOM      7  C   UNL     1      15.028  54.943  61.778  1.00  0.00     0.118 A 
BRANCH   7   8
ATOM      8  O   UNL     1      15.168  54.972  60.390  1.00  0.00    -0.508 OA
ATOM      9  H   UNL     1      15.281  55.843  59.885  1.00  0.00     0.293 HD
ENDBRANCH   7   8
ENDBRANCH   1   2
BRANCH   1  10
ATOM     10  C   UNL     1      17.947  53.097  62.017  1.00  0.00     0.040 C 
BRANCH  10  11
ATOM     11  C   UNL     1      16.890  52.244  61.368  1.00  0.00    -0.040 A 
ATOM     12  C   UNL     1      16.341  52.616  60.129  1.00  0.00     0.050 A 
ATOM     13  C   UNL     1      16.485  51.041  61.969  1.00  0.00     0.050 A 
ATOM     14  C   UNL     1      15.381  51.805  59.509  1.00  0.00     0.119 A 
ATOM     15  C   UNL     1      15.523  50.230  61.349  1.00  0.00     0.119 A 
ATOM     16  C   UNL     1      14.973  50.616  60.123  1.00  0.00     0.092 A 
BRANCH  14  17
ATOM     17  O   UNL     1      14.828  52.170  58.285  1.00  0.00    -0.508 OA
ATOM     18  H   UNL     1      13.865  52.480  58.210  1.00  0.00     0.293 HD
ENDBRANCH  14  17
BRANCH  15  19
ATOM     19  O   UNL     1      15.112  49.038  61.943  1.00  0.00    -0.508 OA
ATOM     20  H   UNL     1      14.463  48.412  61.480  1.00  0.00     0.293 HD
ENDBRANCH  15  19
ENDBRANCH  10  11
ENDBRANCH   1  10
TORSDOF 6
ENDMDL
MODEL 6
REMARK VINA RESULT:    14.023      1.489      4.506
REMARK INTER + INTRA:          16.997
REMARK INTER:                  15.953
REMARK INTRA:                   1.044
REMARK UNBOUND:                -0.716
REMARK SMILES Oc1cc(O)cc(CCc2ccccc2O)c1
REMARK SMILES IDX 9 1 10 2 12 3 13 4 11 5 14 6 15 7 16 8 8 10 7 11 6 12 17 13
REMARK SMILES IDX 4 14 2 15 3 16 5 17 1 19
REMARK H PARENT 16 9 5 18 1 20
REMARK Flexibility Score: inf
ROOT
ATOM      1  C   UNL     1      15.253  53.298  58.974  1.00  0.00     0.044 C 
ENDROOT
BRANCH   1   2
ATOM      2  C   UNL     1      15.405  52.177  59.971  1.00  0.00    -0.006 A 
ATOM      3  C   UNL     1      14.409  50.701  61.628  1.00  0.00     0.001 A 
ATOM      4  C   UNL     1      15.632  50.047  61.788  1.00  0.00     0.004 A 
ATOM      5  C   UNL     1      14.293  51.758  60.721  1.00  0.00     0.007 A 
ATOM      6  C   UNL     1      16.741  50.445  61.037  1.00  0.00     0.046 A 
ATOM      7  C   UNL     1      16.634  51.504  60.124  1.00  0.00     0.118 A 
BRANCH   7   8
ATOM      8  O   UNL     1      17.742  51.886  59.367  1.00  0.00    -0.508 OA
ATOM      9  H   UNL     1      18.616  52.154  59.804  1.00  0.00     0.293 HD
ENDBRANCH   7   8
ENDBRANCH   1   2
BRANCH   1  10
ATOM     10  C   UNL     1      14.872  54.601  59.682  1.00  0.00     0.040 C 
BRANCH  10  11
ATOM     11  C   UNL     1      15.336  54.579  61.114  1.00  0.00    -0.040 A 
ATOM     12  C   UNL     1      14.440  54.877  62.154  1.00  0.00     0.050 A 
ATOM     13  C   UNL     1      16.654  54.205  61.424  1.00  0.00     0.050 A 
ATOM     14  C   UNL     1      14.863  54.824  63.488  1.00  0.00     0.119 A 
ATOM     15  C   UNL     1      17.077  54.153  62.759  1.00  0.00     0.119 A 
ATOM     16  C   UNL     1      16.181  54.466  63.787  1.00  0.00     0.092 A 
BRANCH  14  17
ATOM     17  O   UNL     1      13.983  55.125  64.525  1.00  0.00    -0.508 OA
ATOM     18  H   UNL     1      13.866  56.074  64.861  1.00  0.00     0.293 HD
ENDBRANCH  14  17
BRANCH  15  19
ATOM     19  O   UNL     1      18.385  53.789  63.075  1.00  0.00    -0.508 OA
ATOM     20  H   UNL     1      19.179  54.307  62.719  1.00  0.00     0.293 HD
ENDBRANCH  15  19
ENDBRANCH  10  11
ENDBRANCH   1  10
TORSDOF 6
ENDMDL
MODEL 7
REMARK VINA RESULT:    14.318      1.505      4.122
REMARK INTER + INTRA:          17.369
REMARK INTER:                  16.218
REMARK INTRA:                   1.151
REMARK UNBOUND:                -0.716
REMARK SMILES Oc1cc(O)cc(CCc2ccccc2O)c1
REMARK SMILES IDX 9 1 10 2 12 3 13 4 11 5 14 6 15 7 16 8 8 10 7 11 6 12 17 13
REMARK SMILES IDX 4 14 2 15 3 16 5 17 1 19
REMARK H PARENT 16 9 5 18 1 20
REMARK Flexibility Score: inf
ROOT
ATOM      1  C   UNL     1      15.150  53.120  58.938  1.00  0.00     0.044 C 
ENDROOT
BRANCH   1   2
ATOM      2  C   UNL     1      15.332  52.041  59.975  1.00  0.00    -0.006 A 
ATOM      3  C   UNL     1      14.375  50.595  61.681  1.00  0.00     0.001 A 
ATOM      4  C   UNL     1      15.617  49.986  61.869  1.00  0.00     0.004 A 
ATOM      5  C   UNL     1      14.230  51.614  60.736  1.00  0.00     0.007 A 
ATOM      6  C   UNL     1      16.717  50.391  61.108  1.00  0.00     0.046 A 
ATOM      7  C   UNL     1      16.581  51.413  60.157  1.00  0.00     0.118 A 
BRANCH   7   8
ATOM      8  O   UNL     1      17.680  51.802  59.391  1.00  0.00    -0.508 OA
ATOM      9  H   UNL     1      17.612  52.541  58.701  1.00  0.00     0.293 HD
ENDBRANCH   7   8
ENDBRANCH   1   2
BRANCH   1  10
ATOM     10  C   UNL     1      14.951  54.483  59.607  1.00  0.00     0.040 C 
BRANCH  10  11
ATOM     11  C   UNL     1      15.370  54.428  61.052  1.00  0.00    -0.040 A 
ATOM     12  C   UNL     1      16.684  54.068  61.395  1.00  0.00     0.050 A 
ATOM     13  C   UNL     1      14.467  54.791  62.065  1.00  0.00     0.050 A 
ATOM     14  C   UNL     1      17.084  54.049  62.738  1.00  0.00     0.119 A 
ATOM     15  C   UNL     1      14.867  54.771  63.408  1.00  0.00     0.119 A 
ATOM     16  C   UNL     1      16.173  54.397  63.740  1.00  0.00     0.092 A 
BRANCH  14  17
ATOM     17  O   UNL     1      18.383  53.687  63.086  1.00  0.00    -0.508 OA
ATOM     18  H   UNL     1      18.920  54.225  63.756  1.00  0.00     0.293 HD
ENDBRANCH  14  17
BRANCH  15  19
ATOM     19  O   UNL     1      13.975  55.123  64.419  1.00  0.00    -0.508 OA
ATOM     20  H   UNL     1      13.312  54.456  64.796  1.00  0.00     0.293 HD
ENDBRANCH  15  19
ENDBRANCH  10  11
ENDBRANCH   1  10
TORSDOF 6
ENDMDL
MODEL 8
REMARK VINA RESULT:    14.569      1.175      1.661
REMARK INTER + INTRA:          17.686
REMARK INTER:                  17.852
REMARK INTRA:                  -0.166
REMARK UNBOUND:                -0.716
REMARK SMILES Oc1cc(O)cc(CCc2ccccc2O)c1
REMARK SMILES IDX 9 1 10 2 12 3 13 4 11 5 14 6 15 7 16 8 8 10 7 11 6 12 17 13
REMARK SMILES IDX 4 14 2 15 3 16 5 17 1 19
REMARK H PARENT 16 9 5 18 1 20
REMARK Flexibility Score: inf
ROOT
ATOM      1  C   UNL     1      15.271  55.125  59.900  1.00  0.00     0.044 C 
ENDROOT
BRANCH   1   2
ATOM      2  C   UNL     1      15.372  55.077  61.403  1.00  0.00    -0.006 A 
ATOM      3  C   UNL     1      16.749  55.058  63.408  1.00  0.00     0.001 A 
ATOM      4  C   UNL     1      15.601  55.057  64.202  1.00  0.00     0.004 A 
ATOM      5  C   UNL     1      16.637  55.073  62.016  1.00  0.00     0.007 A 
ATOM      6  C   UNL     1      14.338  55.076  63.606  1.00  0.00     0.046 A 
ATOM      7  C   UNL     1      14.216  55.091  62.209  1.00  0.00     0.118 A 
BRANCH   7   8
ATOM      8  O   UNL     1      12.951  55.125  61.621  1.00  0.00    -0.508 OA
ATOM      9  H   UNL     1      12.790  55.583  60.732  1.00  0.00     0.293 HD
ENDBRANCH   7   8
ENDBRANCH   1   2
BRANCH   1  10
ATOM     10  C   UNL     1      14.740  53.796  59.353  1.00  0.00     0.040 C 
BRANCH  10  11
ATOM     11  C   UNL     1      15.473  52.638  59.977  1.00  0.00    -0.040 A 
ATOM     12  C   UNL     1      16.870  52.545  59.873  1.00  0.00     0.050 A 
ATOM     13  C   UNL     1      14.769  51.672  60.715  1.00  0.00     0.050 A 
ATOM     14  C   UNL     1      17.555  51.485  60.482  1.00  0.00     0.119 A 
ATOM     15  C   UNL     1      15.455  50.612  61.324  1.00  0.00     0.119 A 
ATOM     16  C   UNL     1      16.845  50.520  61.203  1.00  0.00     0.092 A 
BRANCH  14  17
ATOM     17  O   UNL     1      18.940  51.383  60.378  1.00  0.00    -0.508 OA
ATOM     18  H   UNL     1      19.556  52.054  60.824  1.00  0.00     0.293 HD
ENDBRANCH  14  17
BRANCH  15  19
ATOM     19  O   UNL     1      14.763  49.646  62.053  1.00  0.00    -0.508 OA
ATOM     20  H   UNL     1      13.750  49.613  62.060  1.00  0.00     0.293 HD
ENDBRANCH  15  19
ENDBRANCH  10  11
ENDBRANCH   1  10
TORSDOF 6
ENDMDL
