MODEL 1
REMARK VINA RESULT:    12.655      0.000      0.000
REMARK INTER + INTRA:          14.603
REMARK INTER:                  14.874
REMARK INTRA:                  -0.271
REMARK UNBOUND:                -0.271
REMARK SMILES O=c1cc(-c2ccc(O)c(O)c2)oc2cc(O)cc(O)c12
REMARK SMILES IDX 4 1 3 2 2 3 1 4 21 5 19 6 18 7 16 8 15 9 14 10 13 11 5 12
REMARK SMILES IDX 6 13 7 14 8 15 12 16 10 17 9 18 11 20 20 22 17 24
REMARK H PARENT 9 19 11 21 20 23 17 25
REMARK Flexibility Score: inf
ROOT
ATOM      1  C   UNL     1     -19.482  -7.030  12.075  1.00  0.00     0.138 A 
ATOM      2  C   UNL     1     -20.370  -7.757  12.881  1.00  0.00     0.100 A 
ATOM      3  C   UNL     1     -20.685  -9.075  12.546  1.00  0.00     0.197 A 
ATOM      4  O   UNL     1     -21.435  -9.720  13.321  1.00  0.00    -0.289 OA
ATOM      5  C   UNL     1     -20.132  -9.655  11.379  1.00  0.00     0.107 A 
ATOM      6  C   UNL     1     -20.414 -10.976  10.917  1.00  0.00     0.134 A 
ATOM      7  C   UNL     1     -19.717 -11.483   9.814  1.00  0.00     0.093 A 
ATOM      8  C   UNL     1     -18.793 -10.698   9.120  1.00  0.00     0.123 A 
ATOM      9  C   UNL     1     -18.552  -9.389   9.531  1.00  0.00     0.094 A 
ATOM     10  C   UNL     1     -19.204  -8.865  10.648  1.00  0.00     0.146 A 
ATOM     11  O   UNL     1     -18.934  -7.617  11.016  1.00  0.00    -0.456 OA
ENDROOT
BRANCH   1  12
ATOM     12  C   UNL     1     -19.113  -5.625  12.385  1.00  0.00     0.021 A 
ATOM     13  C   UNL     1     -20.020  -4.564  12.199  1.00  0.00     0.016 A 
ATOM     14  C   UNL     1     -19.643  -3.251  12.488  1.00  0.00     0.051 A 
ATOM     15  C   UNL     1     -18.354  -2.972  12.960  1.00  0.00     0.157 A 
ATOM     16  C   UNL     1     -17.817  -5.335  12.846  1.00  0.00     0.062 A 
ATOM     17  C   UNL     1     -17.436  -4.020  13.137  1.00  0.00     0.158 A 
BRANCH  15  18
ATOM     18  O   UNL     1     -17.981  -1.660  13.249  1.00  0.00    -0.504 OA
ATOM     19  H   UNL     1     -18.320  -1.182  14.075  1.00  0.00     0.293 HD
ENDBRANCH  15  18
BRANCH  17  20
ATOM     20  O   UNL     1     -16.144  -3.776  13.602  1.00  0.00    -0.504 OA
ATOM     21  H   UNL     1     -15.546  -3.075  13.182  1.00  0.00     0.293 HD
ENDBRANCH  17  20
ENDBRANCH   1  12
BRANCH   6  22
ATOM     22  O   UNL     1     -21.379 -11.813  11.486  1.00  0.00    -0.507 OA
ATOM     23  H   UNL     1     -22.213 -11.496  11.955  1.00  0.00     0.293 HD
ENDBRANCH   6  22
BRANCH   8  24
ATOM     24  O   UNL     1     -18.117 -11.206   8.014  1.00  0.00    -0.508 OA
ATOM     25  H   UNL     1     -18.581 -11.335   7.122  1.00  0.00     0.293 HD
ENDBRANCH   8  24
TORSDOF 5
ENDMDL
MODEL 2
REMARK VINA RESULT:    13.568     10.743     15.172
REMARK INTER + INTRA:          15.676
REMARK INTER:                  15.946
REMARK INTRA:                  -0.270
REMARK UNBOUND:                -0.271
REMARK SMILES O=c1cc(-c2ccc(O)c(O)c2)oc2cc(O)cc(O)c12
REMARK SMILES IDX 4 1 3 2 2 3 1 4 21 5 19 6 18 7 16 8 15 9 14 10 13 11 5 12
REMARK SMILES IDX 6 13 7 14 8 15 12 16 10 17 9 18 11 20 20 22 17 24
REMARK H PARENT 9 19 11 21 20 23 17 25
REMARK Flexibility Score: inf
ROOT
ATOM      1  C   UNL     1     -17.273   4.140  18.405  1.00  0.00     0.138 A 
ATOM      2  C   UNL     1     -16.885   5.480  18.546  1.00  0.00     0.100 A 
ATOM      3  C   UNL     1     -17.362   6.227  19.624  1.00  0.00     0.197 A 
ATOM      4  O   UNL     1     -16.947   7.407  19.758  1.00  0.00    -0.289 OA
ATOM      5  C   UNL     1     -18.259   5.637  20.546  1.00  0.00     0.107 A 
ATOM      6  C   UNL     1     -18.842   6.315  21.659  1.00  0.00     0.134 A 
ATOM      7  C   UNL     1     -19.624   5.596  22.571  1.00  0.00     0.093 A 
ATOM      8  C   UNL     1     -19.894   4.239  22.378  1.00  0.00     0.123 A 
ATOM      9  C   UNL     1     -19.374   3.582  21.265  1.00  0.00     0.094 A 
ATOM     10  C   UNL     1     -18.561   4.262  20.356  1.00  0.00     0.146 A 
ATOM     11  O   UNL     1     -18.072   3.594  19.316  1.00  0.00    -0.456 OA
ENDROOT
BRANCH   1  12
ATOM     12  C   UNL     1     -16.796   3.299  17.278  1.00  0.00     0.021 A 
ATOM     13  C   UNL     1     -15.498   2.751  17.262  1.00  0.00     0.016 A 
ATOM     14  C   UNL     1     -15.072   1.972  16.184  1.00  0.00     0.051 A 
ATOM     15  C   UNL     1     -15.927   1.732  15.102  1.00  0.00     0.157 A 
ATOM     16  C   UNL     1     -17.644   3.065  16.181  1.00  0.00     0.062 A 
ATOM     17  C   UNL     1     -17.219   2.284  15.100  1.00  0.00     0.158 A 
BRANCH  15  18
ATOM     18  O   UNL     1     -15.498   0.953  14.028  1.00  0.00    -0.504 OA
ATOM     19  H   UNL     1     -14.618   1.134  13.560  1.00  0.00     0.293 HD
ENDBRANCH  15  18
BRANCH  17  20
ATOM     20  O   UNL     1     -18.094   2.068  14.036  1.00  0.00    -0.504 OA
ATOM     21  H   UNL     1     -19.080   1.887  14.180  1.00  0.00     0.293 HD
ENDBRANCH  17  20
ENDBRANCH   1  12
BRANCH   6  22
ATOM     22  O   UNL     1     -18.706   7.686  21.897  1.00  0.00    -0.507 OA
ATOM     23  H   UNL     1     -18.477   8.373  21.196  1.00  0.00     0.293 HD
ENDBRANCH   6  22
BRANCH   8  24
ATOM     24  O   UNL     1     -20.687   3.536  23.282  1.00  0.00    -0.508 OA
ATOM     25  H   UNL     1     -20.712   2.523  23.288  1.00  0.00     0.293 HD
ENDBRANCH   8  24
TORSDOF 5
ENDMDL
MODEL 3
REMARK VINA RESULT:    13.699      1.207      3.035
REMARK INTER + INTRA:          15.830
REMARK INTER:                  16.104
REMARK INTRA:                  -0.273
REMARK UNBOUND:                -0.271
REMARK SMILES O=c1cc(-c2ccc(O)c(O)c2)oc2cc(O)cc(O)c12
REMARK SMILES IDX 4 1 3 2 2 3 1 4 21 5 19 6 18 7 16 8 15 9 14 10 13 11 5 12
REMARK SMILES IDX 6 13 7 14 8 15 12 16 10 17 9 18 11 20 20 22 17 24
REMARK H PARENT 9 19 11 21 20 23 17 25
REMARK Flexibility Score: inf
ROOT
ATOM      1  C   UNL     1     -18.675  -7.004  11.348  1.00  0.00     0.138 A 
ATOM      2  C   UNL     1     -17.871  -7.358  10.256  1.00  0.00     0.100 A 
ATOM      3  C   UNL     1     -17.996  -8.627   9.689  1.00  0.00     0.197 A 
ATOM      4  O   UNL     1     -17.305  -8.894   8.672  1.00  0.00    -0.289 OA
ATOM      5  C   UNL     1     -18.908  -9.558  10.242  1.00  0.00     0.107 A 
ATOM      6  C   UNL     1     -19.091 -10.893   9.773  1.00  0.00     0.134 A 
ATOM      7  C   UNL     1     -20.107 -11.684  10.324  1.00  0.00     0.093 A 
ATOM      8  C   UNL     1     -20.906 -11.209  11.366  1.00  0.00     0.123 A 
ATOM      9  C   UNL     1     -20.699  -9.926  11.867  1.00  0.00     0.094 A 
ATOM     10  C   UNL     1     -19.718  -9.100  11.316  1.00  0.00     0.146 A 
ATOM     11  O   UNL     1     -19.564  -7.876  11.813  1.00  0.00    -0.456 OA
ENDROOT
BRANCH   1  12
ATOM     12  C   UNL     1     -18.584  -5.668  11.989  1.00  0.00     0.021 A 
ATOM     13  C   UNL     1     -17.431  -5.260  12.687  1.00  0.00     0.016 A 
ATOM     14  C   UNL     1     -17.376  -4.001  13.290  1.00  0.00     0.051 A 
ATOM     15  C   UNL     1     -18.470  -3.130  13.213  1.00  0.00     0.157 A 
ATOM     16  C   UNL     1     -19.683  -4.793  11.927  1.00  0.00     0.062 A 
ATOM     17  C   UNL     1     -19.631  -3.531  12.530  1.00  0.00     0.158 A 
BRANCH  15  18
ATOM     18  O   UNL     1     -18.411  -1.875  13.815  1.00  0.00    -0.504 OA
ATOM     19  H   UNL     1     -18.337  -1.026  13.265  1.00  0.00     0.293 HD
ENDBRANCH  15  18
BRANCH  17  20
ATOM     20  O   UNL     1     -20.739  -2.689  12.438  1.00  0.00    -0.504 OA
ATOM     21  H   UNL     1     -21.058  -2.133  13.222  1.00  0.00     0.293 HD
ENDBRANCH  17  20
ENDBRANCH   1  12
BRANCH   6  22
ATOM     22  O   UNL     1     -18.291 -11.494   8.796  1.00  0.00    -0.507 OA
ATOM     23  H   UNL     1     -17.297 -11.358   8.701  1.00  0.00     0.293 HD
ENDBRANCH   6  22
BRANCH   8  24
ATOM     24  O   UNL     1     -21.904 -12.009  11.918  1.00  0.00    -0.508 OA
ATOM     25  H   UNL     1     -22.109 -11.991  12.911  1.00  0.00     0.293 HD
ENDBRANCH   8  24
TORSDOF 5
ENDMDL
MODEL 4
REMARK VINA RESULT:    14.043      9.996     13.399
REMARK INTER + INTRA:          16.235
REMARK INTER:                  16.516
REMARK INTRA:                  -0.281
REMARK UNBOUND:                -0.271
REMARK SMILES O=c1cc(-c2ccc(O)c(O)c2)oc2cc(O)cc(O)c12
REMARK SMILES IDX 4 1 3 2 2 3 1 4 21 5 19 6 18 7 16 8 15 9 14 10 13 11 5 12
REMARK SMILES IDX 6 13 7 14 8 15 12 16 10 17 9 18 11 20 20 22 17 24
REMARK H PARENT 9 19 11 21 20 23 17 25
REMARK Flexibility Score: inf
ROOT
ATOM      1  C   UNL     1     -17.251   4.428  17.588  1.00  0.00     0.138 A 
ATOM      2  C   UNL     1     -16.171   3.553  17.406  1.00  0.00     0.100 A 
ATOM      3  C   UNL     1     -16.184   2.653  16.339  1.00  0.00     0.197 A 
ATOM      4  O   UNL     1     -15.174   1.925  16.165  1.00  0.00    -0.289 OA
ATOM      5  C   UNL     1     -17.301   2.608  15.470  1.00  0.00     0.107 A 
ATOM      6  C   UNL     1     -17.442   1.704  14.375  1.00  0.00     0.134 A 
ATOM      7  C   UNL     1     -18.539   1.831  13.513  1.00  0.00     0.093 A 
ATOM      8  C   UNL     1     -19.529   2.789  13.742  1.00  0.00     0.123 A 
ATOM      9  C   UNL     1     -19.428   3.640  14.841  1.00  0.00     0.094 A 
ATOM     10  C   UNL     1     -18.329   3.562  15.698  1.00  0.00     0.146 A 
ATOM     11  O   UNL     1     -18.263   4.404  16.726  1.00  0.00    -0.456 OA
ENDROOT
BRANCH   1  12
ATOM     12  C   UNL     1     -17.290   5.405  18.706  1.00  0.00     0.021 A 
ATOM     13  C   UNL     1     -16.262   6.348  18.898  1.00  0.00     0.016 A 
ATOM     14  C   UNL     1     -16.318   7.249  19.965  1.00  0.00     0.051 A 
ATOM     15  C   UNL     1     -17.395   7.221  20.860  1.00  0.00     0.157 A 
ATOM     16  C   UNL     1     -18.360   5.374  19.617  1.00  0.00     0.062 A 
ATOM     17  C   UNL     1     -18.419   6.275  20.686  1.00  0.00     0.158 A 
BRANCH  15  18
ATOM     18  O   UNL     1     -17.448   8.122  21.922  1.00  0.00    -0.504 OA
ATOM     19  H   UNL     1     -17.258   9.108  21.791  1.00  0.00     0.293 HD
ENDBRANCH  15  18
BRANCH  17  20
ATOM     20  O   UNL     1     -19.503   6.217  21.561  1.00  0.00    -0.504 OA
ATOM     21  H   UNL     1     -20.256   5.550  21.441  1.00  0.00     0.293 HD
ENDBRANCH  17  20
ENDBRANCH   1  12
BRANCH   6  22
ATOM     22  O   UNL     1     -16.555   0.658  14.107  1.00  0.00    -0.507 OA
ATOM     23  H   UNL     1     -16.818  -0.310  14.007  1.00  0.00     0.293 HD
ENDBRANCH   6  22
BRANCH   8  24
ATOM     24  O   UNL     1     -20.625   2.897  12.889  1.00  0.00    -0.508 OA
ATOM     25  H   UNL     1     -20.631   2.456  11.976  1.00  0.00     0.293 HD
ENDBRANCH   8  24
TORSDOF 5
ENDMDL
MODEL 5
REMARK VINA RESULT:    14.279      8.831     11.540
REMARK INTER + INTRA:          16.512
REMARK INTER:                  16.776
REMARK INTRA:                  -0.263
REMARK UNBOUND:                -0.271
REMARK SMILES O=c1cc(-c2ccc(O)c(O)c2)oc2cc(O)cc(O)c12
REMARK SMILES IDX 4 1 3 2 2 3 1 4 21 5 19 6 18 7 16 8 15 9 14 10 13 11 5 12
REMARK SMILES IDX 6 13 7 14 8 15 12 16 10 17 9 18 11 20 20 22 17 24
REMARK H PARENT 9 19 11 21 20 23 17 25
REMARK Flexibility Score: inf
ROOT
ATOM      1  C   UNL     1     -20.616   2.846  13.257  1.00  0.00     0.138 A 
ATOM      2  C   UNL     1     -20.149   3.933  14.009  1.00  0.00     0.100 A 
ATOM      3  C   UNL     1     -18.909   3.850  14.645  1.00  0.00     0.197 A 
ATOM      4  O   UNL     1     -18.489   4.864  15.260  1.00  0.00    -0.289 OA
ATOM      5  C   UNL     1     -18.150   2.659  14.554  1.00  0.00     0.107 A 
ATOM      6  C   UNL     1     -16.892   2.447  15.195  1.00  0.00     0.134 A 
ATOM      7  C   UNL     1     -16.177   1.271  14.937  1.00  0.00     0.093 A 
ATOM      8  C   UNL     1     -16.701   0.274  14.110  1.00  0.00     0.123 A 
ATOM      9  C   UNL     1     -17.953   0.449  13.524  1.00  0.00     0.094 A 
ATOM     10  C   UNL     1     -18.675   1.626  13.733  1.00  0.00     0.146 A 
ATOM     11  O   UNL     1     -19.858   1.760  13.142  1.00  0.00    -0.456 OA
ENDROOT
BRANCH   1  12
ATOM     12  C   UNL     1     -21.927   2.879  12.561  1.00  0.00     0.021 A 
ATOM     13  C   UNL     1     -22.017   3.008  11.161  1.00  0.00     0.016 A 
ATOM     14  C   UNL     1     -23.263   3.047  10.532  1.00  0.00     0.051 A 
ATOM     15  C   UNL     1     -24.440   2.966  11.287  1.00  0.00     0.157 A 
ATOM     16  C   UNL     1     -23.113   2.812  13.312  1.00  0.00     0.062 A 
ATOM     17  C   UNL     1     -24.363   2.851  12.685  1.00  0.00     0.158 A 
BRANCH  15  18
ATOM     18  O   UNL     1     -25.683   3.004  10.656  1.00  0.00    -0.504 OA
ATOM     19  H   UNL     1     -26.234   2.165  10.518  1.00  0.00     0.293 HD
ENDBRANCH  15  18
BRANCH  17  20
ATOM     20  O   UNL     1     -25.516   2.772  13.466  1.00  0.00    -0.504 OA
ATOM     21  H   UNL     1     -25.477   2.697  14.476  1.00  0.00     0.293 HD
ENDBRANCH  17  20
ENDBRANCH   1  12
BRANCH   6  22
ATOM     22  O   UNL     1     -16.318   3.340  16.105  1.00  0.00    -0.507 OA
ATOM     23  H   UNL     1     -15.871   3.076  16.969  1.00  0.00     0.293 HD
ENDBRANCH   6  22
BRANCH   8  24
ATOM     24  O   UNL     1     -15.989  -0.899  13.872  1.00  0.00    -0.508 OA
ATOM     25  H   UNL     1     -16.267  -1.781  14.289  1.00  0.00     0.293 HD
ENDBRANCH   8  24
TORSDOF 5
ENDMDL
MODEL 6
REMARK VINA RESULT:    15.578      1.572      2.511
REMARK INTER + INTRA:          18.040
REMARK INTER:                  18.320
REMARK INTRA:                  -0.280
REMARK UNBOUND:                -0.271
REMARK SMILES O=c1cc(-c2ccc(O)c(O)c2)oc2cc(O)cc(O)c12
REMARK SMILES IDX 4 1 3 2 2 3 1 4 21 5 19 6 18 7 16 8 15 9 14 10 13 11 5 12
REMARK SMILES IDX 6 13 7 14 8 15 12 16 10 17 9 18 11 20 20 22 17 24
REMARK H PARENT 9 19 11 21 20 23 17 25
REMARK Flexibility Score: inf
ROOT
ATOM      1  C   UNL     1     -19.264  -6.575  11.746  1.00  0.00     0.138 A 
ATOM      2  C   UNL     1     -19.586  -6.921  10.426  1.00  0.00     0.100 A 
ATOM      3  C   UNL     1     -19.668  -8.267  10.066  1.00  0.00     0.197 A 
ATOM      4  O   UNL     1     -20.020  -8.545   8.891  1.00  0.00    -0.289 OA
ATOM      5  C   UNL     1     -19.393  -9.270  11.025  1.00  0.00     0.107 A 
ATOM      6  C   UNL     1     -19.405 -10.672  10.760  1.00  0.00     0.134 A 
ATOM      7  C   UNL     1     -19.233 -11.575  11.816  1.00  0.00     0.093 A 
ATOM      8  C   UNL     1     -18.987 -11.126  13.116  1.00  0.00     0.123 A 
ATOM      9  C   UNL     1     -18.919  -9.759  13.375  1.00  0.00     0.094 A 
ATOM     10  C   UNL     1     -19.122  -8.833  12.349  1.00  0.00     0.146 A 
ATOM     11  O   UNL     1     -19.064  -7.538  12.642  1.00  0.00    -0.456 OA
ENDROOT
BRANCH   1  12
ATOM     12  C   UNL     1     -19.162  -5.160  12.184  1.00  0.00     0.021 A 
ATOM     13  C   UNL     1     -20.232  -4.259  12.024  1.00  0.00     0.016 A 
ATOM     14  C   UNL     1     -20.106  -2.930  12.436  1.00  0.00     0.051 A 
ATOM     15  C   UNL     1     -18.911  -2.476  13.008  1.00  0.00     0.157 A 
ATOM     16  C   UNL     1     -17.961  -4.693  12.746  1.00  0.00     0.062 A 
ATOM     17  C   UNL     1     -17.832  -3.362  13.160  1.00  0.00     0.158 A 
BRANCH  15  18
ATOM     18  O   UNL     1     -18.789  -1.149  13.418  1.00  0.00    -0.504 OA
ATOM     19  H   UNL     1     -18.026  -0.845  14.011  1.00  0.00     0.293 HD
ENDBRANCH  15  18
BRANCH  17  20
ATOM     20  O   UNL     1     -16.627  -2.941  13.721  1.00  0.00    -0.504 OA
ATOM     21  H   UNL     1     -15.735  -3.323  13.428  1.00  0.00     0.293 HD
ENDBRANCH  17  20
ENDBRANCH   1  12
BRANCH   6  22
ATOM     22  O   UNL     1     -19.558 -11.225   9.484  1.00  0.00    -0.507 OA
ATOM     23  H   UNL     1     -20.015 -10.770   8.710  1.00  0.00     0.293 HD
ENDBRANCH   6  22
BRANCH   8  24
ATOM     24  O   UNL     1     -18.801 -12.032  14.158  1.00  0.00    -0.508 OA
ATOM     25  H   UNL     1     -18.284 -12.894  14.025  1.00  0.00     0.293 HD
ENDBRANCH   8  24
TORSDOF 5
ENDMDL
