MODEL 1
REMARK VINA RESULT:    -2.763      0.000      0.000
REMARK INTER + INTRA:          -4.051
REMARK INTER:                  -4.216
REMARK INTRA:                   0.165
REMARK UNBOUND:                 0.165
REMARK SMILES CC1=CCC[C@@H](C)C(=O)C[C@H](C(C)C)C(=O)C1
REMARK SMILES IDX 8 1 9 2 6 3 7 4 5 5 4 6 3 7 2 8 1 9 10 11 11 12 15 13 16 14
REMARK SMILES IDX 17 15 12 17 13 18 14 19
REMARK H PARENT
REMARK Flexibility Score: 70.00
ROOT
ATOM      1  C   UNL     1     198.868 151.017 161.412  1.00  0.00     0.136 C 
ATOM      2  O   UNL     1     198.059 151.657 160.755  1.00  0.00    -0.299 OA
ENDROOT
BRANCH   1   3
ATOM      3  C   UNL     1     198.773 149.502 161.475  1.00  0.00     0.053 C 
ATOM      4  C   UNL     1     198.901 148.852 160.089  1.00  0.00     0.016 C 
BRANCH   3   5
ATOM      5  C   UNL     1     197.490 149.049 162.203  1.00  0.00     0.015 C 
BRANCH   5   6
ATOM      6  C   UNL     1     197.721 148.606 163.663  1.00  0.00     0.028 C 
BRANCH   6   7
ATOM      7  C   UNL     1     198.798 147.555 163.750  1.00  0.00    -0.028 C 
ATOM      8  C   UNL     1     200.034 147.758 164.266  1.00  0.00    -0.070 CG0
ATOM      9  C   UNL     1     201.009 146.609 164.240  1.00  0.00     0.039 C 
ATOM     10  G   UNL     1     200.475 149.081 164.875  1.00  0.00     0.000 G0
ENDBRANCH   6   7
ENDBRANCH   5   6
ENDBRANCH   3   5
ENDBRANCH   1   3
BRANCH   1  11
ATOM     11  C   UNL     1     199.957 151.758 162.152  1.00  0.00     0.087 C 
BRANCH  11  12
ATOM     12  C   UNL     1     200.008 151.372 163.654  1.00  0.00     0.066 C 
BRANCH  12  13
ATOM     13  C   UNL     1     200.856 150.121 163.827  1.00  0.00     0.140 C 
ATOM     14  O   UNL     1     201.878 149.992 163.169  1.00  0.00    -0.299 OA
BRANCH  13  15
ATOM     15  C   UNL     1     200.507 149.096 164.878  1.00  0.00     0.106 CG0
ATOM     16  G   UNL     1     200.041 147.779 164.276  1.00  0.00     0.000 G0
ENDBRANCH  13  15
ENDBRANCH  12  13
BRANCH  12  17
ATOM     17  C   UNL     1     200.547 152.530 164.555  1.00  0.00    -0.006 C 
ATOM     18  C   UNL     1     200.716 153.849 163.778  1.00  0.00     0.008 C 
ATOM     19  C   UNL     1     199.612 152.782 165.755  1.00  0.00     0.008 C 
ENDBRANCH  12  17
ENDBRANCH  11  12
ENDBRANCH   1  11
TORSDOF 1
ENDMDL
MODEL 2
REMARK VINA RESULT:    -2.720     12.187     14.430
REMARK INTER + INTRA:          -3.987
REMARK INTER:                  -3.680
REMARK INTRA:                  -0.307
REMARK UNBOUND:                 0.165
REMARK SMILES CC1=CCC[C@@H](C)C(=O)C[C@H](C(C)C)C(=O)C1
REMARK SMILES IDX 8 1 9 2 6 3 7 4 5 5 4 6 3 7 2 8 1 9 10 11 11 12 15 13 16 14
REMARK SMILES IDX 17 15 12 17 13 18 14 19
REMARK H PARENT
REMARK Flexibility Score: 70.00
ROOT
ATOM      1  C   UNL     1     209.901 157.060 164.395  1.00  0.00     0.136 C 
ATOM      2  O   UNL     1     209.250 157.834 163.707  1.00  0.00    -0.299 OA
ENDROOT
BRANCH   1   3
ATOM      3  C   UNL     1     209.318 156.508 165.684  1.00  0.00     0.053 C 
ATOM      4  C   UNL     1     208.006 155.743 165.450  1.00  0.00     0.016 C 
BRANCH   3   5
ATOM      5  C   UNL     1     209.153 157.615 166.746  1.00  0.00     0.015 C 
BRANCH   5   6
ATOM      6  C   UNL     1     210.439 157.917 167.542  1.00  0.00     0.028 C 
BRANCH   6   7
ATOM      7  C   UNL     1     211.246 156.664 167.770  1.00  0.00    -0.028 C 
ATOM      8  C   UNL     1     212.517 156.476 167.340  1.00  0.00    -0.070 CG0
ATOM      9  C   UNL     1     213.168 155.145 167.617  1.00  0.00     0.039 C 
ATOM     10  G   UNL     1     213.313 157.544 166.604  1.00  0.00     0.000 G0
ENDBRANCH   6   7
ENDBRANCH   5   6
ENDBRANCH   3   5
ENDBRANCH   1   3
BRANCH   1  11
ATOM     11  C   UNL     1     211.286 156.665 163.938  1.00  0.00     0.087 C 
BRANCH  11  12
ATOM     12  C   UNL     1     212.324 157.793 164.180  1.00  0.00     0.066 C 
BRANCH  12  13
ATOM     13  C   UNL     1     213.410 157.289 165.118  1.00  0.00     0.140 C 
ATOM     14  O   UNL     1     214.403 156.748 164.652  1.00  0.00    -0.299 OA
BRANCH  13  15
ATOM     15  C   UNL     1     213.325 157.549 166.602  1.00  0.00     0.106 CG0
ATOM     16  G   UNL     1     212.501 156.498 167.331  1.00  0.00     0.000 G0
ENDBRANCH  13  15
ENDBRANCH  12  13
BRANCH  12  17
ATOM     17  C   UNL     1     212.951 158.330 162.852  1.00  0.00    -0.006 C 
ATOM     18  C   UNL     1     212.408 157.600 161.609  1.00  0.00     0.008 C 
ATOM     19  C   UNL     1     212.695 159.841 162.686  1.00  0.00     0.008 C 
ENDBRANCH  12  17
ENDBRANCH  11  12
ENDBRANCH   1  11
TORSDOF 1
ENDMDL
MODEL 3
REMARK VINA RESULT:    -2.699      2.622      5.400
REMARK INTER + INTRA:          -3.954
REMARK INTER:                  -3.783
REMARK INTRA:                  -0.171
REMARK UNBOUND:                 0.165
REMARK SMILES CC1=CCC[C@@H](C)C(=O)C[C@H](C(C)C)C(=O)C1
REMARK SMILES IDX 8 1 9 2 6 3 7 4 5 5 4 6 3 7 2 8 1 9 10 11 11 12 15 13 16 14
REMARK SMILES IDX 17 15 12 17 13 18 14 19
REMARK H PARENT
REMARK Flexibility Score: 70.00
ROOT
ATOM      1  C   UNL     1     200.026 150.837 164.307  1.00  0.00     0.136 C 
ATOM      2  O   UNL     1     199.224 150.895 165.229  1.00  0.00    -0.299 OA
ENDROOT
BRANCH   1   3
ATOM      3  C   UNL     1     201.311 151.646 164.362  1.00  0.00     0.053 C 
ATOM      4  C   UNL     1     202.349 151.026 165.311  1.00  0.00     0.016 C 
BRANCH   3   5
ATOM      5  C   UNL     1     201.032 153.123 164.704  1.00  0.00     0.015 C 
BRANCH   5   6
ATOM      6  C   UNL     1     200.690 153.997 163.480  1.00  0.00     0.028 C 
BRANCH   6   7
ATOM      7  C   UNL     1     201.700 153.810 162.377  1.00  0.00    -0.028 C 
ATOM      8  C   UNL     1     201.439 153.226 161.182  1.00  0.00    -0.070 CG0
ATOM      9  C   UNL     1     202.576 153.080 160.203  1.00  0.00     0.039 C 
ATOM     10  G   UNL     1     200.059 152.724 160.785  1.00  0.00     0.000 G0
ENDBRANCH   6   7
ENDBRANCH   5   6
ENDBRANCH   3   5
ENDBRANCH   1   3
BRANCH   1  11
ATOM     11  C   UNL     1     199.717 149.951 163.124  1.00  0.00     0.087 C 
BRANCH  11  12
ATOM     12  C   UNL     1     198.925 150.705 162.022  1.00  0.00     0.066 C 
BRANCH  12  13
ATOM     13  C   UNL     1     199.894 151.236 160.977  1.00  0.00     0.140 C 
ATOM     14  O   UNL     1     200.482 150.450 160.247  1.00  0.00    -0.299 OA
BRANCH  13  15
ATOM     15  C   UNL     1     200.051 152.721 160.759  1.00  0.00     0.106 CG0
ATOM     16  G   UNL     1     201.418 153.232 161.190  1.00  0.00     0.000 G0
ENDBRANCH  13  15
ENDBRANCH  12  13
BRANCH  12  17
ATOM     17  C   UNL     1     197.829 149.814 161.352  1.00  0.00    -0.006 C 
ATOM     18  C   UNL     1     197.130 148.883 162.361  1.00  0.00     0.008 C 
ATOM     19  C   UNL     1     196.758 150.678 160.656  1.00  0.00     0.008 C 
ENDBRANCH  12  17
ENDBRANCH  11  12
ENDBRANCH   1  11
TORSDOF 1
ENDMDL
MODEL 4
REMARK VINA RESULT:    -2.682     12.760     14.914
REMARK INTER + INTRA:          -3.929
REMARK INTER:                  -3.659
REMARK INTRA:                  -0.269
REMARK UNBOUND:                 0.165
REMARK SMILES CC1=CCC[C@@H](C)C(=O)C[C@H](C(C)C)C(=O)C1
REMARK SMILES IDX 8 1 9 2 6 3 7 4 5 5 4 6 3 7 2 8 1 9 10 11 11 12 15 13 16 14
REMARK SMILES IDX 17 15 12 17 13 18 14 19
REMARK H PARENT
REMARK Flexibility Score: 70.00
ROOT
ATOM      1  C   UNL     1     213.800 156.835 166.909  1.00  0.00     0.136 C 
ATOM      2  O   UNL     1     214.583 157.578 167.484  1.00  0.00    -0.299 OA
ENDROOT
BRANCH   1   3
ATOM      3  C   UNL     1     212.648 157.413 166.105  1.00  0.00     0.053 C 
ATOM      4  C   UNL     1     213.134 158.221 164.892  1.00  0.00     0.016 C 
BRANCH   3   5
ATOM      5  C   UNL     1     211.696 158.236 166.997  1.00  0.00     0.015 C 
BRANCH   5   6
ATOM      6  C   UNL     1     210.474 157.444 167.507  1.00  0.00     0.028 C 
BRANCH   6   7
ATOM      7  C   UNL     1     210.112 156.330 166.558  1.00  0.00    -0.028 C 
ATOM      8  C   UNL     1     210.287 155.011 166.813  1.00  0.00    -0.070 CG0
ATOM      9  C   UNL     1     209.909 154.026 165.737  1.00  0.00     0.039 C 
ATOM     10  G   UNL     1     210.835 154.485 168.131  1.00  0.00     0.000 G0
ENDBRANCH   6   7
ENDBRANCH   5   6
ENDBRANCH   3   5
ENDBRANCH   1   3
BRANCH   1  11
ATOM     11  C   UNL     1     214.001 155.341 167.013  1.00  0.00     0.087 C 
BRANCH  11  12
ATOM     12  C   UNL     1     213.437 154.767 168.340  1.00  0.00     0.066 C 
BRANCH  12  13
ATOM     13  C   UNL     1     212.223 153.901 168.042  1.00  0.00     0.140 C 
ATOM     14  O   UNL     1     212.377 152.711 167.805  1.00  0.00    -0.299 OA
BRANCH  13  15
ATOM     15  C   UNL     1     210.830 154.470 168.145  1.00  0.00     0.106 CG0
ATOM     16  G   UNL     1     210.315 154.996 166.814  1.00  0.00     0.000 G0
ENDBRANCH  13  15
ENDBRANCH  12  13
BRANCH  12  17
ATOM     17  C   UNL     1     214.504 153.958 169.148  1.00  0.00    -0.006 C 
ATOM     18  C   UNL     1     215.905 154.595 169.074  1.00  0.00     0.008 C 
ATOM     19  C   UNL     1     214.100 153.830 170.630  1.00  0.00     0.008 C 
ENDBRANCH  12  17
ENDBRANCH  11  12
ENDBRANCH   1  11
TORSDOF 1
ENDMDL
MODEL 5
REMARK VINA RESULT:    -2.657      2.441      4.405
REMARK INTER + INTRA:          -3.890
REMARK INTER:                  -3.672
REMARK INTRA:                  -0.218
REMARK UNBOUND:                 0.165
REMARK SMILES CC1=CCC[C@@H](C)C(=O)C[C@H](C(C)C)C(=O)C1
REMARK SMILES IDX 8 1 9 2 6 3 7 4 5 5 4 6 3 7 2 8 1 9 10 11 11 12 15 13 16 14
REMARK SMILES IDX 17 15 12 17 13 18 14 19
REMARK H PARENT
REMARK Flexibility Score: 70.00
ROOT
ATOM      1  C   UNL     1     197.908 149.311 162.000  1.00  0.00     0.136 C 
ATOM      2  O   UNL     1     196.746 149.125 162.332  1.00  0.00    -0.299 OA
ENDROOT
BRANCH   1   3
ATOM      3  C   UNL     1     199.022 149.210 163.028  1.00  0.00     0.053 C 
ATOM      4  C   UNL     1     199.133 147.800 163.629  1.00  0.00     0.016 C 
BRANCH   3   5
ATOM      5  C   UNL     1     198.878 150.288 164.122  1.00  0.00     0.015 C 
BRANCH   5   6
ATOM      6  C   UNL     1     199.853 151.473 163.966  1.00  0.00     0.028 C 
BRANCH   6   7
ATOM      7  C   UNL     1     201.179 151.019 163.413  1.00  0.00    -0.028 C 
ATOM      8  C   UNL     1     201.624 151.281 162.161  1.00  0.00    -0.070 CG0
ATOM      9  C   UNL     1     202.960 150.716 161.751  1.00  0.00     0.039 C 
ATOM     10  G   UNL     1     200.845 152.121 161.160  1.00  0.00     0.000 G0
ENDBRANCH   6   7
ENDBRANCH   5   6
ENDBRANCH   3   5
ENDBRANCH   1   3
BRANCH   1  11
ATOM     11  C   UNL     1     198.212 149.640 160.557  1.00  0.00     0.087 C 
BRANCH  11  12
ATOM     12  C   UNL     1     198.537 151.145 160.358  1.00  0.00     0.066 C 
BRANCH  12  13
ATOM     13  C   UNL     1     200.037 151.319 160.175  1.00  0.00     0.140 C 
ATOM     14  O   UNL     1     200.578 150.863 159.178  1.00  0.00    -0.299 OA
BRANCH  13  15
ATOM     15  C   UNL     1     200.840 152.140 161.153  1.00  0.00     0.106 CG0
ATOM     16  G   UNL     1     201.600 151.280 162.152  1.00  0.00     0.000 G0
ENDBRANCH  13  15
ENDBRANCH  12  13
BRANCH  12  17
ATOM     17  C   UNL     1     197.761 151.774 159.156  1.00  0.00    -0.006 C 
ATOM     18  C   UNL     1     196.246 151.505 159.228  1.00  0.00     0.008 C 
ATOM     19  C   UNL     1     197.987 153.298 159.084  1.00  0.00     0.008 C 
ENDBRANCH  12  17
ENDBRANCH  11  12
ENDBRANCH   1  11
TORSDOF 1
ENDMDL
MODEL 6
REMARK VINA RESULT:    -2.629      2.573      4.260
REMARK INTER + INTRA:          -3.848
REMARK INTER:                  -3.674
REMARK INTRA:                  -0.174
REMARK UNBOUND:                 0.165
REMARK SMILES CC1=CCC[C@@H](C)C(=O)C[C@H](C(C)C)C(=O)C1
REMARK SMILES IDX 8 1 9 2 6 3 7 4 5 5 4 6 3 7 2 8 1 9 10 11 11 12 15 13 16 14
REMARK SMILES IDX 17 15 12 17 13 18 14 19
REMARK H PARENT
REMARK Flexibility Score: 70.00
ROOT
ATOM      1  C   UNL     1     199.163 149.746 163.246  1.00  0.00     0.136 C 
ATOM      2  O   UNL     1     199.615 148.612 163.182  1.00  0.00    -0.299 OA
ENDROOT
BRANCH   1   3
ATOM      3  C   UNL     1     198.283 150.283 162.130  1.00  0.00     0.053 C 
ATOM      4  C   UNL     1     197.066 149.383 161.865  1.00  0.00     0.016 C 
BRANCH   3   5
ATOM      5  C   UNL     1     199.097 150.538 160.845  1.00  0.00     0.015 C 
BRANCH   5   6
ATOM      6  C   UNL     1     199.315 152.031 160.526  1.00  0.00     0.028 C 
BRANCH   6   7
ATOM      7  C   UNL     1     200.761 152.420 160.700  1.00  0.00    -0.028 C 
ATOM      8  C   UNL     1     201.281 152.979 161.819  1.00  0.00    -0.070 CG0
ATOM      9  C   UNL     1     202.743 153.346 161.813  1.00  0.00     0.039 C 
ATOM     10  G   UNL     1     200.463 153.241 163.075  1.00  0.00     0.000 G0
ENDBRANCH   6   7
ENDBRANCH   5   6
ENDBRANCH   3   5
ENDBRANCH   1   3
BRANCH   1  11
ATOM     11  C   UNL     1     199.493 150.597 164.451  1.00  0.00     0.087 C 
BRANCH  11  12
ATOM     12  C   UNL     1     200.976 151.055 164.452  1.00  0.00     0.066 C 
BRANCH  12  13
ATOM     13  C   UNL     1     201.039 152.566 164.301  1.00  0.00     0.140 C 
ATOM     14  O   UNL     1     201.634 153.231 165.138  1.00  0.00    -0.299 OA
BRANCH  13  15
ATOM     15  C   UNL     1     200.472 153.240 163.076  1.00  0.00     0.106 CG0
ATOM     16  G   UNL     1     201.295 152.965 161.826  1.00  0.00     0.000 G0
ENDBRANCH  13  15
ENDBRANCH  12  13
BRANCH  12  17
ATOM     17  C   UNL     1     201.745 150.599 165.735  1.00  0.00    -0.006 C 
ATOM     18  C   UNL     1     200.935 149.600 166.583  1.00  0.00     0.008 C 
ATOM     19  C   UNL     1     203.097 149.953 165.373  1.00  0.00     0.008 C 
ENDBRANCH  12  17
ENDBRANCH  11  12
ENDBRANCH   1  11
TORSDOF 1
ENDMDL
MODEL 7
REMARK VINA RESULT:    -2.624      5.950      8.490
REMARK INTER + INTRA:          -3.840
REMARK INTER:                  -3.874
REMARK INTRA:                   0.033
REMARK UNBOUND:                 0.165
REMARK SMILES CC1=CCC[C@@H](C)C(=O)C[C@H](C(C)C)C(=O)C1
REMARK SMILES IDX 8 1 9 2 6 3 7 4 5 5 4 6 3 7 2 8 1 9 10 11 11 12 15 13 16 14
REMARK SMILES IDX 17 15 12 17 13 18 14 19
REMARK H PARENT
REMARK Flexibility Score: 70.00
ROOT
ATOM      1  C   UNL     1     200.875 156.713 164.866  1.00  0.00     0.136 C 
ATOM      2  O   UNL     1     200.001 155.890 165.102  1.00  0.00    -0.299 OA
ENDROOT
BRANCH   1   3
ATOM      3  C   UNL     1     200.501 158.124 164.446  1.00  0.00     0.053 C 
ATOM      4  C   UNL     1     199.243 158.633 165.168  1.00  0.00     0.016 C 
BRANCH   3   5
ATOM      5  C   UNL     1     200.368 158.240 162.914  1.00  0.00     0.015 C 
BRANCH   5   6
ATOM      6  C   UNL     1     201.503 159.041 162.244  1.00  0.00     0.028 C 
BRANCH   6   7
ATOM      7  C   UNL     1     202.177 158.234 161.165  1.00  0.00    -0.028 C 
ATOM      8  C   UNL     1     203.356 157.582 161.310  1.00  0.00    -0.070 CG0
ATOM      9  C   UNL     1     203.914 156.852 160.115  1.00  0.00     0.039 C 
ATOM     10  G   UNL     1     204.131 157.547 162.619  1.00  0.00     0.000 G0
ENDBRANCH   6   7
ENDBRANCH   5   6
ENDBRANCH   3   5
ENDBRANCH   1   3
BRANCH   1  11
ATOM     11  C   UNL     1     202.322 156.301 165.000  1.00  0.00     0.087 C 
BRANCH  11  12
ATOM     12  C   UNL     1     202.832 155.545 163.744  1.00  0.00     0.066 C 
BRANCH  12  13
ATOM     13  C   UNL     1     204.129 156.176 163.265  1.00  0.00     0.140 C 
ATOM     14  O   UNL     1     205.168 155.532 163.319  1.00  0.00    -0.299 OA
BRANCH  13  15
ATOM     15  C   UNL     1     204.128 157.542 162.625  1.00  0.00     0.106 CG0
ATOM     16  G   UNL     1     203.352 157.573 161.317  1.00  0.00     0.000 G0
ENDBRANCH  13  15
ENDBRANCH  12  13
BRANCH  12  17
ATOM     17  C   UNL     1     203.028 154.015 164.001  1.00  0.00    -0.006 C 
ATOM     18  C   UNL     1     202.240 153.519 165.228  1.00  0.00     0.008 C 
ATOM     19  C   UNL     1     202.601 153.185 162.774  1.00  0.00     0.008 C 
ENDBRANCH  12  17
ENDBRANCH  11  12
ENDBRANCH   1  11
TORSDOF 1
ENDMDL
MODEL 8
REMARK VINA RESULT:    -2.609     11.513     13.519
REMARK INTER + INTRA:          -3.817
REMARK INTER:                  -3.736
REMARK INTRA:                  -0.081
REMARK UNBOUND:                 0.165
REMARK SMILES CC1=CCC[C@@H](C)C(=O)C[C@H](C(C)C)C(=O)C1
REMARK SMILES IDX 8 1 9 2 6 3 7 4 5 5 4 6 3 7 2 8 1 9 10 11 11 12 15 13 16 14
REMARK SMILES IDX 17 15 12 17 13 18 14 19
REMARK H PARENT
REMARK Flexibility Score: 70.00
ROOT
ATOM      1  C   UNL     1     209.738 152.830 167.344  1.00  0.00     0.136 C 
ATOM      2  O   UNL     1     208.623 152.343 167.478  1.00  0.00    -0.299 OA
ENDROOT
BRANCH   1   3
ATOM      3  C   UNL     1     210.827 152.533 168.360  1.00  0.00     0.053 C 
ATOM      4  C   UNL     1     211.138 151.032 168.459  1.00  0.00     0.016 C 
BRANCH   3   5
ATOM      5  C   UNL     1     210.492 153.140 169.738  1.00  0.00     0.015 C 
BRANCH   5   6
ATOM      6  C   UNL     1     211.423 154.297 170.157  1.00  0.00     0.028 C 
BRANCH   6   7
ATOM      7  C   UNL     1     212.772 154.178 169.496  1.00  0.00    -0.028 C 
ATOM      8  C   UNL     1     213.182 154.919 168.438  1.00  0.00    -0.070 CG0
ATOM      9  C   UNL     1     214.550 154.644 167.869  1.00  0.00     0.039 C 
ATOM     10  G   UNL     1     212.332 156.013 167.810  1.00  0.00     0.000 G0
ENDBRANCH   6   7
ENDBRANCH   5   6
ENDBRANCH   3   5
ENDBRANCH   1   3
BRANCH   1  11
ATOM     11  C   UNL     1     210.007 153.723 166.156  1.00  0.00     0.087 C 
BRANCH  11  12
ATOM     12  C   UNL     1     210.164 155.211 166.569  1.00  0.00     0.066 C 
BRANCH  12  13
ATOM     13  C   UNL     1     211.637 155.590 166.545  1.00  0.00     0.140 C 
ATOM     14  O   UNL     1     212.232 155.623 165.478  1.00  0.00    -0.299 OA
BRANCH  13  15
ATOM     15  C   UNL     1     212.337 156.031 167.807  1.00  0.00     0.106 CG0
ATOM     16  G   UNL     1     213.166 154.920 168.433  1.00  0.00     0.000 G0
ENDBRANCH  13  15
ENDBRANCH  12  13
BRANCH  12  17
ATOM     17  C   UNL     1     209.334 156.178 165.663  1.00  0.00    -0.006 C 
ATOM     18  C   UNL     1     207.824 155.878 165.712  1.00  0.00     0.008 C 
ATOM     19  C   UNL     1     209.556 157.649 166.069  1.00  0.00     0.008 C 
ENDBRANCH  12  17
ENDBRANCH  11  12
ENDBRANCH   1  11
TORSDOF 1
ENDMDL
MODEL 9
REMARK VINA RESULT:    -2.577      3.368      5.787
REMARK INTER + INTRA:          -3.767
REMARK INTER:                  -3.701
REMARK INTRA:                  -0.066
REMARK UNBOUND:                 0.165
REMARK SMILES CC1=CCC[C@@H](C)C(=O)C[C@H](C(C)C)C(=O)C1
REMARK SMILES IDX 8 1 9 2 6 3 7 4 5 5 4 6 3 7 2 8 1 9 10 11 11 12 15 13 16 14
REMARK SMILES IDX 17 15 12 17 13 18 14 19
REMARK H PARENT
REMARK Flexibility Score: 70.00
ROOT
ATOM      1  C   UNL     1     199.973 150.936 165.389  1.00  0.00     0.136 C 
ATOM      2  O   UNL     1     199.229 149.972 165.274  1.00  0.00    -0.299 OA
ENDROOT
BRANCH   1   3
ATOM      3  C   UNL     1     199.672 152.226 164.646  1.00  0.00     0.053 C 
ATOM      4  C   UNL     1     200.157 152.186 163.188  1.00  0.00     0.016 C 
BRANCH   3   5
ATOM      5  C   UNL     1     200.226 153.452 165.400  1.00  0.00     0.015 C 
BRANCH   5   6
ATOM      6  C   UNL     1     201.178 154.328 164.558  1.00  0.00     0.028 C 
BRANCH   6   7
ATOM      7  C   UNL     1     202.323 154.844 165.392  1.00  0.00    -0.028 C 
ATOM      8  C   UNL     1     203.489 154.185 165.594  1.00  0.00    -0.070 CG0
ATOM      9  C   UNL     1     204.518 154.825 166.491  1.00  0.00     0.039 C 
ATOM     10  G   UNL     1     203.808 152.843 164.953  1.00  0.00     0.000 G0
ENDBRANCH   6   7
ENDBRANCH   5   6
ENDBRANCH   3   5
ENDBRANCH   1   3
BRANCH   1  11
ATOM     11  C   UNL     1     201.188 150.819 166.279  1.00  0.00     0.087 C 
BRANCH  11  12
ATOM     12  C   UNL     1     202.494 150.629 165.461  1.00  0.00     0.066 C 
BRANCH  12  13
ATOM     13  C   UNL     1     203.508 151.684 165.875  1.00  0.00     0.140 C 
ATOM     14  O   UNL     1     204.138 151.538 166.913  1.00  0.00    -0.299 OA
BRANCH  13  15
ATOM     15  C   UNL     1     203.822 152.847 164.967  1.00  0.00     0.106 CG0
ATOM     16  G   UNL     1     203.479 154.189 165.597  1.00  0.00     0.000 G0
ENDBRANCH  13  15
ENDBRANCH  12  13
BRANCH  12  17
ATOM     17  C   UNL     1     203.099 149.196 165.615  1.00  0.00    -0.006 C 
ATOM     18  C   UNL     1     202.036 148.147 165.995  1.00  0.00     0.008 C 
ATOM     19  C   UNL     1     203.795 148.743 164.317  1.00  0.00     0.008 C 
ENDBRANCH  12  17
ENDBRANCH  11  12
ENDBRANCH   1  11
TORSDOF 1
ENDMDL
