MODEL 1
REMARK VINA RESULT:    -7.509      0.000      0.000
REMARK INTER + INTRA:         -14.574
REMARK INTER:                 -12.338
REMARK INTRA:                  -2.235
REMARK UNBOUND:                -2.235
REMARK SMILES C[C@H]1O[C@H](OC[C@@H]2O[C@@H](Oc3c(-c4ccc(O)c(O)c4)oc4cc(O)cc(O)c4c3=O)[C@H](O)[C@H](O)[C@H]2O)[C@@H](O)[C@@H](O)[C@H]1O
REMARK SMILES IDX 7 1 36 2 34 3 32 4 9 5 8 6 6 7 5 8 4 9 1 10 2 11 42 12 3 13
REMARK SMILES IDX 40 14 38 15 43 16 41 18 39 20 37 22 35 24 10 26 11 27 12 28
REMARK SMILES IDX 30 29 21 30 29 31 31 32 22 33 27 34 23 35 26 36 24 37 13 38
REMARK SMILES IDX 20 39 14 40 18 41 15 42 16 43 19 44 17 46 28 48 25 50 33 52
REMARK H PARENT 43 17 41 19 39 21 37 23 35 25 19 45 17 47 28 49 25 51 33 53
REMARK Flexibility Score: inf
ROOT
ATOM      1  C   UNL     1     117.324 128.221 134.235  1.00  0.00     0.180 C 
ATOM      2  C   UNL     1     116.445 128.609 135.449  1.00  0.00     0.177 C 
ATOM      3  C   UNL     1     115.285 129.511 134.981  1.00  0.00     0.180 C 
ATOM      4  C   UNL     1     115.822 130.679 134.137  1.00  0.00     0.214 C 
ATOM      5  C   UNL     1     116.735 130.140 133.018  1.00  0.00     0.339 C 
ATOM      6  O   UNL     1     117.798 129.376 133.559  1.00  0.00    -0.332 OA
ENDROOT
BRANCH   1   7
ATOM      7  C   UNL     1     118.541 127.368 134.635  1.00  0.00     0.198 C 
BRANCH   7   8
ATOM      8  O   UNL     1     118.799 127.477 136.021  1.00  0.00    -0.347 OA
BRANCH   8   9
ATOM      9  C   UNL     1     119.863 128.355 136.360  1.00  0.00     0.281 C 
ATOM     10  C   UNL     1     119.435 130.861 139.080  1.00  0.00     0.041 C 
ATOM     11  C   UNL     1     119.746 129.476 138.507  1.00  0.00     0.150 C 
ATOM     12  C   UNL     1     121.207 129.085 138.810  1.00  0.00     0.174 C 
ATOM     13  O   UNL     1     119.440 129.489 137.120  1.00  0.00    -0.344 OA
ATOM     14  C   UNL     1     121.462 127.677 138.277  1.00  0.00     0.179 C 
ATOM     15  C   UNL     1     121.178 127.619 136.771  1.00  0.00     0.202 C 
BRANCH  12  16
ATOM     16  O   UNL     1     122.101 129.994 138.217  1.00  0.00    -0.388 OA
ATOM     17  H   UNL     1     122.105 130.809 138.783  1.00  0.00     0.211 HD
ENDBRANCH  12  16
BRANCH  14  18
ATOM     18  O   UNL     1     122.791 127.295 138.529  1.00  0.00    -0.387 OA
ATOM     19  H   UNL     1     123.326 127.566 137.740  1.00  0.00     0.211 HD
ENDBRANCH  14  18
BRANCH  15  20
ATOM     20  O   UNL     1     122.262 128.178 136.064  1.00  0.00    -0.385 OA
ATOM     21  H   UNL     1     123.043 127.571 136.194  1.00  0.00     0.211 HD
ENDBRANCH  15  20
ENDBRANCH   8   9
ENDBRANCH   7   8
ENDBRANCH   1   7
BRANCH   2  22
ATOM     22  O   UNL     1     115.937 127.445 136.051  1.00  0.00    -0.387 OA
ATOM     23  H   UNL     1     115.222 127.731 136.679  1.00  0.00     0.211 HD
ENDBRANCH   2  22
BRANCH   3  24
ATOM     24  O   UNL     1     114.587 130.022 136.089  1.00  0.00    -0.387 OA
ATOM     25  H   UNL     1     114.699 129.370 136.829  1.00  0.00     0.211 HD
ENDBRANCH   3  24
BRANCH   5  26
ATOM     26  O   UNL     1     115.975 129.369 132.079  1.00  0.00    -0.454 OA
BRANCH  26  27
ATOM     27  C   UNL     1     116.013 129.623 130.705  1.00  0.00     0.214 A 
ATOM     28  C   UNL     1     116.889 128.921 129.858  1.00  0.00     0.180 A 
ATOM     29  C   UNL     1     115.183 130.608 130.160  1.00  0.00     0.239 A 
ATOM     30  O   UNL     1     116.991 129.274 128.583  1.00  0.00    -0.452 OA
ATOM     31  C   UNL     1     115.254 130.902 128.779  1.00  0.00     0.111 A 
ATOM     32  O   UNL     1     114.418 131.242 130.933  1.00  0.00    -0.285 OA
ATOM     33  C   UNL     1     116.247 130.222 128.026  1.00  0.00     0.146 A 
ATOM     34  C   UNL     1     114.428 131.853 128.112  1.00  0.00     0.134 A 
ATOM     35  C   UNL     1     116.457 130.535 126.681  1.00  0.00     0.094 A 
ATOM     36  C   UNL     1     114.683 132.170 126.773  1.00  0.00     0.093 A 
ATOM     37  C   UNL     1     115.692 131.518 126.058  1.00  0.00     0.123 A 
BRANCH  28  38
ATOM     38  C   UNL     1     117.698 127.777 130.335  1.00  0.00     0.025 A 
ATOM     39  C   UNL     1     119.102 127.844 130.362  1.00  0.00     0.062 A 
ATOM     40  C   UNL     1     117.057 126.651 130.875  1.00  0.00     0.016 A 
ATOM     41  C   UNL     1     119.854 126.804 130.920  1.00  0.00     0.158 A 
ATOM     42  C   UNL     1     117.805 125.605 131.418  1.00  0.00     0.051 A 
ATOM     43  C   UNL     1     119.204 125.678 131.452  1.00  0.00     0.157 A 
BRANCH  41  44
ATOM     44  O   UNL     1     121.244 126.912 130.947  1.00  0.00    -0.504 OA
ATOM     45  H   UNL     1     121.849 126.152 130.656  1.00  0.00     0.293 HD
ENDBRANCH  41  44
BRANCH  43  46
ATOM     46  O   UNL     1     119.948 124.643 132.011  1.00  0.00    -0.504 OA
ATOM     47  H   UNL     1     120.937 124.752 132.217  1.00  0.00     0.293 HD
ENDBRANCH  43  46
ENDBRANCH  28  38
BRANCH  34  48
ATOM     48  O   UNL     1     113.332 132.481 128.709  1.00  0.00    -0.507 OA
ATOM     49  H   UNL     1     112.771 132.076 129.443  1.00  0.00     0.293 HD
ENDBRANCH  34  48
BRANCH  37  50
ATOM     50  O   UNL     1     115.931 131.830 124.722  1.00  0.00    -0.508 OA
ATOM     51  H   UNL     1     116.841 131.684 124.296  1.00  0.00     0.293 HD
ENDBRANCH  37  50
ENDBRANCH  26  27
ENDBRANCH   5  26
BRANCH   4  52
ATOM     52  O   UNL     1     116.545 131.562 134.957  1.00  0.00    -0.384 OA
ATOM     53  H   UNL     1     116.046 131.636 135.812  1.00  0.00     0.211 HD
ENDBRANCH   4  52
TORSDOF 16
ENDMDL
MODEL 2
REMARK VINA RESULT:    -7.489      2.021      3.127
REMARK INTER + INTRA:         -14.541
REMARK INTER:                 -11.882
REMARK INTRA:                  -2.659
REMARK UNBOUND:                -2.235
REMARK SMILES C[C@H]1O[C@H](OC[C@@H]2O[C@@H](Oc3c(-c4ccc(O)c(O)c4)oc4cc(O)cc(O)c4c3=O)[C@H](O)[C@H](O)[C@H]2O)[C@@H](O)[C@@H](O)[C@H]1O
REMARK SMILES IDX 7 1 36 2 34 3 32 4 9 5 8 6 6 7 5 8 4 9 1 10 2 11 42 12 3 13
REMARK SMILES IDX 40 14 38 15 43 16 41 18 39 20 37 22 35 24 10 26 11 27 12 28
REMARK SMILES IDX 30 29 21 30 29 31 31 32 22 33 27 34 23 35 26 36 24 37 13 38
REMARK SMILES IDX 20 39 14 40 18 41 15 42 16 43 19 44 17 46 28 48 25 50 33 52
REMARK H PARENT 43 17 41 19 39 21 37 23 35 25 19 45 17 47 28 49 25 51 33 53
REMARK Flexibility Score: inf
ROOT
ATOM      1  C   UNL     1     117.708 128.112 134.149  1.00  0.00     0.180 C 
ATOM      2  C   UNL     1     116.914 128.482 135.425  1.00  0.00     0.177 C 
ATOM      3  C   UNL     1     115.727 129.393 135.051  1.00  0.00     0.180 C 
ATOM      4  C   UNL     1     116.210 130.574 134.192  1.00  0.00     0.214 C 
ATOM      5  C   UNL     1     117.044 130.052 133.005  1.00  0.00     0.339 C 
ATOM      6  O   UNL     1     118.139 129.277 133.461  1.00  0.00    -0.332 OA
ENDROOT
BRANCH   1   7
ATOM      7  C   UNL     1     118.946 127.250 134.452  1.00  0.00     0.198 C 
BRANCH   7   8
ATOM      8  O   UNL     1     118.939 126.815 135.798  1.00  0.00    -0.347 OA
BRANCH   8   9
ATOM      9  C   UNL     1     119.109 125.416 135.972  1.00  0.00     0.281 C 
ATOM     10  C   UNL     1     117.569 123.686 138.887  1.00  0.00     0.041 C 
ATOM     11  C   UNL     1     117.582 124.283 137.477  1.00  0.00     0.150 C 
ATOM     12  C   UNL     1     117.334 123.183 136.425  1.00  0.00     0.174 C 
ATOM     13  O   UNL     1     118.813 124.971 137.297  1.00  0.00    -0.344 OA
ATOM     14  C   UNL     1     117.295 123.824 135.040  1.00  0.00     0.179 C 
ATOM     15  C   UNL     1     118.608 124.566 134.760  1.00  0.00     0.202 C 
BRANCH  12  16
ATOM     16  O   UNL     1     118.344 122.206 136.475  1.00  0.00    -0.388 OA
ATOM     17  H   UNL     1     119.208 122.673 136.332  1.00  0.00     0.211 HD
ENDBRANCH  12  16
BRANCH  14  18
ATOM     18  O   UNL     1     117.081 122.843 134.056  1.00  0.00    -0.387 OA
ATOM     19  H   UNL     1     116.283 123.121 133.537  1.00  0.00     0.211 HD
ENDBRANCH  14  18
BRANCH  15  20
ATOM     20  O   UNL     1     119.608 123.639 134.400  1.00  0.00    -0.385 OA
ATOM     21  H   UNL     1     120.227 123.556 135.179  1.00  0.00     0.211 HD
ENDBRANCH  15  20
ENDBRANCH   8   9
ENDBRANCH   7   8
ENDBRANCH   1   7
BRANCH   2  22
ATOM     22  O   UNL     1     116.443 127.308 136.041  1.00  0.00    -0.387 OA
ATOM     23  H   UNL     1     116.826 127.288 136.957  1.00  0.00     0.211 HD
ENDBRANCH   2  22
BRANCH   3  24
ATOM     24  O   UNL     1     115.107 129.888 136.211  1.00  0.00    -0.387 OA
ATOM     25  H   UNL     1     115.555 129.459 136.985  1.00  0.00     0.211 HD
ENDBRANCH   3  24
BRANCH   5  26
ATOM     26  O   UNL     1     116.221 129.298 132.107  1.00  0.00    -0.454 OA
BRANCH  26  27
ATOM     27  C   UNL     1     116.169 129.572 130.737  1.00  0.00     0.214 A 
ATOM     28  C   UNL     1     117.006 128.903 129.828  1.00  0.00     0.180 A 
ATOM     29  C   UNL     1     115.287 130.548 130.261  1.00  0.00     0.239 A 
ATOM     30  O   UNL     1     117.021 129.277 128.554  1.00  0.00    -0.452 OA
ATOM     31  C   UNL     1     115.267 130.864 128.882  1.00  0.00     0.111 A 
ATOM     32  O   UNL     1     114.558 131.154 131.088  1.00  0.00    -0.285 OA
ATOM     33  C   UNL     1     116.226 130.217 128.059  1.00  0.00     0.146 A 
ATOM     34  C   UNL     1     114.382 131.807 128.283  1.00  0.00     0.134 A 
ATOM     35  C   UNL     1     116.346 130.554 126.709  1.00  0.00     0.094 A 
ATOM     36  C   UNL     1     114.548 132.150 126.936  1.00  0.00     0.093 A 
ATOM     37  C   UNL     1     115.524 131.530 126.150  1.00  0.00     0.123 A 
BRANCH  28  38
ATOM     38  C   UNL     1     117.866 127.769 130.235  1.00  0.00     0.025 A 
ATOM     39  C   UNL     1     119.266 127.894 130.260  1.00  0.00     0.062 A 
ATOM     40  C   UNL     1     117.277 126.588 130.713  1.00  0.00     0.016 A 
ATOM     41  C   UNL     1     120.065 126.857 130.755  1.00  0.00     0.158 A 
ATOM     42  C   UNL     1     118.072 125.546 131.193  1.00  0.00     0.051 A 
ATOM     43  C   UNL     1     119.467 125.677 131.225  1.00  0.00     0.157 A 
BRANCH  41  44
ATOM     44  O   UNL     1     121.449 127.024 130.782  1.00  0.00    -0.504 OA
ATOM     45  H   UNL     1     122.010 127.003 129.936  1.00  0.00     0.293 HD
ENDBRANCH  41  44
BRANCH  43  46
ATOM     46  O   UNL     1     120.258 124.645 131.721  1.00  0.00    -0.504 OA
ATOM     47  H   UNL     1     120.209 123.707 131.334  1.00  0.00     0.293 HD
ENDBRANCH  43  46
ENDBRANCH  28  38
BRANCH  34  48
ATOM     48  O   UNL     1     113.312 132.402 128.956  1.00  0.00    -0.507 OA
ATOM     49  H   UNL     1     112.747 131.940 129.651  1.00  0.00     0.293 HD
ENDBRANCH  34  48
BRANCH  37  50
ATOM     50  O   UNL     1     115.674 131.867 124.807  1.00  0.00    -0.508 OA
ATOM     51  H   UNL     1     115.978 132.792 124.522  1.00  0.00     0.293 HD
ENDBRANCH  37  50
ENDBRANCH  26  27
ENDBRANCH   5  26
BRANCH   4  52
ATOM     52  O   UNL     1     116.989 131.442 134.975  1.00  0.00    -0.384 OA
ATOM     53  H   UNL     1     117.927 131.349 134.663  1.00  0.00     0.211 HD
ENDBRANCH   4  52
TORSDOF 16
ENDMDL
MODEL 3
REMARK VINA RESULT:    -7.358      1.213      1.683
REMARK INTER + INTRA:         -14.325
REMARK INTER:                 -11.266
REMARK INTRA:                  -3.060
REMARK UNBOUND:                -2.235
REMARK SMILES C[C@H]1O[C@H](OC[C@@H]2O[C@@H](Oc3c(-c4ccc(O)c(O)c4)oc4cc(O)cc(O)c4c3=O)[C@H](O)[C@H](O)[C@H]2O)[C@@H](O)[C@@H](O)[C@H]1O
REMARK SMILES IDX 7 1 36 2 34 3 32 4 9 5 8 6 6 7 5 8 4 9 1 10 2 11 42 12 3 13
REMARK SMILES IDX 40 14 38 15 43 16 41 18 39 20 37 22 35 24 10 26 11 27 12 28
REMARK SMILES IDX 30 29 21 30 29 31 31 32 22 33 27 34 23 35 26 36 24 37 13 38
REMARK SMILES IDX 20 39 14 40 18 41 15 42 16 43 19 44 17 46 28 48 25 50 33 52
REMARK H PARENT 43 17 41 19 39 21 37 23 35 25 19 45 17 47 28 49 25 51 33 53
REMARK Flexibility Score: inf
ROOT
ATOM      1  C   UNL     1     116.113 128.970 134.109  1.00  0.00     0.180 C 
ATOM      2  C   UNL     1     115.230 129.818 135.057  1.00  0.00     0.177 C 
ATOM      3  C   UNL     1     114.460 130.876 134.241  1.00  0.00     0.180 C 
ATOM      4  C   UNL     1     115.427 131.662 133.339  1.00  0.00     0.214 C 
ATOM      5  C   UNL     1     116.285 130.684 132.513  1.00  0.00     0.339 C 
ATOM      6  O   UNL     1     116.993 129.795 133.359  1.00  0.00    -0.332 OA
ENDROOT
BRANCH   1   7
ATOM      7  C   UNL     1     116.959 127.929 134.861  1.00  0.00     0.198 C 
BRANCH   7   8
ATOM      8  O   UNL     1     117.585 128.509 135.990  1.00  0.00    -0.347 OA
BRANCH   8   9
ATOM      9  C   UNL     1     118.910 128.969 135.764  1.00  0.00     0.281 C 
ATOM     10  C   UNL     1     121.425 128.864 138.507  1.00  0.00     0.041 C 
ATOM     11  C   UNL     1     120.615 128.282 137.345  1.00  0.00     0.150 C 
ATOM     12  C   UNL     1     121.550 127.878 136.187  1.00  0.00     0.174 C 
ATOM     13  O   UNL     1     119.629 129.234 136.970  1.00  0.00    -0.344 OA
ATOM     14  C   UNL     1     120.715 127.249 135.074  1.00  0.00     0.179 C 
ATOM     15  C   UNL     1     119.640 128.233 134.595  1.00  0.00     0.202 C 
BRANCH  12  16
ATOM     16  O   UNL     1     122.247 128.995 135.694  1.00  0.00    -0.388 OA
ATOM     17  H   UNL     1     121.804 129.264 134.846  1.00  0.00     0.211 HD
ENDBRANCH  12  16
BRANCH  14  18
ATOM     18  O   UNL     1     121.540 126.879 133.997  1.00  0.00    -0.387 OA
ATOM     19  H   UNL     1     122.121 127.656 133.796  1.00  0.00     0.211 HD
ENDBRANCH  14  18
BRANCH  15  20
ATOM     20  O   UNL     1     120.223 129.189 133.738  1.00  0.00    -0.385 OA
ATOM     21  H   UNL     1     120.125 128.847 132.806  1.00  0.00     0.211 HD
ENDBRANCH  15  20
ENDBRANCH   8   9
ENDBRANCH   7   8
ENDBRANCH   1   7
BRANCH   2  22
ATOM     22  O   UNL     1     114.325 128.977 135.729  1.00  0.00    -0.387 OA
ATOM     23  H   UNL     1     113.414 129.234 135.430  1.00  0.00     0.211 HD
ENDBRANCH   2  22
BRANCH   3  24
ATOM     24  O   UNL     1     113.800 131.769 135.101  1.00  0.00    -0.387 OA
ATOM     25  H   UNL     1     113.113 131.247 135.591  1.00  0.00     0.211 HD
ENDBRANCH   3  24
BRANCH   5  26
ATOM     26  O   UNL     1     115.468 129.964 131.582  1.00  0.00    -0.454 OA
BRANCH  26  27
ATOM     27  C   UNL     1     115.644 130.070 130.199  1.00  0.00     0.214 A 
ATOM     28  C   UNL     1     116.576 129.265 129.520  1.00  0.00     0.180 A 
ATOM     29  C   UNL     1     114.902 131.009 129.477  1.00  0.00     0.239 A 
ATOM     30  O   UNL     1     116.810 129.479 128.231  1.00  0.00    -0.452 OA
ATOM     31  C   UNL     1     115.113 131.154 128.086  1.00  0.00     0.111 A 
ATOM     32  O   UNL     1     114.086 131.737 130.101  1.00  0.00    -0.285 OA
ATOM     33  C   UNL     1     116.153 130.378 127.509  1.00  0.00     0.146 A 
ATOM     34  C   UNL     1     114.385 132.046 127.247  1.00  0.00     0.134 A 
ATOM     35  C   UNL     1     116.500 130.543 126.166  1.00  0.00     0.094 A 
ATOM     36  C   UNL     1     114.776 132.214 125.913  1.00  0.00     0.093 A 
ATOM     37  C   UNL     1     115.828 131.469 125.372  1.00  0.00     0.123 A 
BRANCH  28  38
ATOM     38  C   UNL     1     117.300 128.161 130.189  1.00  0.00     0.025 A 
ATOM     39  C   UNL     1     118.694 128.211 130.366  1.00  0.00     0.062 A 
ATOM     40  C   UNL     1     116.577 127.101 130.758  1.00  0.00     0.016 A 
ATOM     41  C   UNL     1     119.355 127.219 131.100  1.00  0.00     0.158 A 
ATOM     42  C   UNL     1     117.236 126.102 131.478  1.00  0.00     0.051 A 
ATOM     43  C   UNL     1     118.623 126.160 131.660  1.00  0.00     0.157 A 
BRANCH  41  44
ATOM     44  O   UNL     1     120.736 127.311 131.271  1.00  0.00    -0.504 OA
ATOM     45  H   UNL     1     121.358 127.551 130.505  1.00  0.00     0.293 HD
ENDBRANCH  41  44
BRANCH  43  46
ATOM     46  O   UNL     1     119.277 125.173 132.393  1.00  0.00    -0.504 OA
ATOM     47  H   UNL     1     120.183 124.813 132.107  1.00  0.00     0.293 HD
ENDBRANCH  43  46
ENDBRANCH  28  38
BRANCH  34  48
ATOM     48  O   UNL     1     113.256 132.756 127.666  1.00  0.00    -0.507 OA
ATOM     49  H   UNL     1     113.141 133.155 128.584  1.00  0.00     0.293 HD
ENDBRANCH  34  48
BRANCH  37  50
ATOM     50  O   UNL     1     116.204 131.634 124.041  1.00  0.00    -0.508 OA
ATOM     51  H   UNL     1     116.811 132.393 123.750  1.00  0.00     0.293 HD
ENDBRANCH  37  50
ENDBRANCH  26  27
ENDBRANCH   5  26
BRANCH   4  52
ATOM     52  O   UNL     1     116.259 132.473 134.130  1.00  0.00    -0.384 OA
ATOM     53  H   UNL     1     116.237 133.383 133.731  1.00  0.00     0.211 HD
ENDBRANCH   4  52
TORSDOF 16
ENDMDL
MODEL 4
REMARK VINA RESULT:    -7.258      1.167      1.919
REMARK INTER + INTRA:         -14.160
REMARK INTER:                 -11.703
REMARK INTRA:                  -2.457
REMARK UNBOUND:                -2.235
REMARK SMILES C[C@H]1O[C@H](OC[C@@H]2O[C@@H](Oc3c(-c4ccc(O)c(O)c4)oc4cc(O)cc(O)c4c3=O)[C@H](O)[C@H](O)[C@H]2O)[C@@H](O)[C@@H](O)[C@H]1O
REMARK SMILES IDX 7 1 36 2 34 3 32 4 9 5 8 6 6 7 5 8 4 9 1 10 2 11 42 12 3 13
REMARK SMILES IDX 40 14 38 15 43 16 41 18 39 20 37 22 35 24 10 26 11 27 12 28
REMARK SMILES IDX 30 29 21 30 29 31 31 32 22 33 27 34 23 35 26 36 24 37 13 38
REMARK SMILES IDX 20 39 14 40 18 41 15 42 16 43 19 44 17 46 28 48 25 50 33 52
REMARK H PARENT 43 17 41 19 39 21 37 23 35 25 19 45 17 47 28 49 25 51 33 53
REMARK Flexibility Score: inf
ROOT
ATOM      1  C   UNL     1     116.666 128.014 134.444  1.00  0.00     0.180 C 
ATOM      2  C   UNL     1     115.875 128.890 135.445  1.00  0.00     0.177 C 
ATOM      3  C   UNL     1     115.172 130.035 134.688  1.00  0.00     0.180 C 
ATOM      4  C   UNL     1     116.176 130.778 133.790  1.00  0.00     0.214 C 
ATOM      5  C   UNL     1     116.935 129.768 132.907  1.00  0.00     0.339 C 
ATOM      6  O   UNL     1     117.591 128.796 133.702  1.00  0.00    -0.332 OA
ENDROOT
BRANCH   1   7
ATOM      7  C   UNL     1     117.445 126.881 135.136  1.00  0.00     0.198 C 
BRANCH   7   8
ATOM      8  O   UNL     1     118.585 126.519 134.380  1.00  0.00    -0.347 OA
BRANCH   8   9
ATOM      9  C   UNL     1     119.818 126.622 135.077  1.00  0.00     0.281 C 
ATOM     10  C   UNL     1     122.835 127.975 133.366  1.00  0.00     0.041 C 
ATOM     11  C   UNL     1     121.516 128.075 134.137  1.00  0.00     0.150 C 
ATOM     12  C   UNL     1     121.748 128.725 135.517  1.00  0.00     0.174 C 
ATOM     13  O   UNL     1     120.945 126.776 134.213  1.00  0.00    -0.344 OA
ATOM     14  C   UNL     1     120.404 128.862 136.230  1.00  0.00     0.179 C 
ATOM     15  C   UNL     1     119.737 127.489 136.374  1.00  0.00     0.202 C 
BRANCH  12  16
ATOM     16  O   UNL     1     122.628 127.951 136.293  1.00  0.00    -0.388 OA
ATOM     17  H   UNL     1     122.365 127.001 136.172  1.00  0.00     0.211 HD
ENDBRANCH  12  16
BRANCH  14  18
ATOM     18  O   UNL     1     120.585 129.443 137.498  1.00  0.00    -0.387 OA
ATOM     19  H   UNL     1     121.559 129.582 137.618  1.00  0.00     0.211 HD
ENDBRANCH  14  18
BRANCH  15  20
ATOM     20  O   UNL     1     120.331 126.784 137.441  1.00  0.00    -0.385 OA
ATOM     21  H   UNL     1     121.134 127.303 137.726  1.00  0.00     0.211 HD
ENDBRANCH  15  20
ENDBRANCH   8   9
ENDBRANCH   7   8
ENDBRANCH   1   7
BRANCH   2  22
ATOM     22  O   UNL     1     114.923 128.097 136.110  1.00  0.00    -0.387 OA
ATOM     23  H   UNL     1     115.339 127.793 136.959  1.00  0.00     0.211 HD
ENDBRANCH   2  22
BRANCH   3  24
ATOM     24  O   UNL     1     114.604 130.944 135.597  1.00  0.00    -0.387 OA
ATOM     25  H   UNL     1     113.784 130.517 135.960  1.00  0.00     0.211 HD
ENDBRANCH   3  24
BRANCH   5  26
ATOM     26  O   UNL     1     116.043 129.150 131.972  1.00  0.00    -0.454 OA
BRANCH  26  27
ATOM     27  C   UNL     1     116.057 129.464 130.610  1.00  0.00     0.214 A 
ATOM     28  C   UNL     1     116.982 128.870 129.734  1.00  0.00     0.180 A 
ATOM     29  C   UNL     1     115.152 130.405 130.109  1.00  0.00     0.239 A 
ATOM     30  O   UNL     1     117.052 129.284 128.475  1.00  0.00    -0.452 OA
ATOM     31  C   UNL     1     115.196 130.763 128.741  1.00  0.00     0.111 A 
ATOM     32  O   UNL     1     114.343 130.945 130.908  1.00  0.00    -0.285 OA
ATOM     33  C   UNL     1     116.236 130.195 127.960  1.00  0.00     0.146 A 
ATOM     34  C   UNL     1     114.297 131.676 128.116  1.00  0.00     0.134 A 
ATOM     35  C   UNL     1     116.417 130.581 126.629  1.00  0.00     0.094 A 
ATOM     36  C   UNL     1     114.523 132.069 126.792  1.00  0.00     0.093 A 
ATOM     37  C   UNL     1     115.576 131.528 126.049  1.00  0.00     0.123 A 
BRANCH  28  38
ATOM     38  C   UNL     1     117.878 127.772 130.161  1.00  0.00     0.025 A 
ATOM     39  C   UNL     1     119.275 127.905 130.084  1.00  0.00     0.062 A 
ATOM     40  C   UNL     1     117.334 126.624 130.758  1.00  0.00     0.016 A 
ATOM     41  C   UNL     1     120.116 126.910 130.595  1.00  0.00     0.158 A 
ATOM     42  C   UNL     1     118.170 125.622 131.255  1.00  0.00     0.051 A 
ATOM     43  C   UNL     1     119.561 125.762 131.185  1.00  0.00     0.157 A 
BRANCH  41  44
ATOM     44  O   UNL     1     121.497 127.084 130.517  1.00  0.00    -0.504 OA
ATOM     45  H   UNL     1     122.140 126.548 131.090  1.00  0.00     0.293 HD
ENDBRANCH  41  44
BRANCH  43  46
ATOM     46  O   UNL     1     120.394 124.771 131.697  1.00  0.00    -0.504 OA
ATOM     47  H   UNL     1     121.405 124.838 131.624  1.00  0.00     0.293 HD
ENDBRANCH  43  46
ENDBRANCH  28  38
BRANCH  34  48
ATOM     48  O   UNL     1     113.158 132.191 128.740  1.00  0.00    -0.507 OA
ATOM     49  H   UNL     1     113.029 133.161 128.984  1.00  0.00     0.293 HD
ENDBRANCH  34  48
BRANCH  37  50
ATOM     50  O   UNL     1     115.787 131.915 124.728  1.00  0.00    -0.508 OA
ATOM     51  H   UNL     1     115.774 132.891 124.452  1.00  0.00     0.293 HD
ENDBRANCH  37  50
ENDBRANCH  26  27
ENDBRANCH   5  26
BRANCH   4  52
ATOM     52  O   UNL     1     117.087 131.491 134.588  1.00  0.00    -0.384 OA
ATOM     53  H   UNL     1     117.672 132.003 133.970  1.00  0.00     0.211 HD
ENDBRANCH   4  52
TORSDOF 16
ENDMDL
MODEL 5
REMARK VINA RESULT:    -7.238      2.624      7.416
REMARK INTER + INTRA:         -14.128
REMARK INTER:                 -12.194
REMARK INTRA:                  -1.934
REMARK UNBOUND:                -2.235
REMARK SMILES C[C@H]1O[C@H](OC[C@@H]2O[C@@H](Oc3c(-c4ccc(O)c(O)c4)oc4cc(O)cc(O)c4c3=O)[C@H](O)[C@H](O)[C@H]2O)[C@@H](O)[C@@H](O)[C@H]1O
REMARK SMILES IDX 7 1 36 2 34 3 32 4 9 5 8 6 6 7 5 8 4 9 1 10 2 11 42 12 3 13
REMARK SMILES IDX 40 14 38 15 43 16 41 18 39 20 37 22 35 24 10 26 11 27 12 28
REMARK SMILES IDX 30 29 21 30 29 31 31 32 22 33 27 34 23 35 26 36 24 37 13 38
REMARK SMILES IDX 20 39 14 40 18 41 15 42 16 43 19 44 17 46 28 48 25 50 33 52
REMARK H PARENT 43 17 41 19 39 21 37 23 35 25 19 45 17 47 28 49 25 51 33 53
REMARK Flexibility Score: inf
ROOT
ATOM      1  C   UNL     1     116.930 127.795 132.332  1.00  0.00     0.180 C 
ATOM      2  C   UNL     1     116.207 128.788 131.391  1.00  0.00     0.177 C 
ATOM      3  C   UNL     1     116.623 130.231 131.741  1.00  0.00     0.180 C 
ATOM      4  C   UNL     1     116.451 130.486 133.248  1.00  0.00     0.214 C 
ATOM      5  C   UNL     1     117.162 129.378 134.050  1.00  0.00     0.339 C 
ATOM      6  O   UNL     1     116.666 128.100 133.694  1.00  0.00    -0.332 OA
ENDROOT
BRANCH   1   7
ATOM      7  C   UNL     1     116.517 126.334 132.081  1.00  0.00     0.198 C 
BRANCH   7   8
ATOM      8  O   UNL     1     115.974 125.756 133.252  1.00  0.00    -0.347 OA
BRANCH   8   9
ATOM      9  C   UNL     1     116.805 124.789 133.879  1.00  0.00     0.281 C 
ATOM     10  C   UNL     1     120.028 123.785 132.309  1.00  0.00     0.041 C 
ATOM     11  C   UNL     1     119.119 124.672 133.163  1.00  0.00     0.150 C 
ATOM     12  C   UNL     1     119.591 124.671 134.631  1.00  0.00     0.174 C 
ATOM     13  O   UNL     1     117.780 124.226 132.999  1.00  0.00    -0.344 OA
ATOM     14  C   UNL     1     118.699 125.611 135.438  1.00  0.00     0.179 C 
ATOM     15  C   UNL     1     117.232 125.175 135.331  1.00  0.00     0.202 C 
BRANCH  12  16
ATOM     16  O   UNL     1     119.538 123.374 135.172  1.00  0.00    -0.388 OA
ATOM     17  H   UNL     1     120.140 123.363 135.961  1.00  0.00     0.211 HD
ENDBRANCH  12  16
BRANCH  14  18
ATOM     18  O   UNL     1     119.099 125.623 136.786  1.00  0.00    -0.387 OA
ATOM     19  H   UNL     1     118.813 126.493 137.166  1.00  0.00     0.211 HD
ENDBRANCH  14  18
BRANCH  15  20
ATOM     20  O   UNL     1     117.002 124.078 136.188  1.00  0.00    -0.385 OA
ATOM     21  H   UNL     1     116.108 124.217 136.609  1.00  0.00     0.211 HD
ENDBRANCH  15  20
ENDBRANCH   8   9
ENDBRANCH   7   8
ENDBRANCH   1   7
BRANCH   2  22
ATOM     22  O   UNL     1     116.547 128.500 130.057  1.00  0.00    -0.387 OA
ATOM     23  H   UNL     1     117.055 127.646 130.064  1.00  0.00     0.211 HD
ENDBRANCH   2  22
BRANCH   3  24
ATOM     24  O   UNL     1     115.840 131.152 131.024  1.00  0.00    -0.387 OA
ATOM     25  H   UNL     1     116.351 131.394 130.208  1.00  0.00     0.211 HD
ENDBRANCH   3  24
BRANCH   5  26
ATOM     26  O   UNL     1     118.580 129.450 133.857  1.00  0.00    -0.454 OA
BRANCH  26  27
ATOM     27  C   UNL     1     119.486 129.142 134.876  1.00  0.00     0.214 A 
ATOM     28  C   UNL     1     120.755 128.612 134.585  1.00  0.00     0.180 A 
ATOM     29  C   UNL     1     119.120 129.339 136.211  1.00  0.00     0.239 A 
ATOM     30  O   UNL     1     121.542 128.211 135.577  1.00  0.00    -0.452 OA
ATOM     31  C   UNL     1     120.015 128.982 137.246  1.00  0.00     0.111 A 
ATOM     32  O   UNL     1     117.973 129.795 136.457  1.00  0.00    -0.285 OA
ATOM     33  C   UNL     1     121.227 128.350 136.859  1.00  0.00     0.146 A 
ATOM     34  C   UNL     1     119.764 129.178 138.635  1.00  0.00     0.134 A 
ATOM     35  C   UNL     1     122.114 127.866 137.824  1.00  0.00     0.094 A 
ATOM     36  C   UNL     1     120.655 128.653 139.579  1.00  0.00     0.093 A 
ATOM     37  C   UNL     1     121.824 128.000 139.179  1.00  0.00     0.123 A 
BRANCH  28  38
ATOM     38  C   UNL     1     121.265 128.499 133.200  1.00  0.00     0.025 A 
ATOM     39  C   UNL     1     120.741 127.547 132.310  1.00  0.00     0.062 A 
ATOM     40  C   UNL     1     122.205 129.430 132.729  1.00  0.00     0.016 A 
ATOM     41  C   UNL     1     121.146 127.524 130.970  1.00  0.00     0.158 A 
ATOM     42  C   UNL     1     122.623 129.399 131.397  1.00  0.00     0.051 A 
ATOM     43  C   UNL     1     122.091 128.455 130.510  1.00  0.00     0.157 A 
BRANCH  41  44
ATOM     44  O   UNL     1     120.591 126.576 130.111  1.00  0.00    -0.504 OA
ATOM     45  H   UNL     1     120.606 126.690 129.103  1.00  0.00     0.293 HD
ENDBRANCH  41  44
BRANCH  43  46
ATOM     46  O   UNL     1     122.495 128.437 129.178  1.00  0.00    -0.504 OA
ATOM     47  H   UNL     1     123.465 128.277 128.921  1.00  0.00     0.293 HD
ENDBRANCH  43  46
ENDBRANCH  28  38
BRANCH  34  48
ATOM     48  O   UNL     1     118.679 129.907 139.130  1.00  0.00    -0.507 OA
ATOM     49  H   UNL     1     118.725 130.870 139.424  1.00  0.00     0.293 HD
ENDBRANCH  34  48
BRANCH  37  50
ATOM     50  O   UNL     1     122.712 127.491 140.125  1.00  0.00    -0.508 OA
ATOM     51  H   UNL     1     122.918 127.991 140.983  1.00  0.00     0.293 HD
ENDBRANCH  37  50
ENDBRANCH  26  27
ENDBRANCH   5  26
BRANCH   4  52
ATOM     52  O   UNL     1     115.084 130.505 133.572  1.00  0.00    -0.384 OA
ATOM     53  H   UNL     1     114.585 130.570 132.716  1.00  0.00     0.211 HD
ENDBRANCH   4  52
TORSDOF 16
ENDMDL
MODEL 6
REMARK VINA RESULT:    -7.155      2.378      4.651
REMARK INTER + INTRA:         -13.992
REMARK INTER:                 -11.628
REMARK INTRA:                  -2.364
REMARK UNBOUND:                -2.235
REMARK SMILES C[C@H]1O[C@H](OC[C@@H]2O[C@@H](Oc3c(-c4ccc(O)c(O)c4)oc4cc(O)cc(O)c4c3=O)[C@H](O)[C@H](O)[C@H]2O)[C@@H](O)[C@@H](O)[C@H]1O
REMARK SMILES IDX 7 1 36 2 34 3 32 4 9 5 8 6 6 7 5 8 4 9 1 10 2 11 42 12 3 13
REMARK SMILES IDX 40 14 38 15 43 16 41 18 39 20 37 22 35 24 10 26 11 27 12 28
REMARK SMILES IDX 30 29 21 30 29 31 31 32 22 33 27 34 23 35 26 36 24 37 13 38
REMARK SMILES IDX 20 39 14 40 18 41 15 42 16 43 19 44 17 46 28 48 25 50 33 52
REMARK H PARENT 43 17 41 19 39 21 37 23 35 25 19 45 17 47 28 49 25 51 33 53
REMARK Flexibility Score: inf
ROOT
ATOM      1  C   UNL     1     115.808 129.902 135.188  1.00  0.00     0.180 C 
ATOM      2  C   UNL     1     116.756 129.201 136.192  1.00  0.00     0.177 C 
ATOM      3  C   UNL     1     117.823 128.396 135.422  1.00  0.00     0.180 C 
ATOM      4  C   UNL     1     117.155 127.486 134.378  1.00  0.00     0.214 C 
ATOM      5  C   UNL     1     116.190 128.310 133.504  1.00  0.00     0.339 C 
ATOM      6  O   UNL     1     115.217 128.961 134.304  1.00  0.00    -0.332 OA
ENDROOT
BRANCH   1   7
ATOM      7  C   UNL     1     114.677 130.678 135.885  1.00  0.00     0.198 C 
BRANCH   7   8
ATOM      8  O   UNL     1     115.165 131.882 136.446  1.00  0.00    -0.347 OA
BRANCH   8   9
ATOM      9  C   UNL     1     114.809 133.057 135.732  1.00  0.00     0.281 C 
ATOM     10  C   UNL     1     113.911 136.168 137.569  1.00  0.00     0.041 C 
ATOM     11  C   UNL     1     114.874 135.160 136.938  1.00  0.00     0.150 C 
ATOM     12  C   UNL     1     115.661 135.816 135.786  1.00  0.00     0.174 C 
ATOM     13  O   UNL     1     114.126 134.021 136.536  1.00  0.00    -0.344 OA
ATOM     14  C   UNL     1     116.652 134.799 135.223  1.00  0.00     0.179 C 
ATOM     15  C   UNL     1     115.911 133.547 134.739  1.00  0.00     0.202 C 
BRANCH  12  16
ATOM     16  O   UNL     1     114.791 136.254 134.772  1.00  0.00    -0.388 OA
ATOM     17  H   UNL     1     115.262 136.123 133.908  1.00  0.00     0.211 HD
ENDBRANCH  12  16
BRANCH  14  18
ATOM     18  O   UNL     1     117.379 135.366 134.161  1.00  0.00    -0.387 OA
ATOM     19  H   UNL     1     116.849 135.219 133.335  1.00  0.00     0.211 HD
ENDBRANCH  14  18
BRANCH  15  20
ATOM     20  O   UNL     1     115.322 133.801 133.483  1.00  0.00    -0.385 OA
ATOM     21  H   UNL     1     115.058 134.764 133.471  1.00  0.00     0.211 HD
ENDBRANCH  15  20
ENDBRANCH   8   9
ENDBRANCH   7   8
ENDBRANCH   1   7
BRANCH   2  22
ATOM     22  O   UNL     1     117.375 130.168 137.003  1.00  0.00    -0.387 OA
ATOM     23  H   UNL     1     117.718 129.696 137.807  1.00  0.00     0.211 HD
ENDBRANCH   2  22
BRANCH   3  24
ATOM     24  O   UNL     1     118.575 127.609 136.310  1.00  0.00    -0.387 OA
ATOM     25  H   UNL     1     119.263 128.201 136.712  1.00  0.00     0.211 HD
ENDBRANCH   3  24
BRANCH   5  26
ATOM     26  O   UNL     1     116.916 129.256 132.709  1.00  0.00    -0.454 OA
BRANCH  26  27
ATOM     27  C   UNL     1     116.617 129.481 131.362  1.00  0.00     0.214 A 
ATOM     28  C   UNL     1     117.246 128.744 130.344  1.00  0.00     0.180 A 
ATOM     29  C   UNL     1     115.695 130.474 131.015  1.00  0.00     0.239 A 
ATOM     30  O   UNL     1     117.035 129.069 129.074  1.00  0.00    -0.452 OA
ATOM     31  C   UNL     1     115.428 130.739 129.652  1.00  0.00     0.111 A 
ATOM     32  O   UNL     1     115.155 131.140 131.936  1.00  0.00    -0.285 OA
ATOM     33  C   UNL     1     116.193 130.022 128.694  1.00  0.00     0.146 A 
ATOM     34  C   UNL     1     114.479 131.695 129.186  1.00  0.00     0.134 A 
ATOM     35  C   UNL     1     116.070 130.304 127.331  1.00  0.00     0.094 A 
ATOM     36  C   UNL     1     114.400 131.979 127.817  1.00  0.00     0.093 A 
ATOM     37  C   UNL     1     115.190 131.291 126.893  1.00  0.00     0.123 A 
BRANCH  28  38
ATOM     38  C   UNL     1     118.129 127.592 130.634  1.00  0.00     0.025 A 
ATOM     39  C   UNL     1     119.521 127.753 130.736  1.00  0.00     0.062 A 
ATOM     40  C   UNL     1     117.563 126.340 130.926  1.00  0.00     0.016 A 
ATOM     41  C   UNL     1     120.336 126.683 131.123  1.00  0.00     0.158 A 
ATOM     42  C   UNL     1     118.375 125.267 131.297  1.00  0.00     0.051 A 
ATOM     43  C   UNL     1     119.761 125.434 131.407  1.00  0.00     0.157 A 
BRANCH  41  44
ATOM     44  O   UNL     1     121.712 126.885 131.232  1.00  0.00    -0.504 OA
ATOM     45  H   UNL     1     122.224 126.657 132.077  1.00  0.00     0.293 HD
ENDBRANCH  41  44
BRANCH  43  46
ATOM     46  O   UNL     1     120.568 124.368 131.795  1.00  0.00    -0.504 OA
ATOM     47  H   UNL     1     120.237 123.408 131.748  1.00  0.00     0.293 HD
ENDBRANCH  43  46
ENDBRANCH  28  38
BRANCH  34  48
ATOM     48  O   UNL     1     113.574 132.358 130.019  1.00  0.00    -0.507 OA
ATOM     49  H   UNL     1     112.584 132.429 129.846  1.00  0.00     0.293 HD
ENDBRANCH  34  48
BRANCH  37  50
ATOM     50  O   UNL     1     115.098 131.571 125.531  1.00  0.00    -0.508 OA
ATOM     51  H   UNL     1     114.463 132.278 125.176  1.00  0.00     0.293 HD
ENDBRANCH  37  50
ENDBRANCH  26  27
ENDBRANCH   5  26
BRANCH   4  52
ATOM     52  O   UNL     1     116.449 126.458 135.027  1.00  0.00    -0.384 OA
ATOM     53  H   UNL     1     116.195 125.798 134.331  1.00  0.00     0.211 HD
ENDBRANCH   4  52
TORSDOF 16
ENDMDL
MODEL 7
REMARK VINA RESULT:    -7.031      2.413      4.631
REMARK INTER + INTRA:         -13.788
REMARK INTER:                 -11.551
REMARK INTRA:                  -2.237
REMARK UNBOUND:                -2.235
REMARK SMILES C[C@H]1O[C@H](OC[C@@H]2O[C@@H](Oc3c(-c4ccc(O)c(O)c4)oc4cc(O)cc(O)c4c3=O)[C@H](O)[C@H](O)[C@H]2O)[C@@H](O)[C@@H](O)[C@H]1O
REMARK SMILES IDX 7 1 36 2 34 3 32 4 9 5 8 6 6 7 5 8 4 9 1 10 2 11 42 12 3 13
REMARK SMILES IDX 40 14 38 15 43 16 41 18 39 20 37 22 35 24 10 26 11 27 12 28
REMARK SMILES IDX 30 29 21 30 29 31 31 32 22 33 27 34 23 35 26 36 24 37 13 38
REMARK SMILES IDX 20 39 14 40 18 41 15 42 16 43 19 44 17 46 28 48 25 50 33 52
REMARK H PARENT 43 17 41 19 39 21 37 23 35 25 19 45 17 47 28 49 25 51 33 53
REMARK Flexibility Score: inf
ROOT
ATOM      1  C   UNL     1     118.883 128.145 135.836  1.00  0.00     0.180 C 
ATOM      2  C   UNL     1     118.936 127.704 137.319  1.00  0.00     0.177 C 
ATOM      3  C   UNL     1     117.503 127.579 137.875  1.00  0.00     0.180 C 
ATOM      4  C   UNL     1     116.703 128.860 137.581  1.00  0.00     0.214 C 
ATOM      5  C   UNL     1     116.805 129.210 136.084  1.00  0.00     0.339 C 
ATOM      6  O   UNL     1     118.158 129.358 135.691  1.00  0.00    -0.332 OA
ENDROOT
BRANCH   1   7
ATOM      7  C   UNL     1     120.282 128.349 135.229  1.00  0.00     0.198 C 
BRANCH   7   8
ATOM      8  O   UNL     1     120.949 127.111 135.075  1.00  0.00    -0.347 OA
BRANCH   8   9
ATOM      9  C   UNL     1     121.657 126.965 133.852  1.00  0.00     0.281 C 
ATOM     10  C   UNL     1     119.856 125.961 130.752  1.00  0.00     0.041 C 
ATOM     11  C   UNL     1     120.358 126.953 131.805  1.00  0.00     0.150 C 
ATOM     12  C   UNL     1     121.323 127.972 131.167  1.00  0.00     0.174 C 
ATOM     13  O   UNL     1     120.938 126.214 132.870  1.00  0.00    -0.344 OA
ATOM     14  C   UNL     1     121.754 128.979 132.231  1.00  0.00     0.179 C 
ATOM     15  C   UNL     1     122.419 128.254 133.409  1.00  0.00     0.202 C 
BRANCH  12  16
ATOM     16  O   UNL     1     122.450 127.325 130.630  1.00  0.00    -0.388 OA
ATOM     17  H   UNL     1     122.965 126.955 131.395  1.00  0.00     0.211 HD
ENDBRANCH  12  16
BRANCH  14  18
ATOM     18  O   UNL     1     122.645 129.917 131.681  1.00  0.00    -0.387 OA
ATOM     19  H   UNL     1     123.362 129.404 131.226  1.00  0.00     0.211 HD
ENDBRANCH  14  18
BRANCH  15  20
ATOM     20  O   UNL     1     123.744 127.914 133.067  1.00  0.00    -0.385 OA
ATOM     21  H   UNL     1     124.316 128.128 133.857  1.00  0.00     0.211 HD
ENDBRANCH  15  20
ENDBRANCH   8   9
ENDBRANCH   7   8
ENDBRANCH   1   7
BRANCH   2  22
ATOM     22  O   UNL     1     119.598 126.467 137.415  1.00  0.00    -0.387 OA
ATOM     23  H   UNL     1     120.531 126.659 137.699  1.00  0.00     0.211 HD
ENDBRANCH   2  22
BRANCH   3  24
ATOM     24  O   UNL     1     117.535 127.361 139.262  1.00  0.00    -0.387 OA
ATOM     25  H   UNL     1     117.134 128.161 139.691  1.00  0.00     0.211 HD
ENDBRANCH   3  24
BRANCH   5  26
ATOM     26  O   UNL     1     116.147 128.215 135.290  1.00  0.00    -0.454 OA
BRANCH  26  27
ATOM     27  C   UNL     1     116.208 128.216 133.894  1.00  0.00     0.214 A 
ATOM     28  C   UNL     1     116.595 127.069 133.180  1.00  0.00     0.180 A 
ATOM     29  C   UNL     1     115.903 129.385 133.190  1.00  0.00     0.239 A 
ATOM     30  O   UNL     1     116.765 127.140 131.866  1.00  0.00    -0.452 OA
ATOM     31  C   UNL     1     116.011 129.405 131.779  1.00  0.00     0.111 A 
ATOM     32  O   UNL     1     115.577 130.411 133.842  1.00  0.00    -0.285 OA
ATOM     33  C   UNL     1     116.518 128.234 131.156  1.00  0.00     0.146 A 
ATOM     34  C   UNL     1     115.685 130.525 130.960  1.00  0.00     0.134 A 
ATOM     35  C   UNL     1     116.760 128.211 129.780  1.00  0.00     0.094 A 
ATOM     36  C   UNL     1     115.970 130.484 129.590  1.00  0.00     0.093 A 
ATOM     37  C   UNL     1     116.505 129.336 129.000  1.00  0.00     0.123 A 
BRANCH  28  38
ATOM     38  C   UNL     1     116.803 125.761 133.842  1.00  0.00     0.025 A 
ATOM     39  C   UNL     1     118.096 125.240 134.027  1.00  0.00     0.062 A 
ATOM     40  C   UNL     1     115.707 125.083 134.398  1.00  0.00     0.016 A 
ATOM     41  C   UNL     1     118.291 124.060 134.754  1.00  0.00     0.158 A 
ATOM     42  C   UNL     1     115.898 123.898 135.111  1.00  0.00     0.051 A 
ATOM     43  C   UNL     1     117.187 123.385 135.301  1.00  0.00     0.157 A 
BRANCH  41  44
ATOM     44  O   UNL     1     119.589 123.582 134.932  1.00  0.00    -0.504 OA
ATOM     45  H   UNL     1     120.315 123.728 134.239  1.00  0.00     0.293 HD
ENDBRANCH  41  44
BRANCH  43  46
ATOM     46  O   UNL     1     117.378 122.213 136.028  1.00  0.00    -0.504 OA
ATOM     47  H   UNL     1     118.303 121.921 136.328  1.00  0.00     0.293 HD
ENDBRANCH  43  46
ENDBRANCH  28  38
BRANCH  34  48
ATOM     48  O   UNL     1     115.053 131.677 131.437  1.00  0.00    -0.507 OA
ATOM     49  H   UNL     1     114.914 131.889 132.413  1.00  0.00     0.293 HD
ENDBRANCH  34  48
BRANCH  37  50
ATOM     50  O   UNL     1     116.774 129.298 127.634  1.00  0.00    -0.508 OA
ATOM     51  H   UNL     1     117.611 129.718 127.245  1.00  0.00     0.293 HD
ENDBRANCH  37  50
ENDBRANCH  26  27
ENDBRANCH   5  26
BRANCH   4  52
ATOM     52  O   UNL     1     117.208 129.921 138.353  1.00  0.00    -0.384 OA
ATOM     53  H   UNL     1     117.541 129.527 139.202  1.00  0.00     0.211 HD
ENDBRANCH   4  52
TORSDOF 16
ENDMDL
MODEL 8
REMARK VINA RESULT:    -7.014      2.410      5.202
REMARK INTER + INTRA:         -13.760
REMARK INTER:                 -11.645
REMARK INTRA:                  -2.115
REMARK UNBOUND:                -2.235
REMARK SMILES C[C@H]1O[C@H](OC[C@@H]2O[C@@H](Oc3c(-c4ccc(O)c(O)c4)oc4cc(O)cc(O)c4c3=O)[C@H](O)[C@H](O)[C@H]2O)[C@@H](O)[C@@H](O)[C@H]1O
REMARK SMILES IDX 7 1 36 2 34 3 32 4 9 5 8 6 6 7 5 8 4 9 1 10 2 11 42 12 3 13
REMARK SMILES IDX 40 14 38 15 43 16 41 18 39 20 37 22 35 24 10 26 11 27 12 28
REMARK SMILES IDX 30 29 21 30 29 31 31 32 22 33 27 34 23 35 26 36 24 37 13 38
REMARK SMILES IDX 20 39 14 40 18 41 15 42 16 43 19 44 17 46 28 48 25 50 33 52
REMARK H PARENT 43 17 41 19 39 21 37 23 35 25 19 45 17 47 28 49 25 51 33 53
REMARK Flexibility Score: inf
ROOT
ATOM      1  C   UNL     1     117.925 126.910 132.684  1.00  0.00     0.180 C 
ATOM      2  C   UNL     1     117.824 126.330 134.115  1.00  0.00     0.177 C 
ATOM      3  C   UNL     1     116.744 127.092 134.909  1.00  0.00     0.180 C 
ATOM      4  C   UNL     1     116.980 128.609 134.811  1.00  0.00     0.214 C 
ATOM      5  C   UNL     1     117.132 129.022 133.334  1.00  0.00     0.339 C 
ATOM      6  O   UNL     1     118.187 128.305 132.716  1.00  0.00    -0.332 OA
ENDROOT
BRANCH   1   7
ATOM      7  C   UNL     1     119.028 126.236 131.849  1.00  0.00     0.198 C 
BRANCH   7   8
ATOM      8  O   UNL     1     120.067 125.756 132.681  1.00  0.00    -0.347 OA
BRANCH   8   9
ATOM      9  C   UNL     1     121.277 126.496 132.606  1.00  0.00     0.281 C 
ATOM     10  C   UNL     1     122.153 128.352 129.500  1.00  0.00     0.041 C 
ATOM     11  C   UNL     1     121.463 128.161 130.853  1.00  0.00     0.150 C 
ATOM     12  C   UNL     1     121.976 129.200 131.870  1.00  0.00     0.174 C 
ATOM     13  O   UNL     1     121.662 126.817 131.268  1.00  0.00    -0.344 OA
ATOM     14  C   UNL     1     121.223 129.017 133.186  1.00  0.00     0.179 C 
ATOM     15  C   UNL     1     121.415 127.589 133.714  1.00  0.00     0.202 C 
BRANCH  12  16
ATOM     16  O   UNL     1     123.359 129.052 132.081  1.00  0.00    -0.388 OA
ATOM     17  H   UNL     1     123.774 129.938 131.916  1.00  0.00     0.211 HD
ENDBRANCH  12  16
BRANCH  14  18
ATOM     18  O   UNL     1     121.678 129.945 134.140  1.00  0.00    -0.387 OA
ATOM     19  H   UNL     1     121.628 130.841 133.719  1.00  0.00     0.211 HD
ENDBRANCH  14  18
BRANCH  15  20
ATOM     20  O   UNL     1     122.683 127.475 134.321  1.00  0.00    -0.385 OA
ATOM     21  H   UNL     1     122.737 126.562 134.720  1.00  0.00     0.211 HD
ENDBRANCH  15  20
ENDBRANCH   8   9
ENDBRANCH   7   8
ENDBRANCH   1   7
BRANCH   2  22
ATOM     22  O   UNL     1     117.495 124.964 134.045  1.00  0.00    -0.387 OA
ATOM     23  H   UNL     1     118.153 124.478 134.608  1.00  0.00     0.211 HD
ENDBRANCH   2  22
BRANCH   3  24
ATOM     24  O   UNL     1     116.766 126.706 136.260  1.00  0.00    -0.387 OA
ATOM     25  H   UNL     1     117.479 127.237 136.701  1.00  0.00     0.211 HD
ENDBRANCH   3  24
BRANCH   5  26
ATOM     26  O   UNL     1     115.899 128.829 132.630  1.00  0.00    -0.454 OA
BRANCH  26  27
ATOM     27  C   UNL     1     115.500 129.666 131.584  1.00  0.00     0.214 A 
ATOM     28  C   UNL     1     114.925 130.923 131.837  1.00  0.00     0.180 A 
ATOM     29  C   UNL     1     115.651 129.240 130.261  1.00  0.00     0.239 A 
ATOM     30  O   UNL     1     114.441 131.638 130.828  1.00  0.00    -0.452 OA
ATOM     31  C   UNL     1     115.203 130.063 129.201  1.00  0.00     0.111 A 
ATOM     32  O   UNL     1     116.149 128.103 130.049  1.00  0.00    -0.285 OA
ATOM     33  C   UNL     1     114.533 131.263 129.558  1.00  0.00     0.146 A 
ATOM     34  C   UNL     1     115.345 129.748 127.819  1.00  0.00     0.134 A 
ATOM     35  C   UNL     1     113.962 132.076 128.576  1.00  0.00     0.094 A 
ATOM     36  C   UNL     1     114.735 130.564 126.859  1.00  0.00     0.093 A 
ATOM     37  C   UNL     1     114.046 131.722 127.231  1.00  0.00     0.123 A 
BRANCH  28  38
ATOM     38  C   UNL     1     114.854 131.499 133.199  1.00  0.00     0.025 A 
ATOM     39  C   UNL     1     115.838 132.390 133.661  1.00  0.00     0.062 A 
ATOM     40  C   UNL     1     113.731 131.245 134.002  1.00  0.00     0.016 A 
ATOM     41  C   UNL     1     115.703 133.018 134.904  1.00  0.00     0.158 A 
ATOM     42  C   UNL     1     113.602 131.858 135.250  1.00  0.00     0.051 A 
ATOM     43  C   UNL     1     114.579 132.752 135.703  1.00  0.00     0.157 A 
BRANCH  41  44
ATOM     44  O   UNL     1     116.690 133.910 135.322  1.00  0.00    -0.504 OA
ATOM     45  H   UNL     1     116.930 134.737 134.785  1.00  0.00     0.293 HD
ENDBRANCH  41  44
BRANCH  43  46
ATOM     46  O   UNL     1     114.440 133.377 136.940  1.00  0.00    -0.504 OA
ATOM     47  H   UNL     1     115.195 133.924 137.345  1.00  0.00     0.293 HD
ENDBRANCH  43  46
ENDBRANCH  28  38
BRANCH  34  48
ATOM     48  O   UNL     1     116.101 128.673 127.342  1.00  0.00    -0.507 OA
ATOM     49  H   UNL     1     116.580 128.008 127.928  1.00  0.00     0.293 HD
ENDBRANCH  34  48
BRANCH  37  50
ATOM     50  O   UNL     1     113.451 132.535 126.269  1.00  0.00    -0.508 OA
ATOM     51  H   UNL     1     113.077 133.449 126.503  1.00  0.00     0.293 HD
ENDBRANCH  37  50
ENDBRANCH  26  27
ENDBRANCH   5  26
BRANCH   4  52
ATOM     52  O   UNL     1     118.142 128.954 135.524  1.00  0.00    -0.384 OA
ATOM     53  H   UNL     1     118.169 129.946 135.567  1.00  0.00     0.211 HD
ENDBRANCH   4  52
TORSDOF 16
ENDMDL
MODEL 9
REMARK VINA RESULT:    -6.871      2.561      5.367
REMARK INTER + INTRA:         -13.524
REMARK INTER:                 -10.982
REMARK INTRA:                  -2.542
REMARK UNBOUND:                -2.235
REMARK SMILES C[C@H]1O[C@H](OC[C@@H]2O[C@@H](Oc3c(-c4ccc(O)c(O)c4)oc4cc(O)cc(O)c4c3=O)[C@H](O)[C@H](O)[C@H]2O)[C@@H](O)[C@@H](O)[C@H]1O
REMARK SMILES IDX 7 1 36 2 34 3 32 4 9 5 8 6 6 7 5 8 4 9 1 10 2 11 42 12 3 13
REMARK SMILES IDX 40 14 38 15 43 16 41 18 39 20 37 22 35 24 10 26 11 27 12 28
REMARK SMILES IDX 30 29 21 30 29 31 31 32 22 33 27 34 23 35 26 36 24 37 13 38
REMARK SMILES IDX 20 39 14 40 18 41 15 42 16 43 19 44 17 46 28 48 25 50 33 52
REMARK H PARENT 43 17 41 19 39 21 37 23 35 25 19 45 17 47 28 49 25 51 33 53
REMARK Flexibility Score: inf
ROOT
ATOM      1  C   UNL     1     119.384 125.167 132.535  1.00  0.00     0.180 C 
ATOM      2  C   UNL     1     120.573 126.072 132.939  1.00  0.00     0.177 C 
ATOM      3  C   UNL     1     120.290 127.525 132.504  1.00  0.00     0.180 C 
ATOM      4  C   UNL     1     119.883 127.569 131.022  1.00  0.00     0.214 C 
ATOM      5  C   UNL     1     118.743 126.566 130.761  1.00  0.00     0.339 C 
ATOM      6  O   UNL     1     119.127 125.256 131.141  1.00  0.00    -0.332 OA
ENDROOT
BRANCH   1   7
ATOM      7  C   UNL     1     119.621 123.687 132.883  1.00  0.00     0.198 C 
BRANCH   7   8
ATOM      8  O   UNL     1     118.468 123.118 133.473  1.00  0.00    -0.347 OA
BRANCH   8   9
ATOM      9  C   UNL     1     117.961 123.828 134.594  1.00  0.00     0.281 C 
ATOM     10  C   UNL     1     114.621 122.975 135.999  1.00  0.00     0.041 C 
ATOM     11  C   UNL     1     116.133 122.815 135.823  1.00  0.00     0.150 C 
ATOM     12  C   UNL     1     116.861 123.080 137.157  1.00  0.00     0.174 C 
ATOM     13  O   UNL     1     116.551 123.672 134.770  1.00  0.00    -0.344 OA
ATOM     14  C   UNL     1     118.357 122.853 136.957  1.00  0.00     0.179 C 
ATOM     15  C   UNL     1     118.890 123.769 135.848  1.00  0.00     0.202 C 
BRANCH  12  16
ATOM     16  O   UNL     1     116.627 124.394 137.601  1.00  0.00    -0.388 OA
ATOM     17  H   UNL     1     117.492 124.878 137.544  1.00  0.00     0.211 HD
ENDBRANCH  12  16
BRANCH  14  18
ATOM     18  O   UNL     1     119.050 123.098 138.155  1.00  0.00    -0.387 OA
ATOM     19  H   UNL     1     118.685 123.938 138.536  1.00  0.00     0.211 HD
ENDBRANCH  14  18
BRANCH  15  20
ATOM     20  O   UNL     1     119.066 125.073 136.355  1.00  0.00    -0.385 OA
ATOM     21  H   UNL     1     118.164 125.500 136.387  1.00  0.00     0.211 HD
ENDBRANCH  15  20
ENDBRANCH   8   9
ENDBRANCH   7   8
ENDBRANCH   1   7
BRANCH   2  22
ATOM     22  O   UNL     1     120.753 126.013 134.332  1.00  0.00    -0.387 OA
ATOM     23  H   UNL     1     119.971 126.465 134.745  1.00  0.00     0.211 HD
ENDBRANCH   2  22
BRANCH   3  24
ATOM     24  O   UNL     1     121.431 128.322 132.695  1.00  0.00    -0.387 OA
ATOM     25  H   UNL     1     121.162 129.261 132.516  1.00  0.00     0.211 HD
ENDBRANCH   3  24
BRANCH   5  26
ATOM     26  O   UNL     1     117.552 126.970 131.448  1.00  0.00    -0.454 OA
BRANCH  26  27
ATOM     27  C   UNL     1     116.909 128.180 131.173  1.00  0.00     0.214 A 
ATOM     28  C   UNL     1     116.332 128.948 132.200  1.00  0.00     0.180 A 
ATOM     29  C   UNL     1     116.812 128.628 129.852  1.00  0.00     0.239 A 
ATOM     30  O   UNL     1     115.619 130.025 131.892  1.00  0.00    -0.452 OA
ATOM     31  C   UNL     1     116.119 129.827 129.564  1.00  0.00     0.111 A 
ATOM     32  O   UNL     1     117.315 127.920 128.940  1.00  0.00    -0.285 OA
ATOM     33  C   UNL     1     115.474 130.474 130.651  1.00  0.00     0.146 A 
ATOM     34  C   UNL     1     115.996 130.396 128.264  1.00  0.00     0.134 A 
ATOM     35  C   UNL     1     114.676 131.600 130.435  1.00  0.00     0.094 A 
ATOM     36  C   UNL     1     115.164 131.506 128.072  1.00  0.00     0.093 A 
ATOM     37  C   UNL     1     114.506 132.107 129.148  1.00  0.00     0.123 A 
BRANCH  28  38
ATOM     38  C   UNL     1     116.507 128.611 133.630  1.00  0.00     0.025 A 
ATOM     39  C   UNL     1     115.716 127.625 134.245  1.00  0.00     0.062 A 
ATOM     40  C   UNL     1     117.553 129.199 134.359  1.00  0.00     0.016 A 
ATOM     41  C   UNL     1     115.964 127.231 135.565  1.00  0.00     0.158 A 
ATOM     42  C   UNL     1     117.793 128.820 135.681  1.00  0.00     0.051 A 
ATOM     43  C   UNL     1     117.009 127.831 136.287  1.00  0.00     0.157 A 
BRANCH  41  44
ATOM     44  O   UNL     1     115.171 126.237 136.135  1.00  0.00    -0.504 OA
ATOM     45  H   UNL     1     115.550 125.551 136.779  1.00  0.00     0.293 HD
ENDBRANCH  41  44
BRANCH  43  46
ATOM     46  O   UNL     1     117.262 127.440 137.599  1.00  0.00    -0.504 OA
ATOM     47  H   UNL     1     117.364 128.123 138.345  1.00  0.00     0.293 HD
ENDBRANCH  43  46
ENDBRANCH  28  38
BRANCH  34  48
ATOM     48  O   UNL     1     116.694 129.933 127.145  1.00  0.00    -0.507 OA
ATOM     49  H   UNL     1     116.264 129.501 126.343  1.00  0.00     0.293 HD
ENDBRANCH  34  48
BRANCH  37  50
ATOM     50  O   UNL     1     113.689 133.218 128.951  1.00  0.00    -0.508 OA
ATOM     51  H   UNL     1     113.972 134.145 129.250  1.00  0.00     0.293 HD
ENDBRANCH  37  50
ENDBRANCH  26  27
ENDBRANCH   5  26
BRANCH   4  52
ATOM     52  O   UNL     1     120.990 127.250 130.217  1.00  0.00    -0.384 OA
ATOM     53  H   UNL     1     121.739 127.832 130.512  1.00  0.00     0.211 HD
ENDBRANCH   4  52
TORSDOF 16
ENDMDL
