MODEL 1
REMARK VINA RESULT:     4.345      0.000      0.000
REMARK INTER + INTRA:           6.075
REMARK INTER:                   4.726
REMARK INTRA:                   1.349
REMARK UNBOUND:                 1.349
REMARK SMILES C[C@H]1[C@@H](C)CC[C@]2(C(=O)[O-])CC[C@@]3(C)C(=CC[C@@H]4[C@@]5(C)CC[C@@H](O)C(C)(C)[C@@H]5CC[C@@]43C)[C@@H]12
REMARK SMILES IDX 7 1 6 2 11 3 33 4 5 5 12 6 15 7 2 8 3 9 13 10 16 11 1 12
REMARK SMILES IDX 4 13 14 14 31 15 17 16 18 17 30 18 32 19 19 20 29 21 28 22
REMARK SMILES IDX 21 23 20 24 25 25 22 26 23 27 26 28 27 29 8 30 9 31 10 32
REMARK SMILES IDX 24 33
REMARK H PARENT 24 34
REMARK Flexibility Score: inf
ROOT
ATOM      1  C   UNL     1      -7.064  -6.677   5.316  1.00  0.00     0.017 C 
ATOM      2  C   UNL     1      -5.927  -5.698   5.726  1.00  0.00     0.014 C 
ATOM      3  C   UNL     1      -6.491  -7.684   4.305  1.00  0.00     0.014 C 
ATOM      4  C   UNL     1      -8.179  -5.865   4.582  1.00  0.00     0.030 C 
ATOM      5  C   UNL     1      -6.438  -4.576   6.634  1.00  0.00     0.004 C 
ATOM      6  C   UNL     1      -7.530  -8.733   3.896  1.00  0.00     0.013 C 
ATOM      7  C   UNL     1      -9.227  -6.742   3.853  1.00  0.00    -0.063 C 
ATOM      8  C   UNL     1      -8.710  -4.649   5.430  1.00  0.00    -0.003 C 
ATOM      9  C   UNL     1      -7.530  -3.760   5.924  1.00  0.00    -0.011 C 
ATOM     10  C   UNL     1      -8.926  -8.194   3.368  1.00  0.00    -0.006 C 
ATOM     11  C   UNL     1     -10.318  -6.135   3.335  1.00  0.00    -0.027 C 
ATOM     12  C   UNL     1      -9.692  -5.046   6.550  1.00  0.00     0.008 C 
ATOM     13  C   UNL     1      -7.986  -2.583   6.799  1.00  0.00     0.008 C 
ATOM     14  C   UNL     1      -9.991  -9.144   4.017  1.00  0.00     0.017 C 
ATOM     15  C   UNL     1      -9.026  -8.226   1.747  1.00  0.00    -0.020 C 
ATOM     16  C   UNL     1     -11.195  -6.796   2.322  1.00  0.00     0.032 C 
ATOM     17  C   UNL     1     -10.337  -7.445   1.199  1.00  0.00     0.006 C 
ATOM     18  C   UNL     1      -8.955  -9.713   1.216  1.00  0.00     0.008 C 
ATOM     19  C   UNL     1      -7.768  -7.487   1.182  1.00  0.00     0.012 C 
ATOM     20  C   UNL     1     -11.191  -8.201   0.088  1.00  0.00    -0.025 C 
ATOM     21  C   UNL     1      -9.340  -9.969  -0.261  1.00  0.00     0.005 C 
ATOM     22  C   UNL     1     -10.157  -8.834  -0.911  1.00  0.00     0.003 C 
ATOM     23  C   UNL     1     -12.125  -7.212  -0.704  1.00  0.00     0.010 C 
ATOM     24  C   UNL     1     -12.125  -9.260   0.750  1.00  0.00     0.012 C 
ATOM     25  C   UNL     1     -10.666  -9.088  -2.387  1.00  0.00    -0.006 C 
ATOM     26  C   UNL     1     -11.479  -6.628  -1.963  1.00  0.00     0.033 C 
ATOM     27  C   UNL     1     -11.156  -7.716  -3.016  1.00  0.00     0.120 C 
ATOM     28  C   UNL     1     -11.817 -10.124  -2.461  1.00  0.00     0.014 C 
ATOM     29  C   UNL     1      -9.507  -9.675  -3.244  1.00  0.00     0.014 C 
ENDROOT
BRANCH   1  30
ATOM     30  C   UNL     1      -7.538  -7.432   6.559  1.00  0.00     0.048 C 
ATOM     31  O   UNL     1      -8.299  -8.428   6.466  1.00  0.00    -0.550 OA
ATOM     32  O   UNL     1      -7.030  -7.098   7.812  1.00  0.00    -0.550 OA
ENDBRANCH   1  30
BRANCH  27  33
ATOM     33  O   UNL     1     -10.198  -7.186  -3.903  1.00  0.00    -0.393 OA
ATOM     34  H   UNL     1     -10.315  -7.650  -4.773  1.00  0.00     0.210 HD
ENDBRANCH  27  33
TORSDOF 2
ENDMDL
MODEL 2
REMARK VINA RESULT:     4.867      1.892      7.979
REMARK INTER + INTRA:           6.642
REMARK INTER:                   5.208
REMARK INTRA:                   1.435
REMARK UNBOUND:                 1.349
REMARK SMILES C[C@H]1[C@@H](C)CC[C@]2(C(=O)[O-])CC[C@@]3(C)C(=CC[C@@H]4[C@@]5(C)CC[C@@H](O)C(C)(C)[C@@H]5CC[C@@]43C)[C@@H]12
REMARK SMILES IDX 7 1 6 2 11 3 33 4 5 5 12 6 15 7 2 8 3 9 13 10 16 11 1 12
REMARK SMILES IDX 4 13 14 14 31 15 17 16 18 17 30 18 32 19 19 20 29 21 28 22
REMARK SMILES IDX 21 23 20 24 25 25 22 26 23 27 26 28 27 29 8 30 9 31 10 32
REMARK SMILES IDX 24 33
REMARK H PARENT 24 34
REMARK Flexibility Score: inf
ROOT
ATOM      1  C   UNL     1     -10.730  -8.808   0.414  1.00  0.00     0.017 C 
ATOM      2  C   UNL     1     -12.125  -8.810  -0.274  1.00  0.00     0.014 C 
ATOM      3  C   UNL     1     -10.859  -9.530   1.764  1.00  0.00     0.014 C 
ATOM      4  C   UNL     1     -10.327  -7.329   0.714  1.00  0.00     0.030 C 
ATOM      5  C   UNL     1     -12.125  -7.996  -1.572  1.00  0.00     0.004 C 
ATOM      6  C   UNL     1      -9.510  -9.635   2.484  1.00  0.00     0.013 C 
ATOM      7  C   UNL     1      -9.110  -7.183   1.663  1.00  0.00    -0.063 C 
ATOM      8  C   UNL     1     -10.367  -6.411  -0.565  1.00  0.00    -0.003 C 
ATOM      9  C   UNL     1     -11.739  -6.535  -1.293  1.00  0.00    -0.011 C 
ATOM     10  C   UNL     1      -8.696  -8.287   2.684  1.00  0.00    -0.006 C 
ATOM     11  C   UNL     1      -8.587  -5.950   1.843  1.00  0.00    -0.027 C 
ATOM     12  C   UNL     1      -9.156  -6.584  -1.501  1.00  0.00     0.008 C 
ATOM     13  C   UNL     1     -11.819  -5.696  -2.577  1.00  0.00     0.008 C 
ATOM     14  C   UNL     1      -7.206  -8.674   2.388  1.00  0.00     0.017 C 
ATOM     15  C   UNL     1      -8.856  -7.686   4.184  1.00  0.00    -0.020 C 
ATOM     16  C   UNL     1      -7.671  -5.629   2.981  1.00  0.00     0.032 C 
ATOM     17  C   UNL     1      -8.242  -6.191   4.314  1.00  0.00     0.006 C 
ATOM     18  C   UNL     1      -8.238  -8.678   5.248  1.00  0.00     0.008 C 
ATOM     19  C   UNL     1     -10.388  -7.594   4.494  1.00  0.00     0.012 C 
ATOM     20  C   UNL     1      -7.313  -5.922   5.579  1.00  0.00    -0.025 C 
ATOM     21  C   UNL     1      -8.020  -8.146   6.685  1.00  0.00     0.005 C 
ATOM     22  C   UNL     1      -8.020  -6.609   6.802  1.00  0.00     0.003 C 
ATOM     23  C   UNL     1      -7.162  -4.383   5.876  1.00  0.00     0.010 C 
ATOM     24  C   UNL     1      -5.875  -6.468   5.321  1.00  0.00     0.012 C 
ATOM     25  C   UNL     1      -7.699  -6.010   8.231  1.00  0.00    -0.006 C 
ATOM     26  C   UNL     1      -8.210  -3.837   6.849  1.00  0.00     0.033 C 
ATOM     27  C   UNL     1      -8.093  -4.473   8.256  1.00  0.00     0.120 C 
ATOM     28  C   UNL     1      -6.209  -6.162   8.630  1.00  0.00     0.014 C 
ATOM     29  C   UNL     1      -8.512  -6.779   9.312  1.00  0.00     0.014 C 
ENDROOT
BRANCH   1  30
ATOM     30  C   UNL     1      -9.743  -9.572  -0.470  1.00  0.00     0.048 C 
ATOM     31  O   UNL     1      -8.710 -10.102   0.014  1.00  0.00    -0.550 OA
ATOM     32  O   UNL     1     -10.038  -9.797  -1.812  1.00  0.00    -0.550 OA
ENDBRANCH   1  30
BRANCH  27  33
ATOM     33  O   UNL     1      -9.315  -4.267   8.925  1.00  0.00    -0.393 OA
ATOM     34  H   UNL     1      -9.388  -4.968   9.624  1.00  0.00     0.210 HD
ENDBRANCH  27  33
TORSDOF 2
ENDMDL
MODEL 3
REMARK VINA RESULT:     7.153      1.085      1.231
REMARK INTER + INTRA:           9.129
REMARK INTER:                   7.686
REMARK INTRA:                   1.443
REMARK UNBOUND:                 1.349
REMARK SMILES C[C@H]1[C@@H](C)CC[C@]2(C(=O)[O-])CC[C@@]3(C)C(=CC[C@@H]4[C@@]5(C)CC[C@@H](O)C(C)(C)[C@@H]5CC[C@@]43C)[C@@H]12
REMARK SMILES IDX 7 1 6 2 11 3 33 4 5 5 12 6 15 7 2 8 3 9 13 10 16 11 1 12
REMARK SMILES IDX 4 13 14 14 31 15 17 16 18 17 30 18 32 19 19 20 29 21 28 22
REMARK SMILES IDX 21 23 20 24 25 25 22 26 23 27 26 28 27 29 8 30 9 31 10 32
REMARK SMILES IDX 24 33
REMARK H PARENT 24 34
REMARK Flexibility Score: inf
ROOT
ATOM      1  C   UNL     1      -7.141  -6.602   5.357  1.00  0.00     0.017 C 
ATOM      2  C   UNL     1      -6.017  -5.747   6.008  1.00  0.00     0.014 C 
ATOM      3  C   UNL     1      -6.547  -7.330   4.140  1.00  0.00     0.014 C 
ATOM      4  C   UNL     1      -8.253  -5.642   4.828  1.00  0.00     0.030 C 
ATOM      5  C   UNL     1      -6.549  -4.882   7.156  1.00  0.00     0.004 C 
ATOM      6  C   UNL     1      -7.572  -8.253   3.474  1.00  0.00     0.013 C 
ATOM      7  C   UNL     1      -9.286  -6.321   3.893  1.00  0.00    -0.063 C 
ATOM      8  C   UNL     1      -8.805  -4.672   5.939  1.00  0.00    -0.003 C 
ATOM      9  C   UNL     1      -7.638  -3.923   6.650  1.00  0.00    -0.011 C 
ATOM     10  C   UNL     1      -8.966  -7.610   3.073  1.00  0.00    -0.006 C 
ATOM     11  C   UNL     1     -10.376  -5.611   3.524  1.00  0.00    -0.027 C 
ATOM     12  C   UNL     1      -9.797  -5.334   6.915  1.00  0.00     0.008 C 
ATOM     13  C   UNL     1      -8.115  -2.997   7.779  1.00  0.00     0.008 C 
ATOM     14  C   UNL     1     -10.031  -8.694   3.457  1.00  0.00     0.017 C 
ATOM     15  C   UNL     1      -9.047  -7.246   1.493  1.00  0.00    -0.020 C 
ATOM     16  C   UNL     1     -11.235  -6.010   2.368  1.00  0.00     0.032 C 
ATOM     17  C   UNL     1     -10.358  -6.362   1.133  1.00  0.00     0.006 C 
ATOM     18  C   UNL     1      -8.957  -8.559   0.617  1.00  0.00     0.008 C 
ATOM     19  C   UNL     1      -7.788  -6.385   1.142  1.00  0.00     0.012 C 
ATOM     20  C   UNL     1     -11.191  -6.830  -0.140  1.00  0.00    -0.025 C 
ATOM     21  C   UNL     1      -9.323  -8.449  -0.883  1.00  0.00     0.005 C 
ATOM     22  C   UNL     1     -10.141  -7.195  -1.249  1.00  0.00     0.003 C 
ATOM     23  C   UNL     1     -12.124  -5.682  -0.681  1.00  0.00     0.010 C 
ATOM     24  C   UNL     1     -12.125  -8.023   0.232  1.00  0.00     0.012 C 
ATOM     25  C   UNL     1     -10.630  -7.084  -2.749  1.00  0.00    -0.006 C 
ATOM     26  C   UNL     1     -11.469  -4.806  -1.750  1.00  0.00     0.033 C 
ATOM     27  C   UNL     1     -11.124  -5.603  -3.032  1.00  0.00     0.120 C 
ATOM     28  C   UNL     1     -11.771  -8.077  -3.089  1.00  0.00     0.014 C 
ATOM     29  C   UNL     1      -9.456  -7.439  -3.707  1.00  0.00     0.014 C 
ENDROOT
BRANCH   1  30
ATOM     30  C   UNL     1      -7.623  -7.639   6.372  1.00  0.00     0.048 C 
ATOM     31  O   UNL     1      -8.116  -8.735   6.002  1.00  0.00    -0.550 OA
ATOM     32  O   UNL     1      -7.408  -7.435   7.733  1.00  0.00    -0.550 OA
ENDBRANCH   1  30
BRANCH  27  33
ATOM     33  O   UNL     1     -10.160  -4.868  -3.750  1.00  0.00    -0.393 OA
ATOM     34  H   UNL     1      -9.288  -5.003  -3.293  1.00  0.00     0.210 HD
ENDBRANCH  27  33
TORSDOF 2
ENDMDL
