MODEL 1
REMARK VINA RESULT:    -2.183      0.000      0.000
REMARK INTER + INTRA:          -2.183
REMARK INTER:                  -2.183
REMARK INTRA:                   0.000
REMARK UNBOUND:                 0.000
REMARK SMILES CC(=O)[O-]
REMARK SMILES IDX 1 1 2 2 3 3 4 4
REMARK H PARENT
REMARK Flexibility Score: inf
ROOT
ATOM      1  C   UNL     1      24.832   3.494   6.677  1.00  0.00     0.063 C 
ATOM      2  C   UNL     1      24.461   2.517   5.615  1.00  0.00     0.038 C 
ATOM      3  O   UNL     1      25.349   2.021   4.873  1.00  0.00    -0.550 OA
ATOM      4  O   UNL     1      23.141   2.109   5.475  1.00  0.00    -0.550 OA
ENDROOT
TORSDOF 0
ENDMDL
MODEL 2
REMARK VINA RESULT:    -2.169      0.116      1.624
REMARK INTER + INTRA:          -2.169
REMARK INTER:                  -2.169
REMARK INTRA:                   0.000
REMARK UNBOUND:                 0.000
REMARK SMILES CC(=O)[O-]
REMARK SMILES IDX 1 1 2 2 3 3 4 4
REMARK H PARENT
REMARK Flexibility Score: inf
ROOT
ATOM      1  C   UNL     1      24.656   3.510   6.723  1.00  0.00     0.063 C 
ATOM      2  C   UNL     1      24.342   2.507   5.666  1.00  0.00     0.038 C 
ATOM      3  O   UNL     1      23.157   2.118   5.496  1.00  0.00    -0.550 OA
ATOM      4  O   UNL     1      25.347   2.039   4.830  1.00  0.00    -0.550 OA
ENDROOT
TORSDOF 0
ENDMDL
MODEL 3
REMARK VINA RESULT:    -2.099     12.085     12.565
REMARK INTER + INTRA:          -2.099
REMARK INTER:                  -2.099
REMARK INTRA:                   0.000
REMARK UNBOUND:                 0.000
REMARK SMILES CC(=O)[O-]
REMARK SMILES IDX 1 1 2 2 3 3 4 4
REMARK H PARENT
REMARK Flexibility Score: inf
ROOT
ATOM      1  C   UNL     1      20.657 -10.512   3.906  1.00  0.00     0.063 C 
ATOM      2  C   UNL     1      21.157  -9.161   3.526  1.00  0.00     0.038 C 
ATOM      3  O   UNL     1      20.351  -8.201   3.398  1.00  0.00    -0.550 OA
ATOM      4  O   UNL     1      22.519  -8.942   3.365  1.00  0.00    -0.550 OA
ENDROOT
TORSDOF 0
ENDMDL
MODEL 4
REMARK VINA RESULT:    -2.028      1.499      1.959
REMARK INTER + INTRA:          -2.028
REMARK INTER:                  -2.028
REMARK INTRA:                   0.000
REMARK UNBOUND:                 0.000
REMARK SMILES CC(=O)[O-]
REMARK SMILES IDX 1 1 2 2 3 3 4 4
REMARK H PARENT
REMARK Flexibility Score: inf
ROOT
ATOM      1  C   UNL     1      23.130   2.391   5.970  1.00  0.00     0.063 C 
ATOM      2  C   UNL     1      24.242   2.818   5.074  1.00  0.00     0.038 C 
ATOM      3  O   UNL     1      24.223   3.959   4.542  1.00  0.00    -0.550 OA
ATOM      4  O   UNL     1      25.330   1.979   4.867  1.00  0.00    -0.550 OA
ENDROOT
TORSDOF 0
ENDMDL
MODEL 5
REMARK VINA RESULT:    -1.919     11.335     11.808
REMARK INTER + INTRA:          -1.919
REMARK INTER:                  -1.919
REMARK INTRA:                   0.000
REMARK UNBOUND:                 0.000
REMARK SMILES CC(=O)[O-]
REMARK SMILES IDX 1 1 2 2 3 3 4 4
REMARK H PARENT
REMARK Flexibility Score: inf
ROOT
ATOM      1  C   UNL     1      32.575  -6.415   0.950  1.00  0.00     0.063 C 
ATOM      2  C   UNL     1      31.749  -5.178   1.039  1.00  0.00     0.038 C 
ATOM      3  O   UNL     1      30.515  -5.222   0.791  1.00  0.00    -0.550 OA
ATOM      4  O   UNL     1      32.326  -3.983   1.449  1.00  0.00    -0.550 OA
ENDROOT
TORSDOF 0
ENDMDL
MODEL 6
REMARK VINA RESULT:    -1.914      7.667      7.870
REMARK INTER + INTRA:          -1.914
REMARK INTER:                  -1.914
REMARK INTRA:                   0.000
REMARK UNBOUND:                 0.000
REMARK SMILES CC(=O)[O-]
REMARK SMILES IDX 1 1 2 2 3 3 4 4
REMARK H PARENT
REMARK Flexibility Score: inf
ROOT
ATOM      1  C   UNL     1      26.364   6.958  -0.578  1.00  0.00     0.063 C 
ATOM      2  C   UNL     1      24.902   6.733  -0.765  1.00  0.00     0.038 C 
ATOM      3  O   UNL     1      24.268   5.999   0.037  1.00  0.00    -0.550 OA
ATOM      4  O   UNL     1      24.225   7.376  -1.793  1.00  0.00    -0.550 OA
ENDROOT
TORSDOF 0
ENDMDL
MODEL 7
REMARK VINA RESULT:    -1.904     11.167     11.487
REMARK INTER + INTRA:          -1.904
REMARK INTER:                  -1.904
REMARK INTRA:                   0.000
REMARK UNBOUND:                 0.000
REMARK SMILES CC(=O)[O-]
REMARK SMILES IDX 1 1 2 2 3 3 4 4
REMARK H PARENT
REMARK Flexibility Score: inf
ROOT
ATOM      1  C   UNL     1      32.870  -5.955   2.144  1.00  0.00     0.063 C 
ATOM      2  C   UNL     1      32.069  -4.833   1.580  1.00  0.00     0.038 C 
ATOM      3  O   UNL     1      32.570  -3.682   1.486  1.00  0.00    -0.550 OA
ATOM      4  O   UNL     1      30.785  -5.065   1.104  1.00  0.00    -0.550 OA
ENDROOT
TORSDOF 0
ENDMDL
MODEL 8
REMARK VINA RESULT:    -1.839     14.887     15.541
REMARK INTER + INTRA:          -1.839
REMARK INTER:                  -1.839
REMARK INTRA:                   0.000
REMARK UNBOUND:                 0.000
REMARK SMILES CC(=O)[O-]
REMARK SMILES IDX 1 1 2 2 3 3 4 4
REMARK H PARENT
REMARK Flexibility Score: inf
ROOT
ATOM      1  C   UNL     1      35.021   1.196  -5.223  1.00  0.00     0.063 C 
ATOM      2  C   UNL     1      34.044   1.253  -6.347  1.00  0.00     0.038 C 
ATOM      3  O   UNL     1      32.809   1.310  -6.110  1.00  0.00    -0.550 OA
ATOM      4  O   UNL     1      34.496   1.298  -7.660  1.00  0.00    -0.550 OA
ENDROOT
TORSDOF 0
ENDMDL
MODEL 9
REMARK VINA RESULT:    -1.814     11.638     12.251
REMARK INTER + INTRA:          -1.814
REMARK INTER:                  -1.814
REMARK INTRA:                   0.000
REMARK UNBOUND:                 0.000
REMARK SMILES CC(=O)[O-]
REMARK SMILES IDX 1 1 2 2 3 3 4 4
REMARK H PARENT
REMARK Flexibility Score: inf
ROOT
ATOM      1  C   UNL     1      32.551  -6.453   0.515  1.00  0.00     0.063 C 
ATOM      2  C   UNL     1      31.285  -5.813   0.058  1.00  0.00     0.038 C 
ATOM      3  O   UNL     1      30.882  -5.979  -1.123  1.00  0.00    -0.550 OA
ATOM      4  O   UNL     1      30.517  -5.075   0.950  1.00  0.00    -0.550 OA
ENDROOT
TORSDOF 0
ENDMDL
