MODEL 1
REMARK VINA RESULT:    -3.751      0.000      0.000
REMARK INTER + INTRA:          -4.202
REMARK INTER:                  -4.189
REMARK INTRA:                  -0.013
REMARK UNBOUND:                -0.013
REMARK SMILES CCCC(=O)[O-]
REMARK SMILES IDX 3 1 4 2 5 3 6 4 2 5 1 6
REMARK H PARENT
REMARK Flexibility Score: inf
ROOT
ATOM      1  C   UNL     1       2.514  19.915  51.804  1.00  0.00     0.052 C 
ENDROOT
BRANCH   1   2
ATOM      2  C   UNL     1       2.158  20.804  50.653  1.00  0.00     0.041 C 
ATOM      3  O   UNL     1       3.063  21.393  50.003  1.00  0.00    -0.550 OA
ATOM      4  O   UNL     1       0.826  21.008  50.318  1.00  0.00    -0.550 OA
ENDBRANCH   1   2
BRANCH   1   5
ATOM      5  C   UNL     1       3.636  18.935  51.440  1.00  0.00     0.003 C 
ATOM      6  C   UNL     1       4.409  18.453  52.668  1.00  0.00     0.004 C 
ENDBRANCH   1   5
TORSDOF 2
ENDMDL
MODEL 2
REMARK VINA RESULT:    -3.745      2.014      3.417
REMARK INTER + INTRA:          -4.196
REMARK INTER:                  -4.160
REMARK INTRA:                  -0.036
REMARK UNBOUND:                -0.013
REMARK SMILES CCCC(=O)[O-]
REMARK SMILES IDX 3 1 4 2 5 3 6 4 2 5 1 6
REMARK H PARENT
REMARK Flexibility Score: inf
ROOT
ATOM      1  C   UNL     1       2.386  20.241  51.743  1.00  0.00     0.052 C 
ENDROOT
BRANCH   1   2
ATOM      2  C   UNL     1       3.325  19.159  51.307  1.00  0.00     0.041 C 
ATOM      3  O   UNL     1       3.175  18.602  50.188  1.00  0.00    -0.550 OA
ATOM      4  O   UNL     1       4.345  18.743  52.152  1.00  0.00    -0.550 OA
ENDBRANCH   1   2
BRANCH   1   5
ATOM      5  C   UNL     1       2.145  21.267  50.627  1.00  0.00     0.003 C 
ATOM      6  C   UNL     1       0.668  21.377  50.248  1.00  0.00     0.004 C 
ENDBRANCH   1   5
TORSDOF 2
ENDMDL
MODEL 3
REMARK VINA RESULT:    -3.699      1.880      2.501
REMARK INTER + INTRA:          -4.144
REMARK INTER:                  -4.135
REMARK INTRA:                  -0.008
REMARK UNBOUND:                -0.013
REMARK SMILES CCCC(=O)[O-]
REMARK SMILES IDX 3 1 4 2 5 3 6 4 2 5 1 6
REMARK H PARENT
REMARK Flexibility Score: inf
ROOT
ATOM      1  C   UNL     1       4.416  18.411  52.378  1.00  0.00     0.052 C 
ENDROOT
BRANCH   1   2
ATOM      2  C   UNL     1       3.341  18.992  51.512  1.00  0.00     0.041 C 
ATOM      3  O   UNL     1       3.243  18.647  50.305  1.00  0.00    -0.550 OA
ATOM      4  O   UNL     1       2.468  19.939  52.030  1.00  0.00    -0.550 OA
ENDBRANCH   1   2
BRANCH   1   5
ATOM      5  C   UNL     1       4.151  18.674  53.866  1.00  0.00     0.003 C 
ATOM      6  C   UNL     1       5.064  17.852  54.774  1.00  0.00     0.004 C 
ENDBRANCH   1   5
TORSDOF 2
ENDMDL
MODEL 4
REMARK VINA RESULT:    -3.688     18.602     19.023
REMARK INTER + INTRA:          -4.131
REMARK INTER:                  -4.093
REMARK INTRA:                  -0.039
REMARK UNBOUND:                -0.013
REMARK SMILES CCCC(=O)[O-]
REMARK SMILES IDX 3 1 4 2 5 3 6 4 2 5 1 6
REMARK H PARENT
REMARK Flexibility Score: inf
ROOT
ATOM      1  C   UNL     1      11.748  10.931  64.833  1.00  0.00     0.052 C 
ENDROOT
BRANCH   1   2
ATOM      2  C   UNL     1      12.622  12.125  65.063  1.00  0.00     0.041 C 
ATOM      3  O   UNL     1      12.110  13.261  65.243  1.00  0.00    -0.550 OA
ATOM      4  O   UNL     1      14.004  11.988  65.045  1.00  0.00    -0.550 OA
ENDBRANCH   1   2
BRANCH   1   5
ATOM      5  C   UNL     1      12.570   9.683  64.486  1.00  0.00     0.003 C 
ATOM      6  C   UNL     1      12.546   9.369  62.990  1.00  0.00     0.004 C 
ENDBRANCH   1   5
TORSDOF 2
ENDMDL
MODEL 5
REMARK VINA RESULT:    -3.676     13.215     13.840
REMARK INTER + INTRA:          -4.118
REMARK INTER:                  -4.090
REMARK INTRA:                  -0.028
REMARK UNBOUND:                -0.013
REMARK SMILES CCCC(=O)[O-]
REMARK SMILES IDX 3 1 4 2 5 3 6 4 2 5 1 6
REMARK H PARENT
REMARK Flexibility Score: inf
ROOT
ATOM      1  C   UNL     1      -3.559  16.523  61.727  1.00  0.00     0.052 C 
ENDROOT
BRANCH   1   2
ATOM      2  C   UNL     1      -4.307  16.177  62.977  1.00  0.00     0.041 C 
ATOM      3  O   UNL     1      -5.563  16.267  63.011  1.00  0.00    -0.550 OA
ATOM      4  O   UNL     1      -3.614  15.786  64.116  1.00  0.00    -0.550 OA
ENDBRANCH   1   2
BRANCH   1   5
ATOM      5  C   UNL     1      -4.510  16.860  60.571  1.00  0.00     0.003 C 
ATOM      6  C   UNL     1      -4.270  15.980  59.345  1.00  0.00     0.004 C 
ENDBRANCH   1   5
TORSDOF 2
ENDMDL
MODEL 6
REMARK VINA RESULT:    -3.536     12.877     13.392
REMARK INTER + INTRA:          -3.962
REMARK INTER:                  -3.951
REMARK INTRA:                  -0.011
REMARK UNBOUND:                -0.013
REMARK SMILES CCCC(=O)[O-]
REMARK SMILES IDX 3 1 4 2 5 3 6 4 2 5 1 6
REMARK H PARENT
REMARK Flexibility Score: inf
ROOT
ATOM      1  C   UNL     1      -5.007  16.091  61.855  1.00  0.00     0.052 C 
ENDROOT
BRANCH   1   2
ATOM      2  C   UNL     1      -4.189  16.413  60.643  1.00  0.00     0.041 C 
ATOM      3  O   UNL     1      -4.547  16.001  59.508  1.00  0.00    -0.550 OA
ATOM      4  O   UNL     1      -3.013  17.142  60.772  1.00  0.00    -0.550 OA
ENDBRANCH   1   2
BRANCH   1   5
ATOM      5  C   UNL     1      -4.170  16.155  63.139  1.00  0.00     0.003 C 
ATOM      6  C   UNL     1      -4.527  15.042  64.123  1.00  0.00     0.004 C 
ENDBRANCH   1   5
TORSDOF 2
ENDMDL
MODEL 7
REMARK VINA RESULT:    -3.447     18.547     19.124
REMARK INTER + INTRA:          -3.863
REMARK INTER:                  -3.845
REMARK INTRA:                  -0.018
REMARK UNBOUND:                -0.013
REMARK SMILES CCCC(=O)[O-]
REMARK SMILES IDX 3 1 4 2 5 3 6 4 2 5 1 6
REMARK H PARENT
REMARK Flexibility Score: inf
ROOT
ATOM      1  C   UNL     1      13.715  10.811  64.155  1.00  0.00     0.052 C 
ENDROOT
BRANCH   1   2
ATOM      2  C   UNL     1      12.531   9.940  63.865  1.00  0.00     0.041 C 
ATOM      3  O   UNL     1      12.436   9.346  62.759  1.00  0.00    -0.550 OA
ATOM      4  O   UNL     1      11.517   9.810  64.805  1.00  0.00    -0.550 OA
ENDBRANCH   1   2
BRANCH   1   5
ATOM      5  C   UNL     1      13.445  11.764  65.326  1.00  0.00     0.003 C 
ATOM      6  C   UNL     1      12.715  13.033  64.887  1.00  0.00     0.004 C 
ENDBRANCH   1   5
TORSDOF 2
ENDMDL
MODEL 8
REMARK VINA RESULT:    -3.218      3.641      4.525
REMARK INTER + INTRA:          -3.607
REMARK INTER:                  -3.598
REMARK INTRA:                  -0.009
REMARK UNBOUND:                -0.013
REMARK SMILES CCCC(=O)[O-]
REMARK SMILES IDX 3 1 4 2 5 3 6 4 2 5 1 6
REMARK H PARENT
REMARK Flexibility Score: inf
ROOT
ATOM      1  C   UNL     1       4.368  18.220  52.479  1.00  0.00     0.052 C 
ENDROOT
BRANCH   1   2
ATOM      2  C   UNL     1       5.034  17.990  53.800  1.00  0.00     0.041 C 
ATOM      3  O   UNL     1       6.056  17.259  53.878  1.00  0.00    -0.550 OA
ATOM      4  O   UNL     1       4.505  18.559  54.952  1.00  0.00    -0.550 OA
ENDBRANCH   1   2
BRANCH   1   5
ATOM      5  C   UNL     1       3.515  19.495  52.486  1.00  0.00     0.003 C 
ATOM      6  C   UNL     1       2.728  19.675  51.188  1.00  0.00     0.004 C 
ENDBRANCH   1   5
TORSDOF 2
ENDMDL
MODEL 9
REMARK VINA RESULT:    -3.112     12.444     12.990
REMARK INTER + INTRA:          -3.489
REMARK INTER:                  -3.724
REMARK INTRA:                   0.235
REMARK UNBOUND:                -0.013
REMARK SMILES CCCC(=O)[O-]
REMARK SMILES IDX 3 1 4 2 5 3 6 4 2 5 1 6
REMARK H PARENT
REMARK Flexibility Score: inf
ROOT
ATOM      1  C   UNL     1      -3.970  16.803  60.370  1.00  0.00     0.052 C 
ENDROOT
BRANCH   1   2
ATOM      2  C   UNL     1      -2.942  16.784  61.459  1.00  0.00     0.041 C 
ATOM      3  O   UNL     1      -1.791  17.251  61.252  1.00  0.00    -0.550 OA
ATOM      4  O   UNL     1      -3.246  16.222  62.692  1.00  0.00    -0.550 OA
ENDBRANCH   1   2
BRANCH   1   5
ATOM      5  C   UNL     1      -5.159  15.888  60.696  1.00  0.00     0.003 C 
ATOM      6  C   UNL     1      -6.120  16.520  61.702  1.00  0.00     0.004 C 
ENDBRANCH   1   5
TORSDOF 2
ENDMDL
