MODEL 1
REMARK VINA RESULT:    -4.733      0.000      0.000
REMARK INTER + INTRA:         -10.110
REMARK INTER:                  -8.192
REMARK INTRA:                  -1.919
REMARK UNBOUND:                -1.919
REMARK SMILES CCCCCCCCCCCCCCO
REMARK SMILES IDX 8 1 7 2 6 3 5 4 4 5 3 6 2 7 1 8 9 9 10 10 11 11 12 12 13 13
REMARK SMILES IDX 14 14 15 15
REMARK H PARENT 15 16
REMARK Flexibility Score: inf
ROOT
ATOM      1  C   UNL     1      15.399  45.034   3.613  1.00  0.00     0.000 C 
ENDROOT
BRANCH   1   2
ATOM      2  C   UNL     1      14.171  45.693   4.260  1.00  0.00    -0.000 C 
BRANCH   2   3
ATOM      3  C   UNL     1      14.310  45.730   5.788  1.00  0.00    -0.000 C 
BRANCH   3   4
ATOM      4  C   UNL     1      13.006  45.288   6.469  1.00  0.00    -0.000 C 
BRANCH   4   5
ATOM      5  C   UNL     1      12.822  43.761   6.465  1.00  0.00    -0.000 C 
BRANCH   5   6
ATOM      6  C   UNL     1      11.774  43.295   5.440  1.00  0.00    -0.000 C 
BRANCH   6   7
ATOM      7  C   UNL     1      12.292  42.159   4.544  1.00  0.00    -0.003 C 
ATOM      8  C   UNL     1      12.428  42.574   3.079  1.00  0.00     0.004 C 
ENDBRANCH   6   7
ENDBRANCH   5   6
ENDBRANCH   4   5
ENDBRANCH   3   4
ENDBRANCH   2   3
ENDBRANCH   1   2
BRANCH   1   9
ATOM      9  C   UNL     1      15.665  43.619   4.151  1.00  0.00     0.000 C 
BRANCH   9  10
ATOM     10  C   UNL     1      17.130  43.414   4.573  1.00  0.00     0.000 C 
BRANCH  10  11
ATOM     11  C   UNL     1      17.324  43.441   6.100  1.00  0.00     0.000 C 
BRANCH  11  12
ATOM     12  C   UNL     1      16.298  42.623   6.903  1.00  0.00     0.002 C 
BRANCH  12  13
ATOM     13  C   UNL     1      16.053  43.186   8.313  1.00  0.00     0.028 C 
BRANCH  13  14
ATOM     14  C   UNL     1      16.776  44.521   8.523  1.00  0.00     0.156 C 
BRANCH  14  15
ATOM     15  O   UNL     1      15.874  45.522   8.910  1.00  0.00    -0.396 OA
ATOM     16  H   UNL     1      16.395  46.365   8.973  1.00  0.00     0.210 HD
ENDBRANCH  14  15
ENDBRANCH  13  14
ENDBRANCH  12  13
ENDBRANCH  11  12
ENDBRANCH  10  11
ENDBRANCH   9  10
ENDBRANCH   1   9
TORSDOF 13
ENDMDL
MODEL 2
REMARK VINA RESULT:    -4.723      1.760      3.121
REMARK INTER + INTRA:         -10.094
REMARK INTER:                  -8.174
REMARK INTRA:                  -1.920
REMARK UNBOUND:                -1.919
REMARK SMILES CCCCCCCCCCCCCCO
REMARK SMILES IDX 8 1 7 2 6 3 5 4 4 5 3 6 2 7 1 8 9 9 10 10 11 11 12 12 13 13
REMARK SMILES IDX 14 14 15 15
REMARK H PARENT 15 16
REMARK Flexibility Score: inf
ROOT
ATOM      1  C   UNL     1      11.903  45.907   6.960  1.00  0.00     0.000 C 
ENDROOT
BRANCH   1   2
ATOM      2  C   UNL     1      12.095  47.052   5.953  1.00  0.00    -0.000 C 
BRANCH   2   3
ATOM      3  C   UNL     1      13.394  46.870   5.157  1.00  0.00    -0.000 C 
BRANCH   3   4
ATOM      4  C   UNL     1      13.211  45.837   4.035  1.00  0.00    -0.000 C 
BRANCH   4   5
ATOM      5  C   UNL     1      14.507  45.076   3.712  1.00  0.00    -0.000 C 
BRANCH   5   6
ATOM      6  C   UNL     1      14.276  43.567   3.528  1.00  0.00    -0.000 C 
BRANCH   6   7
ATOM      7  C   UNL     1      12.786  43.191   3.564  1.00  0.00    -0.003 C 
ATOM      8  C   UNL     1      12.447  42.216   4.692  1.00  0.00     0.004 C 
ENDBRANCH   6   7
ENDBRANCH   5   6
ENDBRANCH   4   5
ENDBRANCH   3   4
ENDBRANCH   2   3
ENDBRANCH   1   2
BRANCH   1   9
ATOM      9  C   UNL     1      13.182  45.594   7.754  1.00  0.00     0.000 C 
BRANCH   9  10
ATOM     10  C   UNL     1      13.562  44.105   7.697  1.00  0.00     0.000 C 
BRANCH  10  11
ATOM     11  C   UNL     1      14.994  43.870   7.182  1.00  0.00     0.000 C 
BRANCH  11  12
ATOM     12  C   UNL     1      15.900  45.113   7.182  1.00  0.00     0.002 C 
BRANCH  12  13
ATOM     13  C   UNL     1      17.118  44.969   8.110  1.00  0.00     0.028 C 
BRANCH  13  14
ATOM     14  C   UNL     1      17.083  43.648   8.888  1.00  0.00     0.156 C 
BRANCH  14  15
ATOM     15  O   UNL     1      18.316  42.986   8.803  1.00  0.00    -0.396 OA
ATOM     16  H   UNL     1      18.333  42.527   7.923  1.00  0.00     0.210 HD
ENDBRANCH  14  15
ENDBRANCH  13  14
ENDBRANCH  12  13
ENDBRANCH  11  12
ENDBRANCH  10  11
ENDBRANCH   9  10
ENDBRANCH   1   9
TORSDOF 13
ENDMDL
MODEL 3
REMARK VINA RESULT:    -4.628      1.635      4.034
REMARK INTER + INTRA:          -9.928
REMARK INTER:                  -8.240
REMARK INTRA:                  -1.689
REMARK UNBOUND:                -1.919
REMARK SMILES CCCCCCCCCCCCCCO
REMARK SMILES IDX 8 1 7 2 6 3 5 4 4 5 3 6 2 7 1 8 9 9 10 10 11 11 12 12 13 13
REMARK SMILES IDX 14 14 15 15
REMARK H PARENT 15 16
REMARK Flexibility Score: inf
ROOT
ATOM      1  C   UNL     1      12.213  46.651   4.862  1.00  0.00     0.000 C 
ENDROOT
BRANCH   1   2
ATOM      2  C   UNL     1      12.565  45.573   3.827  1.00  0.00    -0.000 C 
BRANCH   2   3
ATOM      3  C   UNL     1      12.828  44.223   4.507  1.00  0.00    -0.000 C 
BRANCH   3   4
ATOM      4  C   UNL     1      13.726  43.333   3.635  1.00  0.00    -0.000 C 
BRANCH   4   5
ATOM      5  C   UNL     1      15.096  43.969   3.351  1.00  0.00    -0.000 C 
BRANCH   5   6
ATOM      6  C   UNL     1      15.844  44.360   4.637  1.00  0.00    -0.000 C 
BRANCH   6   7
ATOM      7  C   UNL     1      16.783  43.249   5.132  1.00  0.00    -0.003 C 
ATOM      8  C   UNL     1      17.692  43.707   6.274  1.00  0.00     0.004 C 
ENDBRANCH   6   7
ENDBRANCH   5   6
ENDBRANCH   4   5
ENDBRANCH   3   4
ENDBRANCH   2   3
ENDBRANCH   1   2
BRANCH   1   9
ATOM      9  C   UNL     1      13.107  46.589   6.112  1.00  0.00     0.000 C 
BRANCH   9  10
ATOM     10  C   UNL     1      12.296  46.449   7.411  1.00  0.00     0.000 C 
BRANCH  10  11
ATOM     11  C   UNL     1      12.906  45.432   8.392  1.00  0.00     0.000 C 
BRANCH  11  12
ATOM     12  C   UNL     1      14.233  44.799   7.937  1.00  0.00     0.002 C 
BRANCH  12  13
ATOM     13  C   UNL     1      14.169  43.265   7.852  1.00  0.00     0.028 C 
BRANCH  13  14
ATOM     14  C   UNL     1      15.175  42.603   8.800  1.00  0.00     0.156 C 
BRANCH  14  15
ATOM     15  O   UNL     1      15.438  43.426   9.904  1.00  0.00    -0.396 OA
ATOM     16  H   UNL     1      14.604  43.933  10.085  1.00  0.00     0.210 HD
ENDBRANCH  14  15
ENDBRANCH  13  14
ENDBRANCH  12  13
ENDBRANCH  11  12
ENDBRANCH  10  11
ENDBRANCH   9  10
ENDBRANCH   1   9
TORSDOF 13
ENDMDL
MODEL 4
REMARK VINA RESULT:    -4.619      1.731      2.753
REMARK INTER + INTRA:          -9.914
REMARK INTER:                  -8.561
REMARK INTRA:                  -1.353
REMARK UNBOUND:                -1.919
REMARK SMILES CCCCCCCCCCCCCCO
REMARK SMILES IDX 8 1 7 2 6 3 5 4 4 5 3 6 2 7 1 8 9 9 10 10 11 11 12 12 13 13
REMARK SMILES IDX 14 14 15 15
REMARK H PARENT 15 16
REMARK Flexibility Score: inf
ROOT
ATOM      1  C   UNL     1      15.240  43.865   3.492  1.00  0.00     0.000 C 
ENDROOT
BRANCH   1   2
ATOM      2  C   UNL     1      14.249  44.289   4.587  1.00  0.00    -0.000 C 
BRANCH   2   3
ATOM      3  C   UNL     1      13.947  45.791   4.502  1.00  0.00    -0.000 C 
BRANCH   3   4
ATOM      4  C   UNL     1      13.872  46.417   5.902  1.00  0.00    -0.000 C 
BRANCH   4   5
ATOM      5  C   UNL     1      12.499  47.041   6.201  1.00  0.00    -0.000 C 
BRANCH   5   6
ATOM      6  C   UNL     1      11.796  46.377   7.398  1.00  0.00    -0.000 C 
BRANCH   6   7
ATOM      7  C   UNL     1      12.645  45.267   8.037  1.00  0.00    -0.003 C 
ATOM      8  C   UNL     1      11.907  44.521   9.149  1.00  0.00     0.004 C 
ENDBRANCH   6   7
ENDBRANCH   5   6
ENDBRANCH   4   5
ENDBRANCH   3   4
ENDBRANCH   2   3
ENDBRANCH   1   2
BRANCH   1   9
ATOM      9  C   UNL     1      16.564  43.333   4.064  1.00  0.00     0.000 C 
BRANCH   9  10
ATOM     10  C   UNL     1      16.485  43.058   5.576  1.00  0.00     0.000 C 
BRANCH  10  11
ATOM     11  C   UNL     1      17.631  43.717   6.366  1.00  0.00     0.000 C 
BRANCH  11  12
ATOM     12  C   UNL     1      17.275  45.053   7.040  1.00  0.00     0.002 C 
BRANCH  12  13
ATOM     13  C   UNL     1      16.232  44.902   8.159  1.00  0.00     0.028 C 
BRANCH  13  14
ATOM     14  C   UNL     1      16.619  43.797   9.149  1.00  0.00     0.156 C 
BRANCH  14  15
ATOM     15  O   UNL     1      15.550  43.495  10.004  1.00  0.00    -0.396 OA
ATOM     16  H   UNL     1      15.945  43.111  10.829  1.00  0.00     0.210 HD
ENDBRANCH  14  15
ENDBRANCH  13  14
ENDBRANCH  12  13
ENDBRANCH  11  12
ENDBRANCH  10  11
ENDBRANCH   9  10
ENDBRANCH   1   9
TORSDOF 13
ENDMDL
MODEL 5
REMARK VINA RESULT:    -4.616      1.363      2.528
REMARK INTER + INTRA:          -9.908
REMARK INTER:                  -8.027
REMARK INTRA:                  -1.882
REMARK UNBOUND:                -1.919
REMARK SMILES CCCCCCCCCCCCCCO
REMARK SMILES IDX 8 1 7 2 6 3 5 4 4 5 3 6 2 7 1 8 9 9 10 10 11 11 12 12 13 13
REMARK SMILES IDX 14 14 15 15
REMARK H PARENT 15 16
REMARK Flexibility Score: inf
ROOT
ATOM      1  C   UNL     1      14.759  43.380   3.641  1.00  0.00     0.000 C 
ENDROOT
BRANCH   1   2
ATOM      2  C   UNL     1      13.441  43.211   4.412  1.00  0.00    -0.000 C 
BRANCH   2   3
ATOM      3  C   UNL     1      13.693  42.631   5.810  1.00  0.00    -0.000 C 
BRANCH   3   4
ATOM      4  C   UNL     1      13.270  43.625   6.902  1.00  0.00    -0.000 C 
BRANCH   4   5
ATOM      5  C   UNL     1      12.530  44.849   6.337  1.00  0.00    -0.000 C 
BRANCH   5   6
ATOM      6  C   UNL     1      13.325  46.154   6.513  1.00  0.00    -0.000 C 
BRANCH   6   7
ATOM      7  C   UNL     1      13.160  47.109   5.321  1.00  0.00    -0.003 C 
ATOM      8  C   UNL     1      12.342  46.500   4.181  1.00  0.00     0.004 C 
ENDBRANCH   6   7
ENDBRANCH   5   6
ENDBRANCH   4   5
ENDBRANCH   3   4
ENDBRANCH   2   3
ENDBRANCH   1   2
BRANCH   1   9
ATOM      9  C   UNL     1      15.790  44.226   4.407  1.00  0.00     0.000 C 
BRANCH   9  10
ATOM     10  C   UNL     1      16.982  43.394   4.907  1.00  0.00     0.000 C 
BRANCH  10  11
ATOM     11  C   UNL     1      17.427  43.775   6.330  1.00  0.00     0.000 C 
BRANCH  11  12
ATOM     12  C   UNL     1      16.848  45.098   6.862  1.00  0.00     0.002 C 
BRANCH  12  13
ATOM     13  C   UNL     1      16.417  45.015   8.336  1.00  0.00     0.028 C 
BRANCH  13  14
ATOM     14  C   UNL     1      16.497  43.580   8.869  1.00  0.00     0.156 C 
BRANCH  14  15
ATOM     15  O   UNL     1      15.517  43.354   9.846  1.00  0.00    -0.396 OA
ATOM     16  H   UNL     1      14.646  43.320   9.372  1.00  0.00     0.210 HD
ENDBRANCH  14  15
ENDBRANCH  13  14
ENDBRANCH  12  13
ENDBRANCH  11  12
ENDBRANCH  10  11
ENDBRANCH   9  10
ENDBRANCH   1   9
TORSDOF 13
ENDMDL
MODEL 6
REMARK VINA RESULT:    -4.582      1.894      3.570
REMARK INTER + INTRA:          -9.849
REMARK INTER:                  -8.185
REMARK INTRA:                  -1.664
REMARK UNBOUND:                -1.919
REMARK SMILES CCCCCCCCCCCCCCO
REMARK SMILES IDX 8 1 7 2 6 3 5 4 4 5 3 6 2 7 1 8 9 9 10 10 11 11 12 12 13 13
REMARK SMILES IDX 14 14 15 15
REMARK H PARENT 15 16
REMARK Flexibility Score: inf
ROOT
ATOM      1  C   UNL     1      11.781  46.195   7.300  1.00  0.00     0.000 C 
ENDROOT
BRANCH   1   2
ATOM      2  C   UNL     1      12.122  47.328   6.319  1.00  0.00    -0.000 C 
BRANCH   2   3
ATOM      3  C   UNL     1      13.184  46.878   5.308  1.00  0.00    -0.000 C 
BRANCH   3   4
ATOM      4  C   UNL     1      12.538  46.150   4.120  1.00  0.00    -0.000 C 
BRANCH   4   5
ATOM      5  C   UNL     1      13.178  44.780   3.844  1.00  0.00    -0.000 C 
BRANCH   5   6
ATOM      6  C   UNL     1      14.709  44.859   3.713  1.00  0.00    -0.000 C 
BRANCH   6   7
ATOM      7  C   UNL     1      15.364  43.471   3.630  1.00  0.00    -0.003 C 
ATOM      8  C   UNL     1      16.795  43.457   4.170  1.00  0.00     0.004 C 
ENDBRANCH   6   7
ENDBRANCH   5   6
ENDBRANCH   4   5
ENDBRANCH   3   4
ENDBRANCH   2   3
ENDBRANCH   1   2
BRANCH   1   9
ATOM      9  C   UNL     1      12.982  45.779   8.165  1.00  0.00     0.000 C 
BRANCH   9  10
ATOM     10  C   UNL     1      13.253  44.266   8.110  1.00  0.00     0.000 C 
BRANCH  10  11
ATOM     11  C   UNL     1      14.496  43.909   7.275  1.00  0.00     0.000 C 
BRANCH  11  12
ATOM     12  C   UNL     1      15.649  44.925   7.353  1.00  0.00     0.002 C 
BRANCH  12  13
ATOM     13  C   UNL     1      16.490  44.781   8.632  1.00  0.00     0.028 C 
BRANCH  13  14
ATOM     14  C   UNL     1      16.932  43.330   8.859  1.00  0.00     0.156 C 
BRANCH  14  15
ATOM     15  O   UNL     1      18.288  43.167   8.547  1.00  0.00    -0.396 OA
ATOM     16  H   UNL     1      18.512  42.219   8.739  1.00  0.00     0.210 HD
ENDBRANCH  14  15
ENDBRANCH  13  14
ENDBRANCH  12  13
ENDBRANCH  11  12
ENDBRANCH  10  11
ENDBRANCH   9  10
ENDBRANCH   1   9
TORSDOF 13
ENDMDL
MODEL 7
REMARK VINA RESULT:    -4.564      2.160      5.099
REMARK INTER + INTRA:          -9.818
REMARK INTER:                  -8.114
REMARK INTRA:                  -1.704
REMARK UNBOUND:                -1.919
REMARK SMILES CCCCCCCCCCCCCCO
REMARK SMILES IDX 8 1 7 2 6 3 5 4 4 5 3 6 2 7 1 8 9 9 10 10 11 11 12 12 13 13
REMARK SMILES IDX 14 14 15 15
REMARK H PARENT 15 16
REMARK Flexibility Score: inf
ROOT
ATOM      1  C   UNL     1      14.157  45.745   4.367  1.00  0.00     0.000 C 
ENDROOT
BRANCH   1   2
ATOM      2  C   UNL     1      15.397  45.157   3.675  1.00  0.00    -0.000 C 
BRANCH   2   3
ATOM      3  C   UNL     1      15.618  43.698   4.093  1.00  0.00    -0.000 C 
BRANCH   3   4
ATOM      4  C   UNL     1      17.098  43.434   4.407  1.00  0.00    -0.000 C 
BRANCH   4   5
ATOM      5  C   UNL     1      17.411  43.521   5.910  1.00  0.00    -0.000 C 
BRANCH   5   6
ATOM      6  C   UNL     1      16.411  42.727   6.769  1.00  0.00    -0.000 C 
BRANCH   6   7
ATOM      7  C   UNL     1      16.262  43.306   8.185  1.00  0.00    -0.003 C 
ATOM      8  C   UNL     1      16.909  44.684   8.333  1.00  0.00     0.004 C 
ENDBRANCH   6   7
ENDBRANCH   5   6
ENDBRANCH   4   5
ENDBRANCH   3   4
ENDBRANCH   2   3
ENDBRANCH   1   2
BRANCH   1   9
ATOM      9  C   UNL     1      14.299  45.791   5.898  1.00  0.00     0.000 C 
BRANCH   9  10
ATOM     10  C   UNL     1      13.057  45.242   6.622  1.00  0.00     0.000 C 
BRANCH  10  11
ATOM     11  C   UNL     1      12.897  43.719   6.466  1.00  0.00     0.000 C 
BRANCH  11  12
ATOM     12  C   UNL     1      11.830  43.274   5.451  1.00  0.00     0.002 C 
BRANCH  12  13
ATOM     13  C   UNL     1      12.231  42.010   4.674  1.00  0.00     0.028 C 
BRANCH  13  14
ATOM     14  C   UNL     1      12.636  42.336   3.232  1.00  0.00     0.156 C 
BRANCH  14  15
ATOM     15  O   UNL     1      11.508  42.600   2.443  1.00  0.00    -0.396 OA
ATOM     16  H   UNL     1      11.066  43.397   2.837  1.00  0.00     0.210 HD
ENDBRANCH  14  15
ENDBRANCH  13  14
ENDBRANCH  12  13
ENDBRANCH  11  12
ENDBRANCH  10  11
ENDBRANCH   9  10
ENDBRANCH   1   9
TORSDOF 13
ENDMDL
MODEL 8
REMARK VINA RESULT:    -4.551      1.416      3.652
REMARK INTER + INTRA:          -9.796
REMARK INTER:                  -7.753
REMARK INTRA:                  -2.043
REMARK UNBOUND:                -1.919
REMARK SMILES CCCCCCCCCCCCCCO
REMARK SMILES IDX 8 1 7 2 6 3 5 4 4 5 3 6 2 7 1 8 9 9 10 10 11 11 12 12 13 13
REMARK SMILES IDX 14 14 15 15
REMARK H PARENT 15 16
REMARK Flexibility Score: inf
ROOT
ATOM      1  C   UNL     1      12.051  43.590   6.301  1.00  0.00     0.000 C 
ENDROOT
BRANCH   1   2
ATOM      2  C   UNL     1      12.977  42.562   5.634  1.00  0.00    -0.000 C 
BRANCH   2   3
ATOM      3  C   UNL     1      12.593  42.350   4.164  1.00  0.00    -0.000 C 
BRANCH   3   4
ATOM      4  C   UNL     1      13.500  43.172   3.235  1.00  0.00    -0.000 C 
BRANCH   4   5
ATOM      5  C   UNL     1      14.816  43.591   3.909  1.00  0.00    -0.000 C 
BRANCH   5   6
ATOM      6  C   UNL     1      14.987  45.118   3.975  1.00  0.00    -0.000 C 
BRANCH   6   7
ATOM      7  C   UNL     1      13.641  45.861   3.967  1.00  0.00    -0.003 C 
ATOM      8  C   UNL     1      13.495  46.835   5.137  1.00  0.00     0.004 C 
ENDBRANCH   6   7
ENDBRANCH   5   6
ENDBRANCH   4   5
ENDBRANCH   3   4
ENDBRANCH   2   3
ENDBRANCH   1   2
BRANCH   1   9
ATOM      9  C   UNL     1      12.683  44.240   7.543  1.00  0.00     0.000 C 
BRANCH   9  10
ATOM     10  C   UNL     1      14.120  43.753   7.797  1.00  0.00     0.000 C 
BRANCH  10  11
ATOM     11  C   UNL     1      15.147  44.899   7.812  1.00  0.00     0.000 C 
BRANCH  11  12
ATOM     12  C   UNL     1      16.536  44.539   7.254  1.00  0.00     0.002 C 
BRANCH  12  13
ATOM     13  C   UNL     1      16.852  43.038   7.356  1.00  0.00     0.028 C 
BRANCH  13  14
ATOM     14  C   UNL     1      17.481  42.681   8.707  1.00  0.00     0.156 C 
BRANCH  14  15
ATOM     15  O   UNL     1      18.274  43.734   9.183  1.00  0.00    -0.396 OA
ATOM     16  H   UNL     1      18.641  43.442  10.058  1.00  0.00     0.210 HD
ENDBRANCH  14  15
ENDBRANCH  13  14
ENDBRANCH  12  13
ENDBRANCH  11  12
ENDBRANCH  10  11
ENDBRANCH   9  10
ENDBRANCH   1   9
TORSDOF 13
ENDMDL
MODEL 9
REMARK VINA RESULT:    -4.479      2.209      4.963
REMARK INTER + INTRA:          -9.670
REMARK INTER:                  -7.693
REMARK INTRA:                  -1.977
REMARK UNBOUND:                -1.919
REMARK SMILES CCCCCCCCCCCCCCO
REMARK SMILES IDX 8 1 7 2 6 3 5 4 4 5 3 6 2 7 1 8 9 9 10 10 11 11 12 12 13 13
REMARK SMILES IDX 14 14 15 15
REMARK H PARENT 15 16
REMARK Flexibility Score: inf
ROOT
ATOM      1  C   UNL     1      12.379  46.411   7.625  1.00  0.00     0.000 C 
ENDROOT
BRANCH   1   2
ATOM      2  C   UNL     1      12.008  44.921   7.664  1.00  0.00    -0.000 C 
BRANCH   2   3
ATOM      3  C   UNL     1      13.134  44.092   8.296  1.00  0.00    -0.000 C 
BRANCH   3   4
ATOM      4  C   UNL     1      13.744  43.122   7.272  1.00  0.00    -0.000 C 
BRANCH   4   5
ATOM      5  C   UNL     1      15.281  43.132   7.288  1.00  0.00    -0.000 C 
BRANCH   5   6
ATOM      6  C   UNL     1      15.859  44.467   7.787  1.00  0.00    -0.000 C 
BRANCH   6   7
ATOM      7  C   UNL     1      17.064  44.934   6.955  1.00  0.00    -0.003 C 
ATOM      8  C   UNL     1      17.798  43.778   6.274  1.00  0.00     0.004 C 
ENDBRANCH   6   7
ENDBRANCH   5   6
ENDBRANCH   4   5
ENDBRANCH   3   4
ENDBRANCH   2   3
ENDBRANCH   1   2
BRANCH   1   9
ATOM      9  C   UNL     1      12.493  46.956   6.191  1.00  0.00     0.000 C 
BRANCH   9  10
ATOM     10  C   UNL     1      13.821  46.569   5.517  1.00  0.00     0.000 C 
BRANCH  10  11
ATOM     11  C   UNL     1      13.629  45.643   4.303  1.00  0.00     0.000 C 
BRANCH  11  12
ATOM     12  C   UNL     1      14.807  44.698   4.010  1.00  0.00     0.002 C 
BRANCH  12  13
ATOM     13  C   UNL     1      14.371  43.384   3.340  1.00  0.00     0.028 C 
BRANCH  13  14
ATOM     14  C   UNL     1      12.870  43.129   3.519  1.00  0.00     0.156 C 
BRANCH  14  15
ATOM     15  O   UNL     1      12.637  41.835   4.005  1.00  0.00    -0.396 OA
ATOM     16  H   UNL     1      12.040  41.930   4.792  1.00  0.00     0.210 HD
ENDBRANCH  14  15
ENDBRANCH  13  14
ENDBRANCH  12  13
ENDBRANCH  11  12
ENDBRANCH  10  11
ENDBRANCH   9  10
ENDBRANCH   1   9
TORSDOF 13
ENDMDL
