MODEL 1
REMARK VINA RESULT:    -7.433      0.000      0.000
REMARK INTER + INTRA:          -8.085
REMARK INTER:                  -8.085
REMARK INTRA:                   0.000
REMARK UNBOUND:                 0.000
REMARK SMILES Cc1cc(O)c2c(c1)C(=O)c1cc(O)cc(O)c1C2=O
REMARK SMILES IDX 1 1 2 2 8 3 7 4 6 5 4 6 3 7 19 8 20 9 18 10 11 11 9 12 10 13
REMARK SMILES IDX 12 14 13 15 15 16 16 17 5 18 17 20 14 22
REMARK H PARENT 5 19 17 21 14 23
REMARK Flexibility Score: inf
ROOT
ATOM      1  C   UNL     1       6.970   9.984  20.987  1.00  0.00     0.044 C 
ATOM      2  C   UNL     1       6.639   8.586  20.553  1.00  0.00    -0.047 A 
ATOM      3  C   UNL     1       5.929   8.366  19.366  1.00  0.00     0.016 A 
ATOM      4  C   UNL     1       5.647   7.059  18.931  1.00  0.00     0.038 A 
ATOM      5  C   UNL     1       6.089   5.956  19.691  1.00  0.00     0.076 A 
ATOM      6  C   UNL     1       6.829   6.182  20.875  1.00  0.00     0.127 A 
ATOM      7  C   UNL     1       7.101   7.492  21.292  1.00  0.00     0.050 A 
ATOM      8  C   UNL     1       5.747   4.581  19.240  1.00  0.00     0.201 C 
ATOM      9  O   UNL     1       5.804   3.627  20.061  1.00  0.00    -0.288 OA
ATOM     10  C   UNL     1       5.230   4.353  17.861  1.00  0.00     0.076 A 
ATOM     11  C   UNL     1       4.737   5.464  17.137  1.00  0.00     0.041 A 
ATOM     12  C   UNL     1       4.890   6.835  17.680  1.00  0.00     0.194 C 
ATOM     13  O   UNL     1       4.387   7.816  17.064  1.00  0.00    -0.289 OA
ATOM     14  C   UNL     1       4.109   5.266  15.895  1.00  0.00     0.059 A 
ATOM     15  C   UNL     1       3.982   3.983  15.359  1.00  0.00     0.120 A 
ATOM     16  C   UNL     1       4.507   2.891  16.047  1.00  0.00     0.093 A 
ATOM     17  C   UNL     1       5.161   3.062  17.271  1.00  0.00     0.131 A 
ENDROOT
BRANCH   6  18
ATOM     18  O   UNL     1       7.307   5.111  21.631  1.00  0.00    -0.507 OA
ATOM     19  H   UNL     1       7.378   4.176  21.245  1.00  0.00     0.293 HD
ENDBRANCH   6  18
BRANCH  17  20
ATOM     20  O   UNL     1       5.753   1.932  17.841  1.00  0.00    -0.507 OA
ATOM     21  H   UNL     1       6.612   1.955  18.371  1.00  0.00     0.293 HD
ENDBRANCH  17  20
BRANCH  15  22
ATOM     22  O   UNL     1       3.345   3.782  14.136  1.00  0.00    -0.508 OA
ATOM     23  H   UNL     1       2.370   4.022  14.001  1.00  0.00     0.293 HD
ENDBRANCH  15  22
TORSDOF 3
ENDMDL
MODEL 2
REMARK VINA RESULT:    -7.219      1.407      6.204
REMARK INTER + INTRA:          -7.852
REMARK INTER:                  -7.852
REMARK INTRA:                   0.000
REMARK UNBOUND:                 0.000
REMARK SMILES Cc1cc(O)c2c(c1)C(=O)c1cc(O)cc(O)c1C2=O
REMARK SMILES IDX 1 1 2 2 8 3 7 4 6 5 4 6 3 7 19 8 20 9 18 10 11 11 9 12 10 13
REMARK SMILES IDX 12 14 13 15 15 16 16 17 5 18 17 20 14 22
REMARK H PARENT 5 19 17 21 14 23
REMARK Flexibility Score: inf
ROOT
ATOM      1  C   UNL     1       5.336   0.265  17.252  1.00  0.00     0.044 C 
ATOM      2  C   UNL     1       5.087   1.738  17.386  1.00  0.00    -0.047 A 
ATOM      3  C   UNL     1       5.647   2.454  18.450  1.00  0.00     0.016 A 
ATOM      4  C   UNL     1       5.451   3.842  18.564  1.00  0.00     0.038 A 
ATOM      5  C   UNL     1       4.688   4.524  17.593  1.00  0.00     0.076 A 
ATOM      6  C   UNL     1       4.147   3.802  16.504  1.00  0.00     0.127 A 
ATOM      7  C   UNL     1       4.354   2.420  16.407  1.00  0.00     0.050 A 
ATOM      8  C   UNL     1       4.456   5.984  17.749  1.00  0.00     0.201 C 
ATOM      9  O   UNL     1       3.507   6.531  17.125  1.00  0.00    -0.288 OA
ATOM     10  C   UNL     1       5.263   6.771  18.722  1.00  0.00     0.076 A 
ATOM     11  C   UNL     1       5.975   6.071  19.726  1.00  0.00     0.041 A 
ATOM     12  C   UNL     1       6.041   4.590  19.696  1.00  0.00     0.194 C 
ATOM     13  O   UNL     1       6.617   3.966  20.630  1.00  0.00    -0.289 OA
ATOM     14  C   UNL     1       6.627   6.783  20.747  1.00  0.00     0.059 A 
ATOM     15  C   UNL     1       6.595   8.178  20.773  1.00  0.00     0.120 A 
ATOM     16  C   UNL     1       5.935   8.874  19.761  1.00  0.00     0.093 A 
ATOM     17  C   UNL     1       5.301   8.192  18.718  1.00  0.00     0.131 A 
ENDROOT
BRANCH   6  18
ATOM     18  O   UNL     1       3.415   4.454  15.511  1.00  0.00    -0.507 OA
ATOM     19  H   UNL     1       2.447   4.721  15.651  1.00  0.00     0.293 HD
ENDBRANCH   6  18
BRANCH  17  20
ATOM     20  O   UNL     1       4.758   8.964  17.689  1.00  0.00    -0.507 OA
ATOM     21  H   UNL     1       5.131   8.994  16.752  1.00  0.00     0.293 HD
ENDBRANCH  17  20
BRANCH  15  22
ATOM     22  O   UNL     1       7.226   8.886  21.793  1.00  0.00    -0.508 OA
ATOM     23  H   UNL     1       6.697   9.355  22.519  1.00  0.00     0.293 HD
ENDBRANCH  15  22
TORSDOF 3
ENDMDL
MODEL 3
REMARK VINA RESULT:    -6.742      2.007      3.414
REMARK INTER + INTRA:          -7.333
REMARK INTER:                  -7.333
REMARK INTRA:                   0.000
REMARK UNBOUND:                 0.000
REMARK SMILES Cc1cc(O)c2c(c1)C(=O)c1cc(O)cc(O)c1C2=O
REMARK SMILES IDX 1 1 2 2 8 3 7 4 6 5 4 6 3 7 19 8 20 9 18 10 11 11 9 12 10 13
REMARK SMILES IDX 12 14 13 15 15 16 16 17 5 18 17 20 14 22
REMARK H PARENT 5 19 17 21 14 23
REMARK Flexibility Score: inf
ROOT
ATOM      1  C   UNL     1       7.372  11.125  21.372  1.00  0.00     0.044 C 
ATOM      2  C   UNL     1       7.357   9.998  20.382  1.00  0.00    -0.047 A 
ATOM      3  C   UNL     1       6.751   8.779  20.712  1.00  0.00     0.016 A 
ATOM      4  C   UNL     1       6.698   7.729  19.777  1.00  0.00     0.038 A 
ATOM      5  C   UNL     1       7.251   7.905  18.492  1.00  0.00     0.076 A 
ATOM      6  C   UNL     1       7.837   9.148  18.154  1.00  0.00     0.127 A 
ATOM      7  C   UNL     1       7.880  10.182  19.098  1.00  0.00     0.050 A 
ATOM      8  C   UNL     1       7.223   6.773  17.530  1.00  0.00     0.201 C 
ATOM      9  O   UNL     1       8.009   6.777  16.544  1.00  0.00    -0.288 OA
ATOM     10  C   UNL     1       6.356   5.590  17.791  1.00  0.00     0.076 A 
ATOM     11  C   UNL     1       5.859   5.399  19.102  1.00  0.00     0.041 A 
ATOM     12  C   UNL     1       6.063   6.442  20.136  1.00  0.00     0.194 C 
ATOM     13  O   UNL     1       5.679   6.238  21.321  1.00  0.00    -0.289 OA
ATOM     14  C   UNL     1       5.161   4.221  19.421  1.00  0.00     0.059 A 
ATOM     15  C   UNL     1       4.939   3.242  18.451  1.00  0.00     0.120 A 
ATOM     16  C   UNL     1       5.386   3.446  17.147  1.00  0.00     0.093 A 
ATOM     17  C   UNL     1       6.059   4.620  16.795  1.00  0.00     0.131 A 
ENDROOT
BRANCH   6  18
ATOM     18  O   UNL     1       8.364   9.362  16.880  1.00  0.00    -0.507 OA
ATOM     19  H   UNL     1       8.106   8.780  16.092  1.00  0.00     0.293 HD
ENDBRANCH   6  18
BRANCH  17  20
ATOM     20  O   UNL     1       6.377   4.793  15.446  1.00  0.00    -0.507 OA
ATOM     21  H   UNL     1       6.680   4.045  14.840  1.00  0.00     0.293 HD
ENDBRANCH  17  20
BRANCH  15  22
ATOM     22  O   UNL     1       4.263   2.066  18.768  1.00  0.00    -0.508 OA
ATOM     23  H   UNL     1       3.255   1.995  18.687  1.00  0.00     0.293 HD
ENDBRANCH  15  22
TORSDOF 3
ENDMDL
MODEL 4
REMARK VINA RESULT:    -6.740      2.152      5.963
REMARK INTER + INTRA:          -7.331
REMARK INTER:                  -7.331
REMARK INTRA:                   0.000
REMARK UNBOUND:                 0.000
REMARK SMILES Cc1cc(O)c2c(c1)C(=O)c1cc(O)cc(O)c1C2=O
REMARK SMILES IDX 1 1 2 2 8 3 7 4 6 5 4 6 3 7 19 8 20 9 18 10 11 11 9 12 10 13
REMARK SMILES IDX 12 14 13 15 15 16 16 17 5 18 17 20 14 22
REMARK H PARENT 5 19 17 21 14 23
REMARK Flexibility Score: inf
ROOT
ATOM      1  C   UNL     1       6.150   0.957  16.984  1.00  0.00     0.044 C 
ATOM      2  C   UNL     1       5.693   2.360  17.253  1.00  0.00    -0.047 A 
ATOM      3  C   UNL     1       6.610   3.332  17.671  1.00  0.00     0.016 A 
ATOM      4  C   UNL     1       6.198   4.659  17.889  1.00  0.00     0.038 A 
ATOM      5  C   UNL     1       4.851   5.020  17.677  1.00  0.00     0.076 A 
ATOM      6  C   UNL     1       3.935   4.041  17.228  1.00  0.00     0.127 A 
ATOM      7  C   UNL     1       4.363   2.724  17.016  1.00  0.00     0.050 A 
ATOM      8  C   UNL     1       4.424   6.417  17.951  1.00  0.00     0.201 C 
ATOM      9  O   UNL     1       3.201   6.669  18.122  1.00  0.00    -0.288 OA
ATOM     10  C   UNL     1       5.442   7.488  18.137  1.00  0.00     0.076 A 
ATOM     11  C   UNL     1       6.777   7.106  18.407  1.00  0.00     0.041 A 
ATOM     12  C   UNL     1       7.172   5.679  18.338  1.00  0.00     0.194 C 
ATOM     13  O   UNL     1       8.346   5.334  18.647  1.00  0.00    -0.289 OA
ATOM     14  C   UNL     1       7.733   8.084  18.732  1.00  0.00     0.059 A 
ATOM     15  C   UNL     1       7.381   9.435  18.774  1.00  0.00     0.120 A 
ATOM     16  C   UNL     1       6.079   9.821  18.464  1.00  0.00     0.093 A 
ATOM     17  C   UNL     1       5.115   8.872  18.111  1.00  0.00     0.131 A 
ENDROOT
BRANCH   6  18
ATOM     18  O   UNL     1       2.603   4.375  16.979  1.00  0.00    -0.507 OA
ATOM     19  H   UNL     1       2.299   5.340  16.913  1.00  0.00     0.293 HD
ENDBRANCH   6  18
BRANCH  17  20
ATOM     20  O   UNL     1       3.865   9.351  17.709  1.00  0.00    -0.507 OA
ATOM     21  H   UNL     1       3.115   9.568  18.349  1.00  0.00     0.293 HD
ENDBRANCH  17  20
BRANCH  15  22
ATOM     22  O   UNL     1       8.322  10.405  19.112  1.00  0.00    -0.508 OA
ATOM     23  H   UNL     1       8.044  11.337  19.398  1.00  0.00     0.293 HD
ENDBRANCH  15  22
TORSDOF 3
ENDMDL
MODEL 5
REMARK VINA RESULT:    -6.732      1.164      3.364
REMARK INTER + INTRA:          -7.322
REMARK INTER:                  -7.322
REMARK INTRA:                   0.000
REMARK UNBOUND:                 0.000
REMARK SMILES Cc1cc(O)c2c(c1)C(=O)c1cc(O)cc(O)c1C2=O
REMARK SMILES IDX 1 1 2 2 8 3 7 4 6 5 4 6 3 7 19 8 20 9 18 10 11 11 9 12 10 13
REMARK SMILES IDX 12 14 13 15 15 16 16 17 5 18 17 20 14 22
REMARK H PARENT 5 19 17 21 14 23
REMARK Flexibility Score: inf
ROOT
ATOM      1  C   UNL     1       7.009   8.962  21.380  1.00  0.00     0.044 C 
ATOM      2  C   UNL     1       6.493   8.140  20.236  1.00  0.00    -0.047 A 
ATOM      3  C   UNL     1       6.819   6.782  20.141  1.00  0.00     0.016 A 
ATOM      4  C   UNL     1       6.310   5.993  19.094  1.00  0.00     0.038 A 
ATOM      5  C   UNL     1       5.456   6.572  18.131  1.00  0.00     0.076 A 
ATOM      6  C   UNL     1       5.107   7.937  18.247  1.00  0.00     0.127 A 
ATOM      7  C   UNL     1       5.623   8.707  19.297  1.00  0.00     0.050 A 
ATOM      8  C   UNL     1       4.959   5.735  17.008  1.00  0.00     0.201 C 
ATOM      9  O   UNL     1       4.514   6.293  15.969  1.00  0.00    -0.288 OA
ATOM     10  C   UNL     1       5.094   4.253  17.062  1.00  0.00     0.076 A 
ATOM     11  C   UNL     1       6.000   3.694  17.994  1.00  0.00     0.041 A 
ATOM     12  C   UNL     1       6.665   4.560  18.996  1.00  0.00     0.194 C 
ATOM     13  O   UNL     1       7.525   4.071  19.781  1.00  0.00    -0.289 OA
ATOM     14  C   UNL     1       6.262   2.313  17.975  1.00  0.00     0.059 A 
ATOM     15  C   UNL     1       5.622   1.482  17.053  1.00  0.00     0.120 A 
ATOM     16  C   UNL     1       4.694   2.019  16.164  1.00  0.00     0.093 A 
ATOM     17  C   UNL     1       4.394   3.385  16.179  1.00  0.00     0.131 A 
ENDROOT
BRANCH   6  18
ATOM     18  O   UNL     1       4.239   8.529  17.328  1.00  0.00    -0.507 OA
ATOM     19  H   UNL     1       3.601   9.269  17.599  1.00  0.00     0.293 HD
ENDBRANCH   6  18
BRANCH  17  20
ATOM     20  O   UNL     1       3.375   3.824  15.330  1.00  0.00    -0.507 OA
ATOM     21  H   UNL     1       3.287   4.775  15.004  1.00  0.00     0.293 HD
ENDBRANCH  17  20
BRANCH  15  22
ATOM     22  O   UNL     1       5.892   0.116  17.020  1.00  0.00    -0.508 OA
ATOM     23  H   UNL     1       6.738  -0.248  16.597  1.00  0.00     0.293 HD
ENDBRANCH  15  22
TORSDOF 3
ENDMDL
MODEL 6
REMARK VINA RESULT:    -6.412      1.641      5.573
REMARK INTER + INTRA:          -6.974
REMARK INTER:                  -6.974
REMARK INTRA:                   0.000
REMARK UNBOUND:                 0.000
REMARK SMILES Cc1cc(O)c2c(c1)C(=O)c1cc(O)cc(O)c1C2=O
REMARK SMILES IDX 1 1 2 2 8 3 7 4 6 5 4 6 3 7 19 8 20 9 18 10 11 11 9 12 10 13
REMARK SMILES IDX 12 14 13 15 15 16 16 17 5 18 17 20 14 22
REMARK H PARENT 5 19 17 21 14 23
REMARK Flexibility Score: inf
ROOT
ATOM      1  C   UNL     1       4.750   2.875  13.920  1.00  0.00     0.044 C 
ATOM      2  C   UNL     1       5.035   3.278  15.336  1.00  0.00    -0.047 A 
ATOM      3  C   UNL     1       5.555   4.547  15.617  1.00  0.00     0.016 A 
ATOM      4  C   UNL     1       5.790   4.949  16.944  1.00  0.00     0.038 A 
ATOM      5  C   UNL     1       5.493   4.070  18.006  1.00  0.00     0.076 A 
ATOM      6  C   UNL     1       4.942   2.799  17.720  1.00  0.00     0.127 A 
ATOM      7  C   UNL     1       4.714   2.417  16.392  1.00  0.00     0.050 A 
ATOM      8  C   UNL     1       5.785   4.494  19.401  1.00  0.00     0.201 C 
ATOM      9  O   UNL     1       5.875   3.623  20.307  1.00  0.00    -0.288 OA
ATOM     10  C   UNL     1       6.084   5.922  19.701  1.00  0.00     0.076 A 
ATOM     11  C   UNL     1       6.437   6.775  18.629  1.00  0.00     0.041 A 
ATOM     12  C   UNL     1       6.346   6.290  17.231  1.00  0.00     0.194 C 
ATOM     13  O   UNL     1       6.728   7.029  16.281  1.00  0.00    -0.289 OA
ATOM     14  C   UNL     1       6.867   8.087  18.891  1.00  0.00     0.059 A 
ATOM     15  C   UNL     1       6.933   8.565  20.201  1.00  0.00     0.120 A 
ATOM     16  C   UNL     1       6.542   7.745  21.257  1.00  0.00     0.093 A 
ATOM     17  C   UNL     1       6.085   6.444  21.024  1.00  0.00     0.131 A 
ENDROOT
BRANCH   6  18
ATOM     18  O   UNL     1       4.608   1.920  18.751  1.00  0.00    -0.507 OA
ATOM     19  H   UNL     1       4.687   2.188  19.726  1.00  0.00     0.293 HD
ENDBRANCH   6  18
BRANCH  17  20
ATOM     20  O   UNL     1       5.610   5.728  22.125  1.00  0.00    -0.507 OA
ATOM     21  H   UNL     1       6.054   5.732  23.032  1.00  0.00     0.293 HD
ENDBRANCH  17  20
BRANCH  15  22
ATOM     22  O   UNL     1       7.375   9.859  20.465  1.00  0.00    -0.508 OA
ATOM     23  H   UNL     1       8.249  10.209  20.089  1.00  0.00     0.293 HD
ENDBRANCH  15  22
TORSDOF 3
ENDMDL
MODEL 7
REMARK VINA RESULT:    -6.354     11.814     14.147
REMARK INTER + INTRA:          -6.912
REMARK INTER:                  -6.912
REMARK INTRA:                   0.000
REMARK UNBOUND:                 0.000
REMARK SMILES Cc1cc(O)c2c(c1)C(=O)c1cc(O)cc(O)c1C2=O
REMARK SMILES IDX 1 1 2 2 8 3 7 4 6 5 4 6 3 7 19 8 20 9 18 10 11 11 9 12 10 13
REMARK SMILES IDX 12 14 13 15 15 16 16 17 5 18 17 20 14 22
REMARK H PARENT 5 19 17 21 14 23
REMARK Flexibility Score: inf
ROOT
ATOM      1  C   UNL     1      -2.777   1.812  12.659  1.00  0.00     0.044 C 
ATOM      2  C   UNL     1      -2.532   1.253  11.289  1.00  0.00    -0.047 A 
ATOM      3  C   UNL     1      -2.394   2.112  10.192  1.00  0.00     0.016 A 
ATOM      4  C   UNL     1      -2.126   1.600   8.909  1.00  0.00     0.038 A 
ATOM      5  C   UNL     1      -1.987   0.208   8.725  1.00  0.00     0.076 A 
ATOM      6  C   UNL     1      -2.099  -0.653   9.841  1.00  0.00     0.127 A 
ATOM      7  C   UNL     1      -2.365  -0.125  11.111  1.00  0.00     0.050 A 
ATOM      8  C   UNL     1      -1.744  -0.320   7.357  1.00  0.00     0.201 C 
ATOM      9  O   UNL     1      -1.977  -1.534   7.111  1.00  0.00    -0.288 OA
ATOM     10  C   UNL     1      -1.342   0.603   6.259  1.00  0.00     0.076 A 
ATOM     11  C   UNL     1      -1.544   1.992   6.440  1.00  0.00     0.041 A 
ATOM     12  C   UNL     1      -1.989   2.514   7.754  1.00  0.00     0.194 C 
ATOM     13  O   UNL     1      -2.236   3.744   7.892  1.00  0.00    -0.289 OA
ATOM     14  C   UNL     1      -1.314   2.877   5.373  1.00  0.00     0.059 A 
ATOM     15  C   UNL     1      -0.869   2.402   4.138  1.00  0.00     0.120 A 
ATOM     16  C   UNL     1      -0.623   1.041   3.968  1.00  0.00     0.093 A 
ATOM     17  C   UNL     1      -0.818   0.140   5.020  1.00  0.00     0.131 A 
ENDROOT
BRANCH   6  18
ATOM     18  O   UNL     1      -1.934  -2.031   9.694  1.00  0.00    -0.507 OA
ATOM     19  H   UNL     1      -1.210  -2.537  10.191  1.00  0.00     0.293 HD
ENDBRANCH   6  18
BRANCH  17  20
ATOM     20  O   UNL     1      -0.445  -1.188   4.800  1.00  0.00    -0.507 OA
ATOM     21  H   UNL     1      -0.433  -1.624   3.890  1.00  0.00     0.293 HD
ENDBRANCH  17  20
BRANCH  15  22
ATOM     22  O   UNL     1      -0.656   3.275   3.074  1.00  0.00    -0.508 OA
ATOM     23  H   UNL     1       0.208   3.264   2.543  1.00  0.00     0.293 HD
ENDBRANCH  15  22
TORSDOF 3
ENDMDL
MODEL 8
REMARK VINA RESULT:    -5.911      2.738      4.416
REMARK INTER + INTRA:          -6.429
REMARK INTER:                  -6.429
REMARK INTRA:                   0.000
REMARK UNBOUND:                 0.000
REMARK SMILES Cc1cc(O)c2c(c1)C(=O)c1cc(O)cc(O)c1C2=O
REMARK SMILES IDX 1 1 2 2 8 3 7 4 6 5 4 6 3 7 19 8 20 9 18 10 11 11 9 12 10 13
REMARK SMILES IDX 12 14 13 15 15 16 16 17 5 18 17 20 14 22
REMARK H PARENT 5 19 17 21 14 23
REMARK Flexibility Score: inf
ROOT
ATOM      1  C   UNL     1       9.625   5.876  18.002  1.00  0.00     0.044 C 
ATOM      2  C   UNL     1       8.283   6.545  17.964  1.00  0.00    -0.047 A 
ATOM      3  C   UNL     1       7.165   5.853  17.482  1.00  0.00     0.016 A 
ATOM      4  C   UNL     1       5.895   6.458  17.478  1.00  0.00     0.038 A 
ATOM      5  C   UNL     1       5.741   7.771  17.971  1.00  0.00     0.076 A 
ATOM      6  C   UNL     1       6.868   8.455  18.482  1.00  0.00     0.127 A 
ATOM      7  C   UNL     1       8.125   7.837  18.479  1.00  0.00     0.050 A 
ATOM      8  C   UNL     1       4.400   8.410  17.922  1.00  0.00     0.201 C 
ATOM      9  O   UNL     1       4.308   9.664  18.006  1.00  0.00    -0.288 OA
ATOM     10  C   UNL     1       3.187   7.587  17.658  1.00  0.00     0.076 A 
ATOM     11  C   UNL     1       3.359   6.294  17.109  1.00  0.00     0.041 A 
ATOM     12  C   UNL     1       4.719   5.723  16.960  1.00  0.00     0.194 C 
ATOM     13  O   UNL     1       4.874   4.599  16.406  1.00  0.00    -0.289 OA
ATOM     14  C   UNL     1       2.237   5.547  16.711  1.00  0.00     0.059 A 
ATOM     15  C   UNL     1       0.949   6.062  16.870  1.00  0.00     0.120 A 
ATOM     16  C   UNL     1       0.771   7.315  17.453  1.00  0.00     0.093 A 
ATOM     17  C   UNL     1       1.868   8.068  17.882  1.00  0.00     0.131 A 
ENDROOT
BRANCH   6  18
ATOM     18  O   UNL     1       6.741   9.742  19.005  1.00  0.00    -0.507 OA
ATOM     19  H   UNL     1       7.187  10.010  19.875  1.00  0.00     0.293 HD
ENDBRANCH   6  18
BRANCH  17  20
ATOM     20  O   UNL     1       1.598   9.263  18.554  1.00  0.00    -0.507 OA
ATOM     21  H   UNL     1       0.667   9.597  18.752  1.00  0.00     0.293 HD
ENDBRANCH  17  20
BRANCH  15  22
ATOM     22  O   UNL     1      -0.165   5.331  16.462  1.00  0.00    -0.508 OA
ATOM     23  H   UNL     1      -0.925   5.122  17.099  1.00  0.00     0.293 HD
ENDBRANCH  15  22
TORSDOF 3
ENDMDL
MODEL 9
REMARK VINA RESULT:    -5.848      2.849      5.597
REMARK INTER + INTRA:          -6.361
REMARK INTER:                  -6.361
REMARK INTRA:                   0.000
REMARK UNBOUND:                 0.000
REMARK SMILES Cc1cc(O)c2c(c1)C(=O)c1cc(O)cc(O)c1C2=O
REMARK SMILES IDX 1 1 2 2 8 3 7 4 6 5 4 6 3 7 19 8 20 9 18 10 11 11 9 12 10 13
REMARK SMILES IDX 12 14 13 15 15 16 16 17 5 18 17 20 14 22
REMARK H PARENT 5 19 17 21 14 23
REMARK Flexibility Score: inf
ROOT
ATOM      1  C   UNL     1      -0.219   6.078  16.490  1.00  0.00     0.044 C 
ATOM      2  C   UNL     1       1.114   6.643  16.887  1.00  0.00    -0.047 A 
ATOM      3  C   UNL     1       2.256   5.835  16.865  1.00  0.00     0.016 A 
ATOM      4  C   UNL     1       3.516   6.364  17.198  1.00  0.00     0.038 A 
ATOM      5  C   UNL     1       3.634   7.725  17.550  1.00  0.00     0.076 A 
ATOM      6  C   UNL     1       2.481   8.544  17.544  1.00  0.00     0.127 A 
ATOM      7  C   UNL     1       1.235   7.999  17.209  1.00  0.00     0.050 A 
ATOM      8  C   UNL     1       4.965   8.260  17.939  1.00  0.00     0.201 C 
ATOM      9  O   UNL     1       5.035   9.335  18.592  1.00  0.00    -0.288 OA
ATOM     10  C   UNL     1       6.199   7.472  17.661  1.00  0.00     0.076 A 
ATOM     11  C   UNL     1       6.063   6.094  17.367  1.00  0.00     0.041 A 
ATOM     12  C   UNL     1       4.718   5.501  17.179  1.00  0.00     0.194 C 
ATOM     13  O   UNL     1       4.598   4.259  16.986  1.00  0.00    -0.289 OA
ATOM     14  C   UNL     1       7.209   5.289  17.243  1.00  0.00     0.059 A 
ATOM     15  C   UNL     1       8.483   5.840  17.392  1.00  0.00     0.120 A 
ATOM     16  C   UNL     1       8.624   7.205  17.635  1.00  0.00     0.093 A 
ATOM     17  C   UNL     1       7.503   8.034  17.736  1.00  0.00     0.131 A 
ENDROOT
BRANCH   6  18
ATOM     18  O   UNL     1       2.572   9.901  17.858  1.00  0.00    -0.507 OA
ATOM     19  H   UNL     1       3.391  10.290  18.310  1.00  0.00     0.293 HD
ENDBRANCH   6  18
BRANCH  17  20
ATOM     20  O   UNL     1       7.733   9.405  17.872  1.00  0.00    -0.507 OA
ATOM     21  H   UNL     1       7.730  10.055  17.100  1.00  0.00     0.293 HD
ENDBRANCH  17  20
BRANCH  15  22
ATOM     22  O   UNL     1       9.620   5.042  17.287  1.00  0.00    -0.508 OA
ATOM     23  H   UNL     1       9.660   4.257  16.646  1.00  0.00     0.293 HD
ENDBRANCH  15  22
TORSDOF 3
ENDMDL
