MODEL 1
REMARK VINA RESULT:    -3.707      0.000      0.000
REMARK INTER + INTRA:          -5.454
REMARK INTER:                  -5.007
REMARK INTRA:                  -0.448
REMARK UNBOUND:                -0.448
REMARK SMILES CC(=O)CCC=C(C)CCC=C(C)C
REMARK SMILES IDX 7 1 6 2 8 3 9 4 10 5 11 6 13 7 12 8 14 9 5 10 4 11 2 12 3 13
REMARK SMILES IDX 1 14
REMARK H PARENT
REMARK Flexibility Score: inf
ROOT
ATOM      1  C   UNL     1     -30.845  38.246 -25.631  1.00  0.00    -0.077 C 
ATOM      2  C   UNL     1     -30.126  37.123 -25.861  1.00  0.00    -0.028 C 
ATOM      3  C   UNL     1     -31.878  38.748 -26.613  1.00  0.00     0.039 C 
ENDROOT
BRANCH   1   4
ATOM      4  C   UNL     1     -30.626  39.006 -24.342  1.00  0.00     0.034 C 
BRANCH   4   5
ATOM      5  C   UNL     1     -31.221  40.416 -24.435  1.00  0.00     0.032 C 
BRANCH   5   6
ATOM      6  C   UNL     1     -30.290  41.343 -25.175  1.00  0.00    -0.028 C 
ATOM      7  C   UNL     1     -32.115  42.301 -26.597  1.00  0.00     0.039 C 
ATOM      8  C   UNL     1     -30.673  42.173 -26.172  1.00  0.00    -0.080 C 
ATOM      9  C   UNL     1     -29.651  43.037 -26.863  1.00  0.00     0.039 C 
ENDBRANCH   5   6
ENDBRANCH   4   5
ENDBRANCH   1   4
BRANCH   2  10
ATOM     10  C   UNL     1     -30.220  36.287 -27.117  1.00  0.00     0.035 C 
BRANCH  10  11
ATOM     11  C   UNL     1     -29.202  35.139 -27.125  1.00  0.00     0.079 C 
BRANCH  11  12
ATOM     12  C   UNL     1     -29.852  33.810 -26.841  1.00  0.00     0.130 C 
ATOM     13  O   UNL     1     -31.066  33.739 -26.724  1.00  0.00    -0.300 OA
ATOM     14  C   UNL     1     -29.016  32.579 -26.662  1.00  0.00     0.087 C 
ENDBRANCH  11  12
ENDBRANCH  10  11
ENDBRANCH   2  10
TORSDOF 6
ENDMDL
MODEL 2
REMARK VINA RESULT:    -3.572      2.589      6.841
REMARK INTER + INTRA:          -5.273
REMARK INTER:                  -4.921
REMARK INTRA:                  -0.352
REMARK UNBOUND:                -0.448
REMARK SMILES CC(=O)CCC=C(C)CCC=C(C)C
REMARK SMILES IDX 7 1 6 2 8 3 9 4 10 5 11 6 13 7 12 8 14 9 5 10 4 11 2 12 3 13
REMARK SMILES IDX 1 14
REMARK H PARENT
REMARK Flexibility Score: inf
ROOT
ATOM      1  C   UNL     1     -30.509  38.482 -25.348  1.00  0.00    -0.077 C 
ATOM      2  C   UNL     1     -31.011  39.352 -26.254  1.00  0.00    -0.028 C 
ATOM      3  C   UNL     1     -30.917  38.520 -23.893  1.00  0.00     0.039 C 
ENDROOT
BRANCH   1   4
ATOM      4  C   UNL     1     -29.530  37.426 -25.809  1.00  0.00     0.034 C 
BRANCH   4   5
ATOM      5  C   UNL     1     -30.219  36.411 -26.730  1.00  0.00     0.032 C 
BRANCH   5   6
ATOM      6  C   UNL     1     -29.389  35.159 -26.861  1.00  0.00    -0.028 C 
ATOM      7  C   UNL     1     -31.388  33.654 -26.972  1.00  0.00     0.039 C 
ATOM      8  C   UNL     1     -29.902  33.909 -26.938  1.00  0.00    -0.080 C 
ATOM      9  C   UNL     1     -28.977  32.725 -27.038  1.00  0.00     0.039 C 
ENDBRANCH   5   6
ENDBRANCH   4   5
ENDBRANCH   1   4
BRANCH   2  10
ATOM     10  C   UNL     1     -31.969  40.474 -25.926  1.00  0.00     0.035 C 
BRANCH  10  11
ATOM     11  C   UNL     1     -31.521  41.812 -26.529  1.00  0.00     0.079 C 
BRANCH  11  12
ATOM     12  C   UNL     1     -30.144  42.206 -26.063  1.00  0.00     0.130 C 
ATOM     13  O   UNL     1     -29.368  42.741 -26.840  1.00  0.00    -0.300 OA
ATOM     14  C   UNL     1     -29.706  41.911 -24.660  1.00  0.00     0.087 C 
ENDBRANCH  11  12
ENDBRANCH  10  11
ENDBRANCH   2  10
TORSDOF 6
ENDMDL
