MODEL 1
REMARK VINA RESULT:    -6.918      0.000      0.000
REMARK INTER + INTRA:          -8.661
REMARK INTER:                  -8.334
REMARK INTRA:                  -0.328
REMARK UNBOUND:                -0.328
REMARK SMILES O=c1c(O)c(-c2ccc(O)c(O)c2)oc2cc(O)cc(O)c12
REMARK SMILES IDX 5 1 3 2 2 3 1 4 22 5 20 6 19 7 17 8 16 9 15 10 14 11 6 12
REMARK SMILES IDX 7 13 8 14 9 15 13 16 11 17 10 18 12 20 4 22 21 24 18 26
REMARK H PARENT 10 19 12 21 4 23 21 25 18 27
REMARK Flexibility Score: inf
ROOT
ATOM      1  C   UNL     1      11.579   0.011  28.334  1.00  0.00     0.180 A 
ATOM      2  C   UNL     1      12.118  -0.744  29.390  1.00  0.00     0.208 A 
ATOM      3  C   UNL     1      13.399  -1.302  29.246  1.00  0.00     0.238 A 
ATOM      4  O   UNL     1      13.897  -1.930  30.216  1.00  0.00    -0.285 OA
ATOM      5  C   UNL     1      14.117  -1.111  28.041  1.00  0.00     0.111 A 
ATOM      6  C   UNL     1      15.405  -1.664  27.770  1.00  0.00     0.134 A 
ATOM      7  C   UNL     1      16.078  -1.303  26.596  1.00  0.00     0.093 A 
ATOM      8  C   UNL     1      15.483  -0.461  25.654  1.00  0.00     0.123 A 
ATOM      9  C   UNL     1      14.203   0.036  25.883  1.00  0.00     0.094 A 
ATOM     10  C   UNL     1      13.520  -0.277  27.060  1.00  0.00     0.146 A 
ATOM     11  O   UNL     1      12.305   0.226  27.243  1.00  0.00    -0.452 OA
ENDROOT
BRANCH   1  12
ATOM     12  C   UNL     1      10.227   0.609  28.402  1.00  0.00     0.025 A 
ATOM     13  C   UNL     1       9.098  -0.074  27.913  1.00  0.00     0.016 A 
ATOM     14  C   UNL     1       7.835   0.520  27.966  1.00  0.00     0.051 A 
ATOM     15  C   UNL     1       7.681   1.809  28.495  1.00  0.00     0.157 A 
ATOM     16  C   UNL     1      10.069   1.908  28.912  1.00  0.00     0.062 A 
ATOM     17  C   UNL     1       8.805   2.506  28.968  1.00  0.00     0.158 A 
BRANCH  15  18
ATOM     18  O   UNL     1       6.419   2.397  28.548  1.00  0.00    -0.504 OA
ATOM     19  H   UNL     1       5.749   2.285  27.797  1.00  0.00     0.293 HD
ENDBRANCH  15  18
BRANCH  17  20
ATOM     20  O   UNL     1       8.687   3.792  29.494  1.00  0.00    -0.504 OA
ATOM     21  H   UNL     1       7.787   4.206  29.706  1.00  0.00     0.293 HD
ENDBRANCH  17  20
ENDBRANCH   1  12
BRANCH   2  22
ATOM     22  O   UNL     1      11.400  -0.901  30.580  1.00  0.00    -0.502 OA
ATOM     23  H   UNL     1      11.766  -1.414  31.373  1.00  0.00     0.293 HD
ENDBRANCH   2  22
BRANCH   6  24
ATOM     24  O   UNL     1      16.049  -2.585  28.601  1.00  0.00    -0.507 OA
ATOM     25  H   UNL     1      15.819  -3.566  28.659  1.00  0.00     0.293 HD
ENDBRANCH   6  24
BRANCH   8  26
ATOM     26  O   UNL     1      16.154  -0.119  24.482  1.00  0.00    -0.508 OA
ATOM     27  H   UNL     1      16.292   0.848  24.213  1.00  0.00     0.293 HD
ENDBRANCH   8  26
TORSDOF 6
ENDMDL
MODEL 2
REMARK VINA RESULT:    -6.823      3.583      7.511
REMARK INTER + INTRA:          -8.547
REMARK INTER:                  -8.286
REMARK INTRA:                  -0.261
REMARK UNBOUND:                -0.328
REMARK SMILES O=c1c(O)c(-c2ccc(O)c(O)c2)oc2cc(O)cc(O)c12
REMARK SMILES IDX 5 1 3 2 2 3 1 4 22 5 20 6 19 7 17 8 16 9 15 10 14 11 6 12
REMARK SMILES IDX 7 13 8 14 9 15 13 16 11 17 10 18 12 20 4 22 21 24 18 26
REMARK H PARENT 10 19 12 21 4 23 21 25 18 27
REMARK Flexibility Score: inf
ROOT
ATOM      1  C   UNL     1      11.851   0.154  30.871  1.00  0.00     0.180 A 
ATOM      2  C   UNL     1      11.729   1.530  31.131  1.00  0.00     0.208 A 
ATOM      3  C   UNL     1      10.988   1.950  32.248  1.00  0.00     0.238 A 
ATOM      4  O   UNL     1      10.928   3.181  32.506  1.00  0.00    -0.285 OA
ATOM      5  C   UNL     1      10.365   0.989  33.080  1.00  0.00     0.111 A 
ATOM      6  C   UNL     1       9.556   1.302  34.214  1.00  0.00     0.134 A 
ATOM      7  C   UNL     1       9.098   0.270  35.041  1.00  0.00     0.093 A 
ATOM      8  C   UNL     1       9.363  -1.068  34.738  1.00  0.00     0.123 A 
ATOM      9  C   UNL     1      10.101  -1.386  33.601  1.00  0.00     0.094 A 
ATOM     10  C   UNL     1      10.603  -0.377  32.776  1.00  0.00     0.146 A 
ATOM     11  O   UNL     1      11.310  -0.723  31.707  1.00  0.00    -0.452 OA
ENDROOT
BRANCH   1  12
ATOM     12  C   UNL     1      12.595  -0.363  29.700  1.00  0.00     0.025 A 
ATOM     13  C   UNL     1      12.079  -0.249  28.396  1.00  0.00     0.016 A 
ATOM     14  C   UNL     1      12.788  -0.766  27.309  1.00  0.00     0.051 A 
ATOM     15  C   UNL     1      14.014  -1.417  27.508  1.00  0.00     0.157 A 
ATOM     16  C   UNL     1      13.813  -1.034  29.896  1.00  0.00     0.062 A 
ATOM     17  C   UNL     1      14.526  -1.553  28.809  1.00  0.00     0.158 A 
BRANCH  15  18
ATOM     18  O   UNL     1      14.718  -1.930  26.421  1.00  0.00    -0.504 OA
ATOM     19  H   UNL     1      15.545  -1.470  26.059  1.00  0.00     0.293 HD
ENDBRANCH  15  18
BRANCH  17  20
ATOM     20  O   UNL     1      15.739  -2.200  29.041  1.00  0.00    -0.504 OA
ATOM     21  H   UNL     1      16.532  -2.096  28.420  1.00  0.00     0.293 HD
ENDBRANCH  17  20
ENDBRANCH   1  12
BRANCH   2  22
ATOM     22  O   UNL     1      12.371   2.461  30.309  1.00  0.00    -0.502 OA
ATOM     23  H   UNL     1      13.148   3.027  30.630  1.00  0.00     0.293 HD
ENDBRANCH   2  22
BRANCH   6  24
ATOM     24  O   UNL     1       9.157   2.598  34.554  1.00  0.00    -0.507 OA
ATOM     25  H   UNL     1       8.644   3.220  33.946  1.00  0.00     0.293 HD
ENDBRANCH   6  24
BRANCH   8  26
ATOM     26  O   UNL     1       8.889  -2.090  35.559  1.00  0.00    -0.508 OA
ATOM     27  H   UNL     1       8.290  -1.897  36.353  1.00  0.00     0.293 HD
ENDBRANCH   8  26
TORSDOF 6
ENDMDL
MODEL 3
REMARK VINA RESULT:    -6.808      4.349      6.093
REMARK INTER + INTRA:          -8.528
REMARK INTER:                  -8.835
REMARK INTRA:                   0.306
REMARK UNBOUND:                -0.328
REMARK SMILES O=c1c(O)c(-c2ccc(O)c(O)c2)oc2cc(O)cc(O)c12
REMARK SMILES IDX 5 1 3 2 2 3 1 4 22 5 20 6 19 7 17 8 16 9 15 10 14 11 6 12
REMARK SMILES IDX 7 13 8 14 9 15 13 16 11 17 10 18 12 20 4 22 21 24 18 26
REMARK H PARENT 10 19 12 21 4 23 21 25 18 27
REMARK Flexibility Score: inf
ROOT
ATOM      1  C   UNL     1      11.171   3.339  32.074  1.00  0.00     0.180 A 
ATOM      2  C   UNL     1      10.873   2.475  31.007  1.00  0.00     0.208 A 
ATOM      3  C   UNL     1      11.677   1.340  30.803  1.00  0.00     0.238 A 
ATOM      4  O   UNL     1      11.372   0.542  29.879  1.00  0.00    -0.285 OA
ATOM      5  C   UNL     1      12.776   1.094  31.660  1.00  0.00     0.111 A 
ATOM      6  C   UNL     1      13.682  -0.001  31.521  1.00  0.00     0.134 A 
ATOM      7  C   UNL     1      14.656  -0.219  32.503  1.00  0.00     0.093 A 
ATOM      8  C   UNL     1      14.800   0.655  33.583  1.00  0.00     0.123 A 
ATOM      9  C   UNL     1      13.960   1.760  33.694  1.00  0.00     0.094 A 
ATOM     10  C   UNL     1      12.955   1.985  32.750  1.00  0.00     0.146 A 
ATOM     11  O   UNL     1      12.170   3.045  32.899  1.00  0.00    -0.452 OA
ENDROOT
BRANCH   1  12
ATOM     12  C   UNL     1      10.386   4.566  32.337  1.00  0.00     0.025 A 
ATOM     13  C   UNL     1       9.669   5.210  31.313  1.00  0.00     0.016 A 
ATOM     14  C   UNL     1       8.955   6.380  31.579  1.00  0.00     0.051 A 
ATOM     15  C   UNL     1       8.956   6.933  32.868  1.00  0.00     0.157 A 
ATOM     16  C   UNL     1      10.402   5.136  33.621  1.00  0.00     0.062 A 
ATOM     17  C   UNL     1       9.686   6.308  33.892  1.00  0.00     0.158 A 
BRANCH  15  18
ATOM     18  O   UNL     1       8.241   8.100  33.130  1.00  0.00    -0.504 OA
ATOM     19  H   UNL     1       8.482   8.981  32.691  1.00  0.00     0.293 HD
ENDBRANCH  15  18
BRANCH  17  20
ATOM     20  O   UNL     1       9.714   6.836  35.182  1.00  0.00    -0.504 OA
ATOM     21  H   UNL     1       8.907   6.806  35.793  1.00  0.00     0.293 HD
ENDBRANCH  17  20
ENDBRANCH   1  12
BRANCH   2  22
ATOM     22  O   UNL     1       9.769   2.725  30.187  1.00  0.00    -0.502 OA
ATOM     23  H   UNL     1       8.876   2.266  30.321  1.00  0.00     0.293 HD
ENDBRANCH   2  22
BRANCH   6  24
ATOM     24  O   UNL     1      13.682  -0.880  30.435  1.00  0.00    -0.507 OA
ATOM     25  H   UNL     1      13.722  -0.598  29.467  1.00  0.00     0.293 HD
ENDBRANCH   6  24
BRANCH   8  26
ATOM     26  O   UNL     1      15.783   0.439  34.546  1.00  0.00    -0.508 OA
ATOM     27  H   UNL     1      16.602  -0.124  34.351  1.00  0.00     0.293 HD
ENDBRANCH   8  26
TORSDOF 6
ENDMDL
MODEL 4
REMARK VINA RESULT:    -6.791      4.092      7.202
REMARK INTER + INTRA:          -8.508
REMARK INTER:                  -8.793
REMARK INTRA:                   0.285
REMARK UNBOUND:                -0.328
REMARK SMILES O=c1c(O)c(-c2ccc(O)c(O)c2)oc2cc(O)cc(O)c12
REMARK SMILES IDX 5 1 3 2 2 3 1 4 22 5 20 6 19 7 17 8 16 9 15 10 14 11 6 12
REMARK SMILES IDX 7 13 8 14 9 15 13 16 11 17 10 18 12 20 4 22 21 24 18 26
REMARK H PARENT 10 19 12 21 4 23 21 25 18 27
REMARK Flexibility Score: inf
ROOT
ATOM      1  C   UNL     1      13.663  -0.918  31.511  1.00  0.00     0.180 A 
ATOM      2  C   UNL     1      12.338  -0.989  31.976  1.00  0.00     0.208 A 
ATOM      3  C   UNL     1      12.079  -0.756  33.337  1.00  0.00     0.238 A 
ATOM      4  O   UNL     1      10.886  -0.766  33.736  1.00  0.00    -0.285 OA
ATOM      5  C   UNL     1      13.151  -0.471  34.217  1.00  0.00     0.111 A 
ATOM      6  C   UNL     1      13.009  -0.258  35.622  1.00  0.00     0.134 A 
ATOM      7  C   UNL     1      14.119   0.145  36.374  1.00  0.00     0.093 A 
ATOM      8  C   UNL     1      15.379   0.279  35.785  1.00  0.00     0.123 A 
ATOM      9  C   UNL     1      15.538   0.016  34.427  1.00  0.00     0.094 A 
ATOM     10  C   UNL     1      14.443  -0.353  33.643  1.00  0.00     0.146 A 
ATOM     11  O   UNL     1      14.637  -0.585  32.350  1.00  0.00    -0.452 OA
ENDROOT
BRANCH   1  12
ATOM     12  C   UNL     1      14.017  -1.176  30.097  1.00  0.00     0.025 A 
ATOM     13  C   UNL     1      15.254  -1.747  29.744  1.00  0.00     0.016 A 
ATOM     14  C   UNL     1      15.576  -1.958  28.402  1.00  0.00     0.051 A 
ATOM     15  C   UNL     1      14.676  -1.592  27.391  1.00  0.00     0.157 A 
ATOM     16  C   UNL     1      13.128  -0.791  29.080  1.00  0.00     0.062 A 
ATOM     17  C   UNL     1      13.448  -1.003  27.734  1.00  0.00     0.158 A 
BRANCH  15  18
ATOM     18  O   UNL     1      15.000  -1.806  26.053  1.00  0.00    -0.504 OA
ATOM     19  H   UNL     1      14.294  -1.799  25.328  1.00  0.00     0.293 HD
ENDBRANCH  15  18
BRANCH  17  20
ATOM     20  O   UNL     1      12.534  -0.621  26.753  1.00  0.00    -0.504 OA
ATOM     21  H   UNL     1      11.919   0.175  26.871  1.00  0.00     0.293 HD
ENDBRANCH  17  20
ENDBRANCH   1  12
BRANCH   2  22
ATOM     22  O   UNL     1      11.293  -1.249  31.084  1.00  0.00    -0.502 OA
ATOM     23  H   UNL     1      11.336  -1.992  30.397  1.00  0.00     0.293 HD
ENDBRANCH   2  22
BRANCH   6  24
ATOM     24  O   UNL     1      11.817  -0.453  36.325  1.00  0.00    -0.507 OA
ATOM     25  H   UNL     1      11.009   0.149  36.264  1.00  0.00     0.293 HD
ENDBRANCH   6  24
BRANCH   8  26
ATOM     26  O   UNL     1      16.481   0.666  36.545  1.00  0.00    -0.508 OA
ATOM     27  H   UNL     1      17.425   0.598  36.182  1.00  0.00     0.293 HD
ENDBRANCH   8  26
TORSDOF 6
ENDMDL
MODEL 5
REMARK VINA RESULT:    -6.566      3.687      7.178
REMARK INTER + INTRA:          -8.237
REMARK INTER:                  -7.933
REMARK INTRA:                  -0.303
REMARK UNBOUND:                -0.328
REMARK SMILES O=c1c(O)c(-c2ccc(O)c(O)c2)oc2cc(O)cc(O)c12
REMARK SMILES IDX 5 1 3 2 2 3 1 4 22 5 20 6 19 7 17 8 16 9 15 10 14 11 6 12
REMARK SMILES IDX 7 13 8 14 9 15 13 16 11 17 10 18 12 20 4 22 21 24 18 26
REMARK H PARENT 10 19 12 21 4 23 21 25 18 27
REMARK Flexibility Score: inf
ROOT
ATOM      1  C   UNL     1      13.076  -1.279  31.073  1.00  0.00     0.180 A 
ATOM      2  C   UNL     1      13.105  -0.115  31.860  1.00  0.00     0.208 A 
ATOM      3  C   UNL     1      12.580  -0.158  33.162  1.00  0.00     0.238 A 
ATOM      4  O   UNL     1      12.658   0.872  33.880  1.00  0.00    -0.285 OA
ATOM      5  C   UNL     1      12.019  -1.362  33.654  1.00  0.00     0.111 A 
ATOM      6  C   UNL     1      11.421  -1.509  34.942  1.00  0.00     0.134 A 
ATOM      7  C   UNL     1      11.015  -2.778  35.373  1.00  0.00     0.093 A 
ATOM      8  C   UNL     1      11.124  -3.892  34.538  1.00  0.00     0.123 A 
ATOM      9  C   UNL     1      11.651  -3.747  33.257  1.00  0.00     0.094 A 
ATOM     10  C   UNL     1      12.098  -2.501  32.811  1.00  0.00     0.146 A 
ATOM     11  O   UNL     1      12.602  -2.408  31.587  1.00  0.00    -0.452 OA
ENDROOT
BRANCH   1  12
ATOM     12  C   UNL     1      13.588  -1.305  29.684  1.00  0.00     0.025 A 
ATOM     13  C   UNL     1      14.890  -1.750  29.392  1.00  0.00     0.016 A 
ATOM     14  C   UNL     1      15.360  -1.743  28.076  1.00  0.00     0.051 A 
ATOM     15  C   UNL     1      14.543  -1.278  27.035  1.00  0.00     0.157 A 
ATOM     16  C   UNL     1      12.782  -0.820  28.640  1.00  0.00     0.062 A 
ATOM     17  C   UNL     1      13.249  -0.812  27.321  1.00  0.00     0.158 A 
BRANCH  15  18
ATOM     18  O   UNL     1      15.015  -1.273  25.724  1.00  0.00    -0.504 OA
ATOM     19  H   UNL     1      15.675  -0.576  25.399  1.00  0.00     0.293 HD
ENDBRANCH  15  18
BRANCH  17  20
ATOM     20  O   UNL     1      12.415  -0.337  26.310  1.00  0.00    -0.504 OA
ATOM     21  H   UNL     1      12.702   0.399  25.677  1.00  0.00     0.293 HD
ENDBRANCH  17  20
ENDBRANCH   1  12
BRANCH   2  22
ATOM     22  O   UNL     1      13.685   1.056  31.362  1.00  0.00    -0.502 OA
ATOM     23  H   UNL     1      13.806   1.887  31.929  1.00  0.00     0.293 HD
ENDBRANCH   2  22
BRANCH   6  24
ATOM     24  O   UNL     1      11.183  -0.446  35.818  1.00  0.00    -0.507 OA
ATOM     25  H   UNL     1      11.902   0.103  36.265  1.00  0.00     0.293 HD
ENDBRANCH   6  24
BRANCH   8  26
ATOM     26  O   UNL     1      10.703  -5.148  34.970  1.00  0.00    -0.508 OA
ATOM     27  H   UNL     1       9.725  -5.411  34.961  1.00  0.00     0.293 HD
ENDBRANCH   8  26
TORSDOF 6
ENDMDL
MODEL 6
REMARK VINA RESULT:    -6.496      1.060      1.175
REMARK INTER + INTRA:          -8.153
REMARK INTER:                  -7.823
REMARK INTRA:                  -0.329
REMARK UNBOUND:                -0.328
REMARK SMILES O=c1c(O)c(-c2ccc(O)c(O)c2)oc2cc(O)cc(O)c12
REMARK SMILES IDX 5 1 3 2 2 3 1 4 22 5 20 6 19 7 17 8 16 9 15 10 14 11 6 12
REMARK SMILES IDX 7 13 8 14 9 15 13 16 11 17 10 18 12 20 4 22 21 24 18 26
REMARK H PARENT 10 19 12 21 4 23 21 25 18 27
REMARK Flexibility Score: inf
ROOT
ATOM      1  C   UNL     1      10.919   0.277  29.008  1.00  0.00     0.180 A 
ATOM      2  C   UNL     1      11.441  -0.164  30.237  1.00  0.00     0.208 A 
ATOM      3  C   UNL     1      12.690  -0.806  30.257  1.00  0.00     0.238 A 
ATOM      4  O   UNL     1      13.176  -1.149  31.366  1.00  0.00    -0.285 OA
ATOM      5  C   UNL     1      13.394  -1.013  29.046  1.00  0.00     0.111 A 
ATOM      6  C   UNL     1      14.647  -1.688  28.943  1.00  0.00     0.134 A 
ATOM      7  C   UNL     1      15.315  -1.721  27.713  1.00  0.00     0.093 A 
ATOM      8  C   UNL     1      14.743  -1.161  26.568  1.00  0.00     0.123 A 
ATOM      9  C   UNL     1      13.493  -0.552  26.646  1.00  0.00     0.094 A 
ATOM     10  C   UNL     1      12.819  -0.472  27.867  1.00  0.00     0.146 A 
ATOM     11  O   UNL     1      11.634   0.125  27.899  1.00  0.00    -0.452 OA
ENDROOT
BRANCH   1  12
ATOM     12  C   UNL     1       9.600   0.938  28.905  1.00  0.00     0.025 A 
ATOM     13  C   UNL     1       8.427   0.200  28.661  1.00  0.00     0.016 A 
ATOM     14  C   UNL     1       7.196   0.849  28.543  1.00  0.00     0.051 A 
ATOM     15  C   UNL     1       7.117   2.244  28.652  1.00  0.00     0.157 A 
ATOM     16  C   UNL     1       9.518   2.338  28.992  1.00  0.00     0.062 A 
ATOM     17  C   UNL     1       8.286   2.991  28.875  1.00  0.00     0.158 A 
BRANCH  15  18
ATOM     18  O   UNL     1       5.887   2.887  28.535  1.00  0.00    -0.504 OA
ATOM     19  H   UNL     1       5.042   2.379  28.301  1.00  0.00     0.293 HD
ENDBRANCH  15  18
BRANCH  17  20
ATOM     20  O   UNL     1       8.243   4.380  28.982  1.00  0.00    -0.504 OA
ATOM     21  H   UNL     1       7.950   4.846  29.832  1.00  0.00     0.293 HD
ENDBRANCH  17  20
ENDBRANCH   1  12
BRANCH   2  22
ATOM     22  O   UNL     1      10.740   0.071  31.424  1.00  0.00    -0.502 OA
ATOM     23  H   UNL     1      10.657   0.993  31.834  1.00  0.00     0.293 HD
ENDBRANCH   2  22
BRANCH   6  24
ATOM     24  O   UNL     1      15.262  -2.359  30.005  1.00  0.00    -0.507 OA
ATOM     25  H   UNL     1      16.144  -2.845  29.943  1.00  0.00     0.293 HD
ENDBRANCH   6  24
BRANCH   8  26
ATOM     26  O   UNL     1      15.408  -1.212  25.344  1.00  0.00    -0.508 OA
ATOM     27  H   UNL     1      15.550  -2.087  24.854  1.00  0.00     0.293 HD
ENDBRANCH   8  26
TORSDOF 6
ENDMDL
MODEL 7
REMARK VINA RESULT:    -6.428      3.293      4.585
REMARK INTER + INTRA:          -8.071
REMARK INTER:                  -8.167
REMARK INTRA:                   0.096
REMARK UNBOUND:                -0.328
REMARK SMILES O=c1c(O)c(-c2ccc(O)c(O)c2)oc2cc(O)cc(O)c12
REMARK SMILES IDX 5 1 3 2 2 3 1 4 22 5 20 6 19 7 17 8 16 9 15 10 14 11 6 12
REMARK SMILES IDX 7 13 8 14 9 15 13 16 11 17 10 18 12 20 4 22 21 24 18 26
REMARK H PARENT 10 19 12 21 4 23 21 25 18 27
REMARK Flexibility Score: inf
ROOT
ATOM      1  C   UNL     1      11.424  -0.300  31.177  1.00  0.00     0.180 A 
ATOM      2  C   UNL     1      10.719   0.128  30.039  1.00  0.00     0.208 A 
ATOM      3  C   UNL     1      11.309  -0.028  28.773  1.00  0.00     0.238 A 
ATOM      4  O   UNL     1      10.650   0.307  27.754  1.00  0.00    -0.285 OA
ATOM      5  C   UNL     1      12.601  -0.595  28.664  1.00  0.00     0.111 A 
ATOM      6  C   UNL     1      13.311  -0.763  27.437  1.00  0.00     0.134 A 
ATOM      7  C   UNL     1      14.529  -1.455  27.433  1.00  0.00     0.093 A 
ATOM      8  C   UNL     1      15.094  -1.926  28.621  1.00  0.00     0.123 A 
ATOM      9  C   UNL     1      14.437  -1.714  29.830  1.00  0.00     0.094 A 
ATOM     10  C   UNL     1      13.204  -1.060  29.862  1.00  0.00     0.146 A 
ATOM     11  O   UNL     1      12.607  -0.887  31.036  1.00  0.00    -0.452 OA
ENDROOT
BRANCH   1  12
ATOM     12  C   UNL     1      10.880  -0.146  32.545  1.00  0.00     0.025 A 
ATOM     13  C   UNL     1      10.907  -1.208  33.467  1.00  0.00     0.016 A 
ATOM     14  C   UNL     1      10.365  -1.048  34.745  1.00  0.00     0.051 A 
ATOM     15  C   UNL     1       9.777   0.169  35.116  1.00  0.00     0.157 A 
ATOM     16  C   UNL     1      10.271   1.064  32.916  1.00  0.00     0.062 A 
ATOM     17  C   UNL     1       9.728   1.228  34.195  1.00  0.00     0.158 A 
BRANCH  15  18
ATOM     18  O   UNL     1       9.240   0.326  36.392  1.00  0.00    -0.504 OA
ATOM     19  H   UNL     1       8.240   0.385  36.544  1.00  0.00     0.293 HD
ENDBRANCH  15  18
BRANCH  17  20
ATOM     20  O   UNL     1       9.144   2.449  34.531  1.00  0.00    -0.504 OA
ATOM     21  H   UNL     1       9.676   3.310  34.560  1.00  0.00     0.293 HD
ENDBRANCH  17  20
ENDBRANCH   1  12
BRANCH   2  22
ATOM     22  O   UNL     1       9.435   0.664  30.167  1.00  0.00    -0.502 OA
ATOM     23  H   UNL     1       9.072   1.366  29.533  1.00  0.00     0.293 HD
ENDBRANCH   2  22
BRANCH   6  24
ATOM     24  O   UNL     1      12.880  -0.252  26.210  1.00  0.00    -0.507 OA
ATOM     25  H   UNL     1      12.923  -0.749  25.333  1.00  0.00     0.293 HD
ENDBRANCH   6  24
BRANCH   8  26
ATOM     26  O   UNL     1      16.314  -2.599  28.609  1.00  0.00    -0.508 OA
ATOM     27  H   UNL     1      16.694  -2.993  27.756  1.00  0.00     0.293 HD
ENDBRANCH   8  26
TORSDOF 6
ENDMDL
MODEL 8
REMARK VINA RESULT:    -6.281      3.982      6.448
REMARK INTER + INTRA:          -7.894
REMARK INTER:                  -7.680
REMARK INTRA:                  -0.214
REMARK UNBOUND:                -0.328
REMARK SMILES O=c1c(O)c(-c2ccc(O)c(O)c2)oc2cc(O)cc(O)c12
REMARK SMILES IDX 5 1 3 2 2 3 1 4 22 5 20 6 19 7 17 8 16 9 15 10 14 11 6 12
REMARK SMILES IDX 7 13 8 14 9 15 13 16 11 17 10 18 12 20 4 22 21 24 18 26
REMARK H PARENT 10 19 12 21 4 23 21 25 18 27
REMARK Flexibility Score: inf
ROOT
ATOM      1  C   UNL     1      13.329  -0.207  32.004  1.00  0.00     0.180 A 
ATOM      2  C   UNL     1      13.980  -1.154  31.193  1.00  0.00     0.208 A 
ATOM      3  C   UNL     1      13.655  -1.221  29.828  1.00  0.00     0.238 A 
ATOM      4  O   UNL     1      14.280  -2.033  29.097  1.00  0.00    -0.285 OA
ATOM      5  C   UNL     1      12.672  -0.352  29.295  1.00  0.00     0.111 A 
ATOM      6  C   UNL     1      12.235  -0.361  27.937  1.00  0.00     0.134 A 
ATOM      7  C   UNL     1      11.352   0.630  27.489  1.00  0.00     0.093 A 
ATOM      8  C   UNL     1      10.839   1.588  28.367  1.00  0.00     0.123 A 
ATOM      9  C   UNL     1      11.214   1.568  29.708  1.00  0.00     0.094 A 
ATOM     10  C   UNL     1      12.121   0.615  30.177  1.00  0.00     0.146 A 
ATOM     11  O   UNL     1      12.459   0.637  31.460  1.00  0.00    -0.452 OA
ENDROOT
BRANCH   1  12
ATOM     12  C   UNL     1      13.599  -0.093  33.454  1.00  0.00     0.025 A 
ATOM     13  C   UNL     1      12.631  -0.451  34.410  1.00  0.00     0.016 A 
ATOM     14  C   UNL     1      12.901  -0.312  35.774  1.00  0.00     0.051 A 
ATOM     15  C   UNL     1      14.133   0.199  36.204  1.00  0.00     0.157 A 
ATOM     16  C   UNL     1      14.825   0.438  33.890  1.00  0.00     0.062 A 
ATOM     17  C   UNL     1      15.098   0.578  35.256  1.00  0.00     0.158 A 
BRANCH  15  18
ATOM     18  O   UNL     1      14.399   0.334  37.565  1.00  0.00    -0.504 OA
ATOM     19  H   UNL     1      13.757   0.812  38.186  1.00  0.00     0.293 HD
ENDBRANCH  15  18
BRANCH  17  20
ATOM     20  O   UNL     1      16.331   1.095  35.650  1.00  0.00    -0.504 OA
ATOM     21  H   UNL     1      16.505   1.408  36.598  1.00  0.00     0.293 HD
ENDBRANCH  17  20
ENDBRANCH   1  12
BRANCH   2  22
ATOM     22  O   UNL     1      14.963  -1.987  31.736  1.00  0.00    -0.502 OA
ATOM     23  H   UNL     1      15.462  -2.672  31.181  1.00  0.00     0.293 HD
ENDBRANCH   2  22
BRANCH   6  24
ATOM     24  O   UNL     1      12.614  -1.328  27.001  1.00  0.00    -0.507 OA
ATOM     25  H   UNL     1      12.615  -2.322  27.170  1.00  0.00     0.293 HD
ENDBRANCH   6  24
BRANCH   8  26
ATOM     26  O   UNL     1       9.949   2.560  27.917  1.00  0.00    -0.508 OA
ATOM     27  H   UNL     1       9.868   3.459  28.377  1.00  0.00     0.293 HD
ENDBRANCH   8  26
TORSDOF 6
ENDMDL
MODEL 9
REMARK VINA RESULT:    -6.221      3.946      6.088
REMARK INTER + INTRA:          -7.822
REMARK INTER:                  -7.711
REMARK INTRA:                  -0.111
REMARK UNBOUND:                -0.328
REMARK SMILES O=c1c(O)c(-c2ccc(O)c(O)c2)oc2cc(O)cc(O)c12
REMARK SMILES IDX 5 1 3 2 2 3 1 4 22 5 20 6 19 7 17 8 16 9 15 10 14 11 6 12
REMARK SMILES IDX 7 13 8 14 9 15 13 16 11 17 10 18 12 20 4 22 21 24 18 26
REMARK H PARENT 10 19 12 21 4 23 21 25 18 27
REMARK Flexibility Score: inf
ROOT
ATOM      1  C   UNL     1      12.682   0.105  31.960  1.00  0.00     0.180 A 
ATOM      2  C   UNL     1      11.553   0.805  31.502  1.00  0.00     0.208 A 
ATOM      3  C   UNL     1      11.289   0.848  30.123  1.00  0.00     0.238 A 
ATOM      4  O   UNL     1      10.248   1.431  29.724  1.00  0.00    -0.285 OA
ATOM      5  C   UNL     1      12.167   0.203  29.219  1.00  0.00     0.111 A 
ATOM      6  C   UNL     1      12.021   0.216  27.800  1.00  0.00     0.134 A 
ATOM      7  C   UNL     1      12.874  -0.565  27.010  1.00  0.00     0.093 A 
ATOM      8  C   UNL     1      13.910  -1.306  27.585  1.00  0.00     0.123 A 
ATOM      9  C   UNL     1      14.098  -1.277  28.964  1.00  0.00     0.094 A 
ATOM     10  C   UNL     1      13.241  -0.537  29.781  1.00  0.00     0.146 A 
ATOM     11  O   UNL     1      13.449  -0.545  31.092  1.00  0.00    -0.452 OA
ENDROOT
BRANCH   1  12
ATOM     12  C   UNL     1      13.038   0.036  33.395  1.00  0.00     0.025 A 
ATOM     13  C   UNL     1      12.161  -0.526  34.341  1.00  0.00     0.016 A 
ATOM     14  C   UNL     1      12.508  -0.558  35.694  1.00  0.00     0.051 A 
ATOM     15  C   UNL     1      13.729  -0.019  36.125  1.00  0.00     0.157 A 
ATOM     16  C   UNL     1      14.250   0.594  33.835  1.00  0.00     0.062 A 
ATOM     17  C   UNL     1      14.601   0.562  35.190  1.00  0.00     0.158 A 
BRANCH  15  18
ATOM     18  O   UNL     1      14.072  -0.055  37.475  1.00  0.00    -0.504 OA
ATOM     19  H   UNL     1      13.584  -0.653  38.131  1.00  0.00     0.293 HD
ENDBRANCH  15  18
BRANCH  17  20
ATOM     20  O   UNL     1      15.819   1.113  35.587  1.00  0.00    -0.504 OA
ATOM     21  H   UNL     1      15.904   2.081  35.871  1.00  0.00     0.293 HD
ENDBRANCH  17  20
ENDBRANCH   1  12
BRANCH   2  22
ATOM     22  O   UNL     1      10.687   1.416  32.414  1.00  0.00    -0.502 OA
ATOM     23  H   UNL     1      10.469   1.009  33.316  1.00  0.00     0.293 HD
ENDBRANCH   2  22
BRANCH   6  24
ATOM     24  O   UNL     1      11.078   0.992  27.119  1.00  0.00    -0.507 OA
ATOM     25  H   UNL     1      10.118   0.723  26.962  1.00  0.00     0.293 HD
ENDBRANCH   6  24
BRANCH   8  26
ATOM     26  O   UNL     1      14.765  -2.067  26.790  1.00  0.00    -0.508 OA
ATOM     27  H   UNL     1      14.520  -3.006  26.498  1.00  0.00     0.293 HD
ENDBRANCH   8  26
TORSDOF 6
ENDMDL
