MODEL 1
REMARK VINA RESULT:    -3.525      0.000      0.000
REMARK INTER + INTRA:          -7.760
REMARK INTER:                  -5.998
REMARK INTRA:                  -1.762
REMARK UNBOUND:                -1.762
REMARK SMILES CCCCCCCCCCCCCC(=O)[O-]
REMARK SMILES IDX 8 1 9 2 10 3 11 4 12 5 13 6 14 7 15 8 16 9 7 10 6 11 5 12
REMARK SMILES IDX 4 13 3 14 2 15 1 16
REMARK H PARENT
REMARK Flexibility Score: inf
ROOT
ATOM      1  C   UNL     1      10.619   1.478 -10.001  1.00  0.00     0.000 C 
ENDROOT
BRANCH   1   2
ATOM      2  C   UNL     1       9.286   1.935 -10.606  1.00  0.00     0.000 C 
BRANCH   2   3
ATOM      3  C   UNL     1       8.522   0.751 -11.212  1.00  0.00     0.000 C 
BRANCH   3   4
ATOM      4  C   UNL     1       7.060   1.128 -11.496  1.00  0.00     0.000 C 
BRANCH   4   5
ATOM      5  C   UNL     1       6.638   2.429 -10.795  1.00  0.00     0.006 C 
BRANCH   5   6
ATOM      6  C   UNL     1       5.796   3.340 -11.698  1.00  0.00     0.053 C 
BRANCH   6   7
ATOM      7  C   UNL     1       4.516   3.708 -11.018  1.00  0.00     0.041 C 
ATOM      8  O   UNL     1       3.809   2.820 -10.473  1.00  0.00    -0.550 OA
ATOM      9  O   UNL     1       4.127   5.040 -10.940  1.00  0.00    -0.550 OA
ENDBRANCH   6   7
ENDBRANCH   5   6
ENDBRANCH   4   5
ENDBRANCH   3   4
ENDBRANCH   2   3
ENDBRANCH   1   2
BRANCH   1  10
ATOM     10  C   UNL     1      10.850   2.118  -8.627  1.00  0.00     0.000 C 
BRANCH  10  11
ATOM     11  C   UNL     1       9.527   2.264  -7.860  1.00  0.00    -0.000 C 
BRANCH  11  12
ATOM     12  C   UNL     1       9.416   1.291  -6.677  1.00  0.00    -0.000 C 
BRANCH  12  13
ATOM     13  C   UNL     1       8.514   0.085  -6.983  1.00  0.00    -0.000 C 
BRANCH  13  14
ATOM     14  C   UNL     1       7.240   0.526  -7.720  1.00  0.00    -0.000 C 
BRANCH  14  15
ATOM     15  C   UNL     1       6.345  -0.659  -8.113  1.00  0.00    -0.003 C 
ATOM     16  C   UNL     1       4.978  -0.218  -8.637  1.00  0.00     0.004 C 
ENDBRANCH  14  15
ENDBRANCH  13  14
ENDBRANCH  12  13
ENDBRANCH  11  12
ENDBRANCH  10  11
ENDBRANCH   1  10
TORSDOF 12
ENDMDL
MODEL 2
REMARK VINA RESULT:    -3.466      2.823      4.590
REMARK INTER + INTRA:          -7.659
REMARK INTER:                  -6.056
REMARK INTRA:                  -1.603
REMARK UNBOUND:                -1.762
REMARK SMILES CCCCCCCCCCCCCC(=O)[O-]
REMARK SMILES IDX 8 1 9 2 10 3 11 4 12 5 13 6 14 7 15 8 16 9 7 10 6 11 5 12
REMARK SMILES IDX 4 13 3 14 2 15 1 16
REMARK H PARENT
REMARK Flexibility Score: inf
ROOT
ATOM      1  C   UNL     1       9.389  -0.194  -6.978  1.00  0.00     0.000 C 
ENDROOT
BRANCH   1   2
ATOM      2  C   UNL     1       7.962  -0.670  -7.271  1.00  0.00     0.000 C 
BRANCH   2   3
ATOM      3  C   UNL     1       7.058   0.507  -7.661  1.00  0.00     0.000 C 
BRANCH   3   4
ATOM      4  C   UNL     1       5.758   0.010  -8.311  1.00  0.00     0.000 C 
BRANCH   4   5
ATOM      5  C   UNL     1       5.779  -1.500  -8.597  1.00  0.00     0.006 C 
BRANCH   5   6
ATOM      6  C   UNL     1       4.619  -2.245  -7.925  1.00  0.00     0.053 C 
BRANCH   6   7
ATOM      7  C   UNL     1       3.308  -1.694  -8.386  1.00  0.00     0.041 C 
ATOM      8  O   UNL     1       2.982  -1.764  -9.600  1.00  0.00    -0.550 OA
ATOM      9  O   UNL     1       2.421  -1.146  -7.467  1.00  0.00    -0.550 OA
ENDBRANCH   6   7
ENDBRANCH   5   6
ENDBRANCH   4   5
ENDBRANCH   3   4
ENDBRANCH   2   3
ENDBRANCH   1   2
BRANCH   1  10
ATOM     10  C   UNL     1       9.381   1.066  -6.103  1.00  0.00     0.000 C 
BRANCH  10  11
ATOM     11  C   UNL     1      10.427   2.079  -6.590  1.00  0.00    -0.000 C 
BRANCH  11  12
ATOM     12  C   UNL     1      10.102   2.646  -7.981  1.00  0.00    -0.000 C 
BRANCH  12  13
ATOM     13  C   UNL     1      11.272   2.507  -8.967  1.00  0.00    -0.000 C 
BRANCH  13  14
ATOM     14  C   UNL     1      10.783   1.993 -10.329  1.00  0.00    -0.000 C 
BRANCH  14  15
ATOM     15  C   UNL     1       9.266   1.750 -10.359  1.00  0.00    -0.003 C 
ATOM     16  C   UNL     1       8.901   0.346 -10.840  1.00  0.00     0.004 C 
ENDBRANCH  14  15
ENDBRANCH  13  14
ENDBRANCH  12  13
ENDBRANCH  11  12
ENDBRANCH  10  11
ENDBRANCH   1  10
TORSDOF 12
ENDMDL
MODEL 3
REMARK VINA RESULT:    -3.456      2.744      4.445
REMARK INTER + INTRA:          -7.642
REMARK INTER:                  -6.091
REMARK INTRA:                  -1.551
REMARK UNBOUND:                -1.762
REMARK SMILES CCCCCCCCCCCCCC(=O)[O-]
REMARK SMILES IDX 8 1 9 2 10 3 11 4 12 5 13 6 14 7 15 8 16 9 7 10 6 11 5 12
REMARK SMILES IDX 4 13 3 14 2 15 1 16
REMARK H PARENT
REMARK Flexibility Score: inf
ROOT
ATOM      1  C   UNL     1       6.846  -0.937  -7.882  1.00  0.00     0.000 C 
ENDROOT
BRANCH   1   2
ATOM      2  C   UNL     1       6.172   0.371  -8.312  1.00  0.00     0.000 C 
BRANCH   2   3
ATOM      3  C   UNL     1       5.925   0.391  -9.826  1.00  0.00     0.000 C 
BRANCH   3   4
ATOM      4  C   UNL     1       4.489   0.835 -10.143  1.00  0.00     0.000 C 
BRANCH   4   5
ATOM      5  C   UNL     1       3.638   1.033  -8.879  1.00  0.00     0.006 C 
BRANCH   5   6
ATOM      6  C   UNL     1       2.297   0.291  -8.947  1.00  0.00     0.053 C 
BRANCH   6   7
ATOM      7  C   UNL     1       2.299  -0.876  -8.011  1.00  0.00     0.041 C 
ATOM      8  O   UNL     1       1.310  -1.088  -7.261  1.00  0.00    -0.550 OA
ATOM      9  O   UNL     1       3.371  -1.760  -8.002  1.00  0.00    -0.550 OA
ENDBRANCH   6   7
ENDBRANCH   5   6
ENDBRANCH   4   5
ENDBRANCH   3   4
ENDBRANCH   2   3
ENDBRANCH   1   2
BRANCH   1  10
ATOM     10  C   UNL     1       8.220  -0.669  -7.257  1.00  0.00     0.000 C 
BRANCH  10  11
ATOM     11  C   UNL     1       8.334   0.787  -6.783  1.00  0.00    -0.000 C 
BRANCH  11  12
ATOM     12  C   UNL     1       9.778   1.311  -6.813  1.00  0.00    -0.000 C 
BRANCH  12  13
ATOM     13  C   UNL     1       9.946   2.536  -7.725  1.00  0.00    -0.000 C 
BRANCH  13  14
ATOM     14  C   UNL     1      10.559   2.134  -9.075  1.00  0.00    -0.000 C 
BRANCH  14  15
ATOM     15  C   UNL     1       9.495   1.842 -10.144  1.00  0.00    -0.003 C 
ATOM     16  C   UNL     1       9.528   0.393 -10.630  1.00  0.00     0.004 C 
ENDBRANCH  14  15
ENDBRANCH  13  14
ENDBRANCH  12  13
ENDBRANCH  11  12
ENDBRANCH  10  11
ENDBRANCH   1  10
TORSDOF 12
ENDMDL
MODEL 4
REMARK VINA RESULT:    -3.451      1.563      3.612
REMARK INTER + INTRA:          -7.633
REMARK INTER:                  -6.204
REMARK INTRA:                  -1.430
REMARK UNBOUND:                -1.762
REMARK SMILES CCCCCCCCCCCCCC(=O)[O-]
REMARK SMILES IDX 8 1 9 2 10 3 11 4 12 5 13 6 14 7 15 8 16 9 7 10 6 11 5 12
REMARK SMILES IDX 4 13 3 14 2 15 1 16
REMARK H PARENT
REMARK Flexibility Score: inf
ROOT
ATOM      1  C   UNL     1       9.324   0.208  -6.447  1.00  0.00     0.000 C 
ENDROOT
BRANCH   1   2
ATOM      2  C   UNL     1       7.990   0.303  -7.196  1.00  0.00     0.000 C 
BRANCH   2   3
ATOM      3  C   UNL     1       7.463  -1.091  -7.561  1.00  0.00     0.000 C 
BRANCH   3   4
ATOM      4  C   UNL     1       6.294  -0.994  -8.553  1.00  0.00     0.000 C 
BRANCH   4   5
ATOM      5  C   UNL     1       5.475   0.295  -8.378  1.00  0.00     0.006 C 
BRANCH   5   6
ATOM      6  C   UNL     1       4.038   0.156  -8.894  1.00  0.00     0.053 C 
BRANCH   6   7
ATOM      7  C   UNL     1       3.729   1.239  -9.878  1.00  0.00     0.041 C 
ATOM      8  O   UNL     1       4.298   1.255 -11.001  1.00  0.00    -0.550 OA
ATOM      9  O   UNL     1       2.776   2.203  -9.576  1.00  0.00    -0.550 OA
ENDBRANCH   6   7
ENDBRANCH   5   6
ENDBRANCH   4   5
ENDBRANCH   3   4
ENDBRANCH   2   3
ENDBRANCH   1   2
BRANCH   1  10
ATOM     10  C   UNL     1       9.889   1.602  -6.148  1.00  0.00     0.000 C 
BRANCH  10  11
ATOM     11  C   UNL     1       9.831   2.497  -7.395  1.00  0.00    -0.000 C 
BRANCH  11  12
ATOM     12  C   UNL     1      11.219   2.767  -7.997  1.00  0.00    -0.000 C 
BRANCH  12  13
ATOM     13  C   UNL     1      11.281   2.470  -9.503  1.00  0.00    -0.000 C 
BRANCH  13  14
ATOM     14  C   UNL     1      10.168   1.494  -9.915  1.00  0.00    -0.000 C 
BRANCH  14  15
ATOM     15  C   UNL     1       9.250   2.070 -11.003  1.00  0.00    -0.003 C 
ATOM     16  C   UNL     1       7.768   1.951 -10.650  1.00  0.00     0.004 C 
ENDBRANCH  14  15
ENDBRANCH  13  14
ENDBRANCH  12  13
ENDBRANCH  11  12
ENDBRANCH  10  11
ENDBRANCH   1  10
TORSDOF 12
ENDMDL
MODEL 5
REMARK VINA RESULT:    -3.438      3.955      5.578
REMARK INTER + INTRA:          -7.612
REMARK INTER:                  -5.957
REMARK INTRA:                  -1.656
REMARK UNBOUND:                -1.762
REMARK SMILES CCCCCCCCCCCCCC(=O)[O-]
REMARK SMILES IDX 8 1 9 2 10 3 11 4 12 5 13 6 14 7 15 8 16 9 7 10 6 11 5 12
REMARK SMILES IDX 4 13 3 14 2 15 1 16
REMARK H PARENT
REMARK Flexibility Score: inf
ROOT
ATOM      1  C   UNL     1       8.664  -0.615  -6.945  1.00  0.00     0.000 C 
ENDROOT
BRANCH   1   2
ATOM      2  C   UNL     1       7.620   0.466  -7.247  1.00  0.00     0.000 C 
BRANCH   2   3
ATOM      3  C   UNL     1       6.756   0.076  -8.453  1.00  0.00     0.000 C 
BRANCH   3   4
ATOM      4  C   UNL     1       7.028  -1.375  -8.876  1.00  0.00     0.000 C 
BRANCH   4   5
ATOM      5  C   UNL     1       5.741  -2.207  -8.999  1.00  0.00     0.006 C 
BRANCH   5   6
ATOM      6  C   UNL     1       5.268  -2.766  -7.651  1.00  0.00     0.053 C 
BRANCH   6   7
ATOM      7  C   UNL     1       5.125  -4.253  -7.725  1.00  0.00     0.041 C 
ATOM      8  O   UNL     1       6.035  -5.000  -7.279  1.00  0.00    -0.550 OA
ATOM      9  O   UNL     1       3.963  -4.816  -8.240  1.00  0.00    -0.550 OA
ENDBRANCH   6   7
ENDBRANCH   5   6
ENDBRANCH   4   5
ENDBRANCH   3   4
ENDBRANCH   2   3
ENDBRANCH   1   2
BRANCH   1  10
ATOM     10  C   UNL     1       9.836  -0.040  -6.139  1.00  0.00     0.000 C 
BRANCH  10  11
ATOM     11  C   UNL     1       9.658   1.468  -5.911  1.00  0.00    -0.000 C 
BRANCH  11  12
ATOM     12  C   UNL     1      10.880   2.284  -6.361  1.00  0.00    -0.000 C 
BRANCH  12  13
ATOM     13  C   UNL     1      10.592   3.152  -7.596  1.00  0.00    -0.000 C 
BRANCH  13  14
ATOM     14  C   UNL     1      11.062   2.450  -8.880  1.00  0.00    -0.000 C 
BRANCH  14  15
ATOM     15  C   UNL     1       9.905   1.809  -9.661  1.00  0.00    -0.003 C 
ATOM     16  C   UNL     1      10.241   0.408 -10.172  1.00  0.00     0.004 C 
ENDBRANCH  14  15
ENDBRANCH  13  14
ENDBRANCH  12  13
ENDBRANCH  11  12
ENDBRANCH  10  11
ENDBRANCH   1  10
TORSDOF 12
ENDMDL
MODEL 6
REMARK VINA RESULT:    -3.408      2.596      4.948
REMARK INTER + INTRA:          -7.561
REMARK INTER:                  -6.729
REMARK INTRA:                  -0.833
REMARK UNBOUND:                -1.762
REMARK SMILES CCCCCCCCCCCCCC(=O)[O-]
REMARK SMILES IDX 8 1 9 2 10 3 11 4 12 5 13 6 14 7 15 8 16 9 7 10 6 11 5 12
REMARK SMILES IDX 4 13 3 14 2 15 1 16
REMARK H PARENT
REMARK Flexibility Score: inf
ROOT
ATOM      1  C   UNL     1       6.325  -1.019  -8.227  1.00  0.00     0.000 C 
ENDROOT
BRANCH   1   2
ATOM      2  C   UNL     1       5.604   0.318  -8.442  1.00  0.00     0.000 C 
BRANCH   2   3
ATOM      3  C   UNL     1       4.136   0.095  -8.826  1.00  0.00     0.000 C 
BRANCH   3   4
ATOM      4  C   UNL     1       3.616  -1.235  -8.261  1.00  0.00     0.000 C 
BRANCH   4   5
ATOM      5  C   UNL     1       2.131  -1.171  -7.868  1.00  0.00     0.006 C 
BRANCH   5   6
ATOM      6  C   UNL     1       1.386  -0.023  -8.559  1.00  0.00     0.053 C 
BRANCH   6   7
ATOM      7  C   UNL     1       0.791   0.899  -7.542  1.00  0.00     0.041 C 
ATOM      8  O   UNL     1       0.025   0.450  -6.650  1.00  0.00    -0.550 OA
ATOM      9  O   UNL     1       1.124   2.248  -7.547  1.00  0.00    -0.550 OA
ENDBRANCH   6   7
ENDBRANCH   5   6
ENDBRANCH   4   5
ENDBRANCH   3   4
ENDBRANCH   2   3
ENDBRANCH   1   2
BRANCH   1  10
ATOM     10  C   UNL     1       7.769  -0.797  -7.759  1.00  0.00     0.000 C 
BRANCH  10  11
ATOM     11  C   UNL     1       7.940   0.602  -7.148  1.00  0.00    -0.000 C 
BRANCH  11  12
ATOM     12  C   UNL     1       9.113   1.379  -7.765  1.00  0.00    -0.000 C 
BRANCH  12  13
ATOM     13  C   UNL     1       8.829   1.839  -9.203  1.00  0.00    -0.000 C 
BRANCH  13  14
ATOM     14  C   UNL     1      10.032   1.559 -10.116  1.00  0.00    -0.000 C 
BRANCH  14  15
ATOM     15  C   UNL     1       9.892   2.216 -11.498  1.00  0.00    -0.003 C 
ATOM     16  C   UNL     1       8.437   2.494 -11.875  1.00  0.00     0.004 C 
ENDBRANCH  14  15
ENDBRANCH  13  14
ENDBRANCH  12  13
ENDBRANCH  11  12
ENDBRANCH  10  11
ENDBRANCH   1  10
TORSDOF 12
ENDMDL
MODEL 7
REMARK VINA RESULT:    -3.360      3.803      5.286
REMARK INTER + INTRA:          -7.479
REMARK INTER:                  -6.006
REMARK INTRA:                  -1.472
REMARK UNBOUND:                -1.762
REMARK SMILES CCCCCCCCCCCCCC(=O)[O-]
REMARK SMILES IDX 8 1 9 2 10 3 11 4 12 5 13 6 14 7 15 8 16 9 7 10 6 11 5 12
REMARK SMILES IDX 4 13 3 14 2 15 1 16
REMARK H PARENT
REMARK Flexibility Score: inf
ROOT
ATOM      1  C   UNL     1       9.018   0.983 -10.009  1.00  0.00     0.000 C 
ENDROOT
BRANCH   1   2
ATOM      2  C   UNL     1      10.048   2.100  -9.798  1.00  0.00     0.000 C 
BRANCH   2   3
ATOM      3  C   UNL     1      11.273   1.582  -9.033  1.00  0.00     0.000 C 
BRANCH   3   4
ATOM      4  C   UNL     1      11.141   1.864  -7.529  1.00  0.00     0.000 C 
BRANCH   4   5
ATOM      5  C   UNL     1      10.409   3.183  -7.236  1.00  0.00     0.006 C 
BRANCH   5   6
ATOM      6  C   UNL     1      11.363   4.380  -7.140  1.00  0.00     0.053 C 
BRANCH   6   7
ATOM      7  C   UNL     1      11.417   4.893  -5.737  1.00  0.00     0.041 C 
ATOM      8  O   UNL     1      11.376   6.132  -5.513  1.00  0.00    -0.550 OA
ATOM      9  O   UNL     1      11.460   4.003  -4.671  1.00  0.00    -0.550 OA
ENDBRANCH   6   7
ENDBRANCH   5   6
ENDBRANCH   4   5
ENDBRANCH   3   4
ENDBRANCH   2   3
ENDBRANCH   1   2
BRANCH   1  10
ATOM     10  C   UNL     1       7.625   1.422  -9.541  1.00  0.00     0.000 C 
BRANCH  10  11
ATOM     11  C   UNL     1       7.038   0.414  -8.543  1.00  0.00    -0.000 C 
BRANCH  11  12
ATOM     12  C   UNL     1       7.787   0.401  -7.202  1.00  0.00    -0.000 C 
BRANCH  12  13
ATOM     13  C   UNL     1       8.606  -0.883  -6.992  1.00  0.00    -0.000 C 
BRANCH  13  14
ATOM     14  C   UNL     1       8.060  -2.028  -7.859  1.00  0.00    -0.000 C 
BRANCH  14  15
ATOM     15  C   UNL     1       7.303  -3.082  -7.036  1.00  0.00    -0.003 C 
ATOM     16  C   UNL     1       5.846  -3.236  -7.471  1.00  0.00     0.004 C 
ENDBRANCH  14  15
ENDBRANCH  13  14
ENDBRANCH  12  13
ENDBRANCH  11  12
ENDBRANCH  10  11
ENDBRANCH   1  10
TORSDOF 12
ENDMDL
MODEL 8
REMARK VINA RESULT:    -3.338      2.733      4.681
REMARK INTER + INTRA:          -7.442
REMARK INTER:                  -5.752
REMARK INTRA:                  -1.690
REMARK UNBOUND:                -1.762
REMARK SMILES CCCCCCCCCCCCCC(=O)[O-]
REMARK SMILES IDX 8 1 9 2 10 3 11 4 12 5 13 6 14 7 15 8 16 9 7 10 6 11 5 12
REMARK SMILES IDX 4 13 3 14 2 15 1 16
REMARK H PARENT
REMARK Flexibility Score: inf
ROOT
ATOM      1  C   UNL     1       8.495   0.655  -6.854  1.00  0.00     0.000 C 
ENDROOT
BRANCH   1   2
ATOM      2  C   UNL     1       8.191  -0.770  -7.329  1.00  0.00     0.000 C 
BRANCH   2   3
ATOM      3  C   UNL     1       6.757  -0.879  -7.863  1.00  0.00     0.000 C 
BRANCH   3   4
ATOM      4  C   UNL     1       6.219   0.500  -8.276  1.00  0.00     0.000 C 
BRANCH   4   5
ATOM      5  C   UNL     1       6.271   0.724  -9.796  1.00  0.00     0.006 C 
BRANCH   5   6
ATOM      6  C   UNL     1       7.182   1.893 -10.190  1.00  0.00     0.053 C 
BRANCH   6   7
ATOM      7  C   UNL     1       8.463   1.383 -10.770  1.00  0.00     0.041 C 
ATOM      8  O   UNL     1       9.347   2.190 -11.161  1.00  0.00    -0.550 OA
ATOM      9  O   UNL     1       8.704   0.016 -10.833  1.00  0.00    -0.550 OA
ENDBRANCH   6   7
ENDBRANCH   5   6
ENDBRANCH   4   5
ENDBRANCH   3   4
ENDBRANCH   2   3
ENDBRANCH   1   2
BRANCH   1  10
ATOM     10  C   UNL     1       9.868   1.121  -7.353  1.00  0.00     0.000 C 
BRANCH  10  11
ATOM     11  C   UNL     1       9.874   2.634  -7.614  1.00  0.00    -0.000 C 
BRANCH  11  12
ATOM     12  C   UNL     1      11.226   3.288  -7.288  1.00  0.00    -0.000 C 
BRANCH  12  13
ATOM     13  C   UNL     1      11.218   4.023  -5.938  1.00  0.00    -0.000 C 
BRANCH  13  14
ATOM     14  C   UNL     1      11.820   3.143  -4.832  1.00  0.00    -0.000 C 
BRANCH  14  15
ATOM     15  C   UNL     1      10.747   2.462  -3.968  1.00  0.00    -0.003 C 
ATOM     16  C   UNL     1      10.983   0.961  -3.807  1.00  0.00     0.004 C 
ENDBRANCH  14  15
ENDBRANCH  13  14
ENDBRANCH  12  13
ENDBRANCH  11  12
ENDBRANCH  10  11
ENDBRANCH   1  10
TORSDOF 12
ENDMDL
MODEL 9
REMARK VINA RESULT:    -3.310     11.558     13.810
REMARK INTER + INTRA:          -7.395
REMARK INTER:                  -5.572
REMARK INTRA:                  -1.823
REMARK UNBOUND:                -1.762
REMARK SMILES CCCCCCCCCCCCCC(=O)[O-]
REMARK SMILES IDX 8 1 9 2 10 3 11 4 12 5 13 6 14 7 15 8 16 9 7 10 6 11 5 12
REMARK SMILES IDX 4 13 3 14 2 15 1 16
REMARK H PARENT
REMARK Flexibility Score: inf
ROOT
ATOM      1  C   UNL     1       6.875  -2.163   2.325  1.00  0.00     0.000 C 
ENDROOT
BRANCH   1   2
ATOM      2  C   UNL     1       8.249  -2.381   1.680  1.00  0.00     0.000 C 
BRANCH   2   3
ATOM      3  C   UNL     1       8.108  -2.787   0.207  1.00  0.00     0.000 C 
BRANCH   3   4
ATOM      4  C   UNL     1       8.997  -3.997  -0.117  1.00  0.00     0.000 C 
BRANCH   4   5
ATOM      5  C   UNL     1       8.681  -5.217   0.763  1.00  0.00     0.006 C 
BRANCH   5   6
ATOM      6  C   UNL     1       7.943  -6.322  -0.003  1.00  0.00     0.053 C 
BRANCH   6   7
ATOM      7  C   UNL     1       6.549  -6.474   0.516  1.00  0.00     0.041 C 
ATOM      8  O   UNL     1       6.063  -5.609   1.292  1.00  0.00    -0.550 OA
ATOM      9  O   UNL     1       5.765  -7.545   0.103  1.00  0.00    -0.550 OA
ENDBRANCH   6   7
ENDBRANCH   5   6
ENDBRANCH   4   5
ENDBRANCH   3   4
ENDBRANCH   2   3
ENDBRANCH   1   2
BRANCH   1  10
ATOM     10  C   UNL     1       6.994  -1.335   3.610  1.00  0.00     0.000 C 
BRANCH  10  11
ATOM     11  C   UNL     1       8.467  -1.088   3.969  1.00  0.00    -0.000 C 
BRANCH  11  12
ATOM     12  C   UNL     1       8.763  -1.333   5.457  1.00  0.00    -0.000 C 
BRANCH  12  13
ATOM     13  C   UNL     1       8.617  -2.810   5.856  1.00  0.00    -0.000 C 
BRANCH  13  14
ATOM     14  C   UNL     1       9.548  -3.699   5.018  1.00  0.00    -0.000 C 
BRANCH  14  15
ATOM     15  C   UNL     1       8.820  -4.907   4.408  1.00  0.00    -0.003 C 
ATOM     16  C   UNL     1       7.328  -4.927   4.739  1.00  0.00     0.004 C 
ENDBRANCH  14  15
ENDBRANCH  13  14
ENDBRANCH  12  13
ENDBRANCH  11  12
ENDBRANCH  10  11
ENDBRANCH   1  10
TORSDOF 12
ENDMDL
