MODEL 1
REMARK VINA RESULT:    -3.575      0.000      0.000
REMARK INTER + INTRA:          -4.487
REMARK INTER:                  -4.306
REMARK INTRA:                  -0.181
REMARK UNBOUND:                -0.181
REMARK SMILES OCC(O)CO
REMARK SMILES IDX 3 1 5 2 6 3 2 5 1 6 4 8
REMARK H PARENT 6 4 1 7 4 9
REMARK Flexibility Score: inf
ROOT
ATOM      1  C   UNL     1     -10.339  15.530  20.194  1.00  0.00     0.165 C 
ENDROOT
BRANCH   1   2
ATOM      2  C   UNL     1     -10.602  14.030  20.361  1.00  0.00     0.190 C 
BRANCH   2   3
ATOM      3  O   UNL     1      -9.391  13.328  20.280  1.00  0.00    -0.394 OA
ATOM      4  H   UNL     1      -9.047  13.265  21.209  1.00  0.00     0.210 HD
ENDBRANCH   2   3
ENDBRANCH   1   2
BRANCH   1   5
ATOM      5  C   UNL     1      -9.632  16.113  21.430  1.00  0.00     0.190 C 
BRANCH   5   6
ATOM      6  O   UNL     1      -9.232  15.098  22.312  1.00  0.00    -0.394 OA
ATOM      7  H   UNL     1     -10.042  14.818  22.813  1.00  0.00     0.210 HD
ENDBRANCH   5   6
ENDBRANCH   1   5
BRANCH   1   8
ATOM      8  O   UNL     1      -9.562  15.742  19.044  1.00  0.00    -0.388 OA
ATOM      9  H   UNL     1      -8.865  15.034  19.035  1.00  0.00     0.211 HD
ENDBRANCH   1   8
TORSDOF 5
ENDMDL
MODEL 2
REMARK VINA RESULT:    -3.535     18.613     18.990
REMARK INTER + INTRA:          -4.440
REMARK INTER:                  -4.222
REMARK INTRA:                  -0.217
REMARK UNBOUND:                -0.181
REMARK SMILES OCC(O)CO
REMARK SMILES IDX 3 1 5 2 6 3 2 5 1 6 4 8
REMARK H PARENT 6 4 1 7 4 9
REMARK Flexibility Score: inf
ROOT
ATOM      1  C   UNL     1       2.735  27.839  13.116  1.00  0.00     0.165 C 
ENDROOT
BRANCH   1   2
ATOM      2  C   UNL     1       2.540  26.807  12.001  1.00  0.00     0.190 C 
BRANCH   2   3
ATOM      3  O   UNL     1       1.261  26.243  12.101  1.00  0.00    -0.394 OA
ATOM      4  H   UNL     1       1.207  25.842  13.007  1.00  0.00     0.210 HD
ENDBRANCH   2   3
ENDBRANCH   1   2
BRANCH   1   5
ATOM      5  C   UNL     1       1.867  29.087  12.880  1.00  0.00     0.190 C 
BRANCH   5   6
ATOM      6  O   UNL     1       0.565  28.900  13.369  1.00  0.00    -0.394 OA
ATOM      7  H   UNL     1       0.629  28.899  14.359  1.00  0.00     0.210 HD
ENDBRANCH   5   6
ENDBRANCH   1   5
BRANCH   1   8
ATOM      8  O   UNL     1       2.419  27.255  14.353  1.00  0.00    -0.388 OA
ATOM      9  H   UNL     1       1.906  27.932  14.867  1.00  0.00     0.211 HD
ENDBRANCH   1   8
TORSDOF 5
ENDMDL
MODEL 3
REMARK VINA RESULT:    -3.427     17.863     18.650
REMARK INTER + INTRA:          -4.309
REMARK INTER:                  -4.087
REMARK INTRA:                  -0.222
REMARK UNBOUND:                -0.181
REMARK SMILES OCC(O)CO
REMARK SMILES IDX 3 1 5 2 6 3 2 5 1 6 4 8
REMARK H PARENT 6 4 1 7 4 9
REMARK Flexibility Score: inf
ROOT
ATOM      1  C   UNL     1       2.812  26.160  11.266  1.00  0.00     0.165 C 
ENDROOT
BRANCH   1   2
ATOM      2  C   UNL     1       1.779  25.030  11.240  1.00  0.00     0.190 C 
BRANCH   2   3
ATOM      3  O   UNL     1       0.578  25.478  11.806  1.00  0.00    -0.394 OA
ATOM      4  H   UNL     1       0.754  26.398  12.133  1.00  0.00     0.210 HD
ENDBRANCH   2   3
ENDBRANCH   1   2
BRANCH   1   5
ATOM      5  C   UNL     1       2.405  27.267  12.254  1.00  0.00     0.190 C 
BRANCH   5   6
ATOM      6  O   UNL     1       2.544  26.838  13.582  1.00  0.00    -0.394 OA
ATOM      7  H   UNL     1       2.338  25.867  13.593  1.00  0.00     0.210 HD
ENDBRANCH   5   6
ENDBRANCH   1   5
BRANCH   1   8
ATOM      8  O   UNL     1       4.068  25.636  11.614  1.00  0.00    -0.388 OA
ATOM      9  H   UNL     1       4.381  26.146  12.407  1.00  0.00     0.211 HD
ENDBRANCH   1   8
TORSDOF 5
ENDMDL
MODEL 4
REMARK VINA RESULT:    -3.418      0.722      2.599
REMARK INTER + INTRA:          -4.298
REMARK INTER:                  -4.274
REMARK INTRA:                  -0.024
REMARK UNBOUND:                -0.181
REMARK SMILES OCC(O)CO
REMARK SMILES IDX 3 1 5 2 6 3 2 5 1 6 4 8
REMARK H PARENT 6 4 1 7 4 9
REMARK Flexibility Score: inf
ROOT
ATOM      1  C   UNL     1     -10.547  14.921  20.613  1.00  0.00     0.165 C 
ENDROOT
BRANCH   1   2
ATOM      2  C   UNL     1     -10.220  15.868  21.772  1.00  0.00     0.190 C 
BRANCH   2   3
ATOM      3  O   UNL     1      -8.971  15.534  22.315  1.00  0.00    -0.394 OA
ATOM      4  H   UNL     1      -9.147  14.844  23.005  1.00  0.00     0.210 HD
ENDBRANCH   2   3
ENDBRANCH   1   2
BRANCH   1   5
ATOM      5  C   UNL     1     -10.807  15.700  19.313  1.00  0.00     0.190 C 
BRANCH   5   6
ATOM      6  O   UNL     1      -9.605  16.022  18.665  1.00  0.00    -0.394 OA
ATOM      7  H   UNL     1      -9.475  17.000  18.770  1.00  0.00     0.210 HD
ENDBRANCH   5   6
ENDBRANCH   1   5
BRANCH   1   8
ATOM      8  O   UNL     1      -9.486  14.018  20.435  1.00  0.00    -0.388 OA
ATOM      9  H   UNL     1      -9.848  13.111  20.616  1.00  0.00     0.211 HD
ENDBRANCH   1   8
TORSDOF 5
ENDMDL
MODEL 5
REMARK VINA RESULT:    -3.340     18.650     19.020
REMARK INTER + INTRA:          -4.204
REMARK INTER:                  -3.986
REMARK INTRA:                  -0.218
REMARK UNBOUND:                -0.181
REMARK SMILES OCC(O)CO
REMARK SMILES IDX 3 1 5 2 6 3 2 5 1 6 4 8
REMARK H PARENT 6 4 1 7 4 9
REMARK Flexibility Score: inf
ROOT
ATOM      1  C   UNL     1       2.015  28.750  13.243  1.00  0.00     0.165 C 
ENDROOT
BRANCH   1   2
ATOM      2  C   UNL     1       2.552  28.499  14.656  1.00  0.00     0.190 C 
BRANCH   2   3
ATOM      3  O   UNL     1       1.664  27.671  15.357  1.00  0.00    -0.394 OA
ATOM      4  H   UNL     1       2.208  27.201  16.041  1.00  0.00     0.210 HD
ENDBRANCH   2   3
ENDBRANCH   1   2
BRANCH   1   5
ATOM      5  C   UNL     1       2.357  27.583  12.301  1.00  0.00     0.190 C 
BRANCH   5   6
ATOM      6  O   UNL     1       2.737  26.441  13.023  1.00  0.00    -0.394 OA
ATOM      7  H   UNL     1       3.460  26.721  13.643  1.00  0.00     0.210 HD
ENDBRANCH   5   6
ENDBRANCH   1   5
BRANCH   1   8
ATOM      8  O   UNL     1       0.625  28.937  13.299  1.00  0.00    -0.388 OA
ATOM      9  H   UNL     1       0.448  29.866  12.994  1.00  0.00     0.211 HD
ENDBRANCH   1   8
TORSDOF 5
ENDMDL
MODEL 6
REMARK VINA RESULT:    -3.335     17.702     18.531
REMARK INTER + INTRA:          -4.198
REMARK INTER:                  -4.196
REMARK INTRA:                  -0.002
REMARK UNBOUND:                -0.181
REMARK SMILES OCC(O)CO
REMARK SMILES IDX 3 1 5 2 6 3 2 5 1 6 4 8
REMARK H PARENT 6 4 1 7 4 9
REMARK Flexibility Score: inf
ROOT
ATOM      1  C   UNL     1       2.340  25.576  11.122  1.00  0.00     0.165 C 
ENDROOT
BRANCH   1   2
ATOM      2  C   UNL     1       3.576  24.980  10.442  1.00  0.00     0.190 C 
BRANCH   2   3
ATOM      3  O   UNL     1       4.609  24.843  11.378  1.00  0.00    -0.394 OA
ATOM      4  H   UNL     1       4.202  24.415  12.176  1.00  0.00     0.210 HD
ENDBRANCH   2   3
ENDBRANCH   1   2
BRANCH   1   5
ATOM      5  C   UNL     1       1.154  24.598  11.081  1.00  0.00     0.190 C 
BRANCH   5   6
ATOM      6  O   UNL     1       0.039  25.123  11.751  1.00  0.00    -0.394 OA
ATOM      7  H   UNL     1      -0.459  25.673  11.091  1.00  0.00     0.210 HD
ENDBRANCH   5   6
ENDBRANCH   1   5
BRANCH   1   8
ATOM      8  O   UNL     1       2.652  25.906  12.451  1.00  0.00    -0.388 OA
ATOM      9  H   UNL     1       1.969  25.467  13.023  1.00  0.00     0.211 HD
ENDBRANCH   1   8
TORSDOF 5
ENDMDL
MODEL 7
REMARK VINA RESULT:    -3.330     18.387     19.007
REMARK INTER + INTRA:          -4.192
REMARK INTER:                  -3.969
REMARK INTRA:                  -0.222
REMARK UNBOUND:                -0.181
REMARK SMILES OCC(O)CO
REMARK SMILES IDX 3 1 5 2 6 3 2 5 1 6 4 8
REMARK H PARENT 6 4 1 7 4 9
REMARK Flexibility Score: inf
ROOT
ATOM      1  C   UNL     1       2.725  28.289  13.643  1.00  0.00     0.165 C 
ENDROOT
BRANCH   1   2
ATOM      2  C   UNL     1       1.749  28.986  12.690  1.00  0.00     0.190 C 
BRANCH   2   3
ATOM      3  O   UNL     1       0.499  29.119  13.311  1.00  0.00    -0.394 OA
ATOM      4  H   UNL     1      -0.102  28.469  12.861  1.00  0.00     0.210 HD
ENDBRANCH   2   3
ENDBRANCH   1   2
BRANCH   1   5
ATOM      5  C   UNL     1       2.342  28.534  15.112  1.00  0.00     0.190 C 
BRANCH   5   6
ATOM      6  O   UNL     1       1.514  27.512  15.599  1.00  0.00    -0.394 OA
ATOM      7  H   UNL     1       1.504  27.597  16.588  1.00  0.00     0.210 HD
ENDBRANCH   5   6
ENDBRANCH   1   5
BRANCH   1   8
ATOM      8  O   UNL     1       2.740  26.912  13.368  1.00  0.00    -0.388 OA
ATOM      9  H   UNL     1       3.694  26.639  13.323  1.00  0.00     0.211 HD
ENDBRANCH   1   8
TORSDOF 5
ENDMDL
MODEL 8
REMARK VINA RESULT:    -3.308     17.523     18.343
REMARK INTER + INTRA:          -4.165
REMARK INTER:                  -4.163
REMARK INTRA:                  -0.003
REMARK UNBOUND:                -0.181
REMARK SMILES OCC(O)CO
REMARK SMILES IDX 3 1 5 2 6 3 2 5 1 6 4 8
REMARK H PARENT 6 4 1 7 4 9
REMARK Flexibility Score: inf
ROOT
ATOM      1  C   UNL     1       2.121  25.364  11.707  1.00  0.00     0.165 C 
ENDROOT
BRANCH   1   2
ATOM      2  C   UNL     1       0.909  24.740  11.009  1.00  0.00     0.190 C 
BRANCH   2   3
ATOM      3  O   UNL     1      -0.196  24.766  11.870  1.00  0.00    -0.394 OA
ATOM      4  H   UNL     1      -0.953  24.378  11.358  1.00  0.00     0.210 HD
ENDBRANCH   2   3
ENDBRANCH   1   2
BRANCH   1   5
ATOM      5  C   UNL     1       3.291  25.559  10.728  1.00  0.00     0.190 C 
BRANCH   5   6
ATOM      6  O   UNL     1       4.510  25.186  11.312  1.00  0.00    -0.394 OA
ATOM      7  H   UNL     1       5.082  24.833  10.581  1.00  0.00     0.210 HD
ENDBRANCH   5   6
ENDBRANCH   1   5
BRANCH   1   8
ATOM      8  O   UNL     1       1.750  26.595  12.273  1.00  0.00    -0.388 OA
ATOM      9  H   UNL     1       1.024  26.404  12.923  1.00  0.00     0.211 HD
ENDBRANCH   1   8
TORSDOF 5
ENDMDL
MODEL 9
REMARK VINA RESULT:    -3.210     13.226     14.175
REMARK INTER + INTRA:          -4.047
REMARK INTER:                  -4.033
REMARK INTRA:                  -0.015
REMARK UNBOUND:                -0.181
REMARK SMILES OCC(O)CO
REMARK SMILES IDX 3 1 5 2 6 3 2 5 1 6 4 8
REMARK H PARENT 6 4 1 7 4 9
REMARK Flexibility Score: inf
ROOT
ATOM      1  C   UNL     1      -0.893  21.400  12.024  1.00  0.00     0.165 C 
ENDROOT
BRANCH   1   2
ATOM      2  C   UNL     1      -0.212  22.701  11.588  1.00  0.00     0.190 C 
BRANCH   2   3
ATOM      3  O   UNL     1      -0.743  23.776  12.314  1.00  0.00    -0.394 OA
ATOM      4  H   UNL     1       0.034  24.253  12.707  1.00  0.00     0.210 HD
ENDBRANCH   2   3
ENDBRANCH   1   2
BRANCH   1   5
ATOM      5  C   UNL     1      -2.341  21.652  12.476  1.00  0.00     0.190 C 
BRANCH   5   6
ATOM      6  O   UNL     1      -3.243  20.847  11.765  1.00  0.00    -0.394 OA
ATOM      7  H   UNL     1      -3.025  19.905  11.990  1.00  0.00     0.210 HD
ENDBRANCH   5   6
ENDBRANCH   1   5
BRANCH   1   8
ATOM      8  O   UNL     1      -0.868  20.482  10.962  1.00  0.00    -0.388 OA
ATOM      9  H   UNL     1      -1.534  20.798  10.295  1.00  0.00     0.211 HD
ENDBRANCH   1   8
TORSDOF 5
ENDMDL
