MODEL 1
REMARK VINA RESULT:    -3.882      0.000      0.000
REMARK INTER + INTRA:          -3.882
REMARK INTER:                  -3.882
REMARK INTRA:                   0.000
REMARK UNBOUND:                 0.000
REMARK SMILES CC1(C)O[C@]2(C)CC[C@H]1CC2
REMARK SMILES IDX 1 1 2 2 9 3 10 4 11 5 5 6 4 7 7 8 8 9 6 10 3 11
REMARK H PARENT
REMARK Flexibility Score: inf
ROOT
ATOM      1  C   UNL     1      52.872  13.911 112.996  1.00  0.00     0.042 C 
ATOM      2  C   UNL     1      52.105  13.263 111.823  1.00  0.00     0.066 C 
ATOM      3  C   UNL     1      51.494  11.873 112.255  1.00  0.00     0.021 C 
ATOM      4  C   UNL     1      50.786  11.248 111.030  1.00  0.00     0.009 C 
ATOM      5  C   UNL     1      51.760  11.240 109.828  1.00  0.00     0.035 C 
ATOM      6  C   UNL     1      53.151  11.775 110.274  1.00  0.00     0.066 C 
ATOM      7  O   UNL     1      53.013  13.125 110.720  1.00  0.00    -0.369 OA
ATOM      8  C   UNL     1      53.677  10.900 111.447  1.00  0.00     0.035 C 
ATOM      9  C   UNL     1      52.658  10.917 112.612  1.00  0.00     0.009 C 
ATOM     10  C   UNL     1      54.136  11.741 109.100  1.00  0.00     0.042 C 
ATOM     11  C   UNL     1      50.988  14.244 111.406  1.00  0.00     0.042 C 
ENDROOT
TORSDOF 0
ENDMDL
MODEL 2
REMARK VINA RESULT:    -3.797      1.053      3.297
REMARK INTER + INTRA:          -3.797
REMARK INTER:                  -3.797
REMARK INTRA:                   0.000
REMARK UNBOUND:                 0.000
REMARK SMILES CC1(C)O[C@]2(C)CC[C@H]1CC2
REMARK SMILES IDX 1 1 2 2 9 3 10 4 11 5 5 6 4 7 7 8 8 9 6 10 3 11
REMARK H PARENT
REMARK Flexibility Score: inf
ROOT
ATOM      1  C   UNL     1      53.229  10.882 108.738  1.00  0.00     0.042 C 
ATOM      2  C   UNL     1      53.082  11.317 110.212  1.00  0.00     0.066 C 
ATOM      3  C   UNL     1      51.783  10.689 110.852  1.00  0.00     0.021 C 
ATOM      4  C   UNL     1      51.659  11.199 112.308  1.00  0.00     0.009 C 
ATOM      5  C   UNL     1      51.765  12.742 112.317  1.00  0.00     0.035 C 
ATOM      6  C   UNL     1      51.869  13.272 110.857  1.00  0.00     0.066 C 
ATOM      7  O   UNL     1      53.054  12.752 110.253  1.00  0.00    -0.369 OA
ATOM      8  C   UNL     1      50.629  12.785 110.054  1.00  0.00     0.035 C 
ATOM      9  C   UNL     1      50.549  11.240 110.098  1.00  0.00     0.009 C 
ATOM     10  C   UNL     1      51.942  14.803 110.850  1.00  0.00     0.042 C 
ATOM     11  C   UNL     1      54.345  10.840 110.961  1.00  0.00     0.042 C 
ENDROOT
TORSDOF 0
ENDMDL
MODEL 3
REMARK VINA RESULT:    -3.672     14.633     15.891
REMARK INTER + INTRA:          -3.672
REMARK INTER:                  -3.672
REMARK INTRA:                   0.000
REMARK UNBOUND:                 0.000
REMARK SMILES CC1(C)O[C@]2(C)CC[C@H]1CC2
REMARK SMILES IDX 1 1 2 2 9 3 10 4 11 5 5 6 4 7 7 8 8 9 6 10 3 11
REMARK H PARENT
REMARK Flexibility Score: inf
ROOT
ATOM      1  C   UNL     1      39.789  19.468 107.534  1.00  0.00     0.042 C 
ATOM      2  C   UNL     1      39.893  20.644 106.540  1.00  0.00     0.066 C 
ATOM      3  C   UNL     1      39.012  20.373 105.260  1.00  0.00     0.021 C 
ATOM      4  C   UNL     1      39.195  21.555 104.280  1.00  0.00     0.009 C 
ATOM      5  C   UNL     1      40.706  21.796 104.049  1.00  0.00     0.035 C 
ATOM      6  C   UNL     1      41.532  20.715 104.804  1.00  0.00     0.066 C 
ATOM      7  O   UNL     1      41.277  20.823 106.204  1.00  0.00    -0.369 OA
ATOM      8  C   UNL     1      41.092  19.307 104.311  1.00  0.00     0.035 C 
ATOM      9  C   UNL     1      39.572  19.125 104.535  1.00  0.00     0.009 C 
ATOM     10  C   UNL     1      43.031  20.922 104.557  1.00  0.00     0.042 C 
ATOM     11  C   UNL     1      39.410  21.912 107.277  1.00  0.00     0.042 C 
ENDROOT
TORSDOF 0
ENDMDL
MODEL 4
REMARK VINA RESULT:    -3.663      1.211      2.683
REMARK INTER + INTRA:          -3.663
REMARK INTER:                  -3.663
REMARK INTRA:                   0.000
REMARK UNBOUND:                 0.000
REMARK SMILES CC1(C)O[C@]2(C)CC[C@H]1CC2
REMARK SMILES IDX 1 1 2 2 9 3 10 4 11 5 5 6 4 7 7 8 8 9 6 10 3 11
REMARK H PARENT
REMARK Flexibility Score: inf
ROOT
ATOM      1  C   UNL     1      54.132  10.888 111.086  1.00  0.00     0.042 C 
ATOM      2  C   UNL     1      53.358  12.222 111.034  1.00  0.00     0.066 C 
ATOM      3  C   UNL     1      52.457  12.396 112.318  1.00  0.00     0.021 C 
ATOM      4  C   UNL     1      51.668  13.719 112.187  1.00  0.00     0.009 C 
ATOM      5  C   UNL     1      50.945  13.748 110.819  1.00  0.00     0.035 C 
ATOM      6  C   UNL     1      51.178  12.403 110.073  1.00  0.00     0.066 C 
ATOM      7  O   UNL     1      52.575  12.236 109.830  1.00  0.00    -0.369 OA
ATOM      8  C   UNL     1      50.671  11.235 110.966  1.00  0.00     0.035 C 
ATOM      9  C   UNL     1      51.400  11.265 112.331  1.00  0.00     0.009 C 
ATOM     10  C   UNL     1      50.440  12.405 108.729  1.00  0.00     0.042 C 
ATOM     11  C   UNL     1      54.401  13.356 110.942  1.00  0.00     0.042 C 
ENDROOT
TORSDOF 0
ENDMDL
MODEL 5
REMARK VINA RESULT:    -3.631      1.223      2.974
REMARK INTER + INTRA:          -3.631
REMARK INTER:                  -3.631
REMARK INTRA:                   0.000
REMARK UNBOUND:                 0.000
REMARK SMILES CC1(C)O[C@]2(C)CC[C@H]1CC2
REMARK SMILES IDX 1 1 2 2 9 3 10 4 11 5 5 6 4 7 7 8 8 9 6 10 3 11
REMARK H PARENT
REMARK Flexibility Score: inf
ROOT
ATOM      1  C   UNL     1      52.049  13.252 108.749  1.00  0.00     0.042 C 
ATOM      2  C   UNL     1      52.247  12.234 109.893  1.00  0.00     0.066 C 
ATOM      3  C   UNL     1      51.011  12.248 110.873  1.00  0.00     0.021 C 
ATOM      4  C   UNL     1      51.286  11.252 112.024  1.00  0.00     0.009 C 
ATOM      5  C   UNL     1      52.671  11.560 112.642  1.00  0.00     0.035 C 
ATOM      6  C   UNL     1      53.282  12.821 111.965  1.00  0.00     0.066 C 
ATOM      7  O   UNL     1      53.468  12.561 110.573  1.00  0.00    -0.369 OA
ATOM      8  C   UNL     1      52.297  14.013 112.135  1.00  0.00     0.035 C 
ATOM      9  C   UNL     1      50.921  13.648 111.529  1.00  0.00     0.009 C 
ATOM     10  C   UNL     1      54.640  13.157 112.592  1.00  0.00     0.042 C 
ATOM     11  C   UNL     1      52.416  10.843 109.246  1.00  0.00     0.042 C 
ENDROOT
TORSDOF 0
ENDMDL
MODEL 6
REMARK VINA RESULT:    -3.571      1.195      2.289
REMARK INTER + INTRA:          -3.571
REMARK INTER:                  -3.571
REMARK INTRA:                   0.000
REMARK UNBOUND:                 0.000
REMARK SMILES CC1(C)O[C@]2(C)CC[C@H]1CC2
REMARK SMILES IDX 1 1 2 2 9 3 10 4 11 5 5 6 4 7 7 8 8 9 6 10 3 11
REMARK H PARENT
REMARK Flexibility Score: inf
ROOT
ATOM      1  C   UNL     1      54.350  13.992 110.841  1.00  0.00     0.042 C 
ATOM      2  C   UNL     1      53.251  13.252 111.633  1.00  0.00     0.066 C 
ATOM      3  C   UNL     1      53.722  11.795 112.014  1.00  0.00     0.021 C 
ATOM      4  C   UNL     1      52.567  11.085 112.757  1.00  0.00     0.009 C 
ATOM      5  C   UNL     1      51.273  11.202 111.916  1.00  0.00     0.035 C 
ATOM      6  C   UNL     1      51.584  11.912 110.567  1.00  0.00     0.066 C 
ATOM      7  O   UNL     1      52.060  13.232 110.831  1.00  0.00    -0.369 OA
ATOM      8  C   UNL     1      52.687  11.111 109.817  1.00  0.00     0.035 C 
ATOM      9  C   UNL     1      53.948  10.996 110.707  1.00  0.00     0.009 C 
ATOM     10  C   UNL     1      50.317  12.006 109.710  1.00  0.00     0.042 C 
ATOM     11  C   UNL     1      52.961  14.081 112.902  1.00  0.00     0.042 C 
ENDROOT
TORSDOF 0
ENDMDL
MODEL 7
REMARK VINA RESULT:    -3.559     14.025     15.991
REMARK INTER + INTRA:          -3.559
REMARK INTER:                  -3.559
REMARK INTRA:                   0.000
REMARK UNBOUND:                 0.000
REMARK SMILES CC1(C)O[C@]2(C)CC[C@H]1CC2
REMARK SMILES IDX 1 1 2 2 9 3 10 4 11 5 5 6 4 7 7 8 8 9 6 10 3 11
REMARK H PARENT
REMARK Flexibility Score: inf
ROOT
ATOM      1  C   UNL     1      39.394  17.906 103.701  1.00  0.00     0.042 C 
ATOM      2  C   UNL     1      40.385  18.698 104.580  1.00  0.00     0.066 C 
ATOM      3  C   UNL     1      39.617  19.507 105.697  1.00  0.00     0.021 C 
ATOM      4  C   UNL     1      40.651  20.320 106.511  1.00  0.00     0.009 C 
ATOM      5  C   UNL     1      41.534  21.139 105.539  1.00  0.00     0.035 C 
ATOM      6  C   UNL     1      41.031  20.943 104.080  1.00  0.00     0.066 C 
ATOM      7  O   UNL     1      41.145  19.565 103.725  1.00  0.00    -0.369 OA
ATOM      8  C   UNL     1      39.537  21.370 103.998  1.00  0.00     0.035 C 
ATOM      9  C   UNL     1      38.701  20.547 105.007  1.00  0.00     0.009 C 
ATOM     10  C   UNL     1      41.877  21.775 103.110  1.00  0.00     0.042 C 
ATOM     11  C   UNL     1      41.354  17.678 105.214  1.00  0.00     0.042 C 
ENDROOT
TORSDOF 0
ENDMDL
MODEL 8
REMARK VINA RESULT:    -3.559      1.464      2.659
REMARK INTER + INTRA:          -3.559
REMARK INTER:                  -3.559
REMARK INTRA:                   0.000
REMARK UNBOUND:                 0.000
REMARK SMILES CC1(C)O[C@]2(C)CC[C@H]1CC2
REMARK SMILES IDX 1 1 2 2 9 3 10 4 11 5 5 6 4 7 7 8 8 9 6 10 3 11
REMARK H PARENT
REMARK Flexibility Score: inf
ROOT
ATOM      1  C   UNL     1      53.991  10.632 111.470  1.00  0.00     0.042 C 
ATOM      2  C   UNL     1      52.626  11.336 111.310  1.00  0.00     0.066 C 
ATOM      3  C   UNL     1      51.726  10.575 110.260  1.00  0.00     0.021 C 
ATOM      4  C   UNL     1      50.397  11.351 110.101  1.00  0.00     0.009 C 
ATOM      5  C   UNL     1      50.708  12.838 109.806  1.00  0.00     0.035 C 
ATOM      6  C   UNL     1      52.246  13.038 109.677  1.00  0.00     0.066 C 
ATOM      7  O   UNL     1      52.869  12.694 110.915  1.00  0.00    -0.369 OA
ATOM      8  C   UNL     1      52.785  12.104 108.556  1.00  0.00     0.035 C 
ATOM      9  C   UNL     1      52.425  10.634 108.881  1.00  0.00     0.009 C 
ATOM     10  C   UNL     1      52.567  14.501 109.352  1.00  0.00     0.042 C 
ATOM     11  C   UNL     1      51.951  11.352 112.698  1.00  0.00     0.042 C 
ENDROOT
TORSDOF 0
ENDMDL
MODEL 9
REMARK VINA RESULT:    -3.472     14.378     16.032
REMARK INTER + INTRA:          -3.472
REMARK INTER:                  -3.472
REMARK INTRA:                   0.000
REMARK UNBOUND:                 0.000
REMARK SMILES CC1(C)O[C@]2(C)CC[C@H]1CC2
REMARK SMILES IDX 1 1 2 2 9 3 10 4 11 5 5 6 4 7 7 8 8 9 6 10 3 11
REMARK H PARENT
REMARK Flexibility Score: inf
ROOT
ATOM      1  C   UNL     1      38.531  20.963 107.381  1.00  0.00     0.042 C 
ATOM      2  C   UNL     1      39.843  20.914 106.569  1.00  0.00     0.066 C 
ATOM      3  C   UNL     1      39.645  21.569 105.146  1.00  0.00     0.021 C 
ATOM      4  C   UNL     1      40.971  21.445 104.360  1.00  0.00     0.009 C 
ATOM      5  C   UNL     1      41.444  19.972 104.391  1.00  0.00     0.035 C 
ATOM      6  C   UNL     1      40.387  19.094 105.120  1.00  0.00     0.066 C 
ATOM      7  O   UNL     1      40.255  19.542 106.469  1.00  0.00    -0.369 OA
ATOM      8  C   UNL     1      39.019  19.243 104.395  1.00  0.00     0.035 C 
ATOM      9  C   UNL     1      38.602  20.734 104.364  1.00  0.00     0.009 C 
ATOM     10  C   UNL     1      40.828  17.626 105.128  1.00  0.00     0.042 C 
ATOM     11  C   UNL     1      40.913  21.679 107.377  1.00  0.00     0.042 C 
ENDROOT
TORSDOF 0
ENDMDL
