MODEL 1
REMARK VINA RESULT:    -3.995      0.000      0.000
REMARK INTER + INTRA:          -7.398
REMARK INTER:                  -6.330
REMARK INTRA:                  -1.068
REMARK UNBOUND:                -1.068
REMARK SMILES CCCCCCCCCCCC(=O)[O-]
REMARK SMILES IDX 7 1 8 2 9 3 10 4 11 5 12 6 13 7 14 8 6 9 5 10 4 11 3 12 2 13
REMARK SMILES IDX 1 14
REMARK H PARENT
REMARK Flexibility Score: inf
ROOT
ATOM      1  C   UNL     1      27.257  57.767  25.730  1.00  0.00     0.000 C 
ENDROOT
BRANCH   1   2
ATOM      2  C   UNL     1      26.591  59.015  25.126  1.00  0.00     0.000 C 
BRANCH   2   3
ATOM      3  C   UNL     1      26.046  59.982  26.193  1.00  0.00     0.000 C 
BRANCH   3   4
ATOM      4  C   UNL     1      24.524  60.209  26.150  1.00  0.00     0.006 C 
BRANCH   4   5
ATOM      5  C   UNL     1      23.873  60.161  27.539  1.00  0.00     0.053 C 
BRANCH   5   6
ATOM      6  C   UNL     1      24.317  61.327  28.363  1.00  0.00     0.041 C 
ATOM      7  O   UNL     1      25.047  61.147  29.374  1.00  0.00    -0.550 OA
ATOM      8  O   UNL     1      23.968  62.619  27.988  1.00  0.00    -0.550 OA
ENDBRANCH   5   6
ENDBRANCH   4   5
ENDBRANCH   3   4
ENDBRANCH   2   3
ENDBRANCH   1   2
BRANCH   1   9
ATOM      9  C   UNL     1      26.570  56.458  25.283  1.00  0.00     0.000 C 
BRANCH   9  10
ATOM     10  C   UNL     1      25.566  56.651  24.131  1.00  0.00    -0.000 C 
BRANCH  10  11
ATOM     11  C   UNL     1      24.092  56.410  24.511  1.00  0.00    -0.000 C 
BRANCH  11  12
ATOM     12  C   UNL     1      23.759  56.622  26.002  1.00  0.00    -0.000 C 
BRANCH  12  13
ATOM     13  C   UNL     1      22.513  55.872  26.504  1.00  0.00    -0.003 C 
ATOM     14  C   UNL     1      21.882  54.979  25.437  1.00  0.00     0.004 C 
ENDBRANCH  12  13
ENDBRANCH  11  12
ENDBRANCH  10  11
ENDBRANCH   9  10
ENDBRANCH   1   9
TORSDOF 10
ENDMDL
MODEL 2
REMARK VINA RESULT:    -3.955      1.460      2.313
REMARK INTER + INTRA:          -7.335
REMARK INTER:                  -6.266
REMARK INTRA:                  -1.069
REMARK UNBOUND:                -1.068
REMARK SMILES CCCCCCCCCCCC(=O)[O-]
REMARK SMILES IDX 7 1 8 2 9 3 10 4 11 5 12 6 13 7 14 8 6 9 5 10 4 11 3 12 2 13
REMARK SMILES IDX 1 14
REMARK H PARENT
REMARK Flexibility Score: inf
ROOT
ATOM      1  C   UNL     1      26.503  56.447  25.073  1.00  0.00     0.000 C 
ENDROOT
BRANCH   1   2
ATOM      2  C   UNL     1      27.287  57.606  25.714  1.00  0.00     0.000 C 
BRANCH   2   3
ATOM      3  C   UNL     1      26.609  58.974  25.514  1.00  0.00     0.000 C 
BRANCH   3   4
ATOM      4  C   UNL     1      26.999  60.050  26.543  1.00  0.00     0.006 C 
BRANCH   4   5
ATOM      5  C   UNL     1      25.784  60.746  27.170  1.00  0.00     0.053 C 
BRANCH   5   6
ATOM      6  C   UNL     1      25.778  62.200  26.821  1.00  0.00     0.041 C 
ATOM      7  O   UNL     1      25.781  63.071  27.731  1.00  0.00    -0.550 OA
ATOM      8  O   UNL     1      25.820  62.597  25.490  1.00  0.00    -0.550 OA
ENDBRANCH   5   6
ENDBRANCH   4   5
ENDBRANCH   3   4
ENDBRANCH   2   3
ENDBRANCH   1   2
BRANCH   1   9
ATOM      9  C   UNL     1      25.476  56.937  24.030  1.00  0.00     0.000 C 
BRANCH   9  10
ATOM     10  C   UNL     1      24.057  56.381  24.252  1.00  0.00    -0.000 C 
BRANCH  10  11
ATOM     11  C   UNL     1      23.785  55.854  25.674  1.00  0.00    -0.000 C 
BRANCH  11  12
ATOM     12  C   UNL     1      22.857  56.739  26.532  1.00  0.00    -0.000 C 
BRANCH  12  13
ATOM     13  C   UNL     1      22.980  58.252  26.275  1.00  0.00    -0.003 C 
ATOM     14  C   UNL     1      22.379  59.099  27.396  1.00  0.00     0.004 C 
ENDBRANCH  12  13
ENDBRANCH  11  12
ENDBRANCH  10  11
ENDBRANCH   9  10
ENDBRANCH   1   9
TORSDOF 10
ENDMDL
MODEL 3
REMARK VINA RESULT:    -3.922     19.293     21.141
REMARK INTER + INTRA:          -7.283
REMARK INTER:                  -6.364
REMARK INTRA:                  -0.918
REMARK UNBOUND:                -1.068
REMARK SMILES CCCCCCCCCCCC(=O)[O-]
REMARK SMILES IDX 7 1 8 2 9 3 10 4 11 5 12 6 13 7 14 8 6 9 5 10 4 11 3 12 2 13
REMARK SMILES IDX 1 14
REMARK H PARENT
REMARK Flexibility Score: inf
ROOT
ATOM      1  C   UNL     1       8.929  57.392  42.026  1.00  0.00     0.000 C 
ENDROOT
BRANCH   1   2
ATOM      2  C   UNL     1       9.766  58.635  42.374  1.00  0.00     0.000 C 
BRANCH   2   3
ATOM      3  C   UNL     1       9.336  59.888  41.590  1.00  0.00     0.000 C 
BRANCH   3   4
ATOM      4  C   UNL     1      10.422  60.971  41.450  1.00  0.00     0.006 C 
BRANCH   4   5
ATOM      5  C   UNL     1      10.264  62.111  42.466  1.00  0.00     0.053 C 
BRANCH   5   6
ATOM      6  C   UNL     1       9.394  63.191  41.907  1.00  0.00     0.041 C 
ATOM      7  O   UNL     1       9.860  64.015  41.076  1.00  0.00    -0.550 OA
ATOM      8  O   UNL     1       8.053  63.259  42.265  1.00  0.00    -0.550 OA
ENDBRANCH   5   6
ENDBRANCH   4   5
ENDBRANCH   3   4
ENDBRANCH   2   3
ENDBRANCH   1   2
BRANCH   1   9
ATOM      9  C   UNL     1       9.773  56.099  42.010  1.00  0.00     0.000 C 
BRANCH   9  10
ATOM     10  C   UNL     1      11.249  56.321  42.388  1.00  0.00    -0.000 C 
BRANCH  10  11
ATOM     11  C   UNL     1      12.268  55.725  41.398  1.00  0.00    -0.000 C 
BRANCH  11  12
ATOM     12  C   UNL     1      13.524  56.587  41.155  1.00  0.00    -0.000 C 
BRANCH  12  13
ATOM     13  C   UNL     1      13.322  58.101  41.346  1.00  0.00    -0.003 C 
ATOM     14  C   UNL     1      13.419  58.887  40.040  1.00  0.00     0.004 C 
ENDBRANCH  12  13
ENDBRANCH  11  12
ENDBRANCH  10  11
ENDBRANCH   9  10
ENDBRANCH   1   9
TORSDOF 10
ENDMDL
MODEL 4
REMARK VINA RESULT:    -3.900      1.261      2.457
REMARK INTER + INTRA:          -7.247
REMARK INTER:                  -5.884
REMARK INTRA:                  -1.363
REMARK UNBOUND:                -1.068
REMARK SMILES CCCCCCCCCCCC(=O)[O-]
REMARK SMILES IDX 7 1 8 2 9 3 10 4 11 5 12 6 13 7 14 8 6 9 5 10 4 11 3 12 2 13
REMARK SMILES IDX 1 14
REMARK H PARENT
REMARK Flexibility Score: inf
ROOT
ATOM      1  C   UNL     1      26.222  56.646  24.685  1.00  0.00     0.000 C 
ENDROOT
BRANCH   1   2
ATOM      2  C   UNL     1      26.690  58.001  25.245  1.00  0.00     0.000 C 
BRANCH   2   3
ATOM      3  C   UNL     1      26.138  59.201  24.455  1.00  0.00     0.000 C 
BRANCH   3   4
ATOM      4  C   UNL     1      25.924  60.482  25.284  1.00  0.00     0.006 C 
BRANCH   4   5
ATOM      5  C   UNL     1      26.190  60.276  26.781  1.00  0.00     0.053 C 
BRANCH   5   6
ATOM      6  C   UNL     1      25.559  61.372  27.579  1.00  0.00     0.041 C 
ATOM      7  O   UNL     1      25.499  62.541  27.113  1.00  0.00    -0.550 OA
ATOM      8  O   UNL     1      24.991  61.095  28.816  1.00  0.00    -0.550 OA
ENDBRANCH   5   6
ENDBRANCH   4   5
ENDBRANCH   3   4
ENDBRANCH   2   3
ENDBRANCH   1   2
BRANCH   1   9
ATOM      9  C   UNL     1      24.701  56.614  24.418  1.00  0.00     0.000 C 
BRANCH   9  10
ATOM     10  C   UNL     1      23.887  55.973  25.557  1.00  0.00    -0.000 C 
BRANCH  10  11
ATOM     11  C   UNL     1      22.873  56.913  26.236  1.00  0.00    -0.000 C 
BRANCH  11  12
ATOM     12  C   UNL     1      22.753  58.314  25.599  1.00  0.00    -0.000 C 
BRANCH  12  13
ATOM     13  C   UNL     1      22.466  59.457  26.589  1.00  0.00    -0.003 C 
ATOM     14  C   UNL     1      22.362  58.982  28.037  1.00  0.00     0.004 C 
ENDBRANCH  12  13
ENDBRANCH  11  12
ENDBRANCH  10  11
ENDBRANCH   9  10
ENDBRANCH   1   9
TORSDOF 10
ENDMDL
MODEL 5
REMARK VINA RESULT:    -3.885      2.956      4.571
REMARK INTER + INTRA:          -7.223
REMARK INTER:                  -5.915
REMARK INTRA:                  -1.308
REMARK UNBOUND:                -1.068
REMARK SMILES CCCCCCCCCCCC(=O)[O-]
REMARK SMILES IDX 7 1 8 2 9 3 10 4 11 5 12 6 13 7 14 8 6 9 5 10 4 11 3 12 2 13
REMARK SMILES IDX 1 14
REMARK H PARENT
REMARK Flexibility Score: inf
ROOT
ATOM      1  C   UNL     1      25.655  60.929  27.593  1.00  0.00     0.000 C 
ENDROOT
BRANCH   1   2
ATOM      2  C   UNL     1      26.667  60.474  26.528  1.00  0.00     0.000 C 
BRANCH   2   3
ATOM      3  C   UNL     1      26.051  60.359  25.121  1.00  0.00     0.000 C 
BRANCH   3   4
ATOM      4  C   UNL     1      26.170  58.970  24.469  1.00  0.00     0.006 C 
BRANCH   4   5
ATOM      5  C   UNL     1      26.728  57.907  25.426  1.00  0.00     0.053 C 
BRANCH   5   6
ATOM      6  C   UNL     1      26.291  56.542  25.001  1.00  0.00     0.041 C 
ATOM      7  O   UNL     1      25.952  56.328  23.806  1.00  0.00    -0.550 OA
ATOM      8  O   UNL     1      26.305  55.491  25.910  1.00  0.00    -0.550 OA
ENDBRANCH   5   6
ENDBRANCH   4   5
ENDBRANCH   3   4
ENDBRANCH   2   3
ENDBRANCH   1   2
BRANCH   1   9
ATOM      9  C   UNL     1      24.193  60.763  27.125  1.00  0.00     0.000 C 
BRANCH   9  10
ATOM     10  C   UNL     1      23.304  60.008  28.130  1.00  0.00    -0.000 C 
BRANCH  10  11
ATOM     11  C   UNL     1      22.353  58.971  27.502  1.00  0.00    -0.000 C 
BRANCH  11  12
ATOM     12  C   UNL     1      22.463  58.829  25.969  1.00  0.00    -0.000 C 
BRANCH  12  13
ATOM     13  C   UNL     1      22.861  57.428  25.471  1.00  0.00    -0.003 C 
ATOM     14  C   UNL     1      22.777  56.361  26.560  1.00  0.00     0.004 C 
ENDBRANCH  12  13
ENDBRANCH  11  12
ENDBRANCH  10  11
ENDBRANCH   9  10
ENDBRANCH   1   9
TORSDOF 10
ENDMDL
MODEL 6
REMARK VINA RESULT:    -3.880     13.925     15.854
REMARK INTER + INTRA:          -7.217
REMARK INTER:                  -5.809
REMARK INTRA:                  -1.407
REMARK UNBOUND:                -1.068
REMARK SMILES CCCCCCCCCCCC(=O)[O-]
REMARK SMILES IDX 7 1 8 2 9 3 10 4 11 5 12 6 13 7 14 8 6 9 5 10 4 11 3 12 2 13
REMARK SMILES IDX 1 14
REMARK H PARENT
REMARK Flexibility Score: inf
ROOT
ATOM      1  C   UNL     1      20.916  49.925  39.168  1.00  0.00     0.000 C 
ENDROOT
BRANCH   1   2
ATOM      2  C   UNL     1      20.404  50.055  40.613  1.00  0.00     0.000 C 
BRANCH   2   3
ATOM      3  C   UNL     1      18.987  50.651  40.699  1.00  0.00     0.000 C 
BRANCH   3   4
ATOM      4  C   UNL     1      18.019  50.188  39.595  1.00  0.00     0.006 C 
BRANCH   4   5
ATOM      5  C   UNL     1      17.134  51.323  39.062  1.00  0.00     0.053 C 
BRANCH   5   6
ATOM      6  C   UNL     1      17.133  51.324  37.566  1.00  0.00     0.041 C 
ATOM      7  O   UNL     1      16.134  51.757  36.933  1.00  0.00    -0.550 OA
ATOM      8  O   UNL     1      18.256  50.894  36.869  1.00  0.00    -0.550 OA
ENDBRANCH   5   6
ENDBRANCH   4   5
ENDBRANCH   3   4
ENDBRANCH   2   3
ENDBRANCH   1   2
BRANCH   1   9
ATOM      9  C   UNL     1      22.434  50.181  39.055  1.00  0.00     0.000 C 
BRANCH   9  10
ATOM     10  C   UNL     1      22.889  51.498  39.710  1.00  0.00    -0.000 C 
BRANCH  10  11
ATOM     11  C   UNL     1      22.541  52.770  38.914  1.00  0.00    -0.000 C 
BRANCH  11  12
ATOM     12  C   UNL     1      21.360  53.590  39.475  1.00  0.00    -0.000 C 
BRANCH  12  13
ATOM     13  C   UNL     1      20.076  53.548  38.626  1.00  0.00    -0.003 C 
ATOM     14  C   UNL     1      20.343  53.710  37.131  1.00  0.00     0.004 C 
ENDBRANCH  12  13
ENDBRANCH  11  12
ENDBRANCH  10  11
ENDBRANCH   9  10
ENDBRANCH   1   9
TORSDOF 10
ENDMDL
MODEL 7
REMARK VINA RESULT:    -3.873      3.188      4.974
REMARK INTER + INTRA:          -7.205
REMARK INTER:                  -6.073
REMARK INTRA:                  -1.132
REMARK UNBOUND:                -1.068
REMARK SMILES CCCCCCCCCCCC(=O)[O-]
REMARK SMILES IDX 7 1 8 2 9 3 10 4 11 5 12 6 13 7 14 8 6 9 5 10 4 11 3 12 2 13
REMARK SMILES IDX 1 14
REMARK H PARENT
REMARK Flexibility Score: inf
ROOT
ATOM      1  C   UNL     1      26.197  59.057  25.407  1.00  0.00     0.000 C 
ENDROOT
BRANCH   1   2
ATOM      2  C   UNL     1      26.839  57.661  25.491  1.00  0.00     0.000 C 
BRANCH   2   3
ATOM      3  C   UNL     1      26.273  56.675  24.453  1.00  0.00     0.000 C 
BRANCH   3   4
ATOM      4  C   UNL     1      24.737  56.662  24.339  1.00  0.00     0.006 C 
BRANCH   4   5
ATOM      5  C   UNL     1      24.056  55.968  25.527  1.00  0.00     0.053 C 
BRANCH   5   6
ATOM      6  C   UNL     1      22.672  55.540  25.157  1.00  0.00     0.041 C 
ATOM      7  O   UNL     1      22.300  55.567  23.954  1.00  0.00    -0.550 OA
ATOM      8  O   UNL     1      21.806  55.062  26.134  1.00  0.00    -0.550 OA
ENDBRANCH   5   6
ENDBRANCH   4   5
ENDBRANCH   3   4
ENDBRANCH   2   3
ENDBRANCH   1   2
BRANCH   1   9
ATOM      9  C   UNL     1      26.871  60.072  26.356  1.00  0.00     0.000 C 
BRANCH   9  10
ATOM     10  C   UNL     1      25.891  60.748  27.333  1.00  0.00    -0.000 C 
BRANCH  10  11
ATOM     11  C   UNL     1      24.419  60.746  26.878  1.00  0.00    -0.000 C 
BRANCH  11  12
ATOM     12  C   UNL     1      23.451  59.974  27.799  1.00  0.00    -0.000 C 
BRANCH  12  13
ATOM     13  C   UNL     1      22.444  59.067  27.070  1.00  0.00    -0.003 C 
ATOM     14  C   UNL     1      22.398  59.313  25.564  1.00  0.00     0.004 C 
ENDBRANCH  12  13
ENDBRANCH  11  12
ENDBRANCH  10  11
ENDBRANCH   9  10
ENDBRANCH   1   9
TORSDOF 10
ENDMDL
MODEL 8
REMARK VINA RESULT:    -3.873      2.936      5.446
REMARK INTER + INTRA:          -7.205
REMARK INTER:                  -6.180
REMARK INTRA:                  -1.024
REMARK UNBOUND:                -1.068
REMARK SMILES CCCCCCCCCCCC(=O)[O-]
REMARK SMILES IDX 7 1 8 2 9 3 10 4 11 5 12 6 13 7 14 8 6 9 5 10 4 11 3 12 2 13
REMARK SMILES IDX 1 14
REMARK H PARENT
REMARK Flexibility Score: inf
ROOT
ATOM      1  C   UNL     1      27.154  60.074  26.335  1.00  0.00     0.000 C 
ENDROOT
BRANCH   1   2
ATOM      2  C   UNL     1      26.340  58.837  25.919  1.00  0.00     0.000 C 
BRANCH   2   3
ATOM      3  C   UNL     1      27.220  57.603  25.643  1.00  0.00     0.000 C 
BRANCH   3   4
ATOM      4  C   UNL     1      26.503  56.438  24.936  1.00  0.00     0.006 C 
BRANCH   4   5
ATOM      5  C   UNL     1      25.267  56.889  24.146  1.00  0.00     0.053 C 
BRANCH   5   6
ATOM      6  C   UNL     1      24.046  56.178  24.639  1.00  0.00     0.041 C 
ATOM      7  O   UNL     1      23.901  55.945  25.868  1.00  0.00    -0.550 OA
ATOM      8  O   UNL     1      23.044  55.817  23.747  1.00  0.00    -0.550 OA
ENDBRANCH   5   6
ENDBRANCH   4   5
ENDBRANCH   3   4
ENDBRANCH   2   3
ENDBRANCH   1   2
BRANCH   1   9
ATOM      9  C   UNL     1      26.671  61.361  25.631  1.00  0.00     0.000 C 
BRANCH   9  10
ATOM     10  C   UNL     1      25.146  61.416  25.426  1.00  0.00    -0.000 C 
BRANCH  10  11
ATOM     11  C   UNL     1      24.402  62.389  26.361  1.00  0.00    -0.000 C 
BRANCH  11  12
ATOM     12  C   UNL     1      23.452  61.721  27.376  1.00  0.00    -0.000 C 
BRANCH  12  13
ATOM     13  C   UNL     1      24.122  60.722  28.336  1.00  0.00    -0.003 C 
ATOM     14  C   UNL     1      25.187  61.366  29.222  1.00  0.00     0.004 C 
ENDBRANCH  12  13
ENDBRANCH  11  12
ENDBRANCH  10  11
ENDBRANCH   9  10
ENDBRANCH   1   9
TORSDOF 10
ENDMDL
MODEL 9
REMARK VINA RESULT:    -3.816     14.128     15.799
REMARK INTER + INTRA:          -7.114
REMARK INTER:                  -5.455
REMARK INTRA:                  -1.659
REMARK UNBOUND:                -1.068
REMARK SMILES CCCCCCCCCCCC(=O)[O-]
REMARK SMILES IDX 7 1 8 2 9 3 10 4 11 5 12 6 13 7 14 8 6 9 5 10 4 11 3 12 2 13
REMARK SMILES IDX 1 14
REMARK H PARENT
REMARK Flexibility Score: inf
ROOT
ATOM      1  C   UNL     1      22.535  50.384  39.085  1.00  0.00     0.000 C 
ENDROOT
BRANCH   1   2
ATOM      2  C   UNL     1      21.494  50.746  38.011  1.00  0.00     0.000 C 
BRANCH   2   3
ATOM      3  C   UNL     1      21.549  52.227  37.595  1.00  0.00     0.000 C 
BRANCH   3   4
ATOM      4  C   UNL     1      20.225  52.997  37.752  1.00  0.00     0.006 C 
BRANCH   4   5
ATOM      5  C   UNL     1      19.095  52.131  38.326  1.00  0.00     0.053 C 
BRANCH   5   6
ATOM      6  C   UNL     1      18.068  51.852  37.276  1.00  0.00     0.041 C 
ATOM      7  O   UNL     1      16.861  51.690  37.598  1.00  0.00    -0.550 OA
ATOM      8  O   UNL     1      18.433  51.820  35.936  1.00  0.00    -0.550 OA
ENDBRANCH   5   6
ENDBRANCH   4   5
ENDBRANCH   3   4
ENDBRANCH   2   3
ENDBRANCH   1   2
BRANCH   1   9
ATOM      9  C   UNL     1      23.116  51.631  39.786  1.00  0.00     0.000 C 
BRANCH   9  10
ATOM     10  C   UNL     1      22.598  51.829  41.222  1.00  0.00    -0.000 C 
BRANCH  10  11
ATOM     11  C   UNL     1      21.277  52.614  41.331  1.00  0.00    -0.000 C 
BRANCH  11  12
ATOM     12  C   UNL     1      20.086  51.814  41.898  1.00  0.00    -0.000 C 
BRANCH  12  13
ATOM     13  C   UNL     1      20.303  50.292  41.981  1.00  0.00    -0.003 C 
ATOM     14  C   UNL     1      19.453  49.512  40.980  1.00  0.00     0.004 C 
ENDBRANCH  12  13
ENDBRANCH  11  12
ENDBRANCH  10  11
ENDBRANCH   9  10
ENDBRANCH   1   9
TORSDOF 10
ENDMDL
