MODEL 1
REMARK VINA RESULT:    -6.868      0.000      0.000
REMARK INTER + INTRA:          -7.544
REMARK INTER:                  -7.270
REMARK INTRA:                  -0.274
REMARK UNBOUND:                -0.274
REMARK SMILES CC1=C[C@H]2C(=C(C)CC[C@H]2C(C)C)CC1
REMARK SMILES IDX 1 1 2 2 3 3 4 4 10 5 9 6 8 7 6 8 5 9 14 10 15 11 7 12 11 13
REMARK SMILES IDX 12 14 13 15
REMARK H PARENT
REMARK Flexibility Score: inf
ROOT
ATOM      1  C   UNL     1      -0.868  15.762   0.611  1.00  0.00     0.039 C 
ATOM      2  C   UNL     1       0.442  15.269   1.163  1.00  0.00    -0.076 C 
ATOM      3  C   UNL     1       0.466  14.138   1.892  1.00  0.00    -0.020 C 
ATOM      4  C   UNL     1       1.730  13.595   2.521  1.00  0.00     0.041 C 
ATOM      5  C   UNL     1       1.495  12.915   3.919  1.00  0.00     0.003 C 
ATOM      6  C   UNL     1       2.849  12.484   4.585  1.00  0.00     0.009 C 
ATOM      7  C   UNL     1       4.095  12.806   3.746  1.00  0.00     0.031 C 
ATOM      8  C   UNL     1       4.014  14.222   3.215  1.00  0.00    -0.073 C 
ATOM      9  C   UNL     1       2.873  14.605   2.587  1.00  0.00    -0.064 C 
ATOM     10  C   UNL     1       2.684  16.005   2.029  1.00  0.00     0.036 C 
ATOM     11  C   UNL     1       1.724  15.995   0.840  1.00  0.00     0.035 C 
ATOM     12  C   UNL     1       5.166  15.169   3.443  1.00  0.00     0.039 C 
ENDROOT
BRANCH   5  13
ATOM     13  C   UNL     1       0.613  13.699   4.962  1.00  0.00    -0.013 C 
ATOM     14  C   UNL     1       1.168  13.682   6.398  1.00  0.00     0.007 C 
ATOM     15  C   UNL     1      -0.868  13.292   4.958  1.00  0.00     0.007 C 
ENDBRANCH   5  13
TORSDOF 1
ENDMDL
MODEL 2
REMARK VINA RESULT:    -5.988      1.211      4.923
REMARK INTER + INTRA:          -6.612
REMARK INTER:                  -6.317
REMARK INTRA:                  -0.295
REMARK UNBOUND:                -0.274
REMARK SMILES CC1=C[C@H]2C(=C(C)CC[C@H]2C(C)C)CC1
REMARK SMILES IDX 1 1 2 2 3 3 4 4 10 5 9 6 8 7 6 8 5 9 14 10 15 11 7 12 11 13
REMARK SMILES IDX 12 14 13 15
REMARK H PARENT
REMARK Flexibility Score: inf
ROOT
ATOM      1  C   UNL     1       1.770  13.334   6.824  1.00  0.00     0.039 C 
ATOM      2  C   UNL     1       1.104  13.433   5.479  1.00  0.00    -0.076 C 
ATOM      3  C   UNL     1       1.849  13.315   4.364  1.00  0.00    -0.020 C 
ATOM      4  C   UNL     1       1.269  13.446   2.974  1.00  0.00     0.041 C 
ATOM      5  C   UNL     1       2.240  14.140   1.950  1.00  0.00     0.003 C 
ATOM      6  C   UNL     1       1.547  14.366   0.561  1.00  0.00     0.009 C 
ATOM      7  C   UNL     1       0.096  13.869   0.492  1.00  0.00     0.031 C 
ATOM      8  C   UNL     1      -0.668  14.320   1.719  1.00  0.00    -0.073 C 
ATOM      9  C   UNL     1      -0.116  14.088   2.937  1.00  0.00    -0.064 C 
ATOM     10  C   UNL     1      -0.793  14.511   4.230  1.00  0.00     0.036 C 
ATOM     11  C   UNL     1      -0.393  13.591   5.382  1.00  0.00     0.035 C 
ATOM     12  C   UNL     1      -1.978  15.051   1.553  1.00  0.00     0.039 C 
ENDROOT
BRANCH   5  13
ATOM     13  C   UNL     1       2.949  15.467   2.416  1.00  0.00    -0.013 C 
ATOM     14  C   UNL     1       2.937  16.592   1.365  1.00  0.00     0.007 C 
ATOM     15  C   UNL     1       4.372  15.258   2.957  1.00  0.00     0.007 C 
ENDBRANCH   5  13
TORSDOF 1
ENDMDL
MODEL 3
REMARK VINA RESULT:    -5.952      1.214      4.020
REMARK INTER + INTRA:          -6.574
REMARK INTER:                  -6.148
REMARK INTRA:                  -0.425
REMARK UNBOUND:                -0.274
REMARK SMILES CC1=C[C@H]2C(=C(C)CC[C@H]2C(C)C)CC1
REMARK SMILES IDX 1 1 2 2 3 3 4 4 10 5 9 6 8 7 6 8 5 9 14 10 15 11 7 12 11 13
REMARK SMILES IDX 12 14 13 15
REMARK H PARENT
REMARK Flexibility Score: inf
ROOT
ATOM      1  C   UNL     1      -1.510  12.416   5.743  1.00  0.00     0.039 C 
ATOM      2  C   UNL     1      -0.234  12.985   5.185  1.00  0.00    -0.076 C 
ATOM      3  C   UNL     1      -0.296  13.897   4.197  1.00  0.00    -0.020 C 
ATOM      4  C   UNL     1       0.937  14.487   3.549  1.00  0.00     0.041 C 
ATOM      5  C   UNL     1       0.766  14.763   2.010  1.00  0.00     0.003 C 
ATOM      6  C   UNL     1       2.108  15.254   1.361  1.00  0.00     0.009 C 
ATOM      7  C   UNL     1       3.282  15.363   2.346  1.00  0.00     0.031 C 
ATOM      8  C   UNL     1       3.354  14.123   3.210  1.00  0.00    -0.073 C 
ATOM      9  C   UNL     1       2.219  13.706   3.827  1.00  0.00    -0.064 C 
ATOM     10  C   UNL     1       2.179  12.468   4.706  1.00  0.00     0.036 C 
ATOM     11  C   UNL     1       1.097  12.593   5.777  1.00  0.00     0.035 C 
ATOM     12  C   UNL     1       4.655  13.365   3.317  1.00  0.00     0.039 C 
ENDROOT
BRANCH   5  13
ATOM     13  C   UNL     1       0.140  13.612   1.136  1.00  0.00    -0.013 C 
ATOM     14  C   UNL     1       1.079  13.066   0.045  1.00  0.00     0.007 C 
ATOM     15  C   UNL     1      -1.230  13.959   0.536  1.00  0.00     0.007 C 
ENDBRANCH   5  13
TORSDOF 1
ENDMDL
MODEL 4
REMARK VINA RESULT:    -5.358      1.595      5.215
REMARK INTER + INTRA:          -5.946
REMARK INTER:                  -5.643
REMARK INTRA:                  -0.303
REMARK UNBOUND:                -0.274
REMARK SMILES CC1=C[C@H]2C(=C(C)CC[C@H]2C(C)C)CC1
REMARK SMILES IDX 1 1 2 2 3 3 4 4 10 5 9 6 8 7 6 8 5 9 14 10 15 11 7 12 11 13
REMARK SMILES IDX 12 14 13 15
REMARK H PARENT
REMARK Flexibility Score: inf
ROOT
ATOM      1  C   UNL     1       3.943  12.380   3.898  1.00  0.00     0.039 C 
ATOM      2  C   UNL     1       2.631  12.791   3.286  1.00  0.00    -0.076 C 
ATOM      3  C   UNL     1       2.549  12.959   1.953  1.00  0.00    -0.020 C 
ATOM      4  C   UNL     1       1.284  13.413   1.261  1.00  0.00     0.041 C 
ATOM      5  C   UNL     1       1.545  14.349   0.025  1.00  0.00     0.003 C 
ATOM      6  C   UNL     1       0.203  14.893  -0.580  1.00  0.00     0.009 C 
ATOM      7  C   UNL     1      -1.059  14.404   0.146  1.00  0.00     0.031 C 
ATOM      8  C   UNL     1      -0.882  14.532   1.644  1.00  0.00    -0.073 C 
ATOM      9  C   UNL     1       0.246  14.022   2.201  1.00  0.00    -0.064 C 
ATOM     10  C   UNL     1       0.528  14.108   3.691  1.00  0.00     0.036 C 
ATOM     11  C   UNL     1       1.404  12.943   4.150  1.00  0.00     0.035 C 
ATOM     12  C   UNL     1      -1.924  15.260   2.457  1.00  0.00     0.039 C 
ENDROOT
BRANCH   5  13
ATOM     13  C   UNL     1       2.562  15.535   0.222  1.00  0.00    -0.013 C 
ATOM     14  C   UNL     1       2.153  16.542   1.312  1.00  0.00     0.007 C 
ATOM     15  C   UNL     1       2.921  16.272  -1.077  1.00  0.00     0.007 C 
ENDBRANCH   5  13
TORSDOF 1
ENDMDL
MODEL 5
REMARK VINA RESULT:    -5.075      1.984      4.599
REMARK INTER + INTRA:          -5.646
REMARK INTER:                  -5.176
REMARK INTRA:                  -0.470
REMARK UNBOUND:                -0.274
REMARK SMILES CC1=C[C@H]2C(=C(C)CC[C@H]2C(C)C)CC1
REMARK SMILES IDX 1 1 2 2 3 3 4 4 10 5 9 6 8 7 6 8 5 9 14 10 15 11 7 12 11 13
REMARK SMILES IDX 12 14 13 15
REMARK H PARENT
REMARK Flexibility Score: inf
ROOT
ATOM      1  C   UNL     1      -3.138  15.826   3.875  1.00  0.00     0.039 C 
ATOM      2  C   UNL     1      -2.473  15.566   2.552  1.00  0.00    -0.076 C 
ATOM      3  C   UNL     1      -1.566  14.576   2.452  1.00  0.00    -0.020 C 
ATOM      4  C   UNL     1      -0.819  14.275   1.173  1.00  0.00     0.041 C 
ATOM      5  C   UNL     1       0.665  13.809   1.407  1.00  0.00     0.003 C 
ATOM      6  C   UNL     1       1.434  13.632   0.050  1.00  0.00     0.009 C 
ATOM      7  C   UNL     1       0.592  13.941  -1.197  1.00  0.00     0.031 C 
ATOM      8  C   UNL     1      -0.168  15.237  -1.005  1.00  0.00    -0.073 C 
ATOM      9  C   UNL     1      -0.885  15.394   0.137  1.00  0.00    -0.064 C 
ATOM     10  C   UNL     1      -1.673  16.659   0.434  1.00  0.00     0.036 C 
ATOM     11  C   UNL     1      -2.872  16.358   1.331  1.00  0.00     0.035 C 
ATOM     12  C   UNL     1      -0.064  16.322  -2.048  1.00  0.00     0.039 C 
ENDROOT
BRANCH   5  13
ATOM     13  C   UNL     1       1.537  14.656   2.408  1.00  0.00    -0.013 C 
ATOM     14  C   UNL     1       2.480  15.665   1.727  1.00  0.00     0.007 C 
ATOM     15  C   UNL     1       2.309  13.812   3.432  1.00  0.00     0.007 C 
ENDBRANCH   5  13
TORSDOF 1
ENDMDL
MODEL 6
REMARK VINA RESULT:    -5.038      2.194      5.049
REMARK INTER + INTRA:          -5.606
REMARK INTER:                  -5.166
REMARK INTRA:                  -0.440
REMARK UNBOUND:                -0.274
REMARK SMILES CC1=C[C@H]2C(=C(C)CC[C@H]2C(C)C)CC1
REMARK SMILES IDX 1 1 2 2 3 3 4 4 10 5 9 6 8 7 6 8 5 9 14 10 15 11 7 12 11 13
REMARK SMILES IDX 12 14 13 15
REMARK H PARENT
REMARK Flexibility Score: inf
ROOT
ATOM      1  C   UNL     1       0.405  13.519   4.248  1.00  0.00     0.039 C 
ATOM      2  C   UNL     1       0.679  14.258   2.966  1.00  0.00    -0.076 C 
ATOM      3  C   UNL     1      -0.321  14.440   2.084  1.00  0.00    -0.020 C 
ATOM      4  C   UNL     1      -0.124  15.132   0.754  1.00  0.00     0.041 C 
ATOM      5  C   UNL     1      -0.994  14.524  -0.406  1.00  0.00     0.003 C 
ATOM      6  C   UNL     1      -0.661  15.191  -1.787  1.00  0.00     0.009 C 
ATOM      7  C   UNL     1       0.422  16.278  -1.717  1.00  0.00     0.031 C 
ATOM      8  C   UNL     1       1.594  15.794  -0.889  1.00  0.00    -0.073 C 
ATOM      9  C   UNL     1       1.338  15.261   0.333  1.00  0.00    -0.064 C 
ATOM     10  C   UNL     1       2.439  14.735   1.237  1.00  0.00     0.036 C 
ATOM     11  C   UNL     1       2.041  14.851   2.707  1.00  0.00     0.035 C 
ATOM     12  C   UNL     1       2.989  15.867  -1.462  1.00  0.00     0.039 C 
ENDROOT
BRANCH   5  13
ATOM     13  C   UNL     1      -1.000  12.956  -0.557  1.00  0.00    -0.013 C 
ATOM     14  C   UNL     1       0.185  12.396  -1.364  1.00  0.00     0.007 C 
ATOM     15  C   UNL     1      -2.323  12.385  -1.086  1.00  0.00     0.007 C 
ENDBRANCH   5  13
TORSDOF 1
ENDMDL
MODEL 7
REMARK VINA RESULT:    -5.012      2.307      5.271
REMARK INTER + INTRA:          -5.579
REMARK INTER:                  -5.782
REMARK INTRA:                   0.203
REMARK UNBOUND:                -0.274
REMARK SMILES CC1=C[C@H]2C(=C(C)CC[C@H]2C(C)C)CC1
REMARK SMILES IDX 1 1 2 2 3 3 4 4 10 5 9 6 8 7 6 8 5 9 14 10 15 11 7 12 11 13
REMARK SMILES IDX 12 14 13 15
REMARK H PARENT
REMARK Flexibility Score: inf
ROOT
ATOM      1  C   UNL     1       2.354  12.644   4.237  1.00  0.00     0.039 C 
ATOM      2  C   UNL     1       1.104  13.479   4.189  1.00  0.00    -0.076 C 
ATOM      3  C   UNL     1       0.420  13.708   5.326  1.00  0.00    -0.020 C 
ATOM      4  C   UNL     1      -0.868  14.498   5.362  1.00  0.00     0.041 C 
ATOM      5  C   UNL     1      -1.906  13.961   6.414  1.00  0.00     0.003 C 
ATOM      6  C   UNL     1      -3.270  14.732   6.324  1.00  0.00     0.009 C 
ATOM      7  C   UNL     1      -3.303  15.831   5.251  1.00  0.00     0.031 C 
ATOM      8  C   UNL     1      -2.725  15.309   3.953  1.00  0.00    -0.073 C 
ATOM      9  C   UNL     1      -1.521  14.684   3.994  1.00  0.00    -0.064 C 
ATOM     10  C   UNL     1      -0.859  14.113   2.752  1.00  0.00     0.036 C 
ATOM     11  C   UNL     1       0.663  14.115   2.894  1.00  0.00     0.035 C 
ATOM     12  C   UNL     1      -3.519  15.448   2.676  1.00  0.00     0.039 C 
ENDROOT
BRANCH   5  13
ATOM     13  C   UNL     1      -2.171  12.408   6.437  1.00  0.00    -0.013 C 
ATOM     14  C   UNL     1      -3.392  11.989   7.275  1.00  0.00     0.007 C 
ATOM     15  C   UNL     1      -0.943  11.572   6.828  1.00  0.00     0.007 C 
ENDBRANCH   5  13
TORSDOF 1
ENDMDL
MODEL 8
REMARK VINA RESULT:    -4.983      1.741      4.461
REMARK INTER + INTRA:          -5.548
REMARK INTER:                  -5.353
REMARK INTRA:                  -0.195
REMARK UNBOUND:                -0.274
REMARK SMILES CC1=C[C@H]2C(=C(C)CC[C@H]2C(C)C)CC1
REMARK SMILES IDX 1 1 2 2 3 3 4 4 10 5 9 6 8 7 6 8 5 9 14 10 15 11 7 12 11 13
REMARK SMILES IDX 12 14 13 15
REMARK H PARENT
REMARK Flexibility Score: inf
ROOT
ATOM      1  C   UNL     1      -2.562  14.345   1.673  1.00  0.00     0.039 C 
ATOM      2  C   UNL     1      -1.126  14.704   1.939  1.00  0.00    -0.076 C 
ATOM      3  C   UNL     1      -0.494  15.555   1.109  1.00  0.00    -0.020 C 
ATOM      4  C   UNL     1       0.960  15.935   1.277  1.00  0.00     0.041 C 
ATOM      5  C   UNL     1       1.717  16.140  -0.086  1.00  0.00     0.003 C 
ATOM      6  C   UNL     1       3.247  16.407   0.139  1.00  0.00     0.009 C 
ATOM      7  C   UNL     1       3.674  16.417   1.614  1.00  0.00     0.031 C 
ATOM      8  C   UNL     1       3.073  15.231   2.339  1.00  0.00    -0.073 C 
ATOM      9  C   UNL     1       1.741  15.008   2.204  1.00  0.00    -0.064 C 
ATOM     10  C   UNL     1       1.041  13.841   2.879  1.00  0.00     0.036 C 
ATOM     11  C   UNL     1      -0.423  14.173   3.164  1.00  0.00     0.035 C 
ATOM     12  C   UNL     1       3.968  14.314   3.136  1.00  0.00     0.039 C 
ENDROOT
BRANCH   5  13
ATOM     13  C   UNL     1       1.525  15.033  -1.190  1.00  0.00    -0.013 C 
ATOM     14  C   UNL     1       2.793  14.732  -2.010  1.00  0.00     0.007 C 
ATOM     15  C   UNL     1       0.332  15.284  -2.125  1.00  0.00     0.007 C 
ENDBRANCH   5  13
TORSDOF 1
ENDMDL
MODEL 9
REMARK VINA RESULT:    -4.945      1.698      3.212
REMARK INTER + INTRA:          -5.509
REMARK INTER:                  -5.344
REMARK INTRA:                  -0.164
REMARK UNBOUND:                -0.274
REMARK SMILES CC1=C[C@H]2C(=C(C)CC[C@H]2C(C)C)CC1
REMARK SMILES IDX 1 1 2 2 3 3 4 4 10 5 9 6 8 7 6 8 5 9 14 10 15 11 7 12 11 13
REMARK SMILES IDX 12 14 13 15
REMARK H PARENT
REMARK Flexibility Score: inf
ROOT
ATOM      1  C   UNL     1      -0.059  15.332   0.427  1.00  0.00     0.039 C 
ATOM      2  C   UNL     1       0.264  14.627   1.716  1.00  0.00    -0.076 C 
ATOM      3  C   UNL     1      -0.738  14.128   2.463  1.00  0.00    -0.020 C 
ATOM      4  C   UNL     1      -0.507  13.444   3.792  1.00  0.00     0.041 C 
ATOM      5  C   UNL     1      -1.638  13.724   4.848  1.00  0.00     0.003 C 
ATOM      6  C   UNL     1      -1.289  13.098   6.244  1.00  0.00     0.009 C 
ATOM      7  C   UNL     1       0.055  12.356   6.285  1.00  0.00     0.031 C 
ATOM      8  C   UNL     1       1.130  13.189   5.621  1.00  0.00    -0.073 C 
ATOM      9  C   UNL     1       0.875  13.698   4.388  1.00  0.00    -0.064 C 
ATOM     10  C   UNL     1       1.881  14.556   3.640  1.00  0.00     0.036 C 
ATOM     11  C   UNL     1       1.700  14.417   2.129  1.00  0.00     0.035 C 
ATOM     12  C   UNL     1       2.416  13.471   6.359  1.00  0.00     0.039 C 
ENDROOT
BRANCH   5  13
ATOM     13  C   UNL     1      -2.098  15.218   5.031  1.00  0.00    -0.013 C 
ATOM     14  C   UNL     1      -2.483  15.588   6.475  1.00  0.00     0.007 C 
ATOM     15  C   UNL     1      -3.202  15.655   4.057  1.00  0.00     0.007 C 
ENDBRANCH   5  13
TORSDOF 1
ENDMDL
