MODEL 1
REMARK VINA RESULT:    -4.800      0.000      0.000
REMARK INTER + INTRA:          -6.175
REMARK INTER:                  -5.782
REMARK INTRA:                  -0.393
REMARK UNBOUND:                -0.393
REMARK SMILES CCCCc1oc(O)c2ccccc12
REMARK SMILES IDX 4 1 5 2 7 3 6 4 9 5 14 6 10 7 13 8 11 9 12 10 8 11 3 13 2 14
REMARK SMILES IDX 1 15
REMARK H PARENT 8 12
REMARK Flexibility Score: inf
ROOT
ATOM      1  C   UNL     1      76.099  26.735   7.996  1.00  0.00     0.076 C 
ENDROOT
BRANCH   1   2
ATOM      2  C   UNL     1      74.731  26.661   8.604  1.00  0.00     0.116 A 
ATOM      3  C   UNL     1      72.878  27.306   9.468  1.00  0.00     0.290 A 
ATOM      4  O   UNL     1      74.012  27.718   8.939  1.00  0.00    -0.430 OA
ATOM      5  C   UNL     1      72.848  25.927   9.487  1.00  0.00     0.066 A 
ATOM      6  C   UNL     1      74.033  25.515   8.937  1.00  0.00     0.027 A 
ATOM      7  C   UNL     1      71.891  25.020   9.944  1.00  0.00     0.016 A 
ATOM      8  C   UNL     1      74.350  24.163   8.807  1.00  0.00     0.012 A 
ATOM      9  C   UNL     1      72.182  23.648   9.822  1.00  0.00     0.001 A 
ATOM     10  C   UNL     1      73.406  23.222   9.258  1.00  0.00     0.001 A 
BRANCH   3  11
ATOM     11  O   UNL     1      71.882  28.161   9.931  1.00  0.00    -0.480 OA
ATOM     12  H   UNL     1      71.916  28.551  10.865  1.00  0.00     0.297 HD
ENDBRANCH   3  11
ENDBRANCH   1   2
BRANCH   1  13
ATOM     13  C   UNL     1      77.172  26.707   9.087  1.00  0.00     0.008 C 
BRANCH  13  14
ATOM     14  C   UNL     1      77.920  25.369   9.088  1.00  0.00    -0.003 C 
ATOM     15  C   UNL     1      78.823  25.244  10.311  1.00  0.00     0.004 C 
ENDBRANCH  13  14
ENDBRANCH   1  13
TORSDOF 4
ENDMDL
MODEL 2
REMARK VINA RESULT:    -4.663      2.168      5.181
REMARK INTER + INTRA:          -6.010
REMARK INTER:                  -5.741
REMARK INTRA:                  -0.269
REMARK UNBOUND:                -0.393
REMARK SMILES CCCCc1oc(O)c2ccccc12
REMARK SMILES IDX 4 1 5 2 7 3 6 4 9 5 14 6 10 7 13 8 11 9 12 10 8 11 3 13 2 14
REMARK SMILES IDX 1 15
REMARK H PARENT 8 12
REMARK Flexibility Score: inf
ROOT
ATOM      1  C   UNL     1      73.991  26.795   8.465  1.00  0.00     0.076 C 
ENDROOT
BRANCH   1   2
ATOM      2  C   UNL     1      75.426  26.437   8.700  1.00  0.00     0.116 A 
ATOM      3  C   UNL     1      77.324  25.471   8.451  1.00  0.00     0.290 A 
ATOM      4  O   UNL     1      76.104  25.575   7.963  1.00  0.00    -0.430 OA
ATOM      5  C   UNL     1      77.455  26.290   9.552  1.00  0.00     0.066 A 
ATOM      6  C   UNL     1      76.243  26.906   9.713  1.00  0.00     0.027 A 
ATOM      7  C   UNL     1      78.525  26.532  10.415  1.00  0.00     0.016 A 
ATOM      8  C   UNL     1      76.009  27.807  10.752  1.00  0.00     0.012 A 
ATOM      9  C   UNL     1      78.321  27.440  11.471  1.00  0.00     0.001 A 
ATOM     10  C   UNL     1      77.069  28.073  11.639  1.00  0.00     0.001 A 
BRANCH   3  11
ATOM     11  O   UNL     1      78.307  24.645   7.913  1.00  0.00    -0.480 OA
ATOM     12  H   UNL     1      78.539  23.757   8.339  1.00  0.00     0.297 HD
ENDBRANCH   3  11
ENDBRANCH   1   2
BRANCH   1  13
ATOM     13  C   UNL     1      73.076  25.958   9.363  1.00  0.00     0.008 C 
BRANCH  13  14
ATOM     14  C   UNL     1      73.285  24.459   9.115  1.00  0.00    -0.003 C 
ATOM     15  C   UNL     1      72.213  23.630   9.817  1.00  0.00     0.004 C 
ENDBRANCH  13  14
ENDBRANCH   1  13
TORSDOF 4
ENDMDL
MODEL 3
REMARK VINA RESULT:    -4.617      1.634      4.408
REMARK INTER + INTRA:          -5.955
REMARK INTER:                  -5.578
REMARK INTRA:                  -0.377
REMARK UNBOUND:                -0.393
REMARK SMILES CCCCc1oc(O)c2ccccc12
REMARK SMILES IDX 4 1 5 2 7 3 6 4 9 5 14 6 10 7 13 8 11 9 12 10 8 11 3 13 2 14
REMARK SMILES IDX 1 15
REMARK H PARENT 8 12
REMARK Flexibility Score: inf
ROOT
ATOM      1  C   UNL     1      72.966  26.470   8.679  1.00  0.00     0.076 C 
ENDROOT
BRANCH   1   2
ATOM      2  C   UNL     1      74.097  27.004   9.504  1.00  0.00     0.116 A 
ATOM      3  C   UNL     1      75.139  28.158  10.981  1.00  0.00     0.290 A 
ATOM      4  O   UNL     1      73.951  27.882  10.481  1.00  0.00    -0.430 OA
ATOM      5  C   UNL     1      76.105  27.442  10.306  1.00  0.00     0.066 A 
ATOM      6  C   UNL     1      75.440  26.706   9.361  1.00  0.00     0.027 A 
ATOM      7  C   UNL     1      77.492  27.386  10.443  1.00  0.00     0.016 A 
ATOM      8  C   UNL     1      76.116  25.862   8.480  1.00  0.00     0.012 A 
ATOM      9  C   UNL     1      78.201  26.541   9.569  1.00  0.00     0.001 A 
ATOM     10  C   UNL     1      77.517  25.783   8.592  1.00  0.00     0.001 A 
BRANCH   3  11
ATOM     11  O   UNL     1      75.351  29.049  12.029  1.00  0.00    -0.480 OA
ATOM     12  H   UNL     1      74.602  29.306  12.660  1.00  0.00     0.297 HD
ENDBRANCH   3  11
ENDBRANCH   1   2
BRANCH   1  13
ATOM     13  C   UNL     1      72.208  25.385   9.447  1.00  0.00     0.008 C 
BRANCH  13  14
ATOM     14  C   UNL     1      72.869  24.014   9.256  1.00  0.00    -0.003 C 
ATOM     15  C   UNL     1      72.171  22.946  10.094  1.00  0.00     0.004 C 
ENDBRANCH  13  14
ENDBRANCH   1  13
TORSDOF 4
ENDMDL
MODEL 4
REMARK VINA RESULT:    -4.612      2.321      5.816
REMARK INTER + INTRA:          -5.949
REMARK INTER:                  -5.721
REMARK INTRA:                  -0.227
REMARK UNBOUND:                -0.393
REMARK SMILES CCCCc1oc(O)c2ccccc12
REMARK SMILES IDX 4 1 5 2 7 3 6 4 9 5 14 6 10 7 13 8 11 9 12 10 8 11 3 13 2 14
REMARK SMILES IDX 1 15
REMARK H PARENT 8 12
REMARK Flexibility Score: inf
ROOT
ATOM      1  C   UNL     1      75.782  27.125   9.488  1.00  0.00     0.076 C 
ENDROOT
BRANCH   1   2
ATOM      2  C   UNL     1      77.025  26.326   9.242  1.00  0.00     0.116 A 
ATOM      3  C   UNL     1      78.441  25.068   8.236  1.00  0.00     0.290 A 
ATOM      4  O   UNL     1      77.286  25.691   8.113  1.00  0.00    -0.430 OA
ATOM      5  C   UNL     1      78.959  25.295   9.494  1.00  0.00     0.066 A 
ATOM      6  C   UNL     1      78.054  26.097  10.138  1.00  0.00     0.027 A 
ATOM      7  C   UNL     1      80.131  24.862  10.113  1.00  0.00     0.016 A 
ATOM      8  C   UNL     1      78.253  26.521  11.451  1.00  0.00     0.012 A 
ATOM      9  C   UNL     1      80.362  25.276  11.438  1.00  0.00     0.001 A 
ATOM     10  C   UNL     1      79.427  26.101  12.105  1.00  0.00     0.001 A 
BRANCH   3  11
ATOM     11  O   UNL     1      79.019  24.301   7.230  1.00  0.00    -0.480 OA
ATOM     12  H   UNL     1      78.539  23.502   6.835  1.00  0.00     0.297 HD
ENDBRANCH   3  11
ENDBRANCH   1   2
BRANCH   1  13
ATOM     13  C   UNL     1      74.779  26.921   8.349  1.00  0.00     0.008 C 
BRANCH  13  14
ATOM     14  C   UNL     1      73.363  26.705   8.897  1.00  0.00    -0.003 C 
ATOM     15  C   UNL     1      73.103  25.230   9.184  1.00  0.00     0.004 C 
ENDBRANCH  13  14
ENDBRANCH   1  13
TORSDOF 4
ENDMDL
MODEL 5
REMARK VINA RESULT:    -4.600      1.336      4.328
REMARK INTER + INTRA:          -5.934
REMARK INTER:                  -5.719
REMARK INTRA:                  -0.215
REMARK UNBOUND:                -0.393
REMARK SMILES CCCCc1oc(O)c2ccccc12
REMARK SMILES IDX 4 1 5 2 7 3 6 4 9 5 14 6 10 7 13 8 11 9 12 10 8 11 3 13 2 14
REMARK SMILES IDX 1 15
REMARK H PARENT 8 12
REMARK Flexibility Score: inf
ROOT
ATOM      1  C   UNL     1      73.250  24.104   9.126  1.00  0.00     0.076 C 
ENDROOT
BRANCH   1   2
ATOM      2  C   UNL     1      73.475  25.576   8.961  1.00  0.00     0.116 A 
ATOM      3  C   UNL     1      73.041  27.667   8.777  1.00  0.00     0.290 A 
ATOM      4  O   UNL     1      72.509  26.478   8.975  1.00  0.00    -0.430 OA
ATOM      5  C   UNL     1      74.405  27.547   8.622  1.00  0.00     0.066 A 
ATOM      6  C   UNL     1      74.683  26.210   8.737  1.00  0.00     0.027 A 
ATOM      7  C   UNL     1      75.406  28.490   8.385  1.00  0.00     0.016 A 
ATOM      8  C   UNL     1      75.983  25.718   8.620  1.00  0.00     0.012 A 
ATOM      9  C   UNL     1      76.728  28.023   8.266  1.00  0.00     0.001 A 
ATOM     10  C   UNL     1      77.015  26.644   8.381  1.00  0.00     0.001 A 
BRANCH   3  11
ATOM     11  O   UNL     1      72.305  28.848   8.733  1.00  0.00    -0.480 OA
ATOM     12  H   UNL     1      72.757  29.745   8.606  1.00  0.00     0.297 HD
ENDBRANCH   3  11
ENDBRANCH   1   2
BRANCH   1  13
ATOM     13  C   UNL     1      71.877  23.836   9.747  1.00  0.00     0.008 C 
BRANCH  13  14
ATOM     14  C   UNL     1      71.875  22.518  10.530  1.00  0.00    -0.003 C 
ATOM     15  C   UNL     1      73.036  21.624  10.105  1.00  0.00     0.004 C 
ENDBRANCH  13  14
ENDBRANCH   1  13
TORSDOF 4
ENDMDL
MODEL 6
REMARK VINA RESULT:    -4.384      2.957      4.234
REMARK INTER + INTRA:          -5.674
REMARK INTER:                  -5.366
REMARK INTRA:                  -0.307
REMARK UNBOUND:                -0.393
REMARK SMILES CCCCc1oc(O)c2ccccc12
REMARK SMILES IDX 4 1 5 2 7 3 6 4 9 5 14 6 10 7 13 8 11 9 12 10 8 11 3 13 2 14
REMARK SMILES IDX 1 15
REMARK H PARENT 8 12
REMARK Flexibility Score: inf
ROOT
ATOM      1  C   UNL     1      79.225  26.812  10.659  1.00  0.00     0.076 C 
ENDROOT
BRANCH   1   2
ATOM      2  C   UNL     1      78.088  26.318   9.818  1.00  0.00     0.116 A 
ATOM      3  C   UNL     1      77.022  25.179   8.347  1.00  0.00     0.290 A 
ATOM      4  O   UNL     1      78.193  25.347   8.927  1.00  0.00    -0.430 OA
ATOM      5  C   UNL     1      76.112  26.073   8.870  1.00  0.00     0.066 A 
ATOM      6  C   UNL     1      76.792  26.802   9.808  1.00  0.00     0.027 A 
ATOM      7  C   UNL     1      74.764  26.303   8.593  1.00  0.00     0.016 A 
ATOM      8  C   UNL     1      76.176  27.819  10.537  1.00  0.00     0.012 A 
ATOM      9  C   UNL     1      74.113  27.320   9.316  1.00  0.00     0.001 A 
ATOM     10  C   UNL     1      74.815  28.076  10.281  1.00  0.00     0.001 A 
BRANCH   3  11
ATOM     11  O   UNL     1      76.776  24.233   7.356  1.00  0.00    -0.480 OA
ATOM     12  H   UNL     1      77.510  23.623   7.018  1.00  0.00     0.297 HD
ENDBRANCH   3  11
ENDBRANCH   1   2
BRANCH   1  13
ATOM     13  C   UNL     1      80.361  25.787  10.682  1.00  0.00     0.008 C 
BRANCH  13  14
ATOM     14  C   UNL     1      80.264  24.886  11.919  1.00  0.00    -0.003 C 
ATOM     15  C   UNL     1      79.693  23.518  11.560  1.00  0.00     0.004 C 
ENDBRANCH  13  14
ENDBRANCH   1  13
TORSDOF 4
ENDMDL
MODEL 7
REMARK VINA RESULT:    -4.256      2.279      5.528
REMARK INTER + INTRA:          -5.520
REMARK INTER:                  -5.267
REMARK INTRA:                  -0.252
REMARK UNBOUND:                -0.393
REMARK SMILES CCCCc1oc(O)c2ccccc12
REMARK SMILES IDX 4 1 5 2 7 3 6 4 9 5 14 6 10 7 13 8 11 9 12 10 8 11 3 13 2 14
REMARK SMILES IDX 1 15
REMARK H PARENT 8 12
REMARK Flexibility Score: inf
ROOT
ATOM      1  C   UNL     1      74.567  27.230   8.905  1.00  0.00     0.076 C 
ENDROOT
BRANCH   1   2
ATOM      2  C   UNL     1      75.963  27.647   8.557  1.00  0.00     0.116 A 
ATOM      3  C   UNL     1      77.638  28.277   7.375  1.00  0.00     0.290 A 
ATOM      4  O   UNL     1      76.350  27.996   7.342  1.00  0.00    -0.430 OA
ATOM      5  C   UNL     1      78.119  28.103   8.656  1.00  0.00     0.066 A 
ATOM      6  C   UNL     1      77.050  27.698   9.411  1.00  0.00     0.027 A 
ATOM      7  C   UNL     1      79.392  28.259   9.204  1.00  0.00     0.016 A 
ATOM      8  C   UNL     1      77.177  27.415  10.771  1.00  0.00     0.012 A 
ATOM      9  C   UNL     1      79.550  27.985  10.576  1.00  0.00     0.001 A 
ATOM     10  C   UNL     1      78.449  27.564  11.355  1.00  0.00     0.001 A 
BRANCH   3  11
ATOM     11  O   UNL     1      78.371  28.683   6.264  1.00  0.00    -0.480 OA
ATOM     12  H   UNL     1      79.382  28.736   6.292  1.00  0.00     0.297 HD
ENDBRANCH   3  11
ENDBRANCH   1   2
BRANCH   1  13
ATOM     13  C   UNL     1      74.443  25.704   8.890  1.00  0.00     0.008 C 
BRANCH  13  14
ATOM     14  C   UNL     1      73.018  25.266   9.248  1.00  0.00    -0.003 C 
ATOM     15  C   UNL     1      72.920  23.747   9.356  1.00  0.00     0.004 C 
ENDBRANCH  13  14
ENDBRANCH   1  13
TORSDOF 4
ENDMDL
MODEL 8
REMARK VINA RESULT:    -4.191      2.156      3.090
REMARK INTER + INTRA:          -5.441
REMARK INTER:                  -5.139
REMARK INTRA:                  -0.302
REMARK UNBOUND:                -0.393
REMARK SMILES CCCCc1oc(O)c2ccccc12
REMARK SMILES IDX 4 1 5 2 7 3 6 4 9 5 14 6 10 7 13 8 11 9 12 10 8 11 3 13 2 14
REMARK SMILES IDX 1 15
REMARK H PARENT 8 12
REMARK Flexibility Score: inf
ROOT
ATOM      1  C   UNL     1      77.678  26.681   8.554  1.00  0.00     0.076 C 
ENDROOT
BRANCH   1   2
ATOM      2  C   UNL     1      76.375  25.948   8.657  1.00  0.00     0.116 A 
ATOM      3  C   UNL     1      74.980  24.320   8.676  1.00  0.00     0.290 A 
ATOM      4  O   UNL     1      76.256  24.635   8.572  1.00  0.00    -0.430 OA
ATOM      5  C   UNL     1      74.229  25.467   8.829  1.00  0.00     0.066 A 
ATOM      6  C   UNL     1      75.120  26.507   8.815  1.00  0.00     0.027 A 
ATOM      7  C   UNL     1      72.857  25.673   8.970  1.00  0.00     0.016 A 
ATOM      8  C   UNL     1      74.703  27.833   8.937  1.00  0.00     0.012 A 
ATOM      9  C   UNL     1      72.406  27.000   9.099  1.00  0.00     0.001 A 
ATOM     10  C   UNL     1      73.323  28.074   9.081  1.00  0.00     0.001 A 
BRANCH   3  11
ATOM     11  O   UNL     1      74.496  23.016   8.629  1.00  0.00    -0.480 OA
ATOM     12  H   UNL     1      73.528  22.806   8.835  1.00  0.00     0.297 HD
ENDBRANCH   3  11
ENDBRANCH   1   2
BRANCH   1  13
ATOM     13  C   UNL     1      78.283  26.897   9.943  1.00  0.00     0.008 C 
BRANCH  13  14
ATOM     14  C   UNL     1      78.886  25.597  10.488  1.00  0.00    -0.003 C 
ATOM     15  C   UNL     1      78.958  25.621  12.012  1.00  0.00     0.004 C 
ENDBRANCH  13  14
ENDBRANCH   1  13
TORSDOF 4
ENDMDL
MODEL 9
REMARK VINA RESULT:    -4.116      3.750      5.355
REMARK INTER + INTRA:          -5.351
REMARK INTER:                  -4.912
REMARK INTRA:                  -0.439
REMARK UNBOUND:                -0.393
REMARK SMILES CCCCc1oc(O)c2ccccc12
REMARK SMILES IDX 4 1 5 2 7 3 6 4 9 5 14 6 10 7 13 8 11 9 12 10 8 11 3 13 2 14
REMARK SMILES IDX 1 15
REMARK H PARENT 8 12
REMARK Flexibility Score: inf
ROOT
ATOM      1  C   UNL     1      80.216  26.388  11.298  1.00  0.00     0.076 C 
ENDROOT
BRANCH   1   2
ATOM      2  C   UNL     1      79.349  25.950  10.157  1.00  0.00     0.116 A 
ATOM      3  C   UNL     1      78.756  24.976   8.341  1.00  0.00     0.290 A 
ATOM      4  O   UNL     1      79.746  25.134   9.196  1.00  0.00    -0.430 OA
ATOM      5  C   UNL     1      77.667  25.718   8.749  1.00  0.00     0.066 A 
ATOM      6  C   UNL     1      78.046  26.342   9.908  1.00  0.00     0.027 A 
ATOM      7  C   UNL     1      76.398  25.894   8.197  1.00  0.00     0.016 A 
ATOM      8  C   UNL     1      77.184  27.194  10.598  1.00  0.00     0.012 A 
ATOM      9  C   UNL     1      75.505  26.746   8.873  1.00  0.00     0.001 A 
ATOM     10  C   UNL     1      75.896  27.393  10.067  1.00  0.00     0.001 A 
BRANCH   3  11
ATOM     11  O   UNL     1      78.833  24.176   7.205  1.00  0.00    -0.480 OA
ATOM     12  H   UNL     1      79.679  24.127   6.652  1.00  0.00     0.297 HD
ENDBRANCH   3  11
ENDBRANCH   1   2
BRANCH   1  13
ATOM     13  C   UNL     1      81.543  26.947  10.780  1.00  0.00     0.008 C 
BRANCH  13  14
ATOM     14  C   UNL     1      81.436  28.451  10.506  1.00  0.00    -0.003 C 
ATOM     15  C   UNL     1      80.438  29.114  11.450  1.00  0.00     0.004 C 
ENDBRANCH  13  14
ENDBRANCH   1  13
TORSDOF 4
ENDMDL
