MODEL 1
REMARK VINA RESULT:    -5.235      0.000      0.000
REMARK INTER + INTRA:          -7.574
REMARK INTER:                  -7.072
REMARK INTRA:                  -0.502
REMARK UNBOUND:                -0.502
REMARK SMILES CCCCCCC=CC(=O)[O-]
REMARK SMILES IDX 5 1 6 2 7 3 8 4 9 5 10 6 11 7 4 8 3 9 2 10 1 11
REMARK H PARENT
REMARK Flexibility Score: inf
ROOT
ATOM      1  C   UNL     1      -4.142   6.885   4.811  1.00  0.00     0.004 C 
ENDROOT
BRANCH   1   2
ATOM      2  C   UNL     1      -2.798   6.565   4.138  1.00  0.00     0.027 C 
BRANCH   2   3
ATOM      3  C   UNL     1      -2.261   5.242   4.606  1.00  0.00    -0.025 C 
ATOM      4  C   UNL     1      -2.885   4.529   5.550  1.00  0.00     0.020 C 
BRANCH   4   5
ATOM      5  C   UNL     1      -2.385   3.224   6.013  1.00  0.00     0.064 C 
ATOM      6  O   UNL     1      -2.360   2.227   5.244  1.00  0.00    -0.545 OA
ATOM      7  O   UNL     1      -1.934   3.092   7.319  1.00  0.00    -0.545 OA
ENDBRANCH   4   5
ENDBRANCH   2   3
ENDBRANCH   1   2
BRANCH   1   8
ATOM      8  C   UNL     1      -4.071   8.131   5.708  1.00  0.00     0.000 C 
BRANCH   8   9
ATOM      9  C   UNL     1      -4.569   7.861   7.136  1.00  0.00    -0.000 C 
BRANCH   9  10
ATOM     10  C   UNL     1      -5.435   6.597   7.185  1.00  0.00    -0.003 C 
ATOM     11  C   UNL     1      -6.565   6.741   8.200  1.00  0.00     0.004 C 
ENDBRANCH   9  10
ENDBRANCH   8   9
ENDBRANCH   1   8
TORSDOF 6
ENDMDL
MODEL 2
REMARK VINA RESULT:    -5.139      1.949      3.241
REMARK INTER + INTRA:          -7.443
REMARK INTER:                  -7.188
REMARK INTRA:                  -0.256
REMARK UNBOUND:                -0.502
REMARK SMILES CCCCCCC=CC(=O)[O-]
REMARK SMILES IDX 5 1 6 2 7 3 8 4 9 5 10 6 11 7 4 8 3 9 2 10 1 11
REMARK H PARENT
REMARK Flexibility Score: inf
ROOT
ATOM      1  C   UNL     1      -2.257   4.933   5.159  1.00  0.00     0.004 C 
ENDROOT
BRANCH   1   2
ATOM      2  C   UNL     1      -2.527   3.472   5.550  1.00  0.00     0.027 C 
BRANCH   2   3
ATOM      3  C   UNL     1      -2.401   3.278   7.035  1.00  0.00    -0.025 C 
ATOM      4  C   UNL     1      -1.353   2.643   7.570  1.00  0.00     0.020 C 
BRANCH   4   5
ATOM      5  C   UNL     1      -1.202   2.454   9.021  1.00  0.00     0.064 C 
ATOM      6  O   UNL     1      -0.217   2.934   9.642  1.00  0.00    -0.545 OA
ATOM      7  O   UNL     1      -2.163   1.733   9.718  1.00  0.00    -0.545 OA
ENDBRANCH   4   5
ENDBRANCH   2   3
ENDBRANCH   1   2
BRANCH   1   8
ATOM      8  C   UNL     1      -3.546   5.707   4.841  1.00  0.00     0.000 C 
BRANCH   8   9
ATOM      9  C   UNL     1      -3.271   7.122   4.310  1.00  0.00    -0.000 C 
BRANCH   9  10
ATOM     10  C   UNL     1      -3.936   8.180   5.198  1.00  0.00    -0.003 C 
ATOM     11  C   UNL     1      -4.596   7.542   6.416  1.00  0.00     0.004 C 
ENDBRANCH   9  10
ENDBRANCH   8   9
ENDBRANCH   1   8
TORSDOF 6
ENDMDL
MODEL 3
REMARK VINA RESULT:    -4.670      2.578      4.548
REMARK INTER + INTRA:          -6.810
REMARK INTER:                  -6.331
REMARK INTRA:                  -0.479
REMARK UNBOUND:                -0.502
REMARK SMILES CCCCCCC=CC(=O)[O-]
REMARK SMILES IDX 5 1 6 2 7 3 8 4 9 5 10 6 11 7 4 8 3 9 2 10 1 11
REMARK H PARENT
REMARK Flexibility Score: inf
ROOT
ATOM      1  C   UNL     1      -4.060   6.897   4.699  1.00  0.00     0.004 C 
ENDROOT
BRANCH   1   2
ATOM      2  C   UNL     1      -3.917   8.126   5.611  1.00  0.00     0.027 C 
BRANCH   2   3
ATOM      3  C   UNL     1      -4.626   7.913   6.919  1.00  0.00    -0.025 C 
ATOM      4  C   UNL     1      -5.410   6.849   7.123  1.00  0.00     0.020 C 
BRANCH   4   5
ATOM      5  C   UNL     1      -6.103   6.614   8.400  1.00  0.00     0.064 C 
ATOM      6  O   UNL     1      -6.470   5.457   8.738  1.00  0.00    -0.545 OA
ATOM      7  O   UNL     1      -6.357   7.686   9.246  1.00  0.00    -0.545 OA
ENDBRANCH   4   5
ENDBRANCH   2   3
ENDBRANCH   1   2
BRANCH   1   8
ATOM      8  C   UNL     1      -2.756   6.557   3.960  1.00  0.00     0.000 C 
BRANCH   8   9
ATOM      9  C   UNL     1      -2.046   5.328   4.550  1.00  0.00    -0.000 C 
BRANCH   9  10
ATOM     10  C   UNL     1      -2.949   4.602   5.554  1.00  0.00    -0.003 C 
ATOM     11  C   UNL     1      -2.344   3.267   5.975  1.00  0.00     0.004 C 
ENDBRANCH   9  10
ENDBRANCH   8   9
ENDBRANCH   1   8
TORSDOF 6
ENDMDL
MODEL 4
REMARK VINA RESULT:    -4.057     14.149     16.290
REMARK INTER + INTRA:          -5.981
REMARK INTER:                  -5.633
REMARK INTRA:                  -0.349
REMARK UNBOUND:                -0.502
REMARK SMILES CCCCCCC=CC(=O)[O-]
REMARK SMILES IDX 5 1 6 2 7 3 8 4 9 5 10 6 11 7 4 8 3 9 2 10 1 11
REMARK H PARENT
REMARK Flexibility Score: inf
ROOT
ATOM      1  C   UNL     1       8.992   5.724  -4.777  1.00  0.00     0.004 C 
ENDROOT
BRANCH   1   2
ATOM      2  C   UNL     1       7.474   5.546  -4.619  1.00  0.00     0.027 C 
BRANCH   2   3
ATOM      3  C   UNL     1       7.112   5.234  -3.194  1.00  0.00    -0.025 C 
ATOM      4  C   UNL     1       8.034   4.840  -2.309  1.00  0.00     0.020 C 
BRANCH   4   5
ATOM      5  C   UNL     1       7.704   4.543  -0.906  1.00  0.00     0.064 C 
ATOM      6  O   UNL     1       6.611   3.999  -0.595  1.00  0.00    -0.545 OA
ATOM      7  O   UNL     1       8.614   4.869   0.092  1.00  0.00    -0.545 OA
ENDBRANCH   4   5
ENDBRANCH   2   3
ENDBRANCH   1   2
BRANCH   1   8
ATOM      8  C   UNL     1       9.493   5.310  -6.169  1.00  0.00     0.000 C 
BRANCH   8   9
ATOM      9  C   UNL     1       8.376   4.732  -7.052  1.00  0.00    -0.000 C 
BRANCH   9  10
ATOM     10  C   UNL     1       8.960   3.996  -8.264  1.00  0.00    -0.003 C 
ATOM     11  C   UNL     1       9.795   2.796  -7.830  1.00  0.00     0.004 C 
ENDBRANCH   9  10
ENDBRANCH   8   9
ENDBRANCH   1   8
TORSDOF 6
ENDMDL
MODEL 5
REMARK VINA RESULT:    -3.875     16.615     17.327
REMARK INTER + INTRA:          -5.736
REMARK INTER:                  -4.993
REMARK INTRA:                  -0.743
REMARK UNBOUND:                -0.502
REMARK SMILES CCCCCCC=CC(=O)[O-]
REMARK SMILES IDX 5 1 6 2 7 3 8 4 9 5 10 6 11 7 4 8 3 9 2 10 1 11
REMARK H PARENT
REMARK Flexibility Score: inf
ROOT
ATOM      1  C   UNL     1      -2.718  -3.581  -8.781  1.00  0.00     0.004 C 
ENDROOT
BRANCH   1   2
ATOM      2  C   UNL     1      -2.269  -3.760  -7.322  1.00  0.00     0.027 C 
BRANCH   2   3
ATOM      3  C   UNL     1      -1.202  -4.812  -7.211  1.00  0.00    -0.025 C 
ATOM      4  C   UNL     1      -0.059  -4.582  -6.556  1.00  0.00     0.020 C 
BRANCH   4   5
ATOM      5  C   UNL     1       0.993  -5.602  -6.423  1.00  0.00     0.064 C 
ATOM      6  O   UNL     1       0.705  -6.820  -6.285  1.00  0.00    -0.545 OA
ATOM      7  O   UNL     1       2.326  -5.214  -6.449  1.00  0.00    -0.545 OA
ENDBRANCH   4   5
ENDBRANCH   2   3
ENDBRANCH   1   2
BRANCH   1   8
ATOM      8  C   UNL     1      -1.637  -2.929  -9.656  1.00  0.00     0.000 C 
BRANCH   8   9
ATOM      9  C   UNL     1      -1.224  -1.539  -9.147  1.00  0.00    -0.000 C 
BRANCH   9  10
ATOM     10  C   UNL     1       0.281  -1.486  -8.856  1.00  0.00    -0.003 C 
ATOM     11  C   UNL     1       1.013  -2.646  -9.524  1.00  0.00     0.004 C 
ENDBRANCH   9  10
ENDBRANCH   8   9
ENDBRANCH   1   8
TORSDOF 6
ENDMDL
MODEL 6
REMARK VINA RESULT:    -3.822     16.180     17.896
REMARK INTER + INTRA:          -5.664
REMARK INTER:                  -5.014
REMARK INTRA:                  -0.651
REMARK UNBOUND:                -0.502
REMARK SMILES CCCCCCC=CC(=O)[O-]
REMARK SMILES IDX 5 1 6 2 7 3 8 4 9 5 10 6 11 7 4 8 3 9 2 10 1 11
REMARK H PARENT
REMARK Flexibility Score: inf
ROOT
ATOM      1  C   UNL     1       0.253  -4.660  -6.021  1.00  0.00     0.004 C 
ENDROOT
BRANCH   1   2
ATOM      2  C   UNL     1      -1.028  -4.382  -6.822  1.00  0.00     0.027 C 
BRANCH   2   3
ATOM      3  C   UNL     1      -1.083  -2.950  -7.273  1.00  0.00    -0.025 C 
ATOM      4  C   UNL     1      -0.515  -2.556  -8.418  1.00  0.00     0.020 C 
BRANCH   4   5
ATOM      5  C   UNL     1      -0.568  -1.161  -8.886  1.00  0.00     0.064 C 
ATOM      6  O   UNL     1       0.024  -0.805  -9.939  1.00  0.00    -0.545 OA
ATOM      7  O   UNL     1      -1.282  -0.223  -8.152  1.00  0.00    -0.545 OA
ENDBRANCH   4   5
ENDBRANCH   2   3
ENDBRANCH   1   2
BRANCH   1   8
ATOM      8  C   UNL     1       1.179  -5.668  -6.721  1.00  0.00     0.000 C 
BRANCH   8   9
ATOM      9  C   UNL     1       2.163  -4.994  -7.690  1.00  0.00    -0.000 C 
BRANCH   9  10
ATOM     10  C   UNL     1       2.214  -5.741  -9.028  1.00  0.00    -0.003 C 
ATOM     11  C   UNL     1       0.814  -5.966  -9.587  1.00  0.00     0.004 C 
ENDBRANCH   9  10
ENDBRANCH   8   9
ENDBRANCH   1   8
TORSDOF 6
ENDMDL
MODEL 7
REMARK VINA RESULT:    -3.807     13.234     14.813
REMARK INTER + INTRA:          -5.644
REMARK INTER:                  -5.318
REMARK INTRA:                  -0.326
REMARK UNBOUND:                -0.502
REMARK SMILES CCCCCCC=CC(=O)[O-]
REMARK SMILES IDX 5 1 6 2 7 3 8 4 9 5 10 6 11 7 4 8 3 9 2 10 1 11
REMARK H PARENT
REMARK Flexibility Score: inf
ROOT
ATOM      1  C   UNL     1       7.519   6.525  -1.725  1.00  0.00     0.004 C 
ENDROOT
BRANCH   1   2
ATOM      2  C   UNL     1       7.399   5.243  -2.563  1.00  0.00     0.027 C 
BRANCH   2   3
ATOM      3  C   UNL     1       7.113   5.564  -4.003  1.00  0.00    -0.025 C 
ATOM      4  C   UNL     1       8.067   5.497  -4.937  1.00  0.00     0.020 C 
BRANCH   4   5
ATOM      5  C   UNL     1       7.807   5.794  -6.355  1.00  0.00     0.064 C 
ATOM      6  O   UNL     1       7.683   6.980  -6.760  1.00  0.00    -0.545 OA
ATOM      7  O   UNL     1       7.695   4.747  -7.261  1.00  0.00    -0.545 OA
ENDBRANCH   4   5
ENDBRANCH   2   3
ENDBRANCH   1   2
BRANCH   1   8
ATOM      8  C   UNL     1       6.529   7.614  -2.167  1.00  0.00     0.000 C 
BRANCH   8   9
ATOM      9  C   UNL     1       7.122   9.028  -2.068  1.00  0.00    -0.000 C 
BRANCH   9  10
ATOM     10  C   UNL     1       6.091  10.018  -1.512  1.00  0.00    -0.003 C 
ATOM     11  C   UNL     1       4.668   9.569  -1.831  1.00  0.00     0.004 C 
ENDBRANCH   9  10
ENDBRANCH   8   9
ENDBRANCH   1   8
TORSDOF 6
ENDMDL
MODEL 8
REMARK VINA RESULT:    -3.758     14.174     16.257
REMARK INTER + INTRA:          -5.578
REMARK INTER:                  -5.263
REMARK INTRA:                  -0.315
REMARK UNBOUND:                -0.502
REMARK SMILES CCCCCCC=CC(=O)[O-]
REMARK SMILES IDX 5 1 6 2 7 3 8 4 9 5 10 6 11 7 4 8 3 9 2 10 1 11
REMARK H PARENT
REMARK Flexibility Score: inf
ROOT
ATOM      1  C   UNL     1       8.763   5.406  -5.339  1.00  0.00     0.004 C 
ENDROOT
BRANCH   1   2
ATOM      2  C   UNL     1       7.421   5.794  -4.698  1.00  0.00     0.027 C 
BRANCH   2   3
ATOM      3  C   UNL     1       7.242   5.116  -3.369  1.00  0.00    -0.025 C 
ATOM      4  C   UNL     1       8.150   5.236  -2.395  1.00  0.00     0.020 C 
BRANCH   4   5
ATOM      5  C   UNL     1       7.988   4.592  -1.082  1.00  0.00     0.064 C 
ATOM      6  O   UNL     1       8.969   4.435  -0.308  1.00  0.00    -0.545 OA
ATOM      7  O   UNL     1       6.732   4.148  -0.690  1.00  0.00    -0.545 OA
ENDBRANCH   4   5
ENDBRANCH   2   3
ENDBRANCH   1   2
BRANCH   1   8
ATOM      8  C   UNL     1       8.678   5.305  -6.870  1.00  0.00     0.000 C 
BRANCH   8   9
ATOM      9  C   UNL     1       7.317   5.763  -7.418  1.00  0.00    -0.000 C 
BRANCH   9  10
ATOM     10  C   UNL     1       7.496   6.677  -8.636  1.00  0.00    -0.003 C 
ATOM     11  C   UNL     1       8.782   6.350  -9.387  1.00  0.00     0.004 C 
ENDBRANCH   9  10
ENDBRANCH   8   9
ENDBRANCH   1   8
TORSDOF 6
ENDMDL
MODEL 9
REMARK VINA RESULT:    -3.748     12.438     14.647
REMARK INTER + INTRA:          -5.565
REMARK INTER:                  -5.280
REMARK INTRA:                  -0.285
REMARK UNBOUND:                -0.502
REMARK SMILES CCCCCCC=CC(=O)[O-]
REMARK SMILES IDX 5 1 6 2 7 3 8 4 9 5 10 6 11 7 4 8 3 9 2 10 1 11
REMARK H PARENT
REMARK Flexibility Score: inf
ROOT
ATOM      1  C   UNL     1       7.016   6.973  -2.108  1.00  0.00     0.004 C 
ENDROOT
BRANCH   1   2
ATOM      2  C   UNL     1       7.591   8.389  -1.948  1.00  0.00     0.027 C 
BRANCH   2   3
ATOM      3  C   UNL     1       6.495   9.418  -1.930  1.00  0.00    -0.025 C 
ATOM      4  C   UNL     1       5.206   9.065  -1.915  1.00  0.00     0.020 C 
BRANCH   4   5
ATOM      5  C   UNL     1       4.117  10.055  -1.884  1.00  0.00     0.064 C 
ATOM      6  O   UNL     1       3.515  10.326  -0.811  1.00  0.00    -0.545 OA
ATOM      7  O   UNL     1       3.748  10.700  -3.057  1.00  0.00    -0.545 OA
ENDBRANCH   4   5
ENDBRANCH   2   3
ENDBRANCH   1   2
BRANCH   1   8
ATOM      8  C   UNL     1       7.973   6.028  -2.851  1.00  0.00     0.000 C 
BRANCH   8   9
ATOM      9  C   UNL     1       7.377   5.496  -4.164  1.00  0.00    -0.000 C 
BRANCH   9  10
ATOM     10  C   UNL     1       8.084   6.113  -5.377  1.00  0.00    -0.003 C 
ATOM     11  C   UNL     1       8.087   5.152  -6.561  1.00  0.00     0.004 C 
ENDBRANCH   9  10
ENDBRANCH   8   9
ENDBRANCH   1   8
TORSDOF 6
ENDMDL
