MODEL 1
REMARK VINA RESULT:    -4.918      0.000      0.000
REMARK INTER + INTRA:          -7.159
REMARK INTER:                  -7.506
REMARK INTRA:                   0.347
REMARK UNBOUND:                 0.347
REMARK SMILES CC1=CCC[C@@H](C)C(=O)C[C@@H](C(C)C)C(=O)C1
REMARK SMILES IDX 8 1 9 2 6 3 7 4 5 5 4 6 3 7 2 8 1 9 10 11 11 12 15 13 16 14
REMARK SMILES IDX 17 15 12 17 13 18 14 19
REMARK H PARENT
REMARK Flexibility Score: 70.00
ROOT
ATOM      1  C   UNL     1     -16.889  37.186  11.489  1.00  0.00     0.136 C 
ATOM      2  O   UNL     1     -15.691  36.944  11.537  1.00  0.00    -0.299 OA
ENDROOT
BRANCH   1   3
ATOM      3  C   UNL     1     -17.763  36.299  10.606  1.00  0.00     0.053 C 
ATOM      4  C   UNL     1     -19.105  36.919  10.184  1.00  0.00     0.016 C 
BRANCH   3   5
ATOM      5  C   UNL     1     -17.960  34.881  11.203  1.00  0.00     0.015 C 
BRANCH   5   6
ATOM      6  C   UNL     1     -17.894  34.796  12.741  1.00  0.00     0.028 C 
BRANCH   6   7
ATOM      7  C   UNL     1     -19.197  35.228  13.372  1.00  0.00    -0.028 C 
ATOM      8  C   UNL     1     -19.321  36.056  14.433  1.00  0.00    -0.070 CG0
ATOM      9  C   UNL     1     -20.712  36.377  14.921  1.00  0.00     0.039 C 
ATOM     10  G   UNL     1     -18.132  36.673  15.145  1.00  0.00     0.000 G0
ENDBRANCH   6   7
ENDBRANCH   5   6
ENDBRANCH   3   5
ENDBRANCH   1   3
BRANCH   1  11
ATOM     11  C   UNL     1     -17.392  38.397  12.255  1.00  0.00     0.087 C 
BRANCH  11  12
ATOM     12  C   UNL     1     -16.806  38.465  13.688  1.00  0.00     0.066 C 
BRANCH  12  13
ATOM     13  C   UNL     1     -17.870  38.117  14.718  1.00  0.00     0.140 C 
ATOM     14  O   UNL     1     -18.503  39.011  15.261  1.00  0.00    -0.299 OA
BRANCH  13  15
ATOM     15  C   UNL     1     -18.121  36.694  15.149  1.00  0.00     0.106 CG0
ATOM     16  G   UNL     1     -19.296  36.060  14.429  1.00  0.00     0.000 G0
ENDBRANCH  13  15
ENDBRANCH  12  13
BRANCH  12  17
ATOM     17  C   UNL     1     -16.131  39.832  14.026  1.00  0.00    -0.006 C 
ATOM     18  C   UNL     1     -14.853  40.120  13.219  1.00  0.00     0.008 C 
ATOM     19  C   UNL     1     -15.837  39.960  15.530  1.00  0.00     0.008 C 
ENDBRANCH  12  17
ENDBRANCH  11  12
ENDBRANCH   1  11
TORSDOF 1
ENDMDL
MODEL 2
REMARK VINA RESULT:    -4.916      1.459      3.919
REMARK INTER + INTRA:          -7.155
REMARK INTER:                  -6.927
REMARK INTRA:                  -0.228
REMARK UNBOUND:                 0.347
REMARK SMILES CC1=CCC[C@@H](C)C(=O)C[C@@H](C(C)C)C(=O)C1
REMARK SMILES IDX 8 1 9 2 6 3 7 4 5 5 4 6 3 7 2 8 1 9 10 11 11 12 15 13 16 14
REMARK SMILES IDX 17 15 12 17 13 18 14 19
REMARK H PARENT
REMARK Flexibility Score: 70.00
ROOT
ATOM      1  C   UNL     1     -18.192  35.425  12.293  1.00  0.00     0.136 C 
ATOM      2  O   UNL     1     -17.654  34.404  11.888  1.00  0.00    -0.299 OA
ENDROOT
BRANCH   1   3
ATOM      3  C   UNL     1     -18.447  36.545  11.288  1.00  0.00     0.053 C 
ATOM      4  C   UNL     1     -19.093  36.099   9.966  1.00  0.00     0.016 C 
BRANCH   3   5
ATOM      5  C   UNL     1     -17.186  37.412  11.035  1.00  0.00     0.015 C 
BRANCH   5   6
ATOM      6  C   UNL     1     -16.085  37.307  12.109  1.00  0.00     0.028 C 
BRANCH   6   7
ATOM      7  C   UNL     1     -15.949  38.597  12.884  1.00  0.00    -0.028 C 
ATOM      8  C   UNL     1     -16.217  38.756  14.200  1.00  0.00    -0.070 CG0
ATOM      9  C   UNL     1     -16.016  40.125  14.801  1.00  0.00     0.039 C 
ATOM     10  G   UNL     1     -16.703  37.627  15.089  1.00  0.00     0.000 G0
ENDBRANCH   6   7
ENDBRANCH   5   6
ENDBRANCH   3   5
ENDBRANCH   1   3
BRANCH   1  11
ATOM     11  C   UNL     1     -18.493  35.519  13.779  1.00  0.00     0.087 C 
BRANCH  11  12
ATOM     12  C   UNL     1     -19.077  36.899  14.169  1.00  0.00     0.066 C 
BRANCH  12  13
ATOM     13  C   UNL     1     -18.214  37.566  15.229  1.00  0.00     0.140 C 
ATOM     14  O   UNL     1     -18.743  38.124  16.178  1.00  0.00    -0.299 OA
BRANCH  13  15
ATOM     15  C   UNL     1     -16.711  37.621  15.108  1.00  0.00     0.106 CG0
ATOM     16  G   UNL     1     -16.234  38.748  14.211  1.00  0.00     0.000 G0
ENDBRANCH  13  15
ENDBRANCH  12  13
BRANCH  12  17
ATOM     17  C   UNL     1     -20.571  36.844  14.623  1.00  0.00    -0.006 C 
ATOM     18  C   UNL     1     -20.902  35.665  15.555  1.00  0.00     0.008 C 
ATOM     19  C   UNL     1     -21.528  36.843  13.420  1.00  0.00     0.008 C 
ENDBRANCH  12  17
ENDBRANCH  11  12
ENDBRANCH   1  11
TORSDOF 1
ENDMDL
MODEL 3
REMARK VINA RESULT:    -4.901      1.722      5.080
REMARK INTER + INTRA:          -7.132
REMARK INTER:                  -7.423
REMARK INTRA:                   0.291
REMARK UNBOUND:                 0.347
REMARK SMILES CC1=CCC[C@@H](C)C(=O)C[C@@H](C(C)C)C(=O)C1
REMARK SMILES IDX 8 1 9 2 6 3 7 4 5 5 4 6 3 7 2 8 1 9 10 11 11 12 15 13 16 14
REMARK SMILES IDX 17 15 12 17 13 18 14 19
REMARK H PARENT
REMARK Flexibility Score: 70.00
ROOT
ATOM      1  C   UNL     1     -17.712  38.273  15.977  1.00  0.00     0.136 C 
ATOM      2  O   UNL     1     -18.166  38.032  17.087  1.00  0.00    -0.299 OA
ENDROOT
BRANCH   1   3
ATOM      3  C   UNL     1     -16.373  39.000  15.896  1.00  0.00     0.053 C 
ATOM      4  C   UNL     1     -15.982  39.789  17.156  1.00  0.00     0.016 C 
BRANCH   3   5
ATOM      5  C   UNL     1     -16.250  39.876  14.622  1.00  0.00     0.015 C 
BRANCH   5   6
ATOM      6  C   UNL     1     -15.363  39.294  13.503  1.00  0.00     0.028 C 
BRANCH   6   7
ATOM      7  C   UNL     1     -16.197  38.793  12.346  1.00  0.00    -0.028 C 
ATOM      8  C   UNL     1     -16.715  37.549  12.230  1.00  0.00    -0.070 CG0
ATOM      9  C   UNL     1     -17.527  37.234  10.999  1.00  0.00     0.039 C 
ATOM     10  G   UNL     1     -16.519  36.470  13.278  1.00  0.00     0.000 G0
ENDBRANCH   6   7
ENDBRANCH   5   6
ENDBRANCH   3   5
ENDBRANCH   1   3
BRANCH   1  11
ATOM     11  C   UNL     1     -18.558  37.893  14.774  1.00  0.00     0.087 C 
BRANCH  11  12
ATOM     12  C   UNL     1     -18.764  36.361  14.667  1.00  0.00     0.066 C 
BRANCH  12  13
ATOM     13  C   UNL     1     -17.806  35.762  13.648  1.00  0.00     0.140 C 
ATOM     14  O   UNL     1     -18.049  34.670  13.157  1.00  0.00    -0.299 OA
BRANCH  13  15
ATOM     15  C   UNL     1     -16.517  36.449  13.273  1.00  0.00     0.106 CG0
ATOM     16  G   UNL     1     -16.712  37.543  12.240  1.00  0.00     0.000 G0
ENDBRANCH  13  15
ENDBRANCH  12  13
BRANCH  12  17
ATOM     17  C   UNL     1     -20.237  35.946  14.355  1.00  0.00    -0.006 C 
ATOM     18  C   UNL     1     -20.891  36.751  13.219  1.00  0.00     0.008 C 
ATOM     19  C   UNL     1     -21.119  36.007  15.613  1.00  0.00     0.008 C 
ENDBRANCH  12  17
ENDBRANCH  11  12
ENDBRANCH   1  11
TORSDOF 1
ENDMDL
MODEL 4
REMARK VINA RESULT:    -4.863     16.570     18.738
REMARK INTER + INTRA:          -7.074
REMARK INTER:                  -7.733
REMARK INTRA:                   0.659
REMARK UNBOUND:                 0.347
REMARK SMILES CC1=CCC[C@@H](C)C(=O)C[C@@H](C(C)C)C(=O)C1
REMARK SMILES IDX 8 1 9 2 6 3 7 4 5 5 4 6 3 7 2 8 1 9 10 11 11 12 15 13 16 14
REMARK SMILES IDX 17 15 12 17 13 18 14 19
REMARK H PARENT
REMARK Flexibility Score: 70.00
ROOT
ATOM      1  C   UNL     1     -27.201  22.969  14.599  1.00  0.00     0.136 C 
ATOM      2  O   UNL     1     -26.387  23.494  15.345  1.00  0.00    -0.299 OA
ENDROOT
BRANCH   1   3
ATOM      3  C   UNL     1     -28.318  22.141  15.229  1.00  0.00     0.053 C 
ATOM      4  C   UNL     1     -28.227  21.979  16.755  1.00  0.00     0.016 C 
BRANCH   3   5
ATOM      5  C   UNL     1     -28.508  20.771  14.527  1.00  0.00     0.015 C 
BRANCH   5   6
ATOM      6  C   UNL     1     -29.959  20.253  14.470  1.00  0.00     0.028 C 
BRANCH   6   7
ATOM      7  C   UNL     1     -30.878  21.261  13.821  1.00  0.00    -0.028 C 
ATOM      8  C   UNL     1     -30.736  21.766  12.574  1.00  0.00    -0.070 CG0
ATOM      9  C   UNL     1     -31.761  22.764  12.095  1.00  0.00     0.039 C 
ATOM     10  G   UNL     1     -29.605  21.371  11.644  1.00  0.00     0.000 G0
ENDBRANCH   6   7
ENDBRANCH   5   6
ENDBRANCH   3   5
ENDBRANCH   1   3
BRANCH   1  11
ATOM     11  C   UNL     1     -26.987  23.125  13.103  1.00  0.00     0.087 C 
BRANCH  11  12
ATOM     12  C   UNL     1     -28.282  23.557  12.371  1.00  0.00     0.066 C 
BRANCH  12  13
ATOM     13  C   UNL     1     -28.668  22.531  11.317  1.00  0.00     0.140 C 
ATOM     14  O   UNL     1     -28.266  22.659  10.170  1.00  0.00    -0.299 OA
BRANCH  13  15
ATOM     15  C   UNL     1     -29.599  21.385  11.629  1.00  0.00     0.106 CG0
ATOM     16  G   UNL     1     -30.721  21.778  12.571  1.00  0.00     0.000 G0
ENDBRANCH  13  15
ENDBRANCH  12  13
BRANCH  12  17
ATOM     17  C   UNL     1     -28.206  24.988  11.751  1.00  0.00    -0.006 C 
ATOM     18  C   UNL     1     -27.850  26.094  12.760  1.00  0.00     0.008 C 
ATOM     19  C   UNL     1     -29.506  25.355  11.014  1.00  0.00     0.008 C 
ENDBRANCH  12  17
ENDBRANCH  11  12
ENDBRANCH   1  11
TORSDOF 1
ENDMDL
MODEL 5
REMARK VINA RESULT:    -4.828     17.124     19.356
REMARK INTER + INTRA:          -7.021
REMARK INTER:                  -7.043
REMARK INTRA:                   0.022
REMARK UNBOUND:                 0.347
REMARK SMILES CC1=CCC[C@@H](C)C(=O)C[C@@H](C(C)C)C(=O)C1
REMARK SMILES IDX 8 1 9 2 6 3 7 4 5 5 4 6 3 7 2 8 1 9 10 11 11 12 15 13 16 14
REMARK SMILES IDX 17 15 12 17 13 18 14 19
REMARK H PARENT
REMARK Flexibility Score: 70.00
ROOT
ATOM      1  C   UNL     1     -28.676  22.629  11.446  1.00  0.00     0.136 C 
ATOM      2  O   UNL     1     -27.892  22.524  10.513  1.00  0.00    -0.299 OA
ENDROOT
BRANCH   1   3
ATOM      3  C   UNL     1     -28.840  24.003  12.090  1.00  0.00     0.053 C 
ATOM      4  C   UNL     1     -29.193  25.140  11.117  1.00  0.00     0.016 C 
BRANCH   3   5
ATOM      5  C   UNL     1     -27.635  24.384  12.989  1.00  0.00     0.015 C 
BRANCH   5   6
ATOM      6  C   UNL     1     -26.886  23.198  13.628  1.00  0.00     0.028 C 
BRANCH   6   7
ATOM      7  C   UNL     1     -27.279  23.016  15.076  1.00  0.00    -0.028 C 
ATOM      8  C   UNL     1     -27.891  21.927  15.594  1.00  0.00    -0.070 CG0
ATOM      9  C   UNL     1     -28.202  21.926  17.070  1.00  0.00     0.039 C 
ATOM     10  G   UNL     1     -28.272  20.717  14.762  1.00  0.00     0.000 G0
ENDBRANCH   6   7
ENDBRANCH   5   6
ENDBRANCH   3   5
ENDBRANCH   1   3
BRANCH   1  11
ATOM     11  C   UNL     1     -29.364  21.365  11.932  1.00  0.00     0.087 C 
BRANCH  11  12
ATOM     12  C   UNL     1     -30.215  21.617  13.202  1.00  0.00     0.066 C 
BRANCH  12  13
ATOM     13  C   UNL     1     -29.730  20.748  14.352  1.00  0.00     0.140 C 
ATOM     14  O   UNL     1     -30.534  20.094  14.999  1.00  0.00    -0.299 OA
BRANCH  13  15
ATOM     15  C   UNL     1     -28.280  20.722  14.770  1.00  0.00     0.106 CG0
ATOM     16  G   UNL     1     -27.885  21.928  15.600  1.00  0.00     0.000 G0
ENDBRANCH  13  15
ENDBRANCH  12  13
BRANCH  12  17
ATOM     17  C   UNL     1     -31.750  21.432  12.977  1.00  0.00    -0.006 C 
ATOM     18  C   UNL     1     -32.147  20.038  12.461  1.00  0.00     0.008 C 
ATOM     19  C   UNL     1     -32.318  22.515  12.044  1.00  0.00     0.008 C 
ENDBRANCH  12  17
ENDBRANCH  11  12
ENDBRANCH   1  11
TORSDOF 1
ENDMDL
MODEL 6
REMARK VINA RESULT:    -4.799     17.173     19.303
REMARK INTER + INTRA:          -6.977
REMARK INTER:                  -7.599
REMARK INTRA:                   0.622
REMARK UNBOUND:                 0.347
REMARK SMILES CC1=CCC[C@@H](C)C(=O)C[C@@H](C(C)C)C(=O)C1
REMARK SMILES IDX 8 1 9 2 6 3 7 4 5 5 4 6 3 7 2 8 1 9 10 11 11 12 15 13 16 14
REMARK SMILES IDX 17 15 12 17 13 18 14 19
REMARK H PARENT
REMARK Flexibility Score: 70.00
ROOT
ATOM      1  C   UNL     1     -27.165  23.248  13.335  1.00  0.00     0.136 C 
ATOM      2  O   UNL     1     -25.993  22.900  13.396  1.00  0.00    -0.299 OA
ENDROOT
BRANCH   1   3
ATOM      3  C   UNL     1     -27.609  24.047  12.113  1.00  0.00     0.053 C 
ATOM      4  C   UNL     1     -27.865  25.541  12.370  1.00  0.00     0.016 C 
BRANCH   3   5
ATOM      5  C   UNL     1     -28.805  23.388  11.378  1.00  0.00     0.015 C 
BRANCH   5   6
ATOM      6  C   UNL     1     -30.197  23.926  11.765  1.00  0.00     0.028 C 
BRANCH   6   7
ATOM      7  C   UNL     1     -31.257  22.858  11.626  1.00  0.00    -0.028 C 
ATOM      8  C   UNL     1     -31.551  21.917  12.551  1.00  0.00    -0.070 CG0
ATOM      9  C   UNL     1     -32.650  20.933  12.234  1.00  0.00     0.039 C 
ATOM     10  G   UNL     1     -30.832  21.811  13.882  1.00  0.00     0.000 G0
ENDBRANCH   6   7
ENDBRANCH   5   6
ENDBRANCH   3   5
ENDBRANCH   1   3
BRANCH   1  11
ATOM     11  C   UNL     1     -28.058  22.917  14.517  1.00  0.00     0.087 C 
BRANCH  11  12
ATOM     12  C   UNL     1     -28.331  21.397  14.635  1.00  0.00     0.066 C 
BRANCH  12  13
ATOM     13  C   UNL     1     -29.561  21.010  13.828  1.00  0.00     0.140 C 
ATOM     14  O   UNL     1     -29.504  20.069  13.050  1.00  0.00    -0.299 OA
BRANCH  13  15
ATOM     15  C   UNL     1     -30.842  21.802  13.906  1.00  0.00     0.106 CG0
ATOM     16  G   UNL     1     -31.550  21.909  12.568  1.00  0.00     0.000 G0
ENDBRANCH  13  15
ENDBRANCH  12  13
BRANCH  12  17
ATOM     17  C   UNL     1     -28.452  20.892  16.108  1.00  0.00    -0.006 C 
ATOM     18  C   UNL     1     -29.760  20.138  16.409  1.00  0.00     0.008 C 
ATOM     19  C   UNL     1     -28.268  22.039  17.116  1.00  0.00     0.008 C 
ENDBRANCH  12  17
ENDBRANCH  11  12
ENDBRANCH   1  11
TORSDOF 1
ENDMDL
MODEL 7
REMARK VINA RESULT:    -4.739      1.559      2.322
REMARK INTER + INTRA:          -6.885
REMARK INTER:                  -6.895
REMARK INTRA:                   0.010
REMARK UNBOUND:                 0.347
REMARK SMILES CC1=CCC[C@@H](C)C(=O)C[C@@H](C(C)C)C(=O)C1
REMARK SMILES IDX 8 1 9 2 6 3 7 4 5 5 4 6 3 7 2 8 1 9 10 11 11 12 15 13 16 14
REMARK SMILES IDX 17 15 12 17 13 18 14 19
REMARK H PARENT
REMARK Flexibility Score: 70.00
ROOT
ATOM      1  C   UNL     1     -17.932  36.957  11.454  1.00  0.00     0.136 C 
ATOM      2  O   UNL     1     -18.685  37.087  10.499  1.00  0.00    -0.299 OA
ENDROOT
BRANCH   1   3
ATOM      3  C   UNL     1     -17.826  35.577  12.097  1.00  0.00     0.053 C 
ATOM      4  C   UNL     1     -17.376  34.451  11.152  1.00  0.00     0.016 C 
BRANCH   3   5
ATOM      5  C   UNL     1     -19.111  35.183  12.871  1.00  0.00     0.015 C 
BRANCH   5   6
ATOM      6  C   UNL     1     -19.838  36.344  13.578  1.00  0.00     0.028 C 
BRANCH   6   7
ATOM      7  C   UNL     1     -19.417  36.457  15.025  1.00  0.00    -0.028 C 
ATOM      8  C   UNL     1     -18.799  37.522  15.584  1.00  0.00    -0.070 CG0
ATOM      9  C   UNL     1     -18.459  37.451  17.052  1.00  0.00     0.039 C 
ATOM     10  G   UNL     1     -18.440  38.773  14.806  1.00  0.00     0.000 G0
ENDBRANCH   6   7
ENDBRANCH   5   6
ENDBRANCH   3   5
ENDBRANCH   1   3
BRANCH   1  11
ATOM     11  C   UNL     1     -17.223  38.199  11.964  1.00  0.00     0.087 C 
BRANCH  11  12
ATOM     12  C   UNL     1     -16.447  37.929  13.277  1.00  0.00     0.066 C 
BRANCH  12  13
ATOM     13  C   UNL     1     -16.982  38.799  14.404  1.00  0.00     0.140 C 
ATOM     14  O   UNL     1     -16.216  39.508  15.039  1.00  0.00    -0.299 OA
BRANCH  13  15
ATOM     15  C   UNL     1     -18.434  38.762  14.814  1.00  0.00     0.106 CG0
ATOM     16  G   UNL     1     -18.794  37.509  15.589  1.00  0.00     0.000 G0
ENDBRANCH  13  15
ENDBRANCH  12  13
BRANCH  12  17
ATOM     17  C   UNL     1     -14.899  38.093  13.138  1.00  0.00    -0.006 C 
ATOM     18  C   UNL     1     -14.455  39.482  12.650  1.00  0.00     0.008 C 
ATOM     19  C   UNL     1     -14.296  37.005  12.234  1.00  0.00     0.008 C 
ENDBRANCH  12  17
ENDBRANCH  11  12
ENDBRANCH   1  11
TORSDOF 1
ENDMDL
MODEL 8
REMARK VINA RESULT:    -4.666      1.833      4.930
REMARK INTER + INTRA:          -6.774
REMARK INTER:                  -7.009
REMARK INTRA:                   0.236
REMARK UNBOUND:                 0.347
REMARK SMILES CC1=CCC[C@@H](C)C(=O)C[C@@H](C(C)C)C(=O)C1
REMARK SMILES IDX 8 1 9 2 6 3 7 4 5 5 4 6 3 7 2 8 1 9 10 11 11 12 15 13 16 14
REMARK SMILES IDX 17 15 12 17 13 18 14 19
REMARK H PARENT
REMARK Flexibility Score: 70.00
ROOT
ATOM      1  C   UNL     1     -20.142  36.381  13.300  1.00  0.00     0.136 C 
ATOM      2  O   UNL     1     -21.295  36.748  13.115  1.00  0.00    -0.299 OA
ENDROOT
BRANCH   1   3
ATOM      3  C   UNL     1     -19.728  36.023  14.725  1.00  0.00     0.053 C 
ATOM      4  C   UNL     1     -20.879  35.962  15.743  1.00  0.00     0.016 C 
BRANCH   3   5
ATOM      5  C   UNL     1     -18.563  36.907  15.243  1.00  0.00     0.015 C 
BRANCH   5   6
ATOM      6  C   UNL     1     -18.619  38.388  14.820  1.00  0.00     0.028 C 
BRANCH   6   7
ATOM      7  C   UNL     1     -17.232  38.965  14.655  1.00  0.00    -0.028 C 
ATOM      8  C   UNL     1     -16.507  38.956  13.514  1.00  0.00    -0.070 CG0
ATOM      9  C   UNL     1     -15.137  39.587  13.543  1.00  0.00     0.039 C 
ATOM     10  G   UNL     1     -17.008  38.348  12.219  1.00  0.00     0.000 G0
ENDBRANCH   6   7
ENDBRANCH   5   6
ENDBRANCH   3   5
ENDBRANCH   1   3
BRANCH   1  11
ATOM     11  C   UNL     1     -19.203  36.384  12.107  1.00  0.00     0.087 C 
BRANCH  11  12
ATOM     12  C   UNL     1     -17.792  35.861  12.475  1.00  0.00     0.066 C 
BRANCH  12  13
ATOM     13  C   UNL     1     -16.729  36.886  12.109  1.00  0.00     0.140 C 
ATOM     14  O   UNL     1     -15.613  36.512  11.784  1.00  0.00    -0.299 OA
BRANCH  13  15
ATOM     15  C   UNL     1     -16.992  38.369  12.204  1.00  0.00     0.106 CG0
ATOM     16  G   UNL     1     -16.528  38.966  13.519  1.00  0.00     0.000 G0
ENDBRANCH  13  15
ENDBRANCH  12  13
BRANCH  12  17
ATOM     17  C   UNL     1     -17.456  34.468  11.855  1.00  0.00    -0.006 C 
ATOM     18  C   UNL     1     -18.429  34.020  10.750  1.00  0.00     0.008 C 
ATOM     19  C   UNL     1     -17.355  33.378  12.935  1.00  0.00     0.008 C 
ENDBRANCH  12  17
ENDBRANCH  11  12
ENDBRANCH   1  11
TORSDOF 1
ENDMDL
MODEL 9
REMARK VINA RESULT:    -4.594      1.597      3.966
REMARK INTER + INTRA:          -6.664
REMARK INTER:                  -6.839
REMARK INTRA:                   0.175
REMARK UNBOUND:                 0.347
REMARK SMILES CC1=CCC[C@@H](C)C(=O)C[C@@H](C(C)C)C(=O)C1
REMARK SMILES IDX 8 1 9 2 6 3 7 4 5 5 4 6 3 7 2 8 1 9 10 11 11 12 15 13 16 14
REMARK SMILES IDX 17 15 12 17 13 18 14 19
REMARK H PARENT
REMARK Flexibility Score: 70.00
ROOT
ATOM      1  C   UNL     1     -15.338  37.634  12.309  1.00  0.00     0.136 C 
ATOM      2  O   UNL     1     -14.467  37.096  12.979  1.00  0.00    -0.299 OA
ENDROOT
BRANCH   1   3
ATOM      3  C   UNL     1     -15.572  39.129  12.512  1.00  0.00     0.053 C 
ATOM      4  C   UNL     1     -14.342  39.925  12.977  1.00  0.00     0.016 C 
BRANCH   3   5
ATOM      5  C   UNL     1     -16.804  39.419  13.409  1.00  0.00     0.015 C 
BRANCH   5   6
ATOM      6  C   UNL     1     -16.844  38.650  14.744  1.00  0.00     0.028 C 
BRANCH   6   7
ATOM      7  C   UNL     1     -18.206  38.040  14.986  1.00  0.00    -0.028 C 
ATOM      8  C   UNL     1     -18.510  36.728  14.878  1.00  0.00    -0.070 CG0
ATOM      9  C   UNL     1     -19.930  36.305  15.164  1.00  0.00     0.039 C 
ATOM     10  G   UNL     1     -17.494  35.671  14.489  1.00  0.00     0.000 G0
ENDBRANCH   6   7
ENDBRANCH   5   6
ENDBRANCH   3   5
ENDBRANCH   1   3
BRANCH   1  11
ATOM     11  C   UNL     1     -16.162  36.752  11.388  1.00  0.00     0.087 C 
BRANCH  11  12
ATOM     12  C   UNL     1     -17.559  36.439  11.977  1.00  0.00     0.066 C 
BRANCH  12  13
ATOM     13  C   UNL     1     -17.464  35.344  13.029  1.00  0.00     0.140 C 
ATOM     14  O   UNL     1     -17.416  34.173  12.682  1.00  0.00    -0.299 OA
BRANCH  13  15
ATOM     15  C   UNL     1     -17.497  35.656  14.504  1.00  0.00     0.106 CG0
ATOM     16  G   UNL     1     -18.513  36.726  14.856  1.00  0.00     0.000 G0
ENDBRANCH  13  15
ENDBRANCH  12  13
BRANCH  12  17
ATOM     17  C   UNL     1     -18.631  36.080  10.898  1.00  0.00    -0.006 C 
ATOM     18  C   UNL     1     -18.667  37.046   9.701  1.00  0.00     0.008 C 
ATOM     19  C   UNL     1     -20.035  35.960  11.514  1.00  0.00     0.008 C 
ENDBRANCH  12  17
ENDBRANCH  11  12
ENDBRANCH   1  11
TORSDOF 1
ENDMDL
