MODEL 1
REMARK VINA RESULT:    -4.550      0.000      0.000
REMARK INTER + INTRA:          -6.331
REMARK INTER:                  -6.146
REMARK INTRA:                  -0.185
REMARK UNBOUND:                -0.185
REMARK SMILES CCCCCCCC(=O)[O-]
REMARK SMILES IDX 5 1 6 2 7 3 8 4 9 5 10 6 4 7 3 8 2 9 1 10
REMARK H PARENT
REMARK Flexibility Score: inf
ROOT
ATOM      1  C   UNL     1      12.139 -60.384 -20.425  1.00  0.00     0.000 C 
ENDROOT
BRANCH   1   2
ATOM      2  C   UNL     1      12.657 -60.747 -19.019  1.00  0.00     0.006 C 
BRANCH   2   3
ATOM      3  C   UNL     1      11.593 -60.683 -17.913  1.00  0.00     0.053 C 
BRANCH   3   4
ATOM      4  C   UNL     1      11.947 -59.685 -16.852  1.00  0.00     0.041 C 
ATOM      5  O   UNL     1      11.056 -58.947 -16.355  1.00  0.00    -0.550 OA
ATOM      6  O   UNL     1      13.265 -59.549 -16.438  1.00  0.00    -0.550 OA
ENDBRANCH   3   4
ENDBRANCH   2   3
ENDBRANCH   1   2
BRANCH   1   7
ATOM      7  C   UNL     1      10.819 -59.587 -20.451  1.00  0.00     0.000 C 
BRANCH   7   8
ATOM      8  C   UNL     1      10.498 -58.901 -21.790  1.00  0.00    -0.000 C 
BRANCH   8   9
ATOM      9  C   UNL     1       9.694 -57.604 -21.617  1.00  0.00    -0.003 C 
ATOM     10  C   UNL     1      10.026 -56.601 -22.719  1.00  0.00     0.004 C 
ENDBRANCH   8   9
ENDBRANCH   7   8
ENDBRANCH   1   7
TORSDOF 6
ENDMDL
MODEL 2
REMARK VINA RESULT:    -4.215     12.571     13.876
REMARK INTER + INTRA:          -5.879
REMARK INTER:                  -5.567
REMARK INTRA:                  -0.311
REMARK UNBOUND:                -0.185
REMARK SMILES CCCCCCCC(=O)[O-]
REMARK SMILES IDX 5 1 6 2 7 3 8 4 9 5 10 6 4 7 3 8 2 9 1 10
REMARK H PARENT
REMARK Flexibility Score: inf
ROOT
ATOM      1  C   UNL     1      13.144 -58.172 -30.659  1.00  0.00     0.000 C 
ENDROOT
BRANCH   1   2
ATOM      2  C   UNL     1      12.843 -56.918 -31.505  1.00  0.00     0.006 C 
BRANCH   2   3
ATOM      3  C   UNL     1      13.818 -55.752 -31.281  1.00  0.00     0.053 C 
BRANCH   3   4
ATOM      4  C   UNL     1      14.107 -55.012 -32.552  1.00  0.00     0.041 C 
ATOM      5  O   UNL     1      13.977 -55.589 -33.664  1.00  0.00    -0.550 OA
ATOM      6  O   UNL     1      14.552 -53.697 -32.506  1.00  0.00    -0.550 OA
ENDBRANCH   3   4
ENDBRANCH   2   3
ENDBRANCH   1   2
BRANCH   1   7
ATOM      7  C   UNL     1      12.830 -59.516 -31.346  1.00  0.00     0.000 C 
BRANCH   7   8
ATOM      8  C   UNL     1      14.059 -60.374 -31.692  1.00  0.00    -0.000 C 
BRANCH   8   9
ATOM      9  C   UNL     1      14.140 -60.722 -33.186  1.00  0.00    -0.003 C 
ATOM     10  C   UNL     1      13.728 -59.534 -34.050  1.00  0.00     0.004 C 
ENDBRANCH   8   9
ENDBRANCH   7   8
ENDBRANCH   1   7
TORSDOF 6
ENDMDL
MODEL 3
REMARK VINA RESULT:    -4.213     12.197     13.405
REMARK INTER + INTRA:          -5.876
REMARK INTER:                  -5.655
REMARK INTRA:                  -0.221
REMARK UNBOUND:                -0.185
REMARK SMILES CCCCCCCC(=O)[O-]
REMARK SMILES IDX 5 1 6 2 7 3 8 4 9 5 10 6 4 7 3 8 2 9 1 10
REMARK H PARENT
REMARK Flexibility Score: inf
ROOT
ATOM      1  C   UNL     1      13.203 -57.820 -31.480  1.00  0.00     0.000 C 
ENDROOT
BRANCH   1   2
ATOM      2  C   UNL     1      13.073 -59.159 -30.726  1.00  0.00     0.006 C 
BRANCH   2   3
ATOM      3  C   UNL     1      12.863 -60.382 -31.633  1.00  0.00     0.053 C 
BRANCH   3   4
ATOM      4  C   UNL     1      14.059 -60.651 -32.495  1.00  0.00     0.041 C 
ATOM      5  O   UNL     1      15.111 -61.122 -31.987  1.00  0.00    -0.550 OA
ATOM      6  O   UNL     1      14.021 -60.352 -33.850  1.00  0.00    -0.550 OA
ENDBRANCH   3   4
ENDBRANCH   2   3
ENDBRANCH   1   2
BRANCH   1   7
ATOM      7  C   UNL     1      13.232 -56.564 -30.587  1.00  0.00     0.000 C 
BRANCH   7   8
ATOM      8  C   UNL     1      13.990 -55.362 -31.176  1.00  0.00    -0.000 C 
BRANCH   8   9
ATOM      9  C   UNL     1      13.818 -55.237 -32.697  1.00  0.00    -0.003 C 
ATOM     10  C   UNL     1      14.955 -54.428 -33.315  1.00  0.00     0.004 C 
ENDBRANCH   8   9
ENDBRANCH   7   8
ENDBRANCH   1   7
TORSDOF 6
ENDMDL
MODEL 4
REMARK VINA RESULT:    -4.161     17.555     18.610
REMARK INTER + INTRA:          -5.805
REMARK INTER:                  -5.634
REMARK INTRA:                  -0.171
REMARK UNBOUND:                -0.185
REMARK SMILES CCCCCCCC(=O)[O-]
REMARK SMILES IDX 5 1 6 2 7 3 8 4 9 5 10 6 4 7 3 8 2 9 1 10
REMARK H PARENT
REMARK Flexibility Score: inf
ROOT
ATOM      1  C   UNL     1      20.070 -49.391 -32.288  1.00  0.00     0.000 C 
ENDROOT
BRANCH   1   2
ATOM      2  C   UNL     1      19.750 -50.885 -32.504  1.00  0.00     0.006 C 
BRANCH   2   3
ATOM      3  C   UNL     1      20.979 -51.807 -32.480  1.00  0.00     0.053 C 
BRANCH   3   4
ATOM      4  C   UNL     1      21.349 -52.283 -33.852  1.00  0.00     0.041 C 
ATOM      5  O   UNL     1      21.033 -53.444 -34.225  1.00  0.00    -0.550 OA
ATOM      6  O   UNL     1      22.072 -51.459 -34.704  1.00  0.00    -0.550 OA
ENDBRANCH   3   4
ENDBRANCH   2   3
ENDBRANCH   1   2
BRANCH   1   7
ATOM      7  C   UNL     1      19.083 -48.635 -31.376  1.00  0.00     0.000 C 
BRANCH   7   8
ATOM      8  C   UNL     1      18.768 -47.193 -31.811  1.00  0.00    -0.000 C 
BRANCH   8   9
ATOM      9  C   UNL     1      17.639 -46.557 -30.987  1.00  0.00    -0.003 C 
ATOM     10  C   UNL     1      17.215 -47.468 -29.838  1.00  0.00     0.004 C 
ENDBRANCH   8   9
ENDBRANCH   7   8
ENDBRANCH   1   7
TORSDOF 6
ENDMDL
MODEL 5
REMARK VINA RESULT:    -4.144     17.405     18.012
REMARK INTER + INTRA:          -5.783
REMARK INTER:                  -5.661
REMARK INTRA:                  -0.123
REMARK UNBOUND:                -0.185
REMARK SMILES CCCCCCCC(=O)[O-]
REMARK SMILES IDX 5 1 6 2 7 3 8 4 9 5 10 6 4 7 3 8 2 9 1 10
REMARK H PARENT
REMARK Flexibility Score: inf
ROOT
ATOM      1  C   UNL     1      18.815 -48.673 -31.306  1.00  0.00     0.000 C 
ENDROOT
BRANCH   1   2
ATOM      2  C   UNL     1      20.215 -49.010 -31.858  1.00  0.00     0.006 C 
BRANCH   2   3
ATOM      3  C   UNL     1      20.214 -50.025 -33.012  1.00  0.00     0.053 C 
BRANCH   3   4
ATOM      4  C   UNL     1      20.323 -51.435 -32.517  1.00  0.00     0.041 C 
ATOM      5  O   UNL     1      21.281 -51.772 -31.770  1.00  0.00    -0.550 OA
ATOM      6  O   UNL     1      19.387 -52.384 -32.906  1.00  0.00    -0.550 OA
ENDBRANCH   3   4
ENDBRANCH   2   3
ENDBRANCH   1   2
BRANCH   1   7
ATOM      7  C   UNL     1      18.688 -47.286 -30.645  1.00  0.00     0.000 C 
BRANCH   7   8
ATOM      8  C   UNL     1      17.516 -47.139 -29.658  1.00  0.00    -0.000 C 
BRANCH   8   9
ATOM      9  C   UNL     1      17.351 -45.703 -29.139  1.00  0.00    -0.003 C 
ATOM     10  C   UNL     1      17.861 -45.576 -27.706  1.00  0.00     0.004 C 
ENDBRANCH   8   9
ENDBRANCH   7   8
ENDBRANCH   1   7
TORSDOF 6
ENDMDL
MODEL 6
REMARK VINA RESULT:    -4.127     17.771     18.496
REMARK INTER + INTRA:          -5.759
REMARK INTER:                  -5.602
REMARK INTRA:                  -0.157
REMARK UNBOUND:                -0.185
REMARK SMILES CCCCCCCC(=O)[O-]
REMARK SMILES IDX 5 1 6 2 7 3 8 4 9 5 10 6 4 7 3 8 2 9 1 10
REMARK H PARENT
REMARK Flexibility Score: inf
ROOT
ATOM      1  C   UNL     1      19.792 -50.692 -32.521  1.00  0.00     0.000 C 
ENDROOT
BRANCH   1   2
ATOM      2  C   UNL     1      20.862 -51.780 -32.295  1.00  0.00     0.006 C 
BRANCH   2   3
ATOM      3  C   UNL     1      21.339 -52.477 -33.579  1.00  0.00     0.053 C 
BRANCH   3   4
ATOM      4  C   UNL     1      20.717 -53.830 -33.746  1.00  0.00     0.041 C 
ATOM      5  O   UNL     1      21.345 -54.747 -34.338  1.00  0.00    -0.550 OA
ATOM      6  O   UNL     1      19.431 -54.067 -33.278  1.00  0.00    -0.550 OA
ENDBRANCH   3   4
ENDBRANCH   2   3
ENDBRANCH   1   2
BRANCH   1   7
ATOM      7  C   UNL     1      20.170 -49.286 -32.015  1.00  0.00     0.000 C 
BRANCH   7   8
ATOM      8  C   UNL     1      19.011 -48.479 -31.404  1.00  0.00    -0.000 C 
BRANCH   8   9
ATOM      9  C   UNL     1      19.109 -46.976 -31.704  1.00  0.00    -0.003 C 
ATOM     10  C   UNL     1      19.154 -46.717 -33.208  1.00  0.00     0.004 C 
ENDBRANCH   8   9
ENDBRANCH   7   8
ENDBRANCH   1   7
TORSDOF 6
ENDMDL
MODEL 7
REMARK VINA RESULT:    -4.122     17.420     18.465
REMARK INTER + INTRA:          -5.754
REMARK INTER:                  -5.541
REMARK INTRA:                  -0.213
REMARK UNBOUND:                -0.185
REMARK SMILES CCCCCCCC(=O)[O-]
REMARK SMILES IDX 5 1 6 2 7 3 8 4 9 5 10 6 4 7 3 8 2 9 1 10
REMARK H PARENT
REMARK Flexibility Score: inf
ROOT
ATOM      1  C   UNL     1      21.026 -51.418 -32.102  1.00  0.00     0.000 C 
ENDROOT
BRANCH   1   2
ATOM      2  C   UNL     1      19.823 -50.515 -32.442  1.00  0.00     0.006 C 
BRANCH   2   3
ATOM      3  C   UNL     1      20.192 -49.059 -32.763  1.00  0.00     0.053 C 
BRANCH   3   4
ATOM      4  C   UNL     1      19.263 -48.087 -32.101  1.00  0.00     0.041 C 
ATOM      5  O   UNL     1      19.107 -46.933 -32.581  1.00  0.00    -0.550 OA
ATOM      6  O   UNL     1      18.598 -48.444 -30.936  1.00  0.00    -0.550 OA
ENDBRANCH   3   4
ENDBRANCH   2   3
ENDBRANCH   1   2
BRANCH   1   7
ATOM      7  C   UNL     1      21.116 -52.725 -32.913  1.00  0.00     0.000 C 
BRANCH   7   8
ATOM      8  C   UNL     1      19.766 -53.406 -33.203  1.00  0.00    -0.000 C 
BRANCH   8   9
ATOM      9  C   UNL     1      19.921 -54.746 -33.936  1.00  0.00    -0.003 C 
ATOM     10  C   UNL     1      21.170 -54.752 -34.813  1.00  0.00     0.004 C 
ENDBRANCH   8   9
ENDBRANCH   7   8
ENDBRANCH   1   7
TORSDOF 6
ENDMDL
MODEL 8
REMARK VINA RESULT:    -4.030     14.782     16.631
REMARK INTER + INTRA:          -5.628
REMARK INTER:                  -5.185
REMARK INTRA:                  -0.443
REMARK UNBOUND:                -0.185
REMARK SMILES CCCCCCCC(=O)[O-]
REMARK SMILES IDX 5 1 6 2 7 3 8 4 9 5 10 6 4 7 3 8 2 9 1 10
REMARK H PARENT
REMARK Flexibility Score: inf
ROOT
ATOM      1  C   UNL     1      17.640 -44.038 -24.237  1.00  0.00     0.000 C 
ENDROOT
BRANCH   1   2
ATOM      2  C   UNL     1      16.638 -44.696 -23.267  1.00  0.00     0.006 C 
BRANCH   2   3
ATOM      3  C   UNL     1      17.268 -45.244 -21.977  1.00  0.00     0.053 C 
BRANCH   3   4
ATOM      4  C   UNL     1      17.198 -46.740 -21.911  1.00  0.00     0.041 C 
ATOM      5  O   UNL     1      16.087 -47.315 -21.763  1.00  0.00    -0.550 OA
ATOM      6  O   UNL     1      18.361 -47.495 -21.979  1.00  0.00    -0.550 OA
ENDBRANCH   3   4
ENDBRANCH   2   3
ENDBRANCH   1   2
BRANCH   1   7
ATOM      7  C   UNL     1      17.627 -42.497 -24.246  1.00  0.00     0.000 C 
BRANCH   7   8
ATOM      8  C   UNL     1      16.364 -41.851 -23.650  1.00  0.00    -0.000 C 
BRANCH   8   9
ATOM      9  C   UNL     1      16.646 -41.079 -22.353  1.00  0.00    -0.003 C 
ATOM     10  C   UNL     1      15.861 -41.664 -21.182  1.00  0.00     0.004 C 
ENDBRANCH   8   9
ENDBRANCH   7   8
ENDBRANCH   1   7
TORSDOF 6
ENDMDL
MODEL 9
REMARK VINA RESULT:    -4.019     14.343     16.090
REMARK INTER + INTRA:          -5.614
REMARK INTER:                  -5.340
REMARK INTRA:                  -0.274
REMARK UNBOUND:                -0.185
REMARK SMILES CCCCCCCC(=O)[O-]
REMARK SMILES IDX 5 1 6 2 7 3 8 4 9 5 10 6 4 7 3 8 2 9 1 10
REMARK H PARENT
REMARK Flexibility Score: inf
ROOT
ATOM      1  C   UNL     1      18.146 -45.397 -21.701  1.00  0.00     0.000 C 
ENDROOT
BRANCH   1   2
ATOM      2  C   UNL     1      17.458 -44.018 -21.630  1.00  0.00     0.006 C 
BRANCH   2   3
ATOM      3  C   UNL     1      16.495 -43.728 -22.792  1.00  0.00     0.053 C 
BRANCH   3   4
ATOM      4  C   UNL     1      15.905 -42.354 -22.699  1.00  0.00     0.041 C 
ATOM      5  O   UNL     1      14.997 -42.000 -23.497  1.00  0.00    -0.550 OA
ATOM      6  O   UNL     1      16.381 -41.454 -21.755  1.00  0.00    -0.550 OA
ENDBRANCH   3   4
ENDBRANCH   2   3
ENDBRANCH   1   2
BRANCH   1   7
ATOM      7  C   UNL     1      17.491 -46.407 -22.665  1.00  0.00     0.000 C 
BRANCH   7   8
ATOM      8  C   UNL     1      16.977 -47.699 -22.004  1.00  0.00    -0.000 C 
BRANCH   8   9
ATOM      9  C   UNL     1      15.492 -47.622 -21.624  1.00  0.00    -0.003 C 
ATOM     10  C   UNL     1      15.051 -48.877 -20.875  1.00  0.00     0.004 C 
ENDBRANCH   8   9
ENDBRANCH   7   8
ENDBRANCH   1   7
TORSDOF 6
ENDMDL
