MODEL 1
REMARK VINA RESULT:    -3.529      0.000      0.000
REMARK INTER + INTRA:          -5.329
REMARK INTER:                  -5.385
REMARK INTRA:                   0.056
REMARK UNBOUND:                 0.056
REMARK SMILES CC1=CCC[C@@H](C)C(=O)C[C@@H](C(C)C)C(=O)C1
REMARK SMILES IDX 8 1 9 2 6 3 7 4 5 5 4 6 3 7 2 8 1 9 10 11 11 12 15 13 16 14
REMARK SMILES IDX 17 15 12 17 13 18 14 19
REMARK H PARENT
REMARK Flexibility Score: 70.00
ROOT
ATOM      1  C   UNL     1      34.464  10.831 105.876  1.00  0.00     0.136 C 
ATOM      2  O   UNL     1      35.036  11.760 105.326  1.00  0.00    -0.299 OA
ENDROOT
BRANCH   1   3
ATOM      3  C   UNL     1      34.870  10.456 107.289  1.00  0.00     0.053 C 
ATOM      4  C   UNL     1      36.170  11.164 107.688  1.00  0.00     0.016 C 
BRANCH   3   5
ATOM      5  C   UNL     1      34.995   8.930 107.459  1.00  0.00     0.015 C 
BRANCH   5   6
ATOM      6  C   UNL     1      33.990   8.379 108.486  1.00  0.00     0.028 C 
BRANCH   6   7
ATOM      7  C   UNL     1      33.401   7.077 108.008  1.00  0.00    -0.028 C 
ATOM      8  C   UNL     1      32.180   6.951 107.437  1.00  0.00    -0.070 CG0
ATOM      9  C   UNL     1      31.764   5.586 106.950  1.00  0.00     0.039 C 
ATOM     10  G   UNL     1      31.214   8.117 107.285  1.00  0.00     0.000 G0
ENDBRANCH   6   7
ENDBRANCH   5   6
ENDBRANCH   3   5
ENDBRANCH   1   3
BRANCH   1  11
ATOM     11  C   UNL     1      33.395  10.081 105.110  1.00  0.00     0.087 C 
BRANCH  11  12
ATOM     12  C   UNL     1      32.005  10.172 105.795  1.00  0.00     0.066 C 
BRANCH  12  13
ATOM     13  C   UNL     1      31.358   8.799 105.926  1.00  0.00     0.140 C 
ATOM     14  O   UNL     1      30.885   8.252 104.939  1.00  0.00    -0.299 OA
BRANCH  13  15
ATOM     15  C   UNL     1      31.230   8.124 107.270  1.00  0.00     0.106 CG0
ATOM     16  G   UNL     1      32.200   6.963 107.426  1.00  0.00     0.000 G0
ENDBRANCH  13  15
ENDBRANCH  12  13
BRANCH  12  17
ATOM     17  C   UNL     1      31.073  11.200 105.083  1.00  0.00    -0.006 C 
ATOM     18  C   UNL     1      29.632  11.219 105.622  1.00  0.00     0.008 C 
ATOM     19  C   UNL     1      31.667  12.617 105.113  1.00  0.00     0.008 C 
ENDBRANCH  12  17
ENDBRANCH  11  12
ENDBRANCH   1  11
TORSDOF 1
ENDMDL
MODEL 2
REMARK VINA RESULT:    -3.149      2.471      4.510
REMARK INTER + INTRA:          -4.750
REMARK INTER:                  -5.353
REMARK INTRA:                   0.603
REMARK UNBOUND:                 0.056
REMARK SMILES CC1=CCC[C@@H](C)C(=O)C[C@@H](C(C)C)C(=O)C1
REMARK SMILES IDX 8 1 9 2 6 3 7 4 5 5 4 6 3 7 2 8 1 9 10 11 11 12 15 13 16 14
REMARK SMILES IDX 17 15 12 17 13 18 14 19
REMARK H PARENT
REMARK Flexibility Score: 70.00
ROOT
ATOM      1  C   UNL     1      32.936  11.619 105.134  1.00  0.00     0.136 C 
ATOM      2  O   UNL     1      31.767  11.972 105.092  1.00  0.00    -0.299 OA
ENDROOT
BRANCH   1   3
ATOM      3  C   UNL     1      34.019  12.681 105.161  1.00  0.00     0.053 C 
ATOM      4  C   UNL     1      33.431  14.066 104.871  1.00  0.00     0.016 C 
BRANCH   3   5
ATOM      5  C   UNL     1      35.165  12.350 104.184  1.00  0.00     0.015 C 
BRANCH   5   6
ATOM      6  C   UNL     1      36.483  12.055 104.920  1.00  0.00     0.028 C 
BRANCH   6   7
ATOM      7  C   UNL     1      36.295  12.155 106.412  1.00  0.00    -0.028 C 
ATOM      8  C   UNL     1      35.957  11.119 107.214  1.00  0.00    -0.070 CG0
ATOM      9  C   UNL     1      35.875  11.370 108.698  1.00  0.00     0.039 C 
ATOM     10  G   UNL     1      35.643   9.729 106.681  1.00  0.00     0.000 G0
ENDBRANCH   6   7
ENDBRANCH   5   6
ENDBRANCH   3   5
ENDBRANCH   1   3
BRANCH   1  11
ATOM     11  C   UNL     1      33.248  10.138 105.128  1.00  0.00     0.087 C 
BRANCH  11  12
ATOM     12  C   UNL     1      33.021   9.483 106.517  1.00  0.00     0.066 C 
BRANCH  12  13
ATOM     13  C   UNL     1      34.343   9.171 107.208  1.00  0.00     0.140 C 
ATOM     14  O   UNL     1      34.350   8.513 108.239  1.00  0.00    -0.299 OA
BRANCH  13  15
ATOM     15  C   UNL     1      35.646   9.717 106.679  1.00  0.00     0.106 CG0
ATOM     16  G   UNL     1      35.944  11.111 107.209  1.00  0.00     0.000 G0
ENDBRANCH  13  15
ENDBRANCH  12  13
BRANCH  12  17
ATOM     17  C   UNL     1      32.092   8.233 106.425  1.00  0.00    -0.006 C 
ATOM     18  C   UNL     1      31.485   7.801 107.772  1.00  0.00     0.008 C 
ATOM     19  C   UNL     1      30.980   8.431 105.384  1.00  0.00     0.008 C 
ENDBRANCH  12  17
ENDBRANCH  11  12
ENDBRANCH   1  11
TORSDOF 1
ENDMDL
MODEL 3
REMARK VINA RESULT:    -2.960      1.738      4.042
REMARK INTER + INTRA:          -4.461
REMARK INTER:                  -4.498
REMARK INTRA:                   0.037
REMARK UNBOUND:                 0.056
REMARK SMILES CC1=CCC[C@@H](C)C(=O)C[C@@H](C(C)C)C(=O)C1
REMARK SMILES IDX 8 1 9 2 6 3 7 4 5 5 4 6 3 7 2 8 1 9 10 11 11 12 15 13 16 14
REMARK SMILES IDX 17 15 12 17 13 18 14 19
REMARK H PARENT
REMARK Flexibility Score: 70.00
ROOT
ATOM      1  C   UNL     1      34.709   9.514 106.987  1.00  0.00     0.136 C 
ATOM      2  O   UNL     1      35.477   8.644 107.369  1.00  0.00    -0.299 OA
ENDROOT
BRANCH   1   3
ATOM      3  C   UNL     1      35.255  10.654 106.148  1.00  0.00     0.053 C 
ATOM      4  C   UNL     1      36.702  10.976 106.543  1.00  0.00     0.016 C 
BRANCH   3   5
ATOM      5  C   UNL     1      34.364  11.908 106.242  1.00  0.00     0.015 C 
BRANCH   5   6
ATOM      6  C   UNL     1      33.573  12.152 104.945  1.00  0.00     0.028 C 
BRANCH   6   7
ATOM      7  C   UNL     1      32.091  12.149 105.216  1.00  0.00    -0.028 C 
ATOM      8  C   UNL     1      31.304  11.049 105.168  1.00  0.00    -0.070 CG0
ATOM      9  C   UNL     1      29.850  11.203 105.534  1.00  0.00     0.039 C 
ATOM     10  G   UNL     1      31.820   9.681 104.747  1.00  0.00     0.000 G0
ENDBRANCH   6   7
ENDBRANCH   5   6
ENDBRANCH   3   5
ENDBRANCH   1   3
BRANCH   1  11
ATOM     11  C   UNL     1      33.254   9.427 107.392  1.00  0.00     0.087 C 
BRANCH  11  12
ATOM     12  C   UNL     1      32.548   8.182 106.791  1.00  0.00     0.066 C 
BRANCH  12  13
ATOM     13  C   UNL     1      31.531   8.577 105.728  1.00  0.00     0.140 C 
ATOM     14  O   UNL     1      30.476   7.965 105.637  1.00  0.00    -0.299 OA
BRANCH  13  15
ATOM     15  C   UNL     1      31.829   9.673 104.735  1.00  0.00     0.106 CG0
ATOM     16  G   UNL     1      31.307  11.026 105.196  1.00  0.00     0.000 G0
ENDBRANCH  13  15
ENDBRANCH  12  13
BRANCH  12  17
ATOM     17  C   UNL     1      31.925   7.276 107.898  1.00  0.00    -0.006 C 
ATOM     18  C   UNL     1      32.742   6.008 108.205  1.00  0.00     0.008 C 
ATOM     19  C   UNL     1      31.665   8.063 109.192  1.00  0.00     0.008 C 
ENDBRANCH  12  17
ENDBRANCH  11  12
ENDBRANCH   1  11
TORSDOF 1
ENDMDL
MODEL 4
REMARK VINA RESULT:    -2.939      2.925      5.560
REMARK INTER + INTRA:          -4.429
REMARK INTER:                  -4.521
REMARK INTRA:                   0.092
REMARK UNBOUND:                 0.056
REMARK SMILES CC1=CCC[C@@H](C)C(=O)C[C@@H](C(C)C)C(=O)C1
REMARK SMILES IDX 8 1 9 2 6 3 7 4 5 5 4 6 3 7 2 8 1 9 10 11 11 12 15 13 16 14
REMARK SMILES IDX 17 15 12 17 13 18 14 19
REMARK H PARENT
REMARK Flexibility Score: 70.00
ROOT
ATOM      1  C   UNL     1      32.306  11.549 105.129  1.00  0.00     0.136 C 
ATOM      2  O   UNL     1      31.104  11.329 105.124  1.00  0.00    -0.299 OA
ENDROOT
BRANCH   1   3
ATOM      3  C   UNL     1      32.787  12.986 105.201  1.00  0.00     0.053 C 
ATOM      4  C   UNL     1      31.685  13.951 104.748  1.00  0.00     0.016 C 
BRANCH   3   5
ATOM      5  C   UNL     1      34.077  13.197 104.386  1.00  0.00     0.015 C 
BRANCH   5   6
ATOM      6  C   UNL     1      35.155  13.939 105.195  1.00  0.00     0.028 C 
BRANCH   6   7
ATOM      7  C   UNL     1      36.509  13.312 104.979  1.00  0.00    -0.028 C 
ATOM      8  C   UNL     1      36.953  12.207 105.622  1.00  0.00    -0.070 CG0
ATOM      9  C   UNL     1      38.308  11.665 105.241  1.00  0.00     0.039 C 
ATOM     10  G   UNL     1      36.157  11.509 106.713  1.00  0.00     0.000 G0
ENDBRANCH   6   7
ENDBRANCH   5   6
ENDBRANCH   3   5
ENDBRANCH   1   3
BRANCH   1  11
ATOM     11  C   UNL     1      33.258  10.376 105.033  1.00  0.00     0.087 C 
BRANCH  11  12
ATOM     12  C   UNL     1      33.968  10.083 106.382  1.00  0.00     0.066 C 
BRANCH  12  13
ATOM     13  C   UNL     1      35.479  10.242 106.263  1.00  0.00     0.140 C 
ATOM     14  O   UNL     1      36.156   9.322 105.826  1.00  0.00    -0.299 OA
BRANCH  13  15
ATOM     15  C   UNL     1      36.169  11.498 106.738  1.00  0.00     0.106 CG0
ATOM     16  G   UNL     1      36.941  12.187 105.624  1.00  0.00     0.000 G0
ENDBRANCH  13  15
ENDBRANCH  12  13
BRANCH  12  17
ATOM     17  C   UNL     1      33.564   8.691 106.961  1.00  0.00    -0.006 C 
ATOM     18  C   UNL     1      33.892   8.513 108.454  1.00  0.00     0.008 C 
ATOM     19  C   UNL     1      32.080   8.383 106.706  1.00  0.00     0.008 C 
ENDBRANCH  12  17
ENDBRANCH  11  12
ENDBRANCH   1  11
TORSDOF 1
ENDMDL
MODEL 5
REMARK VINA RESULT:    -2.734      1.853      4.373
REMARK INTER + INTRA:          -4.116
REMARK INTER:                  -4.392
REMARK INTRA:                   0.276
REMARK UNBOUND:                 0.056
REMARK SMILES CC1=CCC[C@@H](C)C(=O)C[C@@H](C(C)C)C(=O)C1
REMARK SMILES IDX 8 1 9 2 6 3 7 4 5 5 4 6 3 7 2 8 1 9 10 11 11 12 15 13 16 14
REMARK SMILES IDX 17 15 12 17 13 18 14 19
REMARK H PARENT
REMARK Flexibility Score: 70.00
ROOT
ATOM      1  C   UNL     1      33.669   8.211 107.987  1.00  0.00     0.136 C 
ATOM      2  O   UNL     1      34.212   7.673 108.940  1.00  0.00    -0.299 OA
ENDROOT
BRANCH   1   3
ATOM      3  C   UNL     1      32.157   8.153 107.879  1.00  0.00     0.053 C 
ATOM      4  C   UNL     1      31.508   8.232 109.266  1.00  0.00     0.016 C 
BRANCH   3   5
ATOM      5  C   UNL     1      31.688   6.897 107.119  1.00  0.00     0.015 C 
BRANCH   5   6
ATOM      6  C   UNL     1      31.245   7.224 105.682  1.00  0.00     0.028 C 
BRANCH   6   7
ATOM      7  C   UNL     1      30.617   8.592 105.617  1.00  0.00    -0.028 C 
ATOM      8  C   UNL     1      31.255   9.709 105.196  1.00  0.00    -0.070 CG0
ATOM      9  C   UNL     1      30.464  10.991 105.125  1.00  0.00     0.039 C 
ATOM     10  G   UNL     1      32.727   9.727 104.814  1.00  0.00     0.000 G0
ENDBRANCH   6   7
ENDBRANCH   5   6
ENDBRANCH   3   5
ENDBRANCH   1   3
BRANCH   1  11
ATOM     11  C   UNL     1      34.534   8.885 106.944  1.00  0.00     0.087 C 
BRANCH  11  12
ATOM     12  C   UNL     1      34.253  10.408 106.841  1.00  0.00     0.066 C 
BRANCH  12  13
ATOM     13  C   UNL     1      33.543  10.756 105.539  1.00  0.00     0.140 C 
ATOM     14  O   UNL     1      33.583  11.902 105.111  1.00  0.00    -0.299 OA
BRANCH  13  15
ATOM     15  C   UNL     1      32.731   9.725 104.795  1.00  0.00     0.106 CG0
ATOM     16  G   UNL     1      31.267   9.738 105.207  1.00  0.00     0.000 G0
ENDBRANCH  13  15
ENDBRANCH  12  13
BRANCH  12  17
ATOM     17  C   UNL     1      35.547  11.253 107.054  1.00  0.00    -0.006 C 
ATOM     18  C   UNL     1      36.145  11.140 108.468  1.00  0.00     0.008 C 
ATOM     19  C   UNL     1      36.616  10.925 106.001  1.00  0.00     0.008 C 
ENDBRANCH  12  17
ENDBRANCH  11  12
ENDBRANCH   1  11
TORSDOF 1
ENDMDL
MODEL 6
REMARK VINA RESULT:    -2.666      2.065      4.865
REMARK INTER + INTRA:          -4.013
REMARK INTER:                  -4.566
REMARK INTRA:                   0.553
REMARK UNBOUND:                 0.056
REMARK SMILES CC1=CCC[C@@H](C)C(=O)C[C@@H](C(C)C)C(=O)C1
REMARK SMILES IDX 8 1 9 2 6 3 7 4 5 5 4 6 3 7 2 8 1 9 10 11 11 12 15 13 16 14
REMARK SMILES IDX 17 15 12 17 13 18 14 19
REMARK H PARENT
REMARK Flexibility Score: 70.00
ROOT
ATOM      1  C   UNL     1      31.183   9.895 105.191  1.00  0.00     0.136 C 
ATOM      2  O   UNL     1      30.275   9.510 104.469  1.00  0.00    -0.299 OA
ENDROOT
BRANCH   1   3
ATOM      3  C   UNL     1      31.123  11.303 105.752  1.00  0.00     0.053 C 
ATOM      4  C   UNL     1      29.685  11.835 105.736  1.00  0.00     0.016 C 
BRANCH   3   5
ATOM      5  C   UNL     1      32.075  12.256 105.004  1.00  0.00     0.015 C 
BRANCH   5   6
ATOM      6  C   UNL     1      33.473  11.643 104.813  1.00  0.00     0.028 C 
BRANCH   6   7
ATOM      7  C   UNL     1      34.368  11.986 105.976  1.00  0.00    -0.028 C 
ATOM      8  C   UNL     1      35.088  11.084 106.682  1.00  0.00    -0.070 CG0
ATOM      9  C   UNL     1      35.990  11.598 107.775  1.00  0.00     0.039 C 
ATOM     10  G   UNL     1      35.010   9.585 106.432  1.00  0.00     0.000 G0
ENDBRANCH   6   7
ENDBRANCH   5   6
ENDBRANCH   3   5
ENDBRANCH   1   3
BRANCH   1  11
ATOM     11  C   UNL     1      32.339   8.957 105.466  1.00  0.00     0.087 C 
BRANCH  11  12
ATOM     12  C   UNL     1      32.563   8.730 106.985  1.00  0.00     0.066 C 
BRANCH  12  13
ATOM     13  C   UNL     1      34.029   8.900 107.363  1.00  0.00     0.140 C 
ATOM     14  O   UNL     1      34.421   8.535 108.463  1.00  0.00    -0.299 OA
BRANCH  13  15
ATOM     15  C   UNL     1      35.001   9.576 106.427  1.00  0.00     0.106 CG0
ATOM     16  G   UNL     1      35.084  11.076 106.667  1.00  0.00     0.000 G0
ENDBRANCH  13  15
ENDBRANCH  12  13
BRANCH  12  17
ATOM     17  C   UNL     1      31.985   7.361 107.460  1.00  0.00    -0.006 C 
ATOM     18  C   UNL     1      31.274   7.419 108.824  1.00  0.00     0.008 C 
ATOM     19  C   UNL     1      31.053   6.745 106.404  1.00  0.00     0.008 C 
ENDBRANCH  12  17
ENDBRANCH  11  12
ENDBRANCH   1  11
TORSDOF 1
ENDMDL
MODEL 7
REMARK VINA RESULT:    -2.475      4.632      7.527
REMARK INTER + INTRA:          -3.722
REMARK INTER:                  -3.846
REMARK INTRA:                   0.125
REMARK UNBOUND:                 0.056
REMARK SMILES CC1=CCC[C@@H](C)C(=O)C[C@@H](C(C)C)C(=O)C1
REMARK SMILES IDX 8 1 9 2 6 3 7 4 5 5 4 6 3 7 2 8 1 9 10 11 11 12 15 13 16 14
REMARK SMILES IDX 17 15 12 17 13 18 14 19
REMARK H PARENT
REMARK Flexibility Score: 70.00
ROOT
ATOM      1  C   UNL     1      36.983  11.966 107.238  1.00  0.00     0.136 C 
ATOM      2  O   UNL     1      36.997  13.073 107.754  1.00  0.00    -0.299 OA
ENDROOT
BRANCH   1   3
ATOM      3  C   UNL     1      35.659  11.235 107.113  1.00  0.00     0.053 C 
ATOM      4  C   UNL     1      35.851   9.876 106.430  1.00  0.00     0.016 C 
BRANCH   3   5
ATOM      5  C   UNL     1      34.608  12.083 106.373  1.00  0.00     0.015 C 
BRANCH   5   6
ATOM      6  C   UNL     1      34.615  11.819 104.857  1.00  0.00     0.028 C 
BRANCH   6   7
ATOM      7  C   UNL     1      35.283  12.952 104.122  1.00  0.00    -0.028 C 
ATOM      8  C   UNL     1      36.556  12.925 103.665  1.00  0.00    -0.070 CG0
ATOM      9  C   UNL     1      37.054  14.117 102.887  1.00  0.00     0.039 C 
ATOM     10  G   UNL     1      37.501  11.760 103.917  1.00  0.00     0.000 G0
ENDBRANCH   6   7
ENDBRANCH   5   6
ENDBRANCH   3   5
ENDBRANCH   1   3
BRANCH   1  11
ATOM     11  C   UNL     1      38.292  11.365 106.773  1.00  0.00     0.087 C 
BRANCH  11  12
ATOM     12  C   UNL     1      39.125  12.357 105.917  1.00  0.00     0.066 C 
BRANCH  12  13
ATOM     13  C   UNL     1      38.848  12.178 104.430  1.00  0.00     0.140 C 
ATOM     14  O   UNL     1      39.720  12.442 103.613  1.00  0.00    -0.299 OA
BRANCH  13  15
ATOM     15  C   UNL     1      37.490  11.743 103.938  1.00  0.00     0.106 CG0
ATOM     16  G   UNL     1      36.567  12.923 103.676  1.00  0.00     0.000 G0
ENDBRANCH  13  15
ENDBRANCH  12  13
BRANCH  12  17
ATOM     17  C   UNL     1      40.647  12.275 106.251  1.00  0.00    -0.006 C 
ATOM     18  C   UNL     1      41.166  13.442 107.109  1.00  0.00     0.008 C 
ATOM     19  C   UNL     1      41.010  10.934 106.908  1.00  0.00     0.008 C 
ENDBRANCH  12  17
ENDBRANCH  11  12
ENDBRANCH   1  11
TORSDOF 1
ENDMDL
MODEL 8
REMARK VINA RESULT:    -2.332      1.465      3.700
REMARK INTER + INTRA:          -3.503
REMARK INTER:                  -4.167
REMARK INTRA:                   0.664
REMARK UNBOUND:                 0.056
REMARK SMILES CC1=CCC[C@@H](C)C(=O)C[C@@H](C(C)C)C(=O)C1
REMARK SMILES IDX 8 1 9 2 6 3 7 4 5 5 4 6 3 7 2 8 1 9 10 11 11 12 15 13 16 14
REMARK SMILES IDX 17 15 12 17 13 18 14 19
REMARK H PARENT
REMARK Flexibility Score: 70.00
ROOT
ATOM      1  C   UNL     1      30.996   7.276 105.672  1.00  0.00     0.136 C 
ATOM      2  O   UNL     1      30.624   6.838 104.594  1.00  0.00    -0.299 OA
ENDROOT
BRANCH   1   3
ATOM      3  C   UNL     1      31.699   6.340 106.638  1.00  0.00     0.053 C 
ATOM      4  C   UNL     1      31.593   4.887 106.163  1.00  0.00     0.016 C 
BRANCH   3   5
ATOM      5  C   UNL     1      31.160   6.494 108.074  1.00  0.00     0.015 C 
BRANCH   5   6
ATOM      6  C   UNL     1      31.952   7.539 108.878  1.00  0.00     0.028 C 
BRANCH   6   7
ATOM      7  C   UNL     1      33.388   7.584 108.425  1.00  0.00    -0.028 C 
ATOM      8  C   UNL     1      33.948   8.613 107.748  1.00  0.00    -0.070 CG0
ATOM      9  C   UNL     1      35.419   8.533 107.427  1.00  0.00     0.039 C 
ATOM     10  G   UNL     1      33.155   9.827 107.286  1.00  0.00     0.000 G0
ENDBRANCH   6   7
ENDBRANCH   5   6
ENDBRANCH   3   5
ENDBRANCH   1   3
BRANCH   1  11
ATOM     11  C   UNL     1      30.713   8.725 106.005  1.00  0.00     0.087 C 
BRANCH  11  12
ATOM     12  C   UNL     1      31.584   9.702 105.171  1.00  0.00     0.066 C 
BRANCH  12  13
ATOM     13  C   UNL     1      32.965   9.883 105.788  1.00  0.00     0.140 C 
ATOM     14  O   UNL     1      33.942  10.013 105.065  1.00  0.00    -0.299 OA
BRANCH  13  15
ATOM     15  C   UNL     1      33.161   9.838 107.283  1.00  0.00     0.106 CG0
ATOM     16  G   UNL     1      33.946   8.611 107.724  1.00  0.00     0.000 G0
ENDBRANCH  13  15
ENDBRANCH  12  13
BRANCH  12  17
ATOM     17  C   UNL     1      30.861  11.063 104.929  1.00  0.00    -0.006 C 
ATOM     18  C   UNL     1      29.643  11.298 105.840  1.00  0.00     0.008 C 
ATOM     19  C   UNL     1      31.835  12.247 105.034  1.00  0.00     0.008 C 
ENDBRANCH  12  17
ENDBRANCH  11  12
ENDBRANCH   1  11
TORSDOF 1
ENDMDL
MODEL 9
REMARK VINA RESULT:    -2.010      4.581      7.582
REMARK INTER + INTRA:          -3.012
REMARK INTER:                  -3.877
REMARK INTRA:                   0.866
REMARK UNBOUND:                 0.056
REMARK SMILES CC1=CCC[C@@H](C)C(=O)C[C@@H](C(C)C)C(=O)C1
REMARK SMILES IDX 8 1 9 2 6 3 7 4 5 5 4 6 3 7 2 8 1 9 10 11 11 12 15 13 16 14
REMARK SMILES IDX 17 15 12 17 13 18 14 19
REMARK H PARENT
REMARK Flexibility Score: 70.00
ROOT
ATOM      1  C   UNL     1      36.396  10.789 105.213  1.00  0.00     0.136 C 
ATOM      2  O   UNL     1      36.614   9.748 105.814  1.00  0.00    -0.299 OA
ENDROOT
BRANCH   1   3
ATOM      3  C   UNL     1      35.145  11.579 105.549  1.00  0.00     0.053 C 
ATOM      4  C   UNL     1      33.946  10.643 105.743  1.00  0.00     0.016 C 
BRANCH   3   5
ATOM      5  C   UNL     1      34.845  12.650 104.482  1.00  0.00     0.015 C 
BRANCH   5   6
ATOM      6  C   UNL     1      35.482  14.006 104.830  1.00  0.00     0.028 C 
BRANCH   6   7
ATOM      7  C   UNL     1      35.864  14.057 106.287  1.00  0.00    -0.028 C 
ATOM      8  C   UNL     1      37.133  13.972 106.751  1.00  0.00    -0.070 CG0
ATOM      9  C   UNL     1      37.353  14.110 108.236  1.00  0.00     0.039 C 
ATOM     10  G   UNL     1      38.330  13.730 105.845  1.00  0.00     0.000 G0
ENDBRANCH   6   7
ENDBRANCH   5   6
ENDBRANCH   3   5
ENDBRANCH   1   3
BRANCH   1  11
ATOM     11  C   UNL     1      37.372  11.226 104.141  1.00  0.00     0.087 C 
BRANCH  11  12
ATOM     12  C   UNL     1      38.813  11.401 104.692  1.00  0.00     0.066 C 
BRANCH  12  13
ATOM     13  C   UNL     1      38.833  12.300 105.922  1.00  0.00     0.140 C 
ATOM     14  O   UNL     1      39.198  11.849 106.999  1.00  0.00    -0.299 OA
BRANCH  13  15
ATOM     15  C   UNL     1      38.348  13.727 105.851  1.00  0.00     0.106 CG0
ATOM     16  G   UNL     1      37.149  13.973 106.755  1.00  0.00     0.000 G0
ENDBRANCH  13  15
ENDBRANCH  12  13
BRANCH  12  17
ATOM     17  C   UNL     1      39.802  11.886 103.588  1.00  0.00    -0.006 C 
ATOM     18  C   UNL     1      40.798  12.958 104.063  1.00  0.00     0.008 C 
ATOM     19  C   UNL     1      40.557  10.709 102.950  1.00  0.00     0.008 C 
ENDBRANCH  12  17
ENDBRANCH  11  12
ENDBRANCH   1  11
TORSDOF 1
ENDMDL
