MODEL 1
REMARK VINA RESULT:    -4.298      0.000      0.000
REMARK INTER + INTRA:         -13.264
REMARK INTER:                 -11.207
REMARK INTRA:                  -2.058
REMARK UNBOUND:                -2.058
REMARK SMILES CCCCCCCCCCCCCCCCCCCCCCCCCCCCCO
REMARK SMILES IDX 16 1 15 2 14 3 13 4 12 5 11 6 10 7 9 8 8 9 7 10 6 11 5 12
REMARK SMILES IDX 4 13 3 14 2 15 1 16 17 17 18 18 19 19 20 20 21 21 22 22
REMARK SMILES IDX 23 23 24 24 25 25 26 26 27 27 28 28 29 29 30 30
REMARK H PARENT 30 31
REMARK Flexibility Score: inf
ROOT
ATOM      1  C   UNL     1      -0.636   6.607 -25.062  1.00  0.00     0.000 C 
ENDROOT
BRANCH   1   2
ATOM      2  C   UNL     1      -0.707   5.324 -24.220  1.00  0.00     0.000 C 
BRANCH   2   3
ATOM      3  C   UNL     1      -2.150   4.846 -23.993  1.00  0.00     0.000 C 
BRANCH   3   4
ATOM      4  C   UNL     1      -2.324   3.396 -24.462  1.00  0.00     0.000 C 
BRANCH   4   5
ATOM      5  C   UNL     1      -1.043   2.869 -25.124  1.00  0.00     0.000 C 
BRANCH   5   6
ATOM      6  C   UNL     1      -0.807   1.376 -24.847  1.00  0.00     0.000 C 
BRANCH   6   7
ATOM      7  C   UNL     1       0.238   1.136 -23.745  1.00  0.00     0.000 C 
BRANCH   7   8
ATOM      8  C   UNL     1       1.609   0.726 -24.326  1.00  0.00    -0.000 C 
BRANCH   8   9
ATOM      9  C   UNL     1       2.551   0.084 -23.294  1.00  0.00    -0.000 C 
BRANCH   9  10
ATOM     10  C   UNL     1       1.894  -0.090 -21.915  1.00  0.00    -0.000 C 
BRANCH  10  11
ATOM     11  C   UNL     1       1.722  -1.565 -21.509  1.00  0.00    -0.000 C 
BRANCH  11  12
ATOM     12  C   UNL     1       2.244  -2.601 -22.523  1.00  0.00    -0.000 C 
BRANCH  12  13
ATOM     13  C   UNL     1       3.282  -3.564 -21.924  1.00  0.00    -0.000 C 
BRANCH  13  14
ATOM     14  C   UNL     1       4.013  -4.395 -22.994  1.00  0.00    -0.000 C 
BRANCH  14  15
ATOM     15  C   UNL     1       4.406  -5.817 -22.555  1.00  0.00    -0.003 C 
ATOM     16  C   UNL     1       3.589  -6.906 -23.252  1.00  0.00     0.004 C 
ENDBRANCH  14  15
ENDBRANCH  13  14
ENDBRANCH  12  13
ENDBRANCH  11  12
ENDBRANCH  10  11
ENDBRANCH   9  10
ENDBRANCH   8   9
ENDBRANCH   7   8
ENDBRANCH   6   7
ENDBRANCH   5   6
ENDBRANCH   4   5
ENDBRANCH   3   4
ENDBRANCH   2   3
ENDBRANCH   1   2
BRANCH   1  17
ATOM     17  C   UNL     1      -0.869   7.879 -24.226  1.00  0.00     0.000 C 
BRANCH  17  18
ATOM     18  C   UNL     1      -1.732   8.912 -24.967  1.00  0.00     0.000 C 
BRANCH  18  19
ATOM     19  C   UNL     1      -3.123   9.079 -24.330  1.00  0.00     0.000 C 
BRANCH  19  20
ATOM     20  C   UNL     1      -4.094   7.943 -24.700  1.00  0.00     0.000 C 
BRANCH  20  21
ATOM     21  C   UNL     1      -5.555   8.171 -24.269  1.00  0.00     0.000 C 
BRANCH  21  22
ATOM     22  C   UNL     1      -6.338   6.861 -24.083  1.00  0.00     0.000 C 
BRANCH  22  23
ATOM     23  C   UNL     1      -6.841   6.661 -22.643  1.00  0.00     0.000 C 
BRANCH  23  24
ATOM     24  C   UNL     1      -8.165   5.875 -22.517  1.00  0.00     0.000 C 
BRANCH  24  25
ATOM     25  C   UNL     1      -8.025   4.341 -22.538  1.00  0.00     0.000 C 
BRANCH  25  26
ATOM     26  C   UNL     1      -7.018   3.793 -23.567  1.00  0.00     0.000 C 
BRANCH  26  27
ATOM     27  C   UNL     1      -5.822   3.053 -22.933  1.00  0.00     0.002 C 
BRANCH  27  28
ATOM     28  C   UNL     1      -6.068   2.684 -21.463  1.00  0.00     0.028 C 
BRANCH  28  29
ATOM     29  C   UNL     1      -4.966   3.246 -20.561  1.00  0.00     0.156 C 
BRANCH  29  30
ATOM     30  O   UNL     1      -3.917   3.757 -21.338  1.00  0.00    -0.396 OA
ATOM     31  H   UNL     1      -4.209   4.650 -21.658  1.00  0.00     0.210 HD
ENDBRANCH  29  30
ENDBRANCH  28  29
ENDBRANCH  27  28
ENDBRANCH  26  27
ENDBRANCH  25  26
ENDBRANCH  24  25
ENDBRANCH  23  24
ENDBRANCH  22  23
ENDBRANCH  21  22
ENDBRANCH  20  21
ENDBRANCH  19  20
ENDBRANCH  18  19
ENDBRANCH  17  18
ENDBRANCH   1  17
TORSDOF 28
ENDMDL
MODEL 2
REMARK VINA RESULT:    -4.089      3.003     10.556
REMARK INTER + INTRA:         -12.719
REMARK INTER:                 -10.177
REMARK INTRA:                  -2.542
REMARK UNBOUND:                -2.058
REMARK SMILES CCCCCCCCCCCCCCCCCCCCCCCCCCCCCO
REMARK SMILES IDX 16 1 15 2 14 3 13 4 12 5 11 6 10 7 9 8 8 9 7 10 6 11 5 12
REMARK SMILES IDX 4 13 3 14 2 15 1 16 17 17 18 18 19 19 20 20 21 21 22 22
REMARK SMILES IDX 23 23 24 24 25 25 26 26 27 27 28 28 29 29 30 30
REMARK H PARENT 30 31
REMARK Flexibility Score: inf
ROOT
ATOM      1  C   UNL     1      -2.359   3.607 -24.378  1.00  0.00     0.000 C 
ENDROOT
BRANCH   1   2
ATOM      2  C   UNL     1      -2.046   5.097 -24.585  1.00  0.00     0.000 C 
BRANCH   2   3
ATOM      3  C   UNL     1      -3.251   5.883 -25.124  1.00  0.00     0.000 C 
BRANCH   3   4
ATOM      4  C   UNL     1      -4.522   5.025 -25.091  1.00  0.00     0.000 C 
BRANCH   4   5
ATOM      5  C   UNL     1      -5.783   5.901 -25.045  1.00  0.00     0.000 C 
BRANCH   5   6
ATOM      6  C   UNL     1      -5.531   7.262 -24.377  1.00  0.00     0.000 C 
BRANCH   6   7
ATOM      7  C   UNL     1      -6.748   7.766 -23.584  1.00  0.00     0.000 C 
BRANCH   7   8
ATOM      8  C   UNL     1      -7.837   6.681 -23.442  1.00  0.00    -0.000 C 
BRANCH   8   9
ATOM      9  C   UNL     1      -7.757   5.893 -22.125  1.00  0.00    -0.000 C 
BRANCH   9  10
ATOM     10  C   UNL     1      -8.636   4.632 -22.130  1.00  0.00    -0.000 C 
BRANCH  10  11
ATOM     11  C   UNL     1      -8.714   3.955 -23.511  1.00  0.00    -0.000 C 
BRANCH  11  12
ATOM     12  C   UNL     1      -7.616   2.916 -23.807  1.00  0.00    -0.000 C 
BRANCH  12  13
ATOM     13  C   UNL     1      -6.949   2.366 -22.535  1.00  0.00    -0.000 C 
BRANCH  13  14
ATOM     14  C   UNL     1      -5.471   2.781 -22.409  1.00  0.00    -0.000 C 
BRANCH  14  15
ATOM     15  C   UNL     1      -5.117   3.537 -21.116  1.00  0.00    -0.003 C 
ATOM     16  C   UNL     1      -4.898   2.608 -19.921  1.00  0.00     0.004 C 
ENDBRANCH  14  15
ENDBRANCH  13  14
ENDBRANCH  12  13
ENDBRANCH  11  12
ENDBRANCH  10  11
ENDBRANCH   9  10
ENDBRANCH   8   9
ENDBRANCH   7   8
ENDBRANCH   6   7
ENDBRANCH   5   6
ENDBRANCH   4   5
ENDBRANCH   3   4
ENDBRANCH   2   3
ENDBRANCH   1   2
BRANCH   1  17
ATOM     17  C   UNL     1      -1.773   3.055 -23.066  1.00  0.00     0.000 C 
BRANCH  17  18
ATOM     18  C   UNL     1      -1.463   1.553 -23.153  1.00  0.00     0.000 C 
BRANCH  18  19
ATOM     19  C   UNL     1      -0.999   1.130 -24.558  1.00  0.00     0.000 C 
BRANCH  19  20
ATOM     20  C   UNL     1       0.325   1.796 -24.980  1.00  0.00     0.000 C 
BRANCH  20  21
ATOM     21  C   UNL     1       1.597   1.072 -24.501  1.00  0.00     0.000 C 
BRANCH  21  22
ATOM     22  C   UNL     1       1.352   0.174 -23.276  1.00  0.00     0.000 C 
BRANCH  22  23
ATOM     23  C   UNL     1       2.506  -0.808 -23.012  1.00  0.00     0.000 C 
BRANCH  23  24
ATOM     24  C   UNL     1       2.301  -1.746 -21.802  1.00  0.00     0.000 C 
BRANCH  24  25
ATOM     25  C   UNL     1       2.512  -3.245 -22.087  1.00  0.00     0.000 C 
BRANCH  25  26
ATOM     26  C   UNL     1       3.967  -3.653 -22.389  1.00  0.00     0.000 C 
BRANCH  26  27
ATOM     27  C   UNL     1       4.358  -5.032 -21.817  1.00  0.00     0.002 C 
BRANCH  27  28
ATOM     28  C   UNL     1       3.602  -6.186 -22.492  1.00  0.00     0.028 C 
BRANCH  28  29
ATOM     29  C   UNL     1       4.478  -6.881 -23.538  1.00  0.00     0.156 C 
BRANCH  29  30
ATOM     30  O   UNL     1       3.997  -8.174 -23.790  1.00  0.00    -0.396 OA
ATOM     31  H   UNL     1       4.740  -8.799 -23.580  1.00  0.00     0.210 HD
ENDBRANCH  29  30
ENDBRANCH  28  29
ENDBRANCH  27  28
ENDBRANCH  26  27
ENDBRANCH  25  26
ENDBRANCH  24  25
ENDBRANCH  23  24
ENDBRANCH  22  23
ENDBRANCH  21  22
ENDBRANCH  20  21
ENDBRANCH  19  20
ENDBRANCH  18  19
ENDBRANCH  17  18
ENDBRANCH   1  17
TORSDOF 28
ENDMDL
MODEL 3
REMARK VINA RESULT:    -4.016      1.391      4.639
REMARK INTER + INTRA:         -12.529
REMARK INTER:                 -10.793
REMARK INTRA:                  -1.736
REMARK UNBOUND:                -2.058
REMARK SMILES CCCCCCCCCCCCCCCCCCCCCCCCCCCCCO
REMARK SMILES IDX 16 1 15 2 14 3 13 4 12 5 11 6 10 7 9 8 8 9 7 10 6 11 5 12
REMARK SMILES IDX 4 13 3 14 2 15 1 16 17 17 18 18 19 19 20 20 21 21 22 22
REMARK SMILES IDX 23 23 24 24 25 25 26 26 27 27 28 28 29 29 30 30
REMARK H PARENT 30 31
REMARK Flexibility Score: inf
ROOT
ATOM      1  C   UNL     1      -5.191   2.736 -22.830  1.00  0.00     0.000 C 
ENDROOT
BRANCH   1   2
ATOM      2  C   UNL     1      -4.850   4.033 -23.581  1.00  0.00     0.000 C 
BRANCH   2   3
ATOM      3  C   UNL     1      -3.637   3.874 -24.511  1.00  0.00     0.000 C 
BRANCH   3   4
ATOM      4  C   UNL     1      -2.333   4.175 -23.763  1.00  0.00     0.000 C 
BRANCH   4   5
ATOM      5  C   UNL     1      -1.640   2.880 -23.312  1.00  0.00     0.000 C 
BRANCH   5   6
ATOM      6  C   UNL     1      -1.260   1.972 -24.493  1.00  0.00     0.000 C 
BRANCH   6   7
ATOM      7  C   UNL     1       0.094   2.348 -25.117  1.00  0.00     0.000 C 
BRANCH   7   8
ATOM      8  C   UNL     1       1.078   1.159 -25.125  1.00  0.00    -0.000 C 
BRANCH   8   9
ATOM      9  C   UNL     1       2.537   1.562 -24.860  1.00  0.00    -0.000 C 
BRANCH   9  10
ATOM     10  C   UNL     1       3.288   0.542 -23.989  1.00  0.00    -0.000 C 
BRANCH  10  11
ATOM     11  C   UNL     1       2.444  -0.701 -23.650  1.00  0.00    -0.000 C 
BRANCH  11  12
ATOM     12  C   UNL     1       2.095  -0.883 -22.161  1.00  0.00    -0.000 C 
BRANCH  12  13
ATOM     13  C   UNL     1       2.255  -2.333 -21.675  1.00  0.00    -0.000 C 
BRANCH  13  14
ATOM     14  C   UNL     1       3.403  -3.076 -22.384  1.00  0.00    -0.000 C 
BRANCH  14  15
ATOM     15  C   UNL     1       3.756  -4.448 -21.784  1.00  0.00    -0.003 C 
ATOM     16  C   UNL     1       4.332  -5.421 -22.813  1.00  0.00     0.004 C 
ENDBRANCH  14  15
ENDBRANCH  13  14
ENDBRANCH  12  13
ENDBRANCH  11  12
ENDBRANCH  10  11
ENDBRANCH   9  10
ENDBRANCH   8   9
ENDBRANCH   7   8
ENDBRANCH   6   7
ENDBRANCH   5   6
ENDBRANCH   4   5
ENDBRANCH   3   4
ENDBRANCH   2   3
ENDBRANCH   1   2
BRANCH   1  17
ATOM     17  C   UNL     1      -6.578   2.785 -22.163  1.00  0.00     0.000 C 
BRANCH  17  18
ATOM     18  C   UNL     1      -7.720   2.736 -23.190  1.00  0.00     0.000 C 
BRANCH  18  19
ATOM     19  C   UNL     1      -8.830   3.755 -22.882  1.00  0.00     0.000 C 
BRANCH  19  20
ATOM     20  C   UNL     1      -8.289   5.172 -22.614  1.00  0.00     0.000 C 
BRANCH  20  21
ATOM     21  C   UNL     1      -7.598   5.841 -23.817  1.00  0.00     0.000 C 
BRANCH  21  22
ATOM     22  C   UNL     1      -7.115   7.270 -23.513  1.00  0.00     0.000 C 
BRANCH  22  23
ATOM     23  C   UNL     1      -5.721   7.567 -24.092  1.00  0.00     0.000 C 
BRANCH  23  24
ATOM     24  C   UNL     1      -5.562   8.966 -24.726  1.00  0.00     0.000 C 
BRANCH  24  25
ATOM     25  C   UNL     1      -4.322   9.759 -24.273  1.00  0.00     0.000 C 
BRANCH  25  26
ATOM     26  C   UNL     1      -3.034   9.463 -25.066  1.00  0.00     0.000 C 
BRANCH  26  27
ATOM     27  C   UNL     1      -2.409   8.088 -24.747  1.00  0.00     0.002 C 
BRANCH  27  28
ATOM     28  C   UNL     1      -0.882   8.155 -24.600  1.00  0.00     0.028 C 
BRANCH  28  29
ATOM     29  C   UNL     1      -0.320   6.828 -24.082  1.00  0.00     0.156 C 
BRANCH  29  30
ATOM     30  O   UNL     1      -0.530   6.719 -22.700  1.00  0.00    -0.396 OA
ATOM     31  H   UNL     1       0.367   6.744 -22.273  1.00  0.00     0.210 HD
ENDBRANCH  29  30
ENDBRANCH  28  29
ENDBRANCH  27  28
ENDBRANCH  26  27
ENDBRANCH  25  26
ENDBRANCH  24  25
ENDBRANCH  23  24
ENDBRANCH  22  23
ENDBRANCH  21  22
ENDBRANCH  20  21
ENDBRANCH  19  20
ENDBRANCH  18  19
ENDBRANCH  17  18
ENDBRANCH   1  17
TORSDOF 28
ENDMDL
MODEL 4
REMARK VINA RESULT:    -3.695      2.705     10.241
REMARK INTER + INTRA:         -11.692
REMARK INTER:                  -9.809
REMARK INTRA:                  -1.884
REMARK UNBOUND:                -2.058
REMARK SMILES CCCCCCCCCCCCCCCCCCCCCCCCCCCCCO
REMARK SMILES IDX 16 1 15 2 14 3 13 4 12 5 11 6 10 7 9 8 8 9 7 10 6 11 5 12
REMARK SMILES IDX 4 13 3 14 2 15 1 16 17 17 18 18 19 19 20 20 21 21 22 22
REMARK SMILES IDX 23 23 24 24 25 25 26 26 27 27 28 28 29 29 30 30
REMARK H PARENT 30 31
REMARK Flexibility Score: inf
ROOT
ATOM      1  C   UNL     1      -3.601   5.018 -24.878  1.00  0.00     0.000 C 
ENDROOT
BRANCH   1   2
ATOM      2  C   UNL     1      -2.771   6.287 -25.125  1.00  0.00     0.000 C 
BRANCH   2   3
ATOM      3  C   UNL     1      -3.629   7.562 -25.124  1.00  0.00     0.000 C 
BRANCH   3   4
ATOM      4  C   UNL     1      -2.891   8.714 -24.431  1.00  0.00     0.000 C 
BRANCH   4   5
ATOM      5  C   UNL     1      -3.812   9.928 -24.240  1.00  0.00     0.000 C 
BRANCH   5   6
ATOM      6  C   UNL     1      -5.211   9.707 -24.838  1.00  0.00     0.000 C 
BRANCH   6   7
ATOM      7  C   UNL     1      -6.151   8.952 -23.883  1.00  0.00     0.000 C 
BRANCH   7   8
ATOM      8  C   UNL     1      -7.021   7.916 -24.626  1.00  0.00    -0.000 C 
BRANCH   8   9
ATOM      9  C   UNL     1      -7.822   6.996 -23.691  1.00  0.00    -0.000 C 
BRANCH   9  10
ATOM     10  C   UNL     1      -7.026   5.759 -23.246  1.00  0.00    -0.000 C 
BRANCH  10  11
ATOM     11  C   UNL     1      -7.363   4.497 -24.061  1.00  0.00    -0.000 C 
BRANCH  11  12
ATOM     12  C   UNL     1      -6.621   3.214 -23.641  1.00  0.00    -0.000 C 
BRANCH  12  13
ATOM     13  C   UNL     1      -6.293   3.172 -22.139  1.00  0.00    -0.000 C 
BRANCH  13  14
ATOM     14  C   UNL     1      -4.960   2.460 -21.840  1.00  0.00    -0.000 C 
BRANCH  14  15
ATOM     15  C   UNL     1      -4.278   2.886 -20.528  1.00  0.00    -0.003 C 
ATOM     16  C   UNL     1      -5.046   2.441 -19.282  1.00  0.00     0.004 C 
ENDBRANCH  14  15
ENDBRANCH  13  14
ENDBRANCH  12  13
ENDBRANCH  11  12
ENDBRANCH  10  11
ENDBRANCH   9  10
ENDBRANCH   8   9
ENDBRANCH   7   8
ENDBRANCH   6   7
ENDBRANCH   5   6
ENDBRANCH   4   5
ENDBRANCH   3   4
ENDBRANCH   2   3
ENDBRANCH   1   2
BRANCH   1  17
ATOM     17  C   UNL     1      -2.773   3.729 -25.030  1.00  0.00     0.000 C 
BRANCH  17  18
ATOM     18  C   UNL     1      -1.409   3.827 -24.330  1.00  0.00     0.000 C 
BRANCH  18  19
ATOM     19  C   UNL     1      -0.371   2.861 -24.927  1.00  0.00     0.000 C 
BRANCH  19  20
ATOM     20  C   UNL     1      -0.702   1.381 -24.658  1.00  0.00     0.000 C 
BRANCH  20  21
ATOM     21  C   UNL     1      -0.675   0.970 -23.174  1.00  0.00     0.000 C 
BRANCH  21  22
ATOM     22  C   UNL     1       0.748   0.911 -22.593  1.00  0.00     0.000 C 
BRANCH  22  23
ATOM     23  C   UNL     1       1.541  -0.318 -23.071  1.00  0.00     0.000 C 
BRANCH  23  24
ATOM     24  C   UNL     1       2.119  -1.201 -21.943  1.00  0.00     0.000 C 
BRANCH  24  25
ATOM     25  C   UNL     1       2.199  -2.707 -22.259  1.00  0.00     0.000 C 
BRANCH  25  26
ATOM     26  C   UNL     1       3.526  -3.385 -21.869  1.00  0.00     0.000 C 
BRANCH  26  27
ATOM     27  C   UNL     1       3.984  -4.475 -22.861  1.00  0.00     0.002 C 
BRANCH  27  28
ATOM     28  C   UNL     1       4.008  -5.874 -22.230  1.00  0.00     0.028 C 
BRANCH  28  29
ATOM     29  C   UNL     1       3.622  -6.947 -23.252  1.00  0.00     0.156 C 
BRANCH  29  30
ATOM     30  O   UNL     1       4.153  -6.631 -24.510  1.00  0.00    -0.396 OA
ATOM     31  H   UNL     1       4.632  -7.441 -24.828  1.00  0.00     0.210 HD
ENDBRANCH  29  30
ENDBRANCH  28  29
ENDBRANCH  27  28
ENDBRANCH  26  27
ENDBRANCH  25  26
ENDBRANCH  24  25
ENDBRANCH  23  24
ENDBRANCH  22  23
ENDBRANCH  21  22
ENDBRANCH  20  21
ENDBRANCH  19  20
ENDBRANCH  18  19
ENDBRANCH  17  18
ENDBRANCH   1  17
TORSDOF 28
ENDMDL
MODEL 5
REMARK VINA RESULT:    -3.654      1.275      2.322
REMARK INTER + INTRA:         -11.587
REMARK INTER:                 -10.013
REMARK INTRA:                  -1.574
REMARK UNBOUND:                -2.058
REMARK SMILES CCCCCCCCCCCCCCCCCCCCCCCCCCCCCO
REMARK SMILES IDX 16 1 15 2 14 3 13 4 12 5 11 6 10 7 9 8 8 9 7 10 6 11 5 12
REMARK SMILES IDX 4 13 3 14 2 15 1 16 17 17 18 18 19 19 20 20 21 21 22 22
REMARK SMILES IDX 23 23 24 24 25 25 26 26 27 27 28 28 29 29 30 30
REMARK H PARENT 30 31
REMARK Flexibility Score: inf
ROOT
ATOM      1  C   UNL     1      -3.834   6.484 -25.124  1.00  0.00     0.000 C 
ENDROOT
BRANCH   1   2
ATOM      2  C   UNL     1      -2.414   6.894 -24.705  1.00  0.00     0.000 C 
BRANCH   2   3
ATOM      3  C   UNL     1      -1.357   5.854 -25.107  1.00  0.00     0.000 C 
BRANCH   3   4
ATOM      4  C   UNL     1      -1.875   4.430 -24.868  1.00  0.00     0.000 C 
BRANCH   4   5
ATOM      5  C   UNL     1      -0.758   3.394 -25.057  1.00  0.00     0.000 C 
BRANCH   5   6
ATOM      6  C   UNL     1      -1.236   1.956 -24.795  1.00  0.00     0.000 C 
BRANCH   6   7
ATOM      7  C   UNL     1      -1.508   1.685 -23.306  1.00  0.00     0.000 C 
BRANCH   7   8
ATOM      8  C   UNL     1      -0.228   1.265 -22.551  1.00  0.00    -0.000 C 
BRANCH   8   9
ATOM      9  C   UNL     1       0.321  -0.105 -22.980  1.00  0.00    -0.000 C 
BRANCH   9  10
ATOM     10  C   UNL     1       1.228  -0.743 -21.915  1.00  0.00    -0.000 C 
BRANCH  10  11
ATOM     11  C   UNL     1       1.563  -2.217 -22.210  1.00  0.00    -0.000 C 
BRANCH  11  12
ATOM     12  C   UNL     1       2.973  -2.676 -21.791  1.00  0.00    -0.000 C 
BRANCH  12  13
ATOM     13  C   UNL     1       3.581  -3.710 -22.753  1.00  0.00    -0.000 C 
BRANCH  13  14
ATOM     14  C   UNL     1       4.264  -4.879 -22.019  1.00  0.00    -0.000 C 
BRANCH  14  15
ATOM     15  C   UNL     1       3.853  -6.279 -22.507  1.00  0.00    -0.003 C 
ATOM     16  C   UNL     1       4.235  -6.541 -23.964  1.00  0.00     0.004 C 
ENDBRANCH  14  15
ENDBRANCH  13  14
ENDBRANCH  12  13
ENDBRANCH  11  12
ENDBRANCH  10  11
ENDBRANCH   9  10
ENDBRANCH   8   9
ENDBRANCH   7   8
ENDBRANCH   6   7
ENDBRANCH   5   6
ENDBRANCH   4   5
ENDBRANCH   3   4
ENDBRANCH   2   3
ENDBRANCH   1   2
BRANCH   1  17
ATOM     17  C   UNL     1      -4.866   7.605 -24.900  1.00  0.00     0.000 C 
BRANCH  17  18
ATOM     18  C   UNL     1      -6.311   7.102 -25.039  1.00  0.00     0.000 C 
BRANCH  18  19
ATOM     19  C   UNL     1      -7.249   7.710 -23.982  1.00  0.00     0.000 C 
BRANCH  19  20
ATOM     20  C   UNL     1      -6.699   7.588 -22.549  1.00  0.00     0.000 C 
BRANCH  20  21
ATOM     21  C   UNL     1      -7.118   6.309 -21.799  1.00  0.00     0.000 C 
BRANCH  21  22
ATOM     22  C   UNL     1      -8.643   6.120 -21.740  1.00  0.00     0.000 C 
BRANCH  22  23
ATOM     23  C   UNL     1      -9.125   4.885 -22.520  1.00  0.00     0.000 C 
BRANCH  23  24
ATOM     24  C   UNL     1      -8.377   4.617 -23.845  1.00  0.00     0.000 C 
BRANCH  24  25
ATOM     25  C   UNL     1      -8.288   3.138 -24.265  1.00  0.00     0.000 C 
BRANCH  25  26
ATOM     26  C   UNL     1      -7.281   2.292 -23.462  1.00  0.00     0.000 C 
BRANCH  26  27
ATOM     27  C   UNL     1      -6.318   3.130 -22.595  1.00  0.00     0.002 C 
BRANCH  27  28
ATOM     28  C   UNL     1      -5.555   2.278 -21.570  1.00  0.00     0.028 C 
BRANCH  28  29
ATOM     29  C   UNL     1      -4.367   3.049 -20.988  1.00  0.00     0.156 C 
BRANCH  29  30
ATOM     30  O   UNL     1      -4.085   2.597 -19.690  1.00  0.00    -0.396 OA
ATOM     31  H   UNL     1      -3.226   3.018 -19.423  1.00  0.00     0.210 HD
ENDBRANCH  29  30
ENDBRANCH  28  29
ENDBRANCH  27  28
ENDBRANCH  26  27
ENDBRANCH  25  26
ENDBRANCH  24  25
ENDBRANCH  23  24
ENDBRANCH  22  23
ENDBRANCH  21  22
ENDBRANCH  20  21
ENDBRANCH  19  20
ENDBRANCH  18  19
ENDBRANCH  17  18
ENDBRANCH   1  17
TORSDOF 28
ENDMDL
MODEL 6
REMARK VINA RESULT:    -3.269      1.524      3.336
REMARK INTER + INTRA:         -10.582
REMARK INTER:                  -8.333
REMARK INTRA:                  -2.248
REMARK UNBOUND:                -2.058
REMARK SMILES CCCCCCCCCCCCCCCCCCCCCCCCCCCCCO
REMARK SMILES IDX 16 1 15 2 14 3 13 4 12 5 11 6 10 7 9 8 8 9 7 10 6 11 5 12
REMARK SMILES IDX 4 13 3 14 2 15 1 16 17 17 18 18 19 19 20 20 21 21 22 22
REMARK SMILES IDX 23 23 24 24 25 25 26 26 27 27 28 28 29 29 30 30
REMARK H PARENT 30 31
REMARK Flexibility Score: inf
ROOT
ATOM      1  C   UNL     1      -3.234   3.897 -23.591  1.00  0.00     0.000 C 
ENDROOT
BRANCH   1   2
ATOM      2  C   UNL     1      -2.195   3.017 -22.880  1.00  0.00     0.000 C 
BRANCH   2   3
ATOM      3  C   UNL     1      -2.389   1.522 -23.172  1.00  0.00     0.000 C 
BRANCH   3   4
ATOM      4  C   UNL     1      -1.097   0.741 -22.899  1.00  0.00     0.000 C 
BRANCH   4   5
ATOM      5  C   UNL     1       0.134   1.513 -23.397  1.00  0.00     0.000 C 
BRANCH   5   6
ATOM      6  C   UNL     1       0.684   0.955 -24.719  1.00  0.00     0.000 C 
BRANCH   6   7
ATOM      7  C   UNL     1       2.218   1.028 -24.800  1.00  0.00     0.000 C 
BRANCH   7   8
ATOM      8  C   UNL     1       2.896  -0.048 -23.925  1.00  0.00    -0.000 C 
BRANCH   8   9
ATOM      9  C   UNL     1       2.481   0.005 -22.446  1.00  0.00    -0.000 C 
BRANCH   9  10
ATOM     10  C   UNL     1       2.516  -1.374 -21.768  1.00  0.00    -0.000 C 
BRANCH  10  11
ATOM     11  C   UNL     1       2.133  -2.525 -22.717  1.00  0.00    -0.000 C 
BRANCH  11  12
ATOM     12  C   UNL     1       3.248  -3.548 -23.006  1.00  0.00    -0.000 C 
BRANCH  12  13
ATOM     13  C   UNL     1       3.912  -4.094 -21.731  1.00  0.00    -0.000 C 
BRANCH  13  14
ATOM     14  C   UNL     1       4.397  -5.547 -21.886  1.00  0.00    -0.000 C 
BRANCH  14  15
ATOM     15  C   UNL     1       3.548  -6.418 -22.829  1.00  0.00    -0.003 C 
ATOM     16  C   UNL     1       4.328  -6.918 -24.046  1.00  0.00     0.004 C 
ENDBRANCH  14  15
ENDBRANCH  13  14
ENDBRANCH  12  13
ENDBRANCH  11  12
ENDBRANCH  10  11
ENDBRANCH   9  10
ENDBRANCH   8   9
ENDBRANCH   7   8
ENDBRANCH   6   7
ENDBRANCH   5   6
ENDBRANCH   4   5
ENDBRANCH   3   4
ENDBRANCH   2   3
ENDBRANCH   1   2
BRANCH   1  17
ATOM     17  C   UNL     1      -2.742   4.410 -24.957  1.00  0.00     0.000 C 
BRANCH  17  18
ATOM     18  C   UNL     1      -1.213   4.338 -25.089  1.00  0.00     0.000 C 
BRANCH  18  19
ATOM     19  C   UNL     1      -0.552   5.726 -25.032  1.00  0.00     0.000 C 
BRANCH  19  20
ATOM     20  C   UNL     1      -1.573   6.880 -25.060  1.00  0.00     0.000 C 
BRANCH  20  21
ATOM     21  C   UNL     1      -0.961   8.290 -24.975  1.00  0.00     0.000 C 
BRANCH  21  22
ATOM     22  C   UNL     1      -2.016   9.390 -24.765  1.00  0.00     0.000 C 
BRANCH  22  23
ATOM     23  C   UNL     1      -3.441   8.929 -25.114  1.00  0.00     0.000 C 
BRANCH  23  24
ATOM     24  C   UNL     1      -4.510   9.245 -24.045  1.00  0.00     0.000 C 
BRANCH  24  25
ATOM     25  C   UNL     1      -5.715   8.286 -24.013  1.00  0.00     0.000 C 
BRANCH  25  26
ATOM     26  C   UNL     1      -5.506   6.952 -24.755  1.00  0.00     0.000 C 
BRANCH  26  27
ATOM     27  C   UNL     1      -6.655   5.942 -24.554  1.00  0.00     0.002 C 
BRANCH  27  28
ATOM     28  C   UNL     1      -7.698   6.429 -23.538  1.00  0.00     0.028 C 
BRANCH  28  29
ATOM     29  C   UNL     1      -7.864   5.425 -22.394  1.00  0.00     0.156 C 
BRANCH  29  30
ATOM     30  O   UNL     1      -6.662   5.299 -21.682  1.00  0.00    -0.396 OA
ATOM     31  H   UNL     1      -6.884   4.844 -20.828  1.00  0.00     0.210 HD
ENDBRANCH  29  30
ENDBRANCH  28  29
ENDBRANCH  27  28
ENDBRANCH  26  27
ENDBRANCH  25  26
ENDBRANCH  24  25
ENDBRANCH  23  24
ENDBRANCH  22  23
ENDBRANCH  21  22
ENDBRANCH  20  21
ENDBRANCH  19  20
ENDBRANCH  18  19
ENDBRANCH  17  18
ENDBRANCH   1  17
TORSDOF 28
ENDMDL
MODEL 7
REMARK VINA RESULT:    -3.250      2.576     10.323
REMARK INTER + INTRA:         -10.532
REMARK INTER:                  -8.277
REMARK INTRA:                  -2.256
REMARK UNBOUND:                -2.058
REMARK SMILES CCCCCCCCCCCCCCCCCCCCCCCCCCCCCO
REMARK SMILES IDX 16 1 15 2 14 3 13 4 12 5 11 6 10 7 9 8 8 9 7 10 6 11 5 12
REMARK SMILES IDX 4 13 3 14 2 15 1 16 17 17 18 18 19 19 20 20 21 21 22 22
REMARK SMILES IDX 23 23 24 24 25 25 26 26 27 27 28 28 29 29 30 30
REMARK H PARENT 30 31
REMARK Flexibility Score: inf
ROOT
ATOM      1  C   UNL     1      -5.068   2.728 -20.637  1.00  0.00     0.000 C 
ENDROOT
BRANCH   1   2
ATOM      2  C   UNL     1      -6.529   2.329 -20.897  1.00  0.00     0.000 C 
BRANCH   2   3
ATOM      3  C   UNL     1      -6.735   1.727 -22.296  1.00  0.00     0.000 C 
BRANCH   3   4
ATOM      4  C   UNL     1      -7.312   2.772 -23.259  1.00  0.00     0.000 C 
BRANCH   4   5
ATOM      5  C   UNL     1      -7.428   4.146 -22.583  1.00  0.00     0.000 C 
BRANCH   5   6
ATOM      6  C   UNL     1      -7.476   5.300 -23.598  1.00  0.00     0.000 C 
BRANCH   6   7
ATOM      7  C   UNL     1      -6.287   5.282 -24.572  1.00  0.00     0.000 C 
BRANCH   7   8
ATOM      8  C   UNL     1      -5.970   6.688 -25.125  1.00  0.00    -0.000 C 
BRANCH   8   9
ATOM      9  C   UNL     1      -6.396   7.832 -24.189  1.00  0.00    -0.000 C 
BRANCH   9  10
ATOM     10  C   UNL     1      -5.203   8.511 -23.498  1.00  0.00    -0.000 C 
BRANCH  10  11
ATOM     11  C   UNL     1      -4.666   9.727 -24.276  1.00  0.00    -0.000 C 
BRANCH  11  12
ATOM     12  C   UNL     1      -3.132   9.821 -24.389  1.00  0.00    -0.000 C 
BRANCH  12  13
ATOM     13  C   UNL     1      -2.502   8.597 -25.075  1.00  0.00    -0.000 C 
BRANCH  13  14
ATOM     14  C   UNL     1      -0.979   8.513 -24.863  1.00  0.00    -0.000 C 
BRANCH  14  15
ATOM     15  C   UNL     1      -0.469   7.155 -24.350  1.00  0.00    -0.003 C 
ATOM     16  C   UNL     1      -1.289   5.973 -24.869  1.00  0.00     0.004 C 
ENDBRANCH  14  15
ENDBRANCH  13  14
ENDBRANCH  12  13
ENDBRANCH  11  12
ENDBRANCH  10  11
ENDBRANCH   9  10
ENDBRANCH   8   9
ENDBRANCH   7   8
ENDBRANCH   6   7
ENDBRANCH   5   6
ENDBRANCH   4   5
ENDBRANCH   3   4
ENDBRANCH   2   3
ENDBRANCH   1   2
BRANCH   1  17
ATOM     17  C   UNL     1      -4.107   2.203 -21.719  1.00  0.00     0.000 C 
BRANCH  17  18
ATOM     18  C   UNL     1      -3.386   3.340 -22.459  1.00  0.00     0.000 C 
BRANCH  18  19
ATOM     19  C   UNL     1      -1.984   2.930 -22.943  1.00  0.00     0.000 C 
BRANCH  19  20
ATOM     20  C   UNL     1      -1.989   2.330 -24.361  1.00  0.00     0.000 C 
BRANCH  20  21
ATOM     21  C   UNL     1      -0.911   1.261 -24.617  1.00  0.00     0.000 C 
BRANCH  21  22
ATOM     22  C   UNL     1       0.488   1.860 -24.841  1.00  0.00     0.000 C 
BRANCH  22  23
ATOM     23  C   UNL     1       1.591   0.791 -24.933  1.00  0.00     0.000 C 
BRANCH  23  24
ATOM     24  C   UNL     1       2.671   0.873 -23.832  1.00  0.00     0.000 C 
BRANCH  24  25
ATOM     25  C   UNL     1       2.668  -0.287 -22.818  1.00  0.00     0.000 C 
BRANCH  25  26
ATOM     26  C   UNL     1       2.566  -1.694 -23.437  1.00  0.00     0.000 C 
BRANCH  26  27
ATOM     27  C   UNL     1       2.395  -2.821 -22.397  1.00  0.00     0.002 C 
BRANCH  27  28
ATOM     28  C   UNL     1       3.734  -3.282 -21.801  1.00  0.00     0.028 C 
BRANCH  28  29
ATOM     29  C   UNL     1       3.995  -4.758 -22.110  1.00  0.00     0.156 C 
BRANCH  29  30
ATOM     30  O   UNL     1       4.805  -5.326 -21.116  1.00  0.00    -0.396 OA
ATOM     31  H   UNL     1       4.193  -5.747 -20.457  1.00  0.00     0.210 HD
ENDBRANCH  29  30
ENDBRANCH  28  29
ENDBRANCH  27  28
ENDBRANCH  26  27
ENDBRANCH  25  26
ENDBRANCH  24  25
ENDBRANCH  23  24
ENDBRANCH  22  23
ENDBRANCH  21  22
ENDBRANCH  20  21
ENDBRANCH  19  20
ENDBRANCH  18  19
ENDBRANCH  17  18
ENDBRANCH   1  17
TORSDOF 28
ENDMDL
MODEL 8
REMARK VINA RESULT:    -3.211      1.831      3.964
REMARK INTER + INTRA:         -10.432
REMARK INTER:                  -9.591
REMARK INTRA:                  -0.841
REMARK UNBOUND:                -2.058
REMARK SMILES CCCCCCCCCCCCCCCCCCCCCCCCCCCCCO
REMARK SMILES IDX 16 1 15 2 14 3 13 4 12 5 11 6 10 7 9 8 8 9 7 10 6 11 5 12
REMARK SMILES IDX 4 13 3 14 2 15 1 16 17 17 18 18 19 19 20 20 21 21 22 22
REMARK SMILES IDX 23 23 24 24 25 25 26 26 27 27 28 28 29 29 30 30
REMARK H PARENT 30 31
REMARK Flexibility Score: inf
ROOT
ATOM      1  C   UNL     1      -4.067   4.385 -24.074  1.00  0.00     0.000 C 
ENDROOT
BRANCH   1   2
ATOM      2  C   UNL     1      -2.911   5.170 -24.712  1.00  0.00     0.000 C 
BRANCH   2   3
ATOM      3  C   UNL     1      -1.556   4.862 -24.056  1.00  0.00     0.000 C 
BRANCH   3   4
ATOM      4  C   UNL     1      -0.715   3.940 -24.949  1.00  0.00     0.000 C 
BRANCH   4   5
ATOM      5  C   UNL     1      -1.293   2.517 -24.978  1.00  0.00     0.000 C 
BRANCH   5   6
ATOM      6  C   UNL     1      -0.214   1.439 -24.792  1.00  0.00     0.000 C 
BRANCH   6   7
ATOM      7  C   UNL     1      -0.363   0.675 -23.466  1.00  0.00     0.000 C 
BRANCH   7   8
ATOM      8  C   UNL     1       0.991   0.494 -22.747  1.00  0.00    -0.000 C 
BRANCH   8   9
ATOM      9  C   UNL     1       1.187  -0.905 -22.139  1.00  0.00    -0.000 C 
BRANCH   9  10
ATOM     10  C   UNL     1       2.505  -1.564 -22.575  1.00  0.00    -0.000 C 
BRANCH  10  11
ATOM     11  C   UNL     1       2.753  -2.925 -21.897  1.00  0.00    -0.000 C 
BRANCH  11  12
ATOM     12  C   UNL     1       3.654  -3.903 -22.676  1.00  0.00    -0.000 C 
BRANCH  12  13
ATOM     13  C   UNL     1       4.165  -5.070 -21.815  1.00  0.00    -0.000 C 
BRANCH  13  14
ATOM     14  C   UNL     1       3.952  -6.441 -22.483  1.00  0.00    -0.000 C 
BRANCH  14  15
ATOM     15  C   UNL     1       4.423  -6.531 -23.945  1.00  0.00    -0.003 C 
ATOM     16  C   UNL     1       3.851  -7.742 -24.684  1.00  0.00     0.004 C 
ENDBRANCH  14  15
ENDBRANCH  13  14
ENDBRANCH  12  13
ENDBRANCH  11  12
ENDBRANCH  10  11
ENDBRANCH   9  10
ENDBRANCH   8   9
ENDBRANCH   7   8
ENDBRANCH   6   7
ENDBRANCH   5   6
ENDBRANCH   4   5
ENDBRANCH   3   4
ENDBRANCH   2   3
ENDBRANCH   1   2
BRANCH   1  17
ATOM     17  C   UNL     1      -5.132   3.958 -25.101  1.00  0.00     0.000 C 
BRANCH  17  18
ATOM     18  C   UNL     1      -6.334   4.914 -25.125  1.00  0.00     0.000 C 
BRANCH  18  19
ATOM     19  C   UNL     1      -7.679   4.170 -25.059  1.00  0.00     0.000 C 
BRANCH  19  20
ATOM     20  C   UNL     1      -7.552   2.751 -24.472  1.00  0.00     0.000 C 
BRANCH  20  21
ATOM     21  C   UNL     1      -7.618   2.676 -22.935  1.00  0.00     0.000 C 
BRANCH  21  22
ATOM     22  C   UNL     1      -8.946   3.203 -22.365  1.00  0.00     0.000 C 
BRANCH  22  23
ATOM     23  C   UNL     1      -8.961   4.733 -22.197  1.00  0.00     0.000 C 
BRANCH  23  24
ATOM     24  C   UNL     1      -7.572   5.407 -22.238  1.00  0.00     0.000 C 
BRANCH  24  25
ATOM     25  C   UNL     1      -7.577   6.905 -22.597  1.00  0.00     0.000 C 
BRANCH  25  26
ATOM     26  C   UNL     1      -6.398   7.716 -22.025  1.00  0.00     0.000 C 
BRANCH  26  27
ATOM     27  C   UNL     1      -6.181   9.075 -22.724  1.00  0.00     0.002 C 
BRANCH  27  28
ATOM     28  C   UNL     1      -5.680   8.923 -24.167  1.00  0.00     0.028 C 
BRANCH  28  29
ATOM     29  C   UNL     1      -4.250   9.453 -24.313  1.00  0.00     0.156 C 
BRANCH  29  30
ATOM     30  O   UNL     1      -3.328   8.477 -23.908  1.00  0.00    -0.396 OA
ATOM     31  H   UNL     1      -2.972   8.062 -24.736  1.00  0.00     0.210 HD
ENDBRANCH  29  30
ENDBRANCH  28  29
ENDBRANCH  27  28
ENDBRANCH  26  27
ENDBRANCH  25  26
ENDBRANCH  24  25
ENDBRANCH  23  24
ENDBRANCH  22  23
ENDBRANCH  21  22
ENDBRANCH  20  21
ENDBRANCH  19  20
ENDBRANCH  18  19
ENDBRANCH  17  18
ENDBRANCH   1  17
TORSDOF 28
ENDMDL
