MODEL 1
REMARK VINA RESULT:    -3.338      0.000      0.000
REMARK INTER + INTRA:          -5.363
REMARK INTER:                  -5.094
REMARK INTRA:                  -0.270
REMARK UNBOUND:                -0.270
REMARK SMILES CC1=CCC[C@H](C)C(=O)C[C@@H](C(C)C)C(=O)C1
REMARK SMILES IDX 8 1 9 2 6 3 7 4 5 5 4 6 3 7 2 8 1 9 10 11 11 12 15 13 16 14
REMARK SMILES IDX 17 15 12 17 13 18 14 19
REMARK H PARENT
REMARK Flexibility Score: 70.00
ROOT
ATOM      1  C   UNL     1      43.501  54.652  26.774  1.00  0.00     0.136 C 
ATOM      2  O   UNL     1      42.980  53.648  27.238  1.00  0.00    -0.299 OA
ENDROOT
BRANCH   1   3
ATOM      3  C   UNL     1      42.997  56.023  27.178  1.00  0.00     0.053 C 
ATOM      4  C   UNL     1      41.466  56.034  27.115  1.00  0.00     0.016 C 
BRANCH   3   5
ATOM      5  C   UNL     1      43.478  56.451  28.585  1.00  0.00     0.015 C 
BRANCH   5   6
ATOM      6  C   UNL     1      44.692  57.396  28.567  1.00  0.00     0.028 C 
BRANCH   6   7
ATOM      7  C   UNL     1      44.604  58.387  27.431  1.00  0.00    -0.028 C 
ATOM      8  C   UNL     1      45.477  58.484  26.404  1.00  0.00    -0.070 CG0
ATOM      9  C   UNL     1      45.240  59.557  25.370  1.00  0.00     0.039 C 
ATOM     10  G   UNL     1      46.669  57.561  26.244  1.00  0.00     0.000 G0
ENDBRANCH   6   7
ENDBRANCH   5   6
ENDBRANCH   3   5
ENDBRANCH   1   3
BRANCH   1  11
ATOM     11  C   UNL     1      44.588  54.505  25.738  1.00  0.00     0.087 C 
BRANCH  11  12
ATOM     12  C   UNL     1      45.960  55.017  26.239  1.00  0.00     0.066 C 
BRANCH  12  13
ATOM     13  C   UNL     1      46.333  56.287  25.487  1.00  0.00     0.140 C 
ATOM     14  O   UNL     1      46.416  56.260  24.268  1.00  0.00    -0.299 OA
BRANCH  13  15
ATOM     15  C   UNL     1      46.674  57.563  26.215  1.00  0.00     0.106 CG0
ATOM     16  G   UNL     1      45.472  58.473  26.377  1.00  0.00     0.000 G0
ENDBRANCH  13  15
ENDBRANCH  12  13
BRANCH  12  17
ATOM     17  C   UNL     1      47.085  53.944  26.082  1.00  0.00    -0.006 C 
ATOM     18  C   UNL     1      48.224  54.174  27.093  1.00  0.00     0.008 C 
ATOM     19  C   UNL     1      46.549  52.510  26.258  1.00  0.00     0.008 C 
ENDBRANCH  12  17
ENDBRANCH  11  12
ENDBRANCH   1  11
TORSDOF 1
ENDMDL
MODEL 2
REMARK VINA RESULT:    -3.332      2.228      3.110
REMARK INTER + INTRA:          -5.354
REMARK INTER:                  -5.292
REMARK INTRA:                  -0.062
REMARK UNBOUND:                -0.270
REMARK SMILES CC1=CCC[C@H](C)C(=O)C[C@@H](C(C)C)C(=O)C1
REMARK SMILES IDX 8 1 9 2 6 3 7 4 5 5 4 6 3 7 2 8 1 9 10 11 11 12 15 13 16 14
REMARK SMILES IDX 17 15 12 17 13 18 14 19
REMARK H PARENT
REMARK Flexibility Score: 70.00
ROOT
ATOM      1  C   UNL     1      43.696  56.724  26.843  1.00  0.00     0.136 C 
ATOM      2  O   UNL     1      43.115  55.693  27.152  1.00  0.00    -0.299 OA
ENDROOT
BRANCH   1   3
ATOM      3  C   UNL     1      44.469  57.501  27.890  1.00  0.00     0.053 C 
ATOM      4  C   UNL     1      43.934  57.138  29.280  1.00  0.00     0.016 C 
BRANCH   3   5
ATOM      5  C   UNL     1      45.994  57.252  27.822  1.00  0.00     0.015 C 
BRANCH   5   6
ATOM      6  C   UNL     1      46.839  58.537  27.884  1.00  0.00     0.028 C 
BRANCH   6   7
ATOM      7  C   UNL     1      47.775  58.639  26.704  1.00  0.00    -0.028 C 
ATOM      8  C   UNL     1      47.421  59.001  25.450  1.00  0.00    -0.070 CG0
ATOM      9  C   UNL     1      48.494  59.023  24.390  1.00  0.00     0.039 C 
ATOM     10  G   UNL     1      46.006  59.390  25.071  1.00  0.00     0.000 G0
ENDBRANCH   6   7
ENDBRANCH   5   6
ENDBRANCH   3   5
ENDBRANCH   1   3
BRANCH   1  11
ATOM     11  C   UNL     1      43.563  57.250  25.435  1.00  0.00     0.087 C 
BRANCH  11  12
ATOM     12  C   UNL     1      44.855  57.055  24.604  1.00  0.00     0.066 C 
BRANCH  12  13
ATOM     13  C   UNL     1      45.351  58.408  24.114  1.00  0.00     0.140 C 
ATOM     14  O   UNL     1      45.291  58.674  22.922  1.00  0.00    -0.299 OA
BRANCH  13  15
ATOM     15  C   UNL     1      45.984  59.404  25.054  1.00  0.00     0.106 CG0
ATOM     16  G   UNL     1      47.390  59.004  25.456  1.00  0.00     0.000 G0
ENDBRANCH  13  15
ENDBRANCH  12  13
BRANCH  12  17
ATOM     17  C   UNL     1      44.641  56.086  23.397  1.00  0.00    -0.006 C 
ATOM     18  C   UNL     1      45.492  54.811  23.545  1.00  0.00     0.008 C 
ATOM     19  C   UNL     1      43.164  55.680  23.232  1.00  0.00     0.008 C 
ENDBRANCH  12  17
ENDBRANCH  11  12
ENDBRANCH   1  11
TORSDOF 1
ENDMDL
MODEL 3
REMARK VINA RESULT:    -3.107      2.202      3.496
REMARK INTER + INTRA:          -5.012
REMARK INTER:                  -5.110
REMARK INTRA:                   0.097
REMARK UNBOUND:                -0.270
REMARK SMILES CC1=CCC[C@H](C)C(=O)C[C@@H](C(C)C)C(=O)C1
REMARK SMILES IDX 8 1 9 2 6 3 7 4 5 5 4 6 3 7 2 8 1 9 10 11 11 12 15 13 16 14
REMARK SMILES IDX 17 15 12 17 13 18 14 19
REMARK H PARENT
REMARK Flexibility Score: 70.00
ROOT
ATOM      1  C   UNL     1      44.570  58.585  26.656  1.00  0.00     0.136 C 
ATOM      2  O   UNL     1      44.622  59.693  26.142  1.00  0.00    -0.299 OA
ENDROOT
BRANCH   1   3
ATOM      3  C   UNL     1      45.146  58.364  28.041  1.00  0.00     0.053 C 
ATOM      4  C   UNL     1      44.249  57.385  28.807  1.00  0.00     0.016 C 
BRANCH   3   5
ATOM      5  C   UNL     1      46.603  57.844  28.012  1.00  0.00     0.015 C 
BRANCH   5   6
ATOM      6  C   UNL     1      47.521  58.618  27.050  1.00  0.00     0.028 C 
BRANCH   6   7
ATOM      7  C   UNL     1      48.332  57.680  26.188  1.00  0.00    -0.028 C 
ATOM      8  C   UNL     1      48.068  57.373  24.898  1.00  0.00    -0.070 CG0
ATOM      9  C   UNL     1      48.979  56.392  24.202  1.00  0.00     0.039 C 
ATOM     10  G   UNL     1      46.912  57.976  24.126  1.00  0.00     0.000 G0
ENDBRANCH   6   7
ENDBRANCH   5   6
ENDBRANCH   3   5
ENDBRANCH   1   3
BRANCH   1  11
ATOM     11  C   UNL     1      44.004  57.432  25.864  1.00  0.00     0.087 C 
BRANCH  11  12
ATOM     12  C   UNL     1      45.103  56.483  25.328  1.00  0.00     0.066 C 
BRANCH  12  13
ATOM     13  C   UNL     1      45.711  57.075  24.064  1.00  0.00     0.140 C 
ATOM     14  O   UNL     1      45.255  56.760  22.974  1.00  0.00    -0.299 OA
BRANCH  13  15
ATOM     15  C   UNL     1      46.912  57.985  24.119  1.00  0.00     0.106 CG0
ATOM     16  G   UNL     1      48.069  57.369  24.880  1.00  0.00     0.000 G0
ENDBRANCH  13  15
ENDBRANCH  12  13
BRANCH  12  17
ATOM     17  C   UNL     1      44.557  55.046  25.046  1.00  0.00    -0.006 C 
ATOM     18  C   UNL     1      45.264  53.996  25.922  1.00  0.00     0.008 C 
ATOM     19  C   UNL     1      43.038  54.945  25.279  1.00  0.00     0.008 C 
ENDBRANCH  12  17
ENDBRANCH  11  12
ENDBRANCH   1  11
TORSDOF 1
ENDMDL
MODEL 4
REMARK VINA RESULT:    -3.104      2.216      4.016
REMARK INTER + INTRA:          -5.007
REMARK INTER:                  -4.783
REMARK INTRA:                  -0.224
REMARK UNBOUND:                -0.270
REMARK SMILES CC1=CCC[C@H](C)C(=O)C[C@@H](C(C)C)C(=O)C1
REMARK SMILES IDX 8 1 9 2 6 3 7 4 5 5 4 6 3 7 2 8 1 9 10 11 11 12 15 13 16 14
REMARK SMILES IDX 17 15 12 17 13 18 14 19
REMARK H PARENT
REMARK Flexibility Score: 70.00
ROOT
ATOM      1  C   UNL     1      46.465  57.171  27.406  1.00  0.00     0.136 C 
ATOM      2  O   UNL     1      47.612  57.586  27.491  1.00  0.00    -0.299 OA
ENDROOT
BRANCH   1   3
ATOM      3  C   UNL     1      45.331  57.938  28.058  1.00  0.00     0.053 C 
ATOM      4  C   UNL     1      44.642  58.809  27.002  1.00  0.00     0.016 C 
BRANCH   3   5
ATOM      5  C   UNL     1      44.299  57.015  28.748  1.00  0.00     0.015 C 
BRANCH   5   6
ATOM      6  C   UNL     1      42.965  56.898  27.990  1.00  0.00     0.028 C 
BRANCH   6   7
ATOM      7  C   UNL     1      42.496  55.464  27.918  1.00  0.00    -0.028 C 
ATOM      8  C   UNL     1      42.481  54.697  26.805  1.00  0.00    -0.070 CG0
ATOM      9  C   UNL     1      41.952  53.289  26.921  1.00  0.00     0.039 C 
ATOM     10  G   UNL     1      42.979  55.185  25.459  1.00  0.00     0.000 G0
ENDBRANCH   6   7
ENDBRANCH   5   6
ENDBRANCH   3   5
ENDBRANCH   1   3
BRANCH   1  11
ATOM     11  C   UNL     1      46.208  55.853  26.718  1.00  0.00     0.087 C 
BRANCH  11  12
ATOM     12  C   UNL     1      45.466  56.020  25.370  1.00  0.00     0.066 C 
BRANCH  12  13
ATOM     13  C   UNL     1      44.429  54.916  25.222  1.00  0.00     0.140 C 
ATOM     14  O   UNL     1      44.784  53.805  24.856  1.00  0.00    -0.299 OA
BRANCH  13  15
ATOM     15  C   UNL     1      42.961  55.178  25.445  1.00  0.00     0.106 CG0
ATOM     16  G   UNL     1      42.489  54.693  26.802  1.00  0.00     0.000 G0
ENDBRANCH  13  15
ENDBRANCH  12  13
BRANCH  12  17
ATOM     17  C   UNL     1      46.444  56.013  24.152  1.00  0.00    -0.006 C 
ATOM     18  C   UNL     1      46.633  57.429  23.577  1.00  0.00     0.008 C 
ATOM     19  C   UNL     1      47.825  55.438  24.519  1.00  0.00     0.008 C 
ENDBRANCH  12  17
ENDBRANCH  11  12
ENDBRANCH   1  11
TORSDOF 1
ENDMDL
MODEL 5
REMARK VINA RESULT:    -3.070      2.512      4.152
REMARK INTER + INTRA:          -4.954
REMARK INTER:                  -4.859
REMARK INTRA:                  -0.095
REMARK UNBOUND:                -0.270
REMARK SMILES CC1=CCC[C@H](C)C(=O)C[C@@H](C(C)C)C(=O)C1
REMARK SMILES IDX 8 1 9 2 6 3 7 4 5 5 4 6 3 7 2 8 1 9 10 11 11 12 15 13 16 14
REMARK SMILES IDX 17 15 12 17 13 18 14 19
REMARK H PARENT
REMARK Flexibility Score: 70.00
ROOT
ATOM      1  C   UNL     1      41.318  55.530  27.284  1.00  0.00     0.136 C 
ATOM      2  O   UNL     1      40.658  56.418  27.805  1.00  0.00    -0.299 OA
ENDROOT
BRANCH   1   3
ATOM      3  C   UNL     1      40.671  54.592  26.285  1.00  0.00     0.053 C 
ATOM      4  C   UNL     1      39.414  53.980  26.913  1.00  0.00     0.016 C 
BRANCH   3   5
ATOM      5  C   UNL     1      40.317  55.285  24.948  1.00  0.00     0.015 C 
BRANCH   5   6
ATOM      6  C   UNL     1      41.108  54.750  23.741  1.00  0.00     0.028 C 
BRANCH   6   7
ATOM      7  C   UNL     1      42.170  55.728  23.300  1.00  0.00    -0.028 C 
ATOM      8  C   UNL     1      43.436  55.778  23.773  1.00  0.00    -0.070 CG0
ATOM      9  C   UNL     1      44.354  56.845  23.229  1.00  0.00     0.039 C 
ATOM     10  G   UNL     1      43.969  54.810  24.810  1.00  0.00     0.000 G0
ENDBRANCH   6   7
ENDBRANCH   5   6
ENDBRANCH   3   5
ENDBRANCH   1   3
BRANCH   1  11
ATOM     11  C   UNL     1      42.752  55.333  27.709  1.00  0.00     0.087 C 
BRANCH  11  12
ATOM     12  C   UNL     1      43.726  56.288  26.977  1.00  0.00     0.066 C 
BRANCH  12  13
ATOM     13  C   UNL     1      44.581  55.491  26.003  1.00  0.00     0.140 C 
ATOM     14  O   UNL     1      45.793  55.452  26.161  1.00  0.00    -0.299 OA
BRANCH  13  15
ATOM     15  C   UNL     1      43.979  54.806  24.802  1.00  0.00     0.106 CG0
ATOM     16  G   UNL     1      43.437  55.793  23.787  1.00  0.00     0.000 G0
ENDBRANCH  13  15
ENDBRANCH  12  13
BRANCH  12  17
ATOM     17  C   UNL     1      44.632  57.084  27.970  1.00  0.00    -0.006 C 
ATOM     18  C   UNL     1      44.914  58.507  27.455  1.00  0.00     0.008 C 
ATOM     19  C   UNL     1      44.011  57.179  29.376  1.00  0.00     0.008 C 
ENDBRANCH  12  17
ENDBRANCH  11  12
ENDBRANCH   1  11
TORSDOF 1
ENDMDL
MODEL 6
REMARK VINA RESULT:    -3.040      2.159      3.475
REMARK INTER + INTRA:          -4.909
REMARK INTER:                  -4.936
REMARK INTRA:                   0.028
REMARK UNBOUND:                -0.270
REMARK SMILES CC1=CCC[C@H](C)C(=O)C[C@@H](C(C)C)C(=O)C1
REMARK SMILES IDX 8 1 9 2 6 3 7 4 5 5 4 6 3 7 2 8 1 9 10 11 11 12 15 13 16 14
REMARK SMILES IDX 17 15 12 17 13 18 14 19
REMARK H PARENT
REMARK Flexibility Score: 70.00
ROOT
ATOM      1  C   UNL     1      44.102  57.314  27.955  1.00  0.00     0.136 C 
ATOM      2  O   UNL     1      43.909  56.913  29.095  1.00  0.00    -0.299 OA
ENDROOT
BRANCH   1   3
ATOM      3  C   UNL     1      45.020  58.496  27.713  1.00  0.00     0.053 C 
ATOM      4  C   UNL     1      46.474  58.011  27.717  1.00  0.00     0.016 C 
BRANCH   3   5
ATOM      5  C   UNL     1      44.708  59.240  26.393  1.00  0.00     0.015 C 
BRANCH   5   6
ATOM      6  C   UNL     1      45.909  59.341  25.436  1.00  0.00     0.028 C 
BRANCH   6   7
ATOM      7  C   UNL     1      45.536  58.917  24.036  1.00  0.00    -0.028 C 
ATOM      8  C   UNL     1      45.465  57.642  23.594  1.00  0.00    -0.070 CG0
ATOM      9  C   UNL     1      45.099  57.412  22.148  1.00  0.00     0.039 C 
ATOM     10  G   UNL     1      45.728  56.444  24.484  1.00  0.00     0.000 G0
ENDBRANCH   6   7
ENDBRANCH   5   6
ENDBRANCH   3   5
ENDBRANCH   1   3
BRANCH   1  11
ATOM     11  C   UNL     1      43.354  56.671  26.813  1.00  0.00     0.087 C 
BRANCH  11  12
ATOM     12  C   UNL     1      44.072  55.413  26.266  1.00  0.00     0.066 C 
BRANCH  12  13
ATOM     13  C   UNL     1      44.490  55.655  24.823  1.00  0.00     0.140 C 
ATOM     14  O   UNL     1      43.832  55.165  23.917  1.00  0.00    -0.299 OA
BRANCH  13  15
ATOM     15  C   UNL     1      45.741  56.426  24.483  1.00  0.00     0.106 CG0
ATOM     16  G   UNL     1      45.457  57.623  23.597  1.00  0.00     0.000 G0
ENDBRANCH  13  15
ENDBRANCH  12  13
BRANCH  12  17
ATOM     17  C   UNL     1      43.179  54.134  26.365  1.00  0.00    -0.006 C 
ATOM     18  C   UNL     1      44.036  52.858  26.455  1.00  0.00     0.008 C 
ATOM     19  C   UNL     1      42.230  54.180  27.577  1.00  0.00     0.008 C 
ENDBRANCH  12  17
ENDBRANCH  11  12
ENDBRANCH   1  11
TORSDOF 1
ENDMDL
MODEL 7
REMARK VINA RESULT:    -2.996      2.373      4.992
REMARK INTER + INTRA:          -4.842
REMARK INTER:                  -4.951
REMARK INTRA:                   0.108
REMARK UNBOUND:                -0.270
REMARK SMILES CC1=CCC[C@H](C)C(=O)C[C@@H](C(C)C)C(=O)C1
REMARK SMILES IDX 8 1 9 2 6 3 7 4 5 5 4 6 3 7 2 8 1 9 10 11 11 12 15 13 16 14
REMARK SMILES IDX 17 15 12 17 13 18 14 19
REMARK H PARENT
REMARK Flexibility Score: 70.00
ROOT
ATOM      1  C   UNL     1      46.128  58.377  26.293  1.00  0.00     0.136 C 
ATOM      2  O   UNL     1      46.905  58.392  27.239  1.00  0.00    -0.299 OA
ENDROOT
BRANCH   1   3
ATOM      3  C   UNL     1      46.659  58.457  24.876  1.00  0.00     0.053 C 
ATOM      4  C   UNL     1      47.464  59.752  24.714  1.00  0.00     0.016 C 
BRANCH   3   5
ATOM      5  C   UNL     1      47.525  57.236  24.486  1.00  0.00     0.015 C 
BRANCH   5   6
ATOM      6  C   UNL     1      46.910  56.365  23.377  1.00  0.00     0.028 C 
BRANCH   6   7
ATOM      7  C   UNL     1      46.219  55.151  23.949  1.00  0.00    -0.028 C 
ATOM      8  C   UNL     1      44.907  55.071  24.268  1.00  0.00    -0.070 CG0
ATOM      9  C   UNL     1      44.397  53.778  24.855  1.00  0.00     0.039 C 
ATOM     10  G   UNL     1      43.935  56.214  24.054  1.00  0.00     0.000 G0
ENDBRANCH   6   7
ENDBRANCH   5   6
ENDBRANCH   3   5
ENDBRANCH   1   3
BRANCH   1  11
ATOM     11  C   UNL     1      44.643  58.362  26.561  1.00  0.00     0.087 C 
BRANCH  11  12
ATOM     12  C   UNL     1      44.057  56.930  26.578  1.00  0.00     0.066 C 
BRANCH  12  13
ATOM     13  C   UNL     1      43.264  56.691  25.302  1.00  0.00     0.140 C 
ATOM     14  O   UNL     1      42.049  56.833  25.315  1.00  0.00    -0.299 OA
BRANCH  13  15
ATOM     15  C   UNL     1      43.930  56.212  24.037  1.00  0.00     0.106 CG0
ATOM     16  G   UNL     1      44.907  55.082  24.293  1.00  0.00     0.000 G0
ENDBRANCH  13  15
ENDBRANCH  12  13
BRANCH  12  17
ATOM     17  C   UNL     1      43.159  56.674  27.832  1.00  0.00    -0.006 C 
ATOM     18  C   UNL     1      42.787  55.185  27.960  1.00  0.00     0.008 C 
ATOM     19  C   UNL     1      43.839  57.130  29.137  1.00  0.00     0.008 C 
ENDBRANCH  12  17
ENDBRANCH  11  12
ENDBRANCH   1  11
TORSDOF 1
ENDMDL
MODEL 8
REMARK VINA RESULT:    -2.987      2.122      3.634
REMARK INTER + INTRA:          -4.828
REMARK INTER:                  -5.072
REMARK INTRA:                   0.244
REMARK UNBOUND:                -0.270
REMARK SMILES CC1=CCC[C@H](C)C(=O)C[C@@H](C(C)C)C(=O)C1
REMARK SMILES IDX 8 1 9 2 6 3 7 4 5 5 4 6 3 7 2 8 1 9 10 11 11 12 15 13 16 14
REMARK SMILES IDX 17 15 12 17 13 18 14 19
REMARK H PARENT
REMARK Flexibility Score: 70.00
ROOT
ATOM      1  C   UNL     1      44.569  58.447  26.461  1.00  0.00     0.136 C 
ATOM      2  O   UNL     1      44.932  59.260  25.622  1.00  0.00    -0.299 OA
ENDROOT
BRANCH   1   3
ATOM      3  C   UNL     1      45.152  58.490  27.859  1.00  0.00     0.053 C 
ATOM      4  C   UNL     1      44.482  57.409  28.715  1.00  0.00     0.016 C 
BRANCH   3   5
ATOM      5  C   UNL     1      46.688  58.312  27.878  1.00  0.00     0.015 C 
BRANCH   5   6
ATOM      6  C   UNL     1      47.179  57.061  27.129  1.00  0.00     0.028 C 
BRANCH   6   7
ATOM      7  C   UNL     1      47.764  57.418  25.783  1.00  0.00    -0.028 C 
ATOM      8  C   UNL     1      47.520  56.767  24.624  1.00  0.00    -0.070 CG0
ATOM      9  C   UNL     1      48.216  57.254  23.377  1.00  0.00     0.039 C 
ATOM     10  G   UNL     1      46.578  55.584  24.523  1.00  0.00     0.000 G0
ENDBRANCH   6   7
ENDBRANCH   5   6
ENDBRANCH   3   5
ENDBRANCH   1   3
BRANCH   1  11
ATOM     11  C   UNL     1      43.604  57.358  26.061  1.00  0.00     0.087 C 
BRANCH  11  12
ATOM     12  C   UNL     1      44.303  55.994  25.845  1.00  0.00     0.066 C 
BRANCH  12  13
ATOM     13  C   UNL     1      45.119  56.040  24.561  1.00  0.00     0.140 C 
ATOM     14  O   UNL     1      44.581  56.390  23.521  1.00  0.00    -0.299 OA
BRANCH  13  15
ATOM     15  C   UNL     1      46.559  55.593  24.526  1.00  0.00     0.106 CG0
ATOM     16  G   UNL     1      47.525  56.756  24.619  1.00  0.00     0.000 G0
ENDBRANCH  13  15
ENDBRANCH  12  13
BRANCH  12  17
ATOM     17  C   UNL     1      43.285  54.809  25.800  1.00  0.00    -0.006 C 
ATOM     18  C   UNL     1      43.778  53.615  26.638  1.00  0.00     0.008 C 
ATOM     19  C   UNL     1      41.889  55.223  26.301  1.00  0.00     0.008 C 
ENDBRANCH  12  17
ENDBRANCH  11  12
ENDBRANCH   1  11
TORSDOF 1
ENDMDL
MODEL 9
REMARK VINA RESULT:    -2.956      2.383      4.163
REMARK INTER + INTRA:          -4.781
REMARK INTER:                  -4.545
REMARK INTRA:                  -0.236
REMARK UNBOUND:                -0.270
REMARK SMILES CC1=CCC[C@H](C)C(=O)C[C@@H](C(C)C)C(=O)C1
REMARK SMILES IDX 8 1 9 2 6 3 7 4 5 5 4 6 3 7 2 8 1 9 10 11 11 12 15 13 16 14
REMARK SMILES IDX 17 15 12 17 13 18 14 19
REMARK H PARENT
REMARK Flexibility Score: 70.00
ROOT
ATOM      1  C   UNL     1      45.702  57.518  27.644  1.00  0.00     0.136 C 
ATOM      2  O   UNL     1      45.673  58.654  28.097  1.00  0.00    -0.299 OA
ENDROOT
BRANCH   1   3
ATOM      3  C   UNL     1      44.466  56.644  27.712  1.00  0.00     0.053 C 
ATOM      4  C   UNL     1      43.730  56.917  29.029  1.00  0.00     0.016 C 
BRANCH   3   5
ATOM      5  C   UNL     1      43.511  56.855  26.513  1.00  0.00     0.015 C 
BRANCH   5   6
ATOM      6  C   UNL     1      43.365  55.620  25.608  1.00  0.00     0.028 C 
BRANCH   6   7
ATOM      7  C   UNL     1      44.028  54.408  26.218  1.00  0.00    -0.028 C 
ATOM      8  C   UNL     1      45.204  53.872  25.821  1.00  0.00    -0.070 CG0
ATOM      9  C   UNL     1      45.700  52.640  26.536  1.00  0.00     0.039 C 
ATOM     10  G   UNL     1      46.043  54.459  24.703  1.00  0.00     0.000 G0
ENDBRANCH   6   7
ENDBRANCH   5   6
ENDBRANCH   3   5
ENDBRANCH   1   3
BRANCH   1  11
ATOM     11  C   UNL     1      47.000  56.977  27.098  1.00  0.00     0.087 C 
BRANCH  11  12
ATOM     12  C   UNL     1      46.969  56.801  25.561  1.00  0.00     0.066 C 
BRANCH  12  13
ATOM     13  C   UNL     1      47.179  55.334  25.214  1.00  0.00     0.140 C 
ATOM     14  O   UNL     1      48.299  54.851  25.298  1.00  0.00    -0.299 OA
BRANCH  13  15
ATOM     15  C   UNL     1      46.050  54.476  24.699  1.00  0.00     0.106 CG0
ATOM     16  G   UNL     1      45.215  53.889  25.819  1.00  0.00     0.000 G0
ENDBRANCH  13  15
ENDBRANCH  12  13
BRANCH  12  17
ATOM     17  C   UNL     1      48.039  57.686  24.843  1.00  0.00    -0.006 C 
ATOM     18  C   UNL     1      47.436  58.424  23.634  1.00  0.00     0.008 C 
ATOM     19  C   UNL     1      48.669  58.722  25.793  1.00  0.00     0.008 C 
ENDBRANCH  12  17
ENDBRANCH  11  12
ENDBRANCH   1  11
TORSDOF 1
ENDMDL
