MODEL 1
REMARK VINA RESULT:    -4.039      0.000      0.000
REMARK INTER + INTRA:          -5.097
REMARK INTER:                  -4.983
REMARK INTRA:                  -0.113
REMARK UNBOUND:                -0.113
REMARK SMILES CCCCC(=O)CC
REMARK SMILES IDX 4 1 3 2 2 3 1 4 5 5 6 6 7 7 8 8
REMARK H PARENT
REMARK Flexibility Score: inf
ROOT
ATOM      1  C   UNL     1     116.258 117.031 113.493  1.00  0.00     0.075 C 
ENDROOT
BRANCH   1   2
ATOM      2  C   UNL     1     116.762 116.303 114.747  1.00  0.00     0.008 C 
BRANCH   2   3
ATOM      3  C   UNL     1     116.350 117.020 116.041  1.00  0.00    -0.003 C 
ATOM      4  C   UNL     1     117.512 117.086 117.027  1.00  0.00     0.004 C 
ENDBRANCH   2   3
ENDBRANCH   1   2
BRANCH   1   5
ATOM      5  C   UNL     1     117.247 116.951 112.360  1.00  0.00     0.132 C 
ATOM      6  O   UNL     1     117.751 117.976 111.926  1.00  0.00    -0.300 OA
BRANCH   5   7
ATOM      7  C   UNL     1     117.657 115.621 111.787  1.00  0.00     0.072 C 
ATOM      8  C   UNL     1     116.438 114.806 111.372  1.00  0.00     0.012 C 
ENDBRANCH   5   7
ENDBRANCH   1   5
TORSDOF 4
ENDMDL
MODEL 2
REMARK VINA RESULT:    -4.003      1.747      2.172
REMARK INTER + INTRA:          -5.052
REMARK INTER:                  -4.934
REMARK INTRA:                  -0.119
REMARK UNBOUND:                -0.113
REMARK SMILES CCCCC(=O)CC
REMARK SMILES IDX 4 1 3 2 2 3 1 4 5 5 6 6 7 7 8 8
REMARK H PARENT
REMARK Flexibility Score: inf
ROOT
ATOM      1  C   UNL     1     116.919 116.229 113.664  1.00  0.00     0.075 C 
ENDROOT
BRANCH   1   2
ATOM      2  C   UNL     1     116.301 116.941 114.875  1.00  0.00     0.008 C 
BRANCH   2   3
ATOM      3  C   UNL     1     116.664 116.255 116.200  1.00  0.00    -0.003 C 
ATOM      4  C   UNL     1     117.658 117.094 116.999  1.00  0.00     0.004 C 
ENDBRANCH   2   3
ENDBRANCH   1   2
BRANCH   1   5
ATOM      5  C   UNL     1     115.994 116.232 112.476  1.00  0.00     0.132 C 
ATOM      6  O   UNL     1     115.530 115.178 112.069  1.00  0.00    -0.300 OA
BRANCH   5   7
ATOM      7  C   UNL     1     115.596 117.524 111.812  1.00  0.00     0.072 C 
ATOM      8  C   UNL     1     116.826 118.323 111.394  1.00  0.00     0.012 C 
ENDBRANCH   5   7
ENDBRANCH   1   5
TORSDOF 4
ENDMDL
MODEL 3
REMARK VINA RESULT:    -3.978      1.504      1.805
REMARK INTER + INTRA:          -5.021
REMARK INTER:                  -4.904
REMARK INTRA:                  -0.117
REMARK UNBOUND:                -0.113
REMARK SMILES CCCCC(=O)CC
REMARK SMILES IDX 4 1 3 2 2 3 1 4 5 5 6 6 7 7 8 8
REMARK H PARENT
REMARK Flexibility Score: inf
ROOT
ATOM      1  C   UNL     1     117.011 116.992 113.746  1.00  0.00     0.075 C 
ENDROOT
BRANCH   1   2
ATOM      2  C   UNL     1     116.299 116.300 114.917  1.00  0.00     0.008 C 
BRANCH   2   3
ATOM      3  C   UNL     1     116.926 116.658 116.272  1.00  0.00    -0.003 C 
ATOM      4  C   UNL     1     116.070 117.676 117.022  1.00  0.00     0.004 C 
ENDBRANCH   2   3
ENDBRANCH   1   2
BRANCH   1   5
ATOM      5  C   UNL     1     116.850 116.229 112.459  1.00  0.00     0.132 C 
ATOM      6  O   UNL     1     117.757 115.512 112.065  1.00  0.00    -0.300 OA
BRANCH   5   7
ATOM      7  C   UNL     1     115.567 116.303 111.674  1.00  0.00     0.072 C 
ATOM      8  C   UNL     1     115.015 117.724 111.664  1.00  0.00     0.012 C 
ENDBRANCH   5   7
ENDBRANCH   1   5
TORSDOF 4
ENDMDL
MODEL 4
REMARK VINA RESULT:    -3.758      2.429      4.900
REMARK INTER + INTRA:          -4.750
REMARK INTER:                  -4.651
REMARK INTRA:                  -0.098
REMARK UNBOUND:                -0.113
REMARK SMILES CCCCC(=O)CC
REMARK SMILES IDX 4 1 3 2 2 3 1 4 5 5 6 6 7 7 8 8
REMARK H PARENT
REMARK Flexibility Score: inf
ROOT
ATOM      1  C   UNL     1     116.920 116.225 115.405  1.00  0.00     0.075 C 
ENDROOT
BRANCH   1   2
ATOM      2  C   UNL     1     116.253 116.764 114.132  1.00  0.00     0.008 C 
BRANCH   2   3
ATOM      3  C   UNL     1     117.000 116.339 112.860  1.00  0.00    -0.003 C 
ATOM      4  C   UNL     1     117.426 117.554 112.041  1.00  0.00     0.004 C 
ENDBRANCH   2   3
ENDBRANCH   1   2
BRANCH   1   5
ATOM      5  C   UNL     1     116.142 116.584 116.644  1.00  0.00     0.132 C 
ATOM      6  O   UNL     1     115.194 115.891 116.983  1.00  0.00    -0.300 OA
BRANCH   5   7
ATOM      7  C   UNL     1     116.546 117.757 117.496  1.00  0.00     0.072 C 
ATOM      8  C   UNL     1     115.400 118.754 117.630  1.00  0.00     0.012 C 
ENDBRANCH   5   7
ENDBRANCH   1   5
TORSDOF 4
ENDMDL
MODEL 5
REMARK VINA RESULT:    -3.752      2.217      4.466
REMARK INTER + INTRA:          -4.743
REMARK INTER:                  -4.638
REMARK INTRA:                  -0.105
REMARK UNBOUND:                -0.113
REMARK SMILES CCCCC(=O)CC
REMARK SMILES IDX 4 1 3 2 2 3 1 4 5 5 6 6 7 7 8 8
REMARK H PARENT
REMARK Flexibility Score: inf
ROOT
ATOM      1  C   UNL     1     116.328 116.987 115.472  1.00  0.00     0.075 C 
ENDROOT
BRANCH   1   2
ATOM      2  C   UNL     1     116.886 116.313 114.212  1.00  0.00     0.008 C 
BRANCH   2   3
ATOM      3  C   UNL     1     116.263 116.878 112.926  1.00  0.00    -0.003 C 
ATOM      4  C   UNL     1     117.324 117.527 112.041  1.00  0.00     0.004 C 
ENDBRANCH   2   3
ENDBRANCH   1   2
BRANCH   1   5
ATOM      5  C   UNL     1     117.128 116.638 116.699  1.00  0.00     0.132 C 
ATOM      6  O   UNL     1     118.083 117.332 117.014  1.00  0.00    -0.300 OA
BRANCH   5   7
ATOM      7  C   UNL     1     116.738 115.472 117.568  1.00  0.00     0.072 C 
ATOM      8  C   UNL     1     117.843 114.422 117.599  1.00  0.00     0.012 C 
ENDBRANCH   5   7
ENDBRANCH   1   5
TORSDOF 4
ENDMDL
MODEL 6
REMARK VINA RESULT:    -3.742      2.303      4.769
REMARK INTER + INTRA:          -4.731
REMARK INTER:                  -4.630
REMARK INTRA:                  -0.101
REMARK UNBOUND:                -0.113
REMARK SMILES CCCCC(=O)CC
REMARK SMILES IDX 4 1 3 2 2 3 1 4 5 5 6 6 7 7 8 8
REMARK H PARENT
REMARK Flexibility Score: inf
ROOT
ATOM      1  C   UNL     1     116.352 116.287 115.514  1.00  0.00     0.075 C 
ENDROOT
BRANCH   1   2
ATOM      2  C   UNL     1     116.855 116.943 114.220  1.00  0.00     0.008 C 
BRANCH   2   3
ATOM      3  C   UNL     1     116.217 116.323 112.968  1.00  0.00    -0.003 C 
ATOM      4  C   UNL     1     115.716 117.404 112.014  1.00  0.00     0.004 C 
ENDBRANCH   2   3
ENDBRANCH   1   2
BRANCH   1   5
ATOM      5  C   UNL     1     116.658 117.127 116.726  1.00  0.00     0.132 C 
ATOM      6  O   UNL     1     115.928 118.065 117.010  1.00  0.00    -0.300 OA
BRANCH   5   7
ATOM      7  C   UNL     1     117.824 116.796 117.618  1.00  0.00     0.072 C 
ATOM      8  C   UNL     1     118.866 117.909 117.588  1.00  0.00     0.012 C 
ENDBRANCH   5   7
ENDBRANCH   1   5
TORSDOF 4
ENDMDL
MODEL 7
REMARK VINA RESULT:    -3.741      2.537      4.728
REMARK INTER + INTRA:          -4.730
REMARK INTER:                  -4.626
REMARK INTRA:                  -0.104
REMARK UNBOUND:                -0.113
REMARK SMILES CCCCC(=O)CC
REMARK SMILES IDX 4 1 3 2 2 3 1 4 5 5 6 6 7 7 8 8
REMARK H PARENT
REMARK Flexibility Score: inf
ROOT
ATOM      1  C   UNL     1     116.994 116.861 115.441  1.00  0.00     0.075 C 
ENDROOT
BRANCH   1   2
ATOM      2  C   UNL     1     116.309 116.327 114.176  1.00  0.00     0.008 C 
BRANCH   2   3
ATOM      3  C   UNL     1     116.999 116.814 112.893  1.00  0.00    -0.003 C 
ATOM      4  C   UNL     1     116.001 117.480 111.950  1.00  0.00     0.004 C 
ENDBRANCH   2   3
ENDBRANCH   1   2
BRANCH   1   5
ATOM      5  C   UNL     1     116.605 116.076 116.666  1.00  0.00     0.132 C 
ATOM      6  O   UNL     1     117.282 115.118 117.008  1.00  0.00    -0.300 OA
BRANCH   5   7
ATOM      7  C   UNL     1     115.421 116.485 117.500  1.00  0.00     0.072 C 
ATOM      8  C   UNL     1     114.397 115.358 117.583  1.00  0.00     0.012 C 
ENDBRANCH   5   7
ENDBRANCH   1   5
TORSDOF 4
ENDMDL
MODEL 8
REMARK VINA RESULT:    -3.672      2.767      5.216
REMARK INTER + INTRA:          -4.644
REMARK INTER:                  -4.542
REMARK INTRA:                  -0.102
REMARK UNBOUND:                -0.113
REMARK SMILES CCCCC(=O)CC
REMARK SMILES IDX 4 1 3 2 2 3 1 4 5 5 6 6 7 7 8 8
REMARK H PARENT
REMARK Flexibility Score: inf
ROOT
ATOM      1  C   UNL     1     117.118 116.967 116.299  1.00  0.00     0.075 C 
ENDROOT
BRANCH   1   2
ATOM      2  C   UNL     1     116.515 116.235 115.092  1.00  0.00     0.008 C 
BRANCH   2   3
ATOM      3  C   UNL     1     116.776 116.977 113.773  1.00  0.00    -0.003 C 
ATOM      4  C   UNL     1     116.478 116.083 112.572  1.00  0.00     0.004 C 
ENDBRANCH   2   3
ENDBRANCH   1   2
BRANCH   1   5
ATOM      5  C   UNL     1     116.068 117.351 117.308  1.00  0.00     0.132 C 
ATOM      6  O   UNL     1     115.162 116.571 117.563  1.00  0.00    -0.300 OA
BRANCH   5   7
ATOM      7  C   UNL     1     116.146 118.664 118.040  1.00  0.00     0.072 C 
ATOM      8  C   UNL     1     114.974 119.566 117.669  1.00  0.00     0.012 C 
ENDBRANCH   5   7
ENDBRANCH   1   5
TORSDOF 4
ENDMDL
MODEL 9
REMARK VINA RESULT:    -3.395      3.224      5.158
REMARK INTER + INTRA:          -4.302
REMARK INTER:                  -4.141
REMARK INTRA:                  -0.161
REMARK UNBOUND:                -0.113
REMARK SMILES CCCCC(=O)CC
REMARK SMILES IDX 4 1 3 2 2 3 1 4 5 5 6 6 7 7 8 8
REMARK H PARENT
REMARK Flexibility Score: inf
ROOT
ATOM      1  C   UNL     1     116.696 116.340 117.018  1.00  0.00     0.075 C 
ENDROOT
BRANCH   1   2
ATOM      2  C   UNL     1     116.007 116.526 115.659  1.00  0.00     0.008 C 
BRANCH   2   3
ATOM      3  C   UNL     1     117.014 116.592 114.501  1.00  0.00    -0.003 C 
ATOM      4  C   UNL     1     116.302 116.565 113.152  1.00  0.00     0.004 C 
ENDBRANCH   2   3
ENDBRANCH   1   2
BRANCH   1   5
ATOM      5  C   UNL     1     116.005 115.303 117.863  1.00  0.00     0.132 C 
ATOM      6  O   UNL     1     114.792 115.351 118.007  1.00  0.00    -0.300 OA
BRANCH   5   7
ATOM      7  C   UNL     1     116.783 114.179 118.494  1.00  0.00     0.072 C 
ATOM      8  C   UNL     1     118.055 113.887 117.706  1.00  0.00     0.012 C 
ENDBRANCH   5   7
ENDBRANCH   1   5
TORSDOF 4
ENDMDL
