MODEL 1
REMARK VINA RESULT:    -5.330      0.000      0.000
REMARK INTER + INTRA:          -6.205
REMARK INTER:                  -5.953
REMARK INTRA:                  -0.251
REMARK UNBOUND:                -0.251
REMARK SMILES COc1cc(C)ccc1C(C)C
REMARK SMILES IDX 6 1 5 2 4 3 3 4 9 5 8 6 7 7 2 8 1 9 10 10 11 11 12 12
REMARK H PARENT
REMARK Flexibility Score: inf
ROOT
ATOM      1  C   UNL     1     -10.690  73.089  34.418  1.00  0.00     0.044 C 
ATOM      2  C   UNL     1     -10.745  73.175  32.921  1.00  0.00    -0.047 A 
ATOM      3  C   UNL     1     -10.116  72.201  32.134  1.00  0.00     0.050 A 
ATOM      4  C   UNL     1     -10.127  72.290  30.727  1.00  0.00     0.122 A 
ATOM      5  C   UNL     1     -10.772  73.387  30.105  1.00  0.00    -0.003 A 
ATOM      6  C   UNL     1     -11.382  74.368  30.910  1.00  0.00     0.008 A 
ATOM      7  C   UNL     1     -11.362  74.266  32.301  1.00  0.00     0.004 A 
ENDROOT
BRANCH   4   8
ATOM      8  O   UNL     1      -9.508  71.312  29.932  1.00  0.00    -0.496 OA
ATOM      9  C   UNL     1      -8.115  71.022  29.934  1.00  0.00     0.278 C 
ENDBRANCH   4   8
BRANCH   5  10
ATOM     10  C   UNL     1     -10.827  73.551  28.590  1.00  0.00     0.017 C 
ATOM     11  C   UNL     1      -9.954  74.717  28.108  1.00  0.00     0.012 C 
ATOM     12  C   UNL     1     -12.268  73.677  28.081  1.00  0.00     0.012 C 
ENDBRANCH   5  10
TORSDOF 2
ENDMDL
MODEL 2
REMARK VINA RESULT:    -5.248      1.347      4.088
REMARK INTER + INTRA:          -6.112
REMARK INTER:                  -5.875
REMARK INTRA:                  -0.237
REMARK UNBOUND:                -0.251
REMARK SMILES COc1cc(C)ccc1C(C)C
REMARK SMILES IDX 6 1 5 2 4 3 3 4 9 5 8 6 7 7 2 8 1 9 10 10 11 11 12 12
REMARK H PARENT
REMARK Flexibility Score: inf
ROOT
ATOM      1  C   UNL     1     -10.212  73.376  25.860  1.00  0.00     0.044 C 
ATOM      2  C   UNL     1     -10.314  73.444  27.356  1.00  0.00    -0.047 A 
ATOM      3  C   UNL     1      -9.413  72.733  28.158  1.00  0.00     0.050 A 
ATOM      4  C   UNL     1      -9.520  72.757  29.564  1.00  0.00     0.122 A 
ATOM      5  C   UNL     1     -10.563  73.503  30.168  1.00  0.00    -0.003 A 
ATOM      6  C   UNL     1     -11.473  74.195  29.347  1.00  0.00     0.008 A 
ATOM      7  C   UNL     1     -11.353  74.160  27.958  1.00  0.00     0.004 A 
ENDROOT
BRANCH   4   8
ATOM      8  O   UNL     1      -8.614  72.056  30.375  1.00  0.00    -0.496 OA
ATOM      9  C   UNL     1      -7.937  70.862  29.997  1.00  0.00     0.278 C 
ENDBRANCH   4   8
BRANCH   5  10
ATOM     10  C   UNL     1     -10.744  73.578  31.680  1.00  0.00     0.017 C 
ATOM     11  C   UNL     1     -11.880  72.670  32.168  1.00  0.00     0.012 C 
ATOM     12  C   UNL     1     -10.928  75.022  32.162  1.00  0.00     0.012 C 
ENDBRANCH   5  10
TORSDOF 2
ENDMDL
MODEL 3
REMARK VINA RESULT:    -5.112      4.495      6.200
REMARK INTER + INTRA:          -5.961
REMARK INTER:                  -5.745
REMARK INTRA:                  -0.216
REMARK UNBOUND:                -0.251
REMARK SMILES COc1cc(C)ccc1C(C)C
REMARK SMILES IDX 6 1 5 2 4 3 3 4 9 5 8 6 7 7 2 8 1 9 10 10 11 11 12 12
REMARK H PARENT
REMARK Flexibility Score: inf
ROOT
ATOM      1  C   UNL     1      -9.793  73.804  28.343  1.00  0.00     0.044 C 
ATOM      2  C   UNL     1      -9.585  73.720  26.860  1.00  0.00    -0.047 A 
ATOM      3  C   UNL     1      -8.705  72.770  26.323  1.00  0.00     0.050 A 
ATOM      4  C   UNL     1      -8.472  72.704  24.934  1.00  0.00     0.122 A 
ATOM      5  C   UNL     1      -9.127  73.620  24.074  1.00  0.00    -0.003 A 
ATOM      6  C   UNL     1      -9.991  74.581  24.631  1.00  0.00     0.008 A 
ATOM      7  C   UNL     1     -10.212  74.634  26.008  1.00  0.00     0.004 A 
ENDROOT
BRANCH   4   8
ATOM      8  O   UNL     1      -7.601  71.748  24.388  1.00  0.00    -0.496 OA
ATOM      9  C   UNL     1      -6.234  71.589  24.752  1.00  0.00     0.278 C 
ENDBRANCH   4   8
BRANCH   5  10
ATOM     10  C   UNL     1      -8.926  73.610  22.563  1.00  0.00     0.017 C 
ATOM     11  C   UNL     1      -7.589  74.246  22.159  1.00  0.00     0.012 C 
ATOM     12  C   UNL     1     -10.104  74.256  21.826  1.00  0.00     0.012 C 
ENDBRANCH   5  10
TORSDOF 2
ENDMDL
MODEL 4
REMARK VINA RESULT:    -5.025      3.756      6.943
REMARK INTER + INTRA:          -5.864
REMARK INTER:                  -5.610
REMARK INTRA:                  -0.253
REMARK UNBOUND:                -0.251
REMARK SMILES COc1cc(C)ccc1C(C)C
REMARK SMILES IDX 6 1 5 2 4 3 3 4 9 5 8 6 7 7 2 8 1 9 10 10 11 11 12 12
REMARK H PARENT
REMARK Flexibility Score: inf
ROOT
ATOM      1  C   UNL     1     -11.664  73.442  32.663  1.00  0.00     0.044 C 
ATOM      2  C   UNL     1     -11.069  72.716  33.833  1.00  0.00    -0.047 A 
ATOM      3  C   UNL     1     -11.277  73.186  35.136  1.00  0.00     0.050 A 
ATOM      4  C   UNL     1     -10.693  72.534  36.242  1.00  0.00     0.122 A 
ATOM      5  C   UNL     1      -9.875  71.397  36.027  1.00  0.00    -0.003 A 
ATOM      6  C   UNL     1      -9.661  70.949  34.710  1.00  0.00     0.008 A 
ATOM      7  C   UNL     1     -10.245  71.605  33.626  1.00  0.00     0.004 A 
ENDROOT
BRANCH   4   8
ATOM      8  O   UNL     1     -10.905  72.993  37.551  1.00  0.00    -0.496 OA
ATOM      9  C   UNL     1     -12.007  72.627  38.375  1.00  0.00     0.278 C 
ENDBRANCH   4   8
BRANCH   5  10
ATOM     10  C   UNL     1      -9.212  70.639  37.171  1.00  0.00     0.017 C 
ATOM     11  C   UNL     1      -7.813  70.136  36.789  1.00  0.00     0.012 C 
ATOM     12  C   UNL     1     -10.098  69.502  37.693  1.00  0.00     0.012 C 
ENDBRANCH   5  10
TORSDOF 2
ENDMDL
MODEL 5
REMARK VINA RESULT:    -4.926      1.790      2.757
REMARK INTER + INTRA:          -5.753
REMARK INTER:                  -6.058
REMARK INTRA:                   0.305
REMARK UNBOUND:                -0.251
REMARK SMILES COc1cc(C)ccc1C(C)C
REMARK SMILES IDX 6 1 5 2 4 3 3 4 9 5 8 6 7 7 2 8 1 9 10 10 11 11 12 12
REMARK H PARENT
REMARK Flexibility Score: inf
ROOT
ATOM      1  C   UNL     1     -11.358  73.719  33.155  1.00  0.00     0.044 C 
ATOM      2  C   UNL     1     -10.862  73.871  31.748  1.00  0.00    -0.047 A 
ATOM      3  C   UNL     1     -11.614  73.372  30.676  1.00  0.00     0.050 A 
ATOM      4  C   UNL     1     -11.143  73.476  29.351  1.00  0.00     0.122 A 
ATOM      5  C   UNL     1      -9.886  74.082  29.106  1.00  0.00    -0.003 A 
ATOM      6  C   UNL     1      -9.134  74.560  30.195  1.00  0.00     0.008 A 
ATOM      7  C   UNL     1      -9.614  74.450  31.500  1.00  0.00     0.004 A 
ENDROOT
BRANCH   4   8
ATOM      8  O   UNL     1     -11.896  72.988  28.272  1.00  0.00    -0.496 OA
ATOM      9  C   UNL     1     -13.110  73.561  27.799  1.00  0.00     0.278 C 
ENDBRANCH   4   8
BRANCH   5  10
ATOM     10  C   UNL     1      -9.311  74.231  27.702  1.00  0.00     0.017 C 
ATOM     11  C   UNL     1     -10.230  75.055  26.791  1.00  0.00     0.012 C 
ATOM     12  C   UNL     1      -8.966  72.874  27.078  1.00  0.00     0.012 C 
ENDBRANCH   5  10
TORSDOF 2
ENDMDL
MODEL 6
REMARK VINA RESULT:    -4.889      1.964      4.634
REMARK INTER + INTRA:          -5.712
REMARK INTER:                  -6.115
REMARK INTRA:                   0.403
REMARK UNBOUND:                -0.251
REMARK SMILES COc1cc(C)ccc1C(C)C
REMARK SMILES IDX 6 1 5 2 4 3 3 4 9 5 8 6 7 7 2 8 1 9 10 10 11 11 12 12
REMARK H PARENT
REMARK Flexibility Score: inf
ROOT
ATOM      1  C   UNL     1     -10.190  74.358  27.120  1.00  0.00     0.044 C 
ATOM      2  C   UNL     1     -10.538  73.824  28.478  1.00  0.00    -0.047 A 
ATOM      3  C   UNL     1     -10.281  74.588  29.625  1.00  0.00     0.050 A 
ATOM      4  C   UNL     1     -10.568  74.084  30.910  1.00  0.00     0.122 A 
ATOM      5  C   UNL     1     -11.114  72.782  31.039  1.00  0.00    -0.003 A 
ATOM      6  C   UNL     1     -11.348  72.020  29.879  1.00  0.00     0.008 A 
ATOM      7  C   UNL     1     -11.057  72.534  28.615  1.00  0.00     0.004 A 
ENDROOT
BRANCH   4   8
ATOM      8  O   UNL     1     -10.323  74.847  32.061  1.00  0.00    -0.496 OA
ATOM      9  C   UNL     1     -10.937  76.096  32.358  1.00  0.00     0.278 C 
ENDBRANCH   4   8
BRANCH   5  10
ATOM     10  C   UNL     1     -11.452  72.170  32.393  1.00  0.00     0.017 C 
ATOM     11  C   UNL     1     -12.281  73.124  33.263  1.00  0.00     0.012 C 
ATOM     12  C   UNL     1     -10.199  71.680  33.129  1.00  0.00     0.012 C 
ENDBRANCH   5  10
TORSDOF 2
ENDMDL
MODEL 7
REMARK VINA RESULT:    -4.873      7.011      9.865
REMARK INTER + INTRA:          -5.694
REMARK INTER:                  -5.436
REMARK INTRA:                  -0.258
REMARK UNBOUND:                -0.251
REMARK SMILES COc1cc(C)ccc1C(C)C
REMARK SMILES IDX 6 1 5 2 4 3 3 4 9 5 8 6 7 7 2 8 1 9 10 10 11 11 12 12
REMARK H PARENT
REMARK Flexibility Score: inf
ROOT
ATOM      1  C   UNL     1     -11.067  75.219  19.883  1.00  0.00     0.044 C 
ATOM      2  C   UNL     1      -9.886  74.624  20.591  1.00  0.00    -0.047 A 
ATOM      3  C   UNL     1      -9.904  74.463  21.983  1.00  0.00     0.050 A 
ATOM      4  C   UNL     1      -8.786  73.940  22.666  1.00  0.00     0.122 A 
ATOM      5  C   UNL     1      -7.627  73.585  21.932  1.00  0.00    -0.003 A 
ATOM      6  C   UNL     1      -7.618  73.772  20.537  1.00  0.00     0.008 A 
ATOM      7  C   UNL     1      -8.732  74.291  19.876  1.00  0.00     0.004 A 
ENDROOT
BRANCH   4   8
ATOM      8  O   UNL     1      -8.802  73.766  24.058  1.00  0.00    -0.496 OA
ATOM      9  C   UNL     1      -9.541  72.762  24.747  1.00  0.00     0.278 C 
ENDBRANCH   4   8
BRANCH   5  10
ATOM     10  C   UNL     1      -6.382  73.013  22.599  1.00  0.00     0.017 C 
ATOM     11  C   UNL     1      -5.107  73.341  21.810  1.00  0.00     0.012 C 
ATOM     12  C   UNL     1      -6.513  71.507  22.857  1.00  0.00     0.012 C 
ENDBRANCH   5  10
TORSDOF 2
ENDMDL
MODEL 8
REMARK VINA RESULT:    -4.822      4.320      7.291
REMARK INTER + INTRA:          -5.637
REMARK INTER:                  -5.388
REMARK INTRA:                  -0.249
REMARK UNBOUND:                -0.251
REMARK SMILES COc1cc(C)ccc1C(C)C
REMARK SMILES IDX 6 1 5 2 4 3 3 4 9 5 8 6 7 7 2 8 1 9 10 10 11 11 12 12
REMARK H PARENT
REMARK Flexibility Score: inf
ROOT
ATOM      1  C   UNL     1     -12.371  72.757  39.084  1.00  0.00     0.044 C 
ATOM      2  C   UNL     1     -11.376  71.955  38.297  1.00  0.00    -0.047 A 
ATOM      3  C   UNL     1     -10.979  72.378  37.022  1.00  0.00     0.050 A 
ATOM      4  C   UNL     1     -10.074  71.614  36.256  1.00  0.00     0.122 A 
ATOM      5  C   UNL     1      -9.572  70.398  36.782  1.00  0.00    -0.003 A 
ATOM      6  C   UNL     1      -9.996  69.978  38.056  1.00  0.00     0.008 A 
ATOM      7  C   UNL     1     -10.892  70.744  38.801  1.00  0.00     0.004 A 
ENDROOT
BRANCH   4   8
ATOM      8  O   UNL     1      -9.664  72.037  34.982  1.00  0.00    -0.496 OA
ATOM      9  C   UNL     1     -10.431  71.900  33.791  1.00  0.00     0.278 C 
ENDBRANCH   4   8
BRANCH   5  10
ATOM     10  C   UNL     1      -8.590  69.520  36.014  1.00  0.00     0.017 C 
ATOM     11  C   UNL     1      -9.004  68.043  36.037  1.00  0.00     0.012 C 
ATOM     12  C   UNL     1      -7.149  69.711  36.504  1.00  0.00     0.012 C 
ENDBRANCH   5  10
TORSDOF 2
ENDMDL
MODEL 9
REMARK VINA RESULT:    -4.766      5.157      7.299
REMARK INTER + INTRA:          -5.575
REMARK INTER:                  -5.311
REMARK INTRA:                  -0.263
REMARK UNBOUND:                -0.251
REMARK SMILES COc1cc(C)ccc1C(C)C
REMARK SMILES IDX 6 1 5 2 4 3 3 4 9 5 8 6 7 7 2 8 1 9 10 10 11 11 12 12
REMARK H PARENT
REMARK Flexibility Score: inf
ROOT
ATOM      1  C   UNL     1     -10.457  74.598  27.283  1.00  0.00     0.044 C 
ATOM      2  C   UNL     1      -9.757  73.882  26.165  1.00  0.00    -0.047 A 
ATOM      3  C   UNL     1     -10.231  73.991  24.851  1.00  0.00     0.050 A 
ATOM      4  C   UNL     1      -9.605  73.294  23.797  1.00  0.00     0.122 A 
ATOM      5  C   UNL     1      -8.491  72.464  24.077  1.00  0.00    -0.003 A 
ATOM      6  C   UNL     1      -8.040  72.351  25.405  1.00  0.00     0.008 A 
ATOM      7  C   UNL     1      -8.670  73.046  26.437  1.00  0.00     0.004 A 
ENDROOT
BRANCH   4   8
ATOM      8  O   UNL     1     -10.067  73.406  22.476  1.00  0.00    -0.496 OA
ATOM      9  C   UNL     1      -9.786  74.495  21.604  1.00  0.00     0.278 C 
ENDBRANCH   4   8
BRANCH   5  10
ATOM     10  C   UNL     1      -7.762  71.682  22.991  1.00  0.00     0.017 C 
ATOM     11  C   UNL     1      -7.175  70.369  23.527  1.00  0.00     0.012 C 
ATOM     12  C   UNL     1      -6.695  72.533  22.291  1.00  0.00     0.012 C 
ENDBRANCH   5  10
TORSDOF 2
ENDMDL
