MODEL 1
REMARK VINA RESULT:    -5.297      0.000      0.000
REMARK INTER + INTRA:         -14.556
REMARK INTER:                 -12.109
REMARK INTRA:                  -2.447
REMARK UNBOUND:                -2.447
REMARK SMILES CCCCCCCCCCCCCCCCCCCCCCCC(=O)[O-]
REMARK SMILES IDX 13 1 14 2 15 3 16 4 17 5 18 6 19 7 20 8 21 9 22 10 23 11
REMARK SMILES IDX 24 12 25 13 26 14 12 15 11 16 10 17 9 18 8 19 7 20 6 21 5 22
REMARK SMILES IDX 4 23 3 24 2 25 1 26
REMARK H PARENT
REMARK Flexibility Score: inf
ROOT
ATOM      1  C   UNL     1      43.688   5.504 127.627  1.00  0.00     0.000 C 
ENDROOT
BRANCH   1   2
ATOM      2  C   UNL     1      43.662   6.353 128.913  1.00  0.00     0.000 C 
BRANCH   2   3
ATOM      3  C   UNL     1      44.341   5.688 130.125  1.00  0.00     0.000 C 
BRANCH   3   4
ATOM      4  C   UNL     1      45.377   4.630 129.704  1.00  0.00     0.000 C 
BRANCH   4   5
ATOM      5  C   UNL     1      46.804   5.002 130.138  1.00  0.00     0.000 C 
BRANCH   5   6
ATOM      6  C   UNL     1      47.042   4.728 131.633  1.00  0.00     0.000 C 
BRANCH   6   7
ATOM      7  C   UNL     1      47.357   3.254 131.929  1.00  0.00     0.000 C 
BRANCH   7   8
ATOM      8  C   UNL     1      46.448   2.653 133.014  1.00  0.00     0.000 C 
BRANCH   8   9
ATOM      9  C   UNL     1      45.295   3.610 133.360  1.00  0.00     0.000 C 
BRANCH   9  10
ATOM     10  C   UNL     1      43.943   3.148 132.788  1.00  0.00     0.006 C 
BRANCH  10  11
ATOM     11  C   UNL     1      43.989   1.786 132.076  1.00  0.00     0.053 C 
BRANCH  11  12
ATOM     12  C   UNL     1      42.973   0.830 132.625  1.00  0.00     0.041 C 
ATOM     13  O   UNL     1      42.341   0.063 131.853  1.00  0.00    -0.550 OA
ATOM     14  O   UNL     1      42.693   0.818 133.985  1.00  0.00    -0.550 OA
ENDBRANCH  11  12
ENDBRANCH  10  11
ENDBRANCH   9  10
ENDBRANCH   8   9
ENDBRANCH   7   8
ENDBRANCH   6   7
ENDBRANCH   5   6
ENDBRANCH   4   5
ENDBRANCH   3   4
ENDBRANCH   2   3
ENDBRANCH   1   2
BRANCH   1  15
ATOM     15  C   UNL     1      44.708   5.956 126.563  1.00  0.00     0.000 C 
BRANCH  15  16
ATOM     16  C   UNL     1      45.540   7.191 126.972  1.00  0.00     0.000 C 
BRANCH  16  17
ATOM     17  C   UNL     1      47.049   6.893 127.031  1.00  0.00     0.000 C 
BRANCH  17  18
ATOM     18  C   UNL     1      47.854   7.677 125.983  1.00  0.00    -0.000 C 
BRANCH  18  19
ATOM     19  C   UNL     1      46.962   8.331 124.910  1.00  0.00    -0.000 C 
BRANCH  19  20
ATOM     20  C   UNL     1      47.780   8.872 123.727  1.00  0.00    -0.000 C 
BRANCH  20  21
ATOM     21  C   UNL     1      47.146  10.123 123.101  1.00  0.00    -0.000 C 
BRANCH  21  22
ATOM     22  C   UNL     1      46.757  11.137 124.185  1.00  0.00    -0.000 C 
BRANCH  22  23
ATOM     23  C   UNL     1      45.636  12.092 123.739  1.00  0.00    -0.000 C 
BRANCH  23  24
ATOM     24  C   UNL     1      44.494  11.388 122.975  1.00  0.00    -0.000 C 
BRANCH  24  25
ATOM     25  C   UNL     1      44.281  11.981 121.575  1.00  0.00    -0.003 C 
ATOM     26  C   UNL     1      44.867  13.387 121.470  1.00  0.00     0.004 C 
ENDBRANCH  24  25
ENDBRANCH  23  24
ENDBRANCH  22  23
ENDBRANCH  21  22
ENDBRANCH  20  21
ENDBRANCH  19  20
ENDBRANCH  18  19
ENDBRANCH  17  18
ENDBRANCH  16  17
ENDBRANCH  15  16
ENDBRANCH   1  15
TORSDOF 22
ENDMDL
MODEL 2
REMARK VINA RESULT:    -5.271      4.875     11.461
REMARK INTER + INTRA:         -14.496
REMARK INTER:                 -12.524
REMARK INTRA:                  -1.972
REMARK UNBOUND:                -2.447
REMARK SMILES CCCCCCCCCCCCCCCCCCCCCCCC(=O)[O-]
REMARK SMILES IDX 13 1 14 2 15 3 16 4 17 5 18 6 19 7 20 8 21 9 22 10 23 11
REMARK SMILES IDX 24 12 25 13 26 14 12 15 11 16 10 17 9 18 8 19 7 20 6 21 5 22
REMARK SMILES IDX 4 23 3 24 2 25 1 26
REMARK H PARENT
REMARK Flexibility Score: inf
ROOT
ATOM      1  C   UNL     1      45.544   7.505 126.815  1.00  0.00     0.000 C 
ENDROOT
BRANCH   1   2
ATOM      2  C   UNL     1      47.041   7.152 126.932  1.00  0.00     0.000 C 
BRANCH   2   3
ATOM      3  C   UNL     1      47.925   7.768 125.833  1.00  0.00     0.000 C 
BRANCH   3   4
ATOM      4  C   UNL     1      47.097   8.290 124.644  1.00  0.00     0.000 C 
BRANCH   4   5
ATOM      5  C   UNL     1      47.903   9.239 123.741  1.00  0.00     0.000 C 
BRANCH   5   6
ATOM      6  C   UNL     1      47.009  10.301 123.079  1.00  0.00     0.000 C 
BRANCH   6   7
ATOM      7  C   UNL     1      46.617  11.437 124.037  1.00  0.00     0.000 C 
BRANCH   7   8
ATOM      8  C   UNL     1      45.096  11.618 124.163  1.00  0.00     0.000 C 
BRANCH   8   9
ATOM      9  C   UNL     1      44.407  11.463 122.797  1.00  0.00     0.000 C 
BRANCH   9  10
ATOM     10  C   UNL     1      44.665  12.658 121.861  1.00  0.00     0.006 C 
BRANCH  10  11
ATOM     11  C   UNL     1      44.439  12.356 120.370  1.00  0.00     0.053 C 
BRANCH  11  12
ATOM     12  C   UNL     1      45.583  11.596 119.771  1.00  0.00     0.041 C 
ATOM     13  O   UNL     1      45.371  10.550 119.104  1.00  0.00    -0.550 OA
ATOM     14  O   UNL     1      46.889  12.019 119.988  1.00  0.00    -0.550 OA
ENDBRANCH  11  12
ENDBRANCH  10  11
ENDBRANCH   9  10
ENDBRANCH   8   9
ENDBRANCH   7   8
ENDBRANCH   6   7
ENDBRANCH   5   6
ENDBRANCH   4   5
ENDBRANCH   3   4
ENDBRANCH   2   3
ENDBRANCH   1   2
BRANCH   1  15
ATOM     15  C   UNL     1      44.613   6.744 127.780  1.00  0.00     0.000 C 
BRANCH  15  16
ATOM     16  C   UNL     1      44.545   5.223 127.523  1.00  0.00     0.000 C 
BRANCH  16  17
ATOM     17  C   UNL     1      45.121   4.401 128.689  1.00  0.00     0.000 C 
BRANCH  17  18
ATOM     18  C   UNL     1      45.544   5.274 129.882  1.00  0.00    -0.000 C 
BRANCH  18  19
ATOM     19  C   UNL     1      46.962   4.949 130.388  1.00  0.00    -0.000 C 
BRANCH  19  20
ATOM     20  C   UNL     1      46.975   4.575 131.879  1.00  0.00    -0.000 C 
BRANCH  20  21
ATOM     21  C   UNL     1      47.329   3.098 132.107  1.00  0.00    -0.000 C 
BRANCH  21  22
ATOM     22  C   UNL     1      46.194   2.372 132.843  1.00  0.00    -0.000 C 
BRANCH  22  23
ATOM     23  C   UNL     1      44.914   3.217 132.955  1.00  0.00    -0.000 C 
BRANCH  23  24
ATOM     24  C   UNL     1      43.617   2.393 132.801  1.00  0.00    -0.000 C 
BRANCH  24  25
ATOM     25  C   UNL     1      43.899   0.935 132.409  1.00  0.00    -0.003 C 
ATOM     26  C   UNL     1      42.717   0.320 131.664  1.00  0.00     0.004 C 
ENDBRANCH  24  25
ENDBRANCH  23  24
ENDBRANCH  22  23
ENDBRANCH  21  22
ENDBRANCH  20  21
ENDBRANCH  19  20
ENDBRANCH  18  19
ENDBRANCH  17  18
ENDBRANCH  16  17
ENDBRANCH  15  16
ENDBRANCH   1  15
TORSDOF 22
ENDMDL
MODEL 3
REMARK VINA RESULT:    -5.216      4.943     11.251
REMARK INTER + INTRA:         -14.371
REMARK INTER:                 -12.093
REMARK INTRA:                  -2.279
REMARK UNBOUND:                -2.447
REMARK SMILES CCCCCCCCCCCCCCCCCCCCCCCC(=O)[O-]
REMARK SMILES IDX 13 1 14 2 15 3 16 4 17 5 18 6 19 7 20 8 21 9 22 10 23 11
REMARK SMILES IDX 24 12 25 13 26 14 12 15 11 16 10 17 9 18 8 19 7 20 6 21 5 22
REMARK SMILES IDX 4 23 3 24 2 25 1 26
REMARK H PARENT
REMARK Flexibility Score: inf
ROOT
ATOM      1  C   UNL     1      44.099   6.586 128.010  1.00  0.00     0.000 C 
ENDROOT
BRANCH   1   2
ATOM      2  C   UNL     1      45.139   7.633 127.566  1.00  0.00     0.000 C 
BRANCH   2   3
ATOM      3  C   UNL     1      45.875   7.279 126.260  1.00  0.00     0.000 C 
BRANCH   3   4
ATOM      4  C   UNL     1      47.376   7.613 126.329  1.00  0.00     0.000 C 
BRANCH   4   5
ATOM      5  C   UNL     1      47.849   8.433 125.117  1.00  0.00     0.000 C 
BRANCH   5   6
ATOM      6  C   UNL     1      46.856   8.355 123.944  1.00  0.00     0.000 C 
BRANCH   6   7
ATOM      7  C   UNL     1      46.715   9.685 123.189  1.00  0.00     0.000 C 
BRANCH   7   8
ATOM      8  C   UNL     1      46.668  10.904 124.124  1.00  0.00     0.000 C 
BRANCH   8   9
ATOM      9  C   UNL     1      45.269  11.544 124.129  1.00  0.00     0.000 C 
BRANCH   9  10
ATOM     10  C   UNL     1      44.469  11.237 122.850  1.00  0.00     0.006 C 
BRANCH  10  11
ATOM     11  C   UNL     1      44.432  12.390 121.834  1.00  0.00     0.053 C 
BRANCH  11  12
ATOM     12  C   UNL     1      45.211  12.072 120.594  1.00  0.00     0.041 C 
ATOM     13  O   UNL     1      46.465  12.175 120.588  1.00  0.00    -0.550 OA
ATOM     14  O   UNL     1      44.547  11.705 119.430  1.00  0.00    -0.550 OA
ENDBRANCH  11  12
ENDBRANCH  10  11
ENDBRANCH   9  10
ENDBRANCH   8   9
ENDBRANCH   7   8
ENDBRANCH   6   7
ENDBRANCH   5   6
ENDBRANCH   4   5
ENDBRANCH   3   4
ENDBRANCH   2   3
ENDBRANCH   1   2
BRANCH   1  15
ATOM     15  C   UNL     1      44.557   5.646 129.144  1.00  0.00     0.000 C 
BRANCH  15  16
ATOM     16  C   UNL     1      45.535   4.540 128.689  1.00  0.00     0.000 C 
BRANCH  16  17
ATOM     17  C   UNL     1      47.004   4.904 128.962  1.00  0.00     0.000 C 
BRANCH  17  18
ATOM     18  C   UNL     1      47.295   5.128 130.455  1.00  0.00    -0.000 C 
BRANCH  18  19
ATOM     19  C   UNL     1      47.937   3.901 131.130  1.00  0.00    -0.000 C 
BRANCH  19  20
ATOM     20  C   UNL     1      47.119   3.406 132.333  1.00  0.00    -0.000 C 
BRANCH  20  21
ATOM     21  C   UNL     1      45.792   4.163 132.488  1.00  0.00    -0.000 C 
BRANCH  21  22
ATOM     22  C   UNL     1      44.599   3.227 132.247  1.00  0.00    -0.000 C 
BRANCH  22  23
ATOM     23  C   UNL     1      44.739   1.877 132.971  1.00  0.00    -0.000 C 
BRANCH  23  24
ATOM     24  C   UNL     1      43.445   1.420 133.679  1.00  0.00    -0.000 C 
BRANCH  24  25
ATOM     25  C   UNL     1      42.889   0.117 133.087  1.00  0.00    -0.003 C 
ATOM     26  C   UNL     1      42.674   0.236 131.581  1.00  0.00     0.004 C 
ENDBRANCH  24  25
ENDBRANCH  23  24
ENDBRANCH  22  23
ENDBRANCH  21  22
ENDBRANCH  20  21
ENDBRANCH  19  20
ENDBRANCH  18  19
ENDBRANCH  17  18
ENDBRANCH  16  17
ENDBRANCH  15  16
ENDBRANCH   1  15
TORSDOF 22
ENDMDL
MODEL 4
REMARK VINA RESULT:    -5.181      0.949      2.184
REMARK INTER + INTRA:         -14.292
REMARK INTER:                 -12.235
REMARK INTRA:                  -2.057
REMARK UNBOUND:                -2.447
REMARK SMILES CCCCCCCCCCCCCCCCCCCCCCCC(=O)[O-]
REMARK SMILES IDX 13 1 14 2 15 3 16 4 17 5 18 6 19 7 20 8 21 9 22 10 23 11
REMARK SMILES IDX 24 12 25 13 26 14 12 15 11 16 10 17 9 18 8 19 7 20 6 21 5 22
REMARK SMILES IDX 4 23 3 24 2 25 1 26
REMARK H PARENT
REMARK Flexibility Score: inf
ROOT
ATOM      1  C   UNL     1      45.734   7.134 126.882  1.00  0.00     0.000 C 
ENDROOT
BRANCH   1   2
ATOM      2  C   UNL     1      44.793   5.915 126.814  1.00  0.00     0.000 C 
BRANCH   2   3
ATOM      3  C   UNL     1      43.663   5.927 127.860  1.00  0.00     0.000 C 
BRANCH   3   4
ATOM      4  C   UNL     1      44.200   6.065 129.295  1.00  0.00     0.000 C 
BRANCH   4   5
ATOM      5  C   UNL     1      45.097   4.883 129.700  1.00  0.00     0.000 C 
BRANCH   5   6
ATOM      6  C   UNL     1      46.470   5.351 130.214  1.00  0.00     0.000 C 
BRANCH   6   7
ATOM      7  C   UNL     1      47.098   4.375 131.221  1.00  0.00     0.000 C 
BRANCH   7   8
ATOM      8  C   UNL     1      46.271   4.227 132.509  1.00  0.00     0.000 C 
BRANCH   8   9
ATOM      9  C   UNL     1      46.514   2.858 133.166  1.00  0.00     0.000 C 
BRANCH   9  10
ATOM     10  C   UNL     1      45.210   2.173 133.614  1.00  0.00     0.006 C 
BRANCH  10  11
ATOM     11  C   UNL     1      44.165   2.007 132.499  1.00  0.00     0.053 C 
BRANCH  11  12
ATOM     12  C   UNL     1      43.703   0.587 132.368  1.00  0.00     0.041 C 
ATOM     13  O   UNL     1      42.927   0.255 131.434  1.00  0.00    -0.550 OA
ATOM     14  O   UNL     1      44.095  -0.361 133.305  1.00  0.00    -0.550 OA
ENDBRANCH  11  12
ENDBRANCH  10  11
ENDBRANCH   9  10
ENDBRANCH   8   9
ENDBRANCH   7   8
ENDBRANCH   6   7
ENDBRANCH   5   6
ENDBRANCH   4   5
ENDBRANCH   3   4
ENDBRANCH   2   3
ENDBRANCH   1   2
BRANCH   1  15
ATOM     15  C   UNL     1      47.235   6.799 126.996  1.00  0.00     0.000 C 
BRANCH  15  16
ATOM     16  C   UNL     1      48.125   7.539 125.974  1.00  0.00     0.000 C 
BRANCH  16  17
ATOM     17  C   UNL     1      47.374   8.668 125.246  1.00  0.00     0.000 C 
BRANCH  17  18
ATOM     18  C   UNL     1      47.629   8.674 123.731  1.00  0.00    -0.000 C 
BRANCH  18  19
ATOM     19  C   UNL     1      47.315  10.033 123.076  1.00  0.00    -0.000 C 
BRANCH  19  20
ATOM     20  C   UNL     1      46.820  11.069 124.097  1.00  0.00    -0.000 C 
BRANCH  20  21
ATOM     21  C   UNL     1      45.375  11.511 123.827  1.00  0.00    -0.000 C 
BRANCH  21  22
ATOM     22  C   UNL     1      44.965  11.184 122.385  1.00  0.00    -0.000 C 
BRANCH  22  23
ATOM     23  C   UNL     1      44.223  12.341 121.694  1.00  0.00    -0.000 C 
BRANCH  23  24
ATOM     24  C   UNL     1      45.111  13.577 121.439  1.00  0.00    -0.000 C 
BRANCH  24  25
ATOM     25  C   UNL     1      46.523  13.192 120.975  1.00  0.00    -0.003 C 
ATOM     26  C   UNL     1      47.594  13.895 121.804  1.00  0.00     0.004 C 
ENDBRANCH  24  25
ENDBRANCH  23  24
ENDBRANCH  22  23
ENDBRANCH  21  22
ENDBRANCH  20  21
ENDBRANCH  19  20
ENDBRANCH  18  19
ENDBRANCH  17  18
ENDBRANCH  16  17
ENDBRANCH  15  16
ENDBRANCH   1  15
TORSDOF 22
ENDMDL
MODEL 5
REMARK VINA RESULT:    -5.118      1.195      2.039
REMARK INTER + INTRA:         -14.148
REMARK INTER:                 -11.790
REMARK INTRA:                  -2.358
REMARK UNBOUND:                -2.447
REMARK SMILES CCCCCCCCCCCCCCCCCCCCCCCC(=O)[O-]
REMARK SMILES IDX 13 1 14 2 15 3 16 4 17 5 18 6 19 7 20 8 21 9 22 10 23 11
REMARK SMILES IDX 24 12 25 13 26 14 12 15 11 16 10 17 9 18 8 19 7 20 6 21 5 22
REMARK SMILES IDX 4 23 3 24 2 25 1 26
REMARK H PARENT
REMARK Flexibility Score: inf
ROOT
ATOM      1  C   UNL     1      43.075   6.347 127.974  1.00  0.00     0.000 C 
ENDROOT
BRANCH   1   2
ATOM      2  C   UNL     1      43.833   5.693 126.803  1.00  0.00     0.000 C 
BRANCH   2   3
ATOM      3  C   UNL     1      44.415   4.304 127.122  1.00  0.00     0.000 C 
BRANCH   3   4
ATOM      4  C   UNL     1      45.870   4.382 127.618  1.00  0.00     0.000 C 
BRANCH   4   5
ATOM      5  C   UNL     1      45.964   4.433 129.152  1.00  0.00     0.000 C 
BRANCH   5   6
ATOM      6  C   UNL     1      47.424   4.430 129.640  1.00  0.00     0.000 C 
BRANCH   6   7
ATOM      7  C   UNL     1      47.549   4.650 131.156  1.00  0.00     0.000 C 
BRANCH   7   8
ATOM      8  C   UNL     1      46.313   4.173 131.935  1.00  0.00     0.000 C 
BRANCH   8   9
ATOM      9  C   UNL     1      46.646   2.946 132.801  1.00  0.00     0.000 C 
BRANCH   9  10
ATOM     10  C   UNL     1      45.391   2.264 133.377  1.00  0.00     0.006 C 
BRANCH  10  11
ATOM     11  C   UNL     1      44.255   2.066 132.360  1.00  0.00     0.053 C 
BRANCH  11  12
ATOM     12  C   UNL     1      43.766   0.650 132.332  1.00  0.00     0.041 C 
ATOM     13  O   UNL     1      44.454  -0.269 132.846  1.00  0.00    -0.550 OA
ATOM     14  O   UNL     1      42.570   0.339 131.697  1.00  0.00    -0.550 OA
ENDBRANCH  11  12
ENDBRANCH  10  11
ENDBRANCH   9  10
ENDBRANCH   8   9
ENDBRANCH   7   8
ENDBRANCH   6   7
ENDBRANCH   5   6
ENDBRANCH   4   5
ENDBRANCH   3   4
ENDBRANCH   2   3
ENDBRANCH   1   2
BRANCH   1  15
ATOM     15  C   UNL     1      43.871   7.408 128.760  1.00  0.00     0.000 C 
BRANCH  15  16
ATOM     16  C   UNL     1      45.165   7.873 128.058  1.00  0.00     0.000 C 
BRANCH  16  17
ATOM     17  C   UNL     1      46.381   7.875 129.002  1.00  0.00     0.000 C 
BRANCH  17  18
ATOM     18  C   UNL     1      47.698   7.553 128.279  1.00  0.00    -0.000 C 
BRANCH  18  19
ATOM     19  C   UNL     1      47.491   7.162 126.803  1.00  0.00    -0.000 C 
BRANCH  19  20
ATOM     20  C   UNL     1      48.105   8.188 125.838  1.00  0.00    -0.000 C 
BRANCH  20  21
ATOM     21  C   UNL     1      47.107   8.656 124.770  1.00  0.00    -0.000 C 
BRANCH  21  22
ATOM     22  C   UNL     1      47.703   9.790 123.924  1.00  0.00    -0.000 C 
BRANCH  22  23
ATOM     23  C   UNL     1      47.020  11.146 124.170  1.00  0.00    -0.000 C 
BRANCH  23  24
ATOM     24  C   UNL     1      46.927  12.027 122.905  1.00  0.00    -0.000 C 
BRANCH  24  25
ATOM     25  C   UNL     1      45.494  12.108 122.359  1.00  0.00    -0.003 C 
ATOM     26  C   UNL     1      44.470  11.698 123.415  1.00  0.00     0.004 C 
ENDBRANCH  24  25
ENDBRANCH  23  24
ENDBRANCH  22  23
ENDBRANCH  21  22
ENDBRANCH  20  21
ENDBRANCH  19  20
ENDBRANCH  18  19
ENDBRANCH  17  18
ENDBRANCH  16  17
ENDBRANCH  15  16
ENDBRANCH   1  15
TORSDOF 22
ENDMDL
MODEL 6
REMARK VINA RESULT:    -5.043      4.453      7.713
REMARK INTER + INTRA:         -13.976
REMARK INTER:                 -12.249
REMARK INTRA:                  -1.727
REMARK UNBOUND:                -2.447
REMARK SMILES CCCCCCCCCCCCCCCCCCCCCCCC(=O)[O-]
REMARK SMILES IDX 13 1 14 2 15 3 16 4 17 5 18 6 19 7 20 8 21 9 22 10 23 11
REMARK SMILES IDX 24 12 25 13 26 14 12 15 11 16 10 17 9 18 8 19 7 20 6 21 5 22
REMARK SMILES IDX 4 23 3 24 2 25 1 26
REMARK H PARENT
REMARK Flexibility Score: inf
ROOT
ATOM      1  C   UNL     1      44.405   1.926 133.101  1.00  0.00     0.000 C 
ENDROOT
BRANCH   1   2
ATOM      2  C   UNL     1      44.254   0.559 132.405  1.00  0.00     0.000 C 
BRANCH   2   3
ATOM      3  C   UNL     1      42.931   0.381 131.638  1.00  0.00     0.000 C 
BRANCH   3   4
ATOM      4  C   UNL     1      41.753   0.061 132.576  1.00  0.00     0.000 C 
BRANCH   4   5
ATOM      5  C   UNL     1      42.194  -0.725 133.822  1.00  0.00     0.000 C 
BRANCH   5   6
ATOM      6  C   UNL     1      41.184  -1.824 134.196  1.00  0.00     0.000 C 
BRANCH   6   7
ATOM      7  C   UNL     1      39.753  -1.291 134.364  1.00  0.00     0.000 C 
BRANCH   7   8
ATOM      8  C   UNL     1      38.746  -2.387 134.749  1.00  0.00     0.000 C 
BRANCH   8   9
ATOM      9  C   UNL     1      37.306  -1.847 134.722  1.00  0.00     0.000 C 
BRANCH   9  10
ATOM     10  C   UNL     1      36.540  -2.255 133.450  1.00  0.00     0.006 C 
BRANCH  10  11
ATOM     11  C   UNL     1      35.796  -1.100 132.760  1.00  0.00     0.053 C 
BRANCH  11  12
ATOM     12  C   UNL     1      34.451  -0.852 133.372  1.00  0.00     0.041 C 
ATOM     13  O   UNL     1      33.476  -1.594 133.085  1.00  0.00    -0.550 OA
ATOM     14  O   UNL     1      34.264   0.227 134.227  1.00  0.00    -0.550 OA
ENDBRANCH  11  12
ENDBRANCH  10  11
ENDBRANCH   9  10
ENDBRANCH   8   9
ENDBRANCH   7   8
ENDBRANCH   6   7
ENDBRANCH   5   6
ENDBRANCH   4   5
ENDBRANCH   3   4
ENDBRANCH   2   3
ENDBRANCH   1   2
BRANCH   1  15
ATOM     15  C   UNL     1      43.710   3.105 132.391  1.00  0.00     0.000 C 
BRANCH  15  16
ATOM     16  C   UNL     1      44.683   4.102 131.725  1.00  0.00     0.000 C 
BRANCH  16  17
ATOM     17  C   UNL     1      46.092   4.053 132.343  1.00  0.00     0.000 C 
BRANCH  17  18
ATOM     18  C   UNL     1      47.189   4.493 131.361  1.00  0.00    -0.000 C 
BRANCH  18  19
ATOM     19  C   UNL     1      46.628   4.940 129.997  1.00  0.00    -0.000 C 
BRANCH  19  20
ATOM     20  C   UNL     1      47.640   5.778 129.199  1.00  0.00    -0.000 C 
BRANCH  20  21
ATOM     21  C   UNL     1      46.963   6.890 128.384  1.00  0.00    -0.000 C 
BRANCH  21  22
ATOM     22  C   UNL     1      45.803   7.515 129.172  1.00  0.00    -0.000 C 
BRANCH  22  23
ATOM     23  C   UNL     1      44.514   7.641 128.344  1.00  0.00    -0.000 C 
BRANCH  23  24
ATOM     24  C   UNL     1      43.379   6.711 128.825  1.00  0.00    -0.000 C 
BRANCH  24  25
ATOM     25  C   UNL     1      42.603   6.088 127.656  1.00  0.00    -0.003 C 
ATOM     26  C   UNL     1      43.544   5.435 126.647  1.00  0.00     0.004 C 
ENDBRANCH  24  25
ENDBRANCH  23  24
ENDBRANCH  22  23
ENDBRANCH  21  22
ENDBRANCH  20  21
ENDBRANCH  19  20
ENDBRANCH  18  19
ENDBRANCH  17  18
ENDBRANCH  16  17
ENDBRANCH  15  16
ENDBRANCH   1  15
TORSDOF 22
ENDMDL
MODEL 7
REMARK VINA RESULT:    -5.020      1.157      1.644
REMARK INTER + INTRA:         -13.924
REMARK INTER:                 -12.193
REMARK INTRA:                  -1.731
REMARK UNBOUND:                -2.447
REMARK SMILES CCCCCCCCCCCCCCCCCCCCCCCC(=O)[O-]
REMARK SMILES IDX 13 1 14 2 15 3 16 4 17 5 18 6 19 7 20 8 21 9 22 10 23 11
REMARK SMILES IDX 24 12 25 13 26 14 12 15 11 16 10 17 9 18 8 19 7 20 6 21 5 22
REMARK SMILES IDX 4 23 3 24 2 25 1 26
REMARK H PARENT
REMARK Flexibility Score: inf
ROOT
ATOM      1  C   UNL     1      44.372   5.800 128.018  1.00  0.00     0.000 C 
ENDROOT
BRANCH   1   2
ATOM      2  C   UNL     1      45.217   4.879 128.920  1.00  0.00     0.000 C 
BRANCH   2   3
ATOM      3  C   UNL     1      46.212   5.622 129.830  1.00  0.00     0.000 C 
BRANCH   3   4
ATOM      4  C   UNL     1      47.605   4.968 129.827  1.00  0.00     0.000 C 
BRANCH   4   5
ATOM      5  C   UNL     1      47.814   4.030 131.028  1.00  0.00     0.000 C 
BRANCH   5   6
ATOM      6  C   UNL     1      46.880   4.380 132.201  1.00  0.00     0.000 C 
BRANCH   6   7
ATOM      7  C   UNL     1      46.128   3.158 132.752  1.00  0.00     0.000 C 
BRANCH   7   8
ATOM      8  C   UNL     1      44.692   3.045 132.216  1.00  0.00     0.000 C 
BRANCH   8   9
ATOM      9  C   UNL     1      43.919   1.929 132.939  1.00  0.00     0.000 C 
BRANCH   9  10
ATOM     10  C   UNL     1      43.386   0.852 131.977  1.00  0.00     0.006 C 
BRANCH  10  11
ATOM     11  C   UNL     1      42.202   0.041 132.526  1.00  0.00     0.053 C 
BRANCH  11  12
ATOM     12  C   UNL     1      42.431  -0.401 133.940  1.00  0.00     0.041 C 
ATOM     13  O   UNL     1      41.587  -0.133 134.834  1.00  0.00    -0.550 OA
ATOM     14  O   UNL     1      43.600  -1.072 134.277  1.00  0.00    -0.550 OA
ENDBRANCH  11  12
ENDBRANCH  10  11
ENDBRANCH   9  10
ENDBRANCH   8   9
ENDBRANCH   7   8
ENDBRANCH   6   7
ENDBRANCH   5   6
ENDBRANCH   4   5
ENDBRANCH   3   4
ENDBRANCH   2   3
ENDBRANCH   1   2
BRANCH   1  15
ATOM     15  C   UNL     1      45.069   7.100 127.571  1.00  0.00     0.000 C 
BRANCH  15  16
ATOM     16  C   UNL     1      46.014   6.925 126.362  1.00  0.00     0.000 C 
BRANCH  16  17
ATOM     17  C   UNL     1      47.459   7.352 126.675  1.00  0.00     0.000 C 
BRANCH  17  18
ATOM     18  C   UNL     1      48.072   8.233 125.575  1.00  0.00    -0.000 C 
BRANCH  18  19
ATOM     19  C   UNL     1      47.391   8.043 124.206  1.00  0.00    -0.000 C 
BRANCH  19  20
ATOM     20  C   UNL     1      46.618   9.295 123.763  1.00  0.00    -0.000 C 
BRANCH  20  21
ATOM     21  C   UNL     1      47.475  10.567 123.837  1.00  0.00    -0.000 C 
BRANCH  21  22
ATOM     22  C   UNL     1      46.593  11.809 124.029  1.00  0.00    -0.000 C 
BRANCH  22  23
ATOM     23  C   UNL     1      45.096  11.472 124.130  1.00  0.00    -0.000 C 
BRANCH  23  24
ATOM     24  C   UNL     1      44.268  11.978 122.929  1.00  0.00    -0.000 C 
BRANCH  24  25
ATOM     25  C   UNL     1      45.141  12.242 121.693  1.00  0.00    -0.003 C 
ATOM     26  C   UNL     1      44.290  12.543 120.463  1.00  0.00     0.004 C 
ENDBRANCH  24  25
ENDBRANCH  23  24
ENDBRANCH  22  23
ENDBRANCH  21  22
ENDBRANCH  20  21
ENDBRANCH  19  20
ENDBRANCH  18  19
ENDBRANCH  17  18
ENDBRANCH  16  17
ENDBRANCH  15  16
ENDBRANCH   1  15
TORSDOF 22
ENDMDL
MODEL 8
REMARK VINA RESULT:    -4.999      5.086     11.933
REMARK INTER + INTRA:         -13.875
REMARK INTER:                 -12.008
REMARK INTRA:                  -1.868
REMARK UNBOUND:                -2.447
REMARK SMILES CCCCCCCCCCCCCCCCCCCCCCCC(=O)[O-]
REMARK SMILES IDX 13 1 14 2 15 3 16 4 17 5 18 6 19 7 20 8 21 9 22 10 23 11
REMARK SMILES IDX 24 12 25 13 26 14 12 15 11 16 10 17 9 18 8 19 7 20 6 21 5 22
REMARK SMILES IDX 4 23 3 24 2 25 1 26
REMARK H PARENT
REMARK Flexibility Score: inf
ROOT
ATOM      1  C   UNL     1      46.077   7.572 125.885  1.00  0.00     0.000 C 
ENDROOT
BRANCH   1   2
ATOM      2  C   UNL     1      47.591   7.850 125.799  1.00  0.00     0.000 C 
BRANCH   2   3
ATOM      3  C   UNL     1      48.051   8.442 124.455  1.00  0.00     0.000 C 
BRANCH   3   4
ATOM      4  C   UNL     1      47.601   9.904 124.278  1.00  0.00     0.000 C 
BRANCH   4   5
ATOM      5  C   UNL     1      47.048  10.180 122.870  1.00  0.00     0.000 C 
BRANCH   5   6
ATOM      6  C   UNL     1      45.509  10.178 122.845  1.00  0.00     0.000 C 
BRANCH   6   7
ATOM      7  C   UNL     1      44.903  11.556 123.156  1.00  0.00     0.000 C 
BRANCH   7   8
ATOM      8  C   UNL     1      45.202  12.601 122.069  1.00  0.00     0.000 C 
BRANCH   8   9
ATOM      9  C   UNL     1      44.203  12.487 120.905  1.00  0.00     0.000 C 
BRANCH   9  10
ATOM     10  C   UNL     1      44.892  12.257 119.548  1.00  0.00     0.006 C 
BRANCH  10  11
ATOM     11  C   UNL     1      45.198  10.783 119.234  1.00  0.00     0.053 C 
BRANCH  11  12
ATOM     12  C   UNL     1      46.615  10.586 118.788  1.00  0.00     0.041 C 
ATOM     13  O   UNL     1      46.863  10.029 117.687  1.00  0.00    -0.550 OA
ATOM     14  O   UNL     1      47.664  10.976 119.612  1.00  0.00    -0.550 OA
ENDBRANCH  11  12
ENDBRANCH  10  11
ENDBRANCH   9  10
ENDBRANCH   8   9
ENDBRANCH   7   8
ENDBRANCH   6   7
ENDBRANCH   5   6
ENDBRANCH   4   5
ENDBRANCH   3   4
ENDBRANCH   2   3
ENDBRANCH   1   2
BRANCH   1  15
ATOM     15  C   UNL     1      45.650   6.603 127.006  1.00  0.00     0.000 C 
BRANCH  15  16
ATOM     16  C   UNL     1      45.418   7.284 128.373  1.00  0.00     0.000 C 
BRANCH  16  17
ATOM     17  C   UNL     1      46.604   7.095 129.334  1.00  0.00     0.000 C 
BRANCH  17  18
ATOM     18  C   UNL     1      47.507   5.914 128.943  1.00  0.00    -0.000 C 
BRANCH  18  19
ATOM     19  C   UNL     1      47.724   4.917 130.097  1.00  0.00    -0.000 C 
BRANCH  19  20
ATOM     20  C   UNL     1      46.419   4.601 130.844  1.00  0.00    -0.000 C 
BRANCH  20  21
ATOM     21  C   UNL     1      46.639   4.414 132.352  1.00  0.00    -0.000 C 
BRANCH  21  22
ATOM     22  C   UNL     1      46.501   2.937 132.746  1.00  0.00    -0.000 C 
BRANCH  22  23
ATOM     23  C   UNL     1      45.819   2.740 134.110  1.00  0.00    -0.000 C 
BRANCH  23  24
ATOM     24  C   UNL     1      44.499   1.943 134.029  1.00  0.00    -0.000 C 
BRANCH  24  25
ATOM     25  C   UNL     1      43.795   2.122 132.677  1.00  0.00    -0.003 C 
ATOM     26  C   UNL     1      43.527   0.778 132.005  1.00  0.00     0.004 C 
ENDBRANCH  24  25
ENDBRANCH  23  24
ENDBRANCH  22  23
ENDBRANCH  21  22
ENDBRANCH  20  21
ENDBRANCH  19  20
ENDBRANCH  18  19
ENDBRANCH  17  18
ENDBRANCH  16  17
ENDBRANCH  15  16
ENDBRANCH   1  15
TORSDOF 22
ENDMDL
MODEL 9
REMARK VINA RESULT:    -4.995      4.896     11.769
REMARK INTER + INTRA:         -13.867
REMARK INTER:                 -12.148
REMARK INTRA:                  -1.719
REMARK UNBOUND:                -2.447
REMARK SMILES CCCCCCCCCCCCCCCCCCCCCCCC(=O)[O-]
REMARK SMILES IDX 13 1 14 2 15 3 16 4 17 5 18 6 19 7 20 8 21 9 22 10 23 11
REMARK SMILES IDX 24 12 25 13 26 14 12 15 11 16 10 17 9 18 8 19 7 20 6 21 5 22
REMARK SMILES IDX 4 23 3 24 2 25 1 26
REMARK H PARENT
REMARK Flexibility Score: inf
ROOT
ATOM      1  C   UNL     1      44.349   6.121 129.295  1.00  0.00     0.000 C 
ENDROOT
BRANCH   1   2
ATOM      2  C   UNL     1      45.217   7.361 128.998  1.00  0.00     0.000 C 
BRANCH   2   3
ATOM      3  C   UNL     1      46.731   7.084 128.980  1.00  0.00     0.000 C 
BRANCH   3   4
ATOM      4  C   UNL     1      47.192   6.453 127.654  1.00  0.00     0.000 C 
BRANCH   4   5
ATOM      5  C   UNL     1      47.743   7.497 126.669  1.00  0.00     0.000 C 
BRANCH   5   6
ATOM      6  C   UNL     1      46.720   7.854 125.576  1.00  0.00     0.000 C 
BRANCH   6   7
ATOM      7  C   UNL     1      47.379   8.256 124.247  1.00  0.00     0.000 C 
BRANCH   7   8
ATOM      8  C   UNL     1      47.742   9.748 124.185  1.00  0.00     0.000 C 
BRANCH   8   9
ATOM      9  C   UNL     1      46.831  10.498 123.199  1.00  0.00     0.000 C 
BRANCH   9  10
ATOM     10  C   UNL     1      45.865  11.470 123.900  1.00  0.00     0.006 C 
BRANCH  10  11
ATOM     11  C   UNL     1      44.531  11.679 123.163  1.00  0.00     0.053 C 
BRANCH  11  12
ATOM     12  C   UNL     1      44.695  12.519 121.933  1.00  0.00     0.041 C 
ATOM     13  O   UNL     1      43.849  12.455 121.003  1.00  0.00    -0.550 OA
ATOM     14  O   UNL     1      45.807  13.341 121.795  1.00  0.00    -0.550 OA
ENDBRANCH  11  12
ENDBRANCH  10  11
ENDBRANCH   9  10
ENDBRANCH   8   9
ENDBRANCH   7   8
ENDBRANCH   6   7
ENDBRANCH   5   6
ENDBRANCH   4   5
ENDBRANCH   3   4
ENDBRANCH   2   3
ENDBRANCH   1   2
BRANCH   1  15
ATOM     15  C   UNL     1      45.124   4.879 129.778  1.00  0.00     0.000 C 
BRANCH  15  16
ATOM     16  C   UNL     1      44.771   4.436 131.216  1.00  0.00     0.000 C 
BRANCH  16  17
ATOM     17  C   UNL     1      46.019   4.124 132.059  1.00  0.00     0.000 C 
BRANCH  17  18
ATOM     18  C   UNL     1      45.714   4.028 133.563  1.00  0.00    -0.000 C 
BRANCH  18  19
ATOM     19  C   UNL     1      46.296   2.758 134.212  1.00  0.00    -0.000 C 
BRANCH  19  20
ATOM     20  C   UNL     1      45.947   2.657 135.705  1.00  0.00    -0.000 C 
BRANCH  20  21
ATOM     21  C   UNL     1      45.100   1.417 136.025  1.00  0.00    -0.000 C 
BRANCH  21  22
ATOM     22  C   UNL     1      43.644   1.623 135.584  1.00  0.00    -0.000 C 
BRANCH  22  23
ATOM     23  C   UNL     1      43.142   0.520 134.636  1.00  0.00    -0.000 C 
BRANCH  23  24
ATOM     24  C   UNL     1      44.279  -0.285 133.972  1.00  0.00    -0.000 C 
BRANCH  24  25
ATOM     25  C   UNL     1      44.502   0.125 132.509  1.00  0.00    -0.003 C 
ATOM     26  C   UNL     1      43.405   1.067 132.020  1.00  0.00     0.004 C 
ENDBRANCH  24  25
ENDBRANCH  23  24
ENDBRANCH  22  23
ENDBRANCH  21  22
ENDBRANCH  20  21
ENDBRANCH  19  20
ENDBRANCH  18  19
ENDBRANCH  17  18
ENDBRANCH  16  17
ENDBRANCH  15  16
ENDBRANCH   1  15
TORSDOF 22
ENDMDL
