MODEL 1
REMARK VINA RESULT:    -2.961      0.000      0.000
REMARK INTER + INTRA:          -3.516
REMARK INTER:                  -3.480
REMARK INTRA:                  -0.036
REMARK UNBOUND:                -0.036
REMARK SMILES CCCCC(=O)[O-]
REMARK SMILES IDX 4 1 5 2 6 3 7 4 3 5 2 6 1 7
REMARK H PARENT
REMARK Flexibility Score: inf
ROOT
ATOM      1  C   UNL     1      40.949  66.275  46.700  1.00  0.00     0.053 C 
ENDROOT
BRANCH   1   2
ATOM      2  C   UNL     1      41.305  64.826  46.584  1.00  0.00     0.041 C 
ATOM      3  O   UNL     1      40.514  63.943  47.004  1.00  0.00    -0.550 OA
ATOM      4  O   UNL     1      42.534  64.453  46.055  1.00  0.00    -0.550 OA
ENDBRANCH   1   2
BRANCH   1   5
ATOM      5  C   UNL     1      39.844  66.473  47.742  1.00  0.00     0.006 C 
BRANCH   5   6
ATOM      6  C   UNL     1      39.965  67.845  48.416  1.00  0.00    -0.003 C 
ATOM      7  C   UNL     1      40.950  67.801  49.581  1.00  0.00     0.004 C 
ENDBRANCH   5   6
ENDBRANCH   1   5
TORSDOF 3
ENDMDL
MODEL 2
REMARK VINA RESULT:    -2.960     10.901     11.498
REMARK INTER + INTRA:          -3.515
REMARK INTER:                  -3.431
REMARK INTRA:                  -0.084
REMARK UNBOUND:                -0.036
REMARK SMILES CCCCC(=O)[O-]
REMARK SMILES IDX 4 1 5 2 6 3 7 4 3 5 2 6 1 7
REMARK H PARENT
REMARK Flexibility Score: inf
ROOT
ATOM      1  C   UNL     1      36.298  60.068  55.885  1.00  0.00     0.053 C 
ENDROOT
BRANCH   1   2
ATOM      2  C   UNL     1      36.865  61.442  55.710  1.00  0.00     0.041 C 
ATOM      3  O   UNL     1      36.125  62.392  55.345  1.00  0.00    -0.550 OA
ATOM      4  O   UNL     1      38.223  61.663  55.902  1.00  0.00    -0.550 OA
ENDBRANCH   1   2
BRANCH   1   5
ATOM      5  C   UNL     1      37.198  59.027  55.212  1.00  0.00     0.006 C 
BRANCH   5   6
ATOM      6  C   UNL     1      37.317  57.765  56.074  1.00  0.00    -0.003 C 
ATOM      7  C   UNL     1      37.806  58.101  57.480  1.00  0.00     0.004 C 
ENDBRANCH   5   6
ENDBRANCH   1   5
TORSDOF 3
ENDMDL
MODEL 3
REMARK VINA RESULT:    -2.943     12.467     13.996
REMARK INTER + INTRA:          -3.495
REMARK INTER:                  -3.471
REMARK INTRA:                  -0.023
REMARK UNBOUND:                -0.036
REMARK SMILES CCCCC(=O)[O-]
REMARK SMILES IDX 4 1 5 2 6 3 7 4 3 5 2 6 1 7
REMARK H PARENT
REMARK Flexibility Score: inf
ROOT
ATOM      1  C   UNL     1      38.586  55.794  38.556  1.00  0.00     0.053 C 
ENDROOT
BRANCH   1   2
ATOM      2  C   UNL     1      38.006  56.779  39.523  1.00  0.00     0.041 C 
ATOM      3  O   UNL     1      38.039  56.549  40.759  1.00  0.00    -0.550 OA
ATOM      4  O   UNL     1      37.385  57.930  39.053  1.00  0.00    -0.550 OA
ENDBRANCH   1   2
BRANCH   1   5
ATOM      5  C   UNL     1      38.896  54.471  39.262  1.00  0.00     0.006 C 
BRANCH   5   6
ATOM      6  C   UNL     1      39.824  53.598  38.409  1.00  0.00    -0.003 C 
ATOM      7  C   UNL     1      40.940  52.991  39.253  1.00  0.00     0.004 C 
ENDBRANCH   5   6
ENDBRANCH   1   5
TORSDOF 3
ENDMDL
MODEL 4
REMARK VINA RESULT:    -2.943     10.896     11.390
REMARK INTER + INTRA:          -3.494
REMARK INTER:                  -3.430
REMARK INTRA:                  -0.064
REMARK UNBOUND:                -0.036
REMARK SMILES CCCCC(=O)[O-]
REMARK SMILES IDX 4 1 5 2 6 3 7 4 3 5 2 6 1 7
REMARK H PARENT
REMARK Flexibility Score: inf
ROOT
ATOM      1  C   UNL     1      37.286  59.400  55.260  1.00  0.00     0.053 C 
ENDROOT
BRANCH   1   2
ATOM      2  C   UNL     1      37.376  58.038  55.876  1.00  0.00     0.041 C 
ATOM      3  O   UNL     1      37.929  57.884  56.995  1.00  0.00    -0.550 OA
ATOM      4  O   UNL     1      36.891  56.932  55.189  1.00  0.00    -0.550 OA
ENDBRANCH   1   2
BRANCH   1   5
ATOM      5  C   UNL     1      36.205  60.232  55.955  1.00  0.00     0.006 C 
BRANCH   5   6
ATOM      6  C   UNL     1      36.598  61.713  56.003  1.00  0.00    -0.003 C 
ATOM      7  C   UNL     1      38.113  61.880  56.061  1.00  0.00     0.004 C 
ENDBRANCH   5   6
ENDBRANCH   1   5
TORSDOF 3
ENDMDL
MODEL 5
REMARK VINA RESULT:    -2.933      5.746      6.768
REMARK INTER + INTRA:          -3.483
REMARK INTER:                  -3.437
REMARK INTRA:                  -0.045
REMARK UNBOUND:                -0.036
REMARK SMILES CCCCC(=O)[O-]
REMARK SMILES IDX 4 1 5 2 6 3 7 4 3 5 2 6 1 7
REMARK H PARENT
REMARK Flexibility Score: inf
ROOT
ATOM      1  C   UNL     1      43.954  66.144  52.423  1.00  0.00     0.053 C 
ENDROOT
BRANCH   1   2
ATOM      2  C   UNL     1      43.232  65.453  53.537  1.00  0.00     0.041 C 
ATOM      3  O   UNL     1      43.718  64.417  54.061  1.00  0.00    -0.550 OA
ATOM      4  O   UNL     1      41.997  65.925  53.963  1.00  0.00    -0.550 OA
ENDBRANCH   1   2
BRANCH   1   5
ATOM      5  C   UNL     1      45.117  65.283  51.923  1.00  0.00     0.006 C 
BRANCH   5   6
ATOM      6  C   UNL     1      45.557  65.716  50.519  1.00  0.00    -0.003 C 
ATOM      7  C   UNL     1      44.507  66.606  49.862  1.00  0.00     0.004 C 
ENDBRANCH   5   6
ENDBRANCH   1   5
TORSDOF 3
ENDMDL
MODEL 6
REMARK VINA RESULT:    -2.914     16.362     17.193
REMARK INTER + INTRA:          -3.460
REMARK INTER:                  -3.403
REMARK INTRA:                  -0.057
REMARK UNBOUND:                -0.036
REMARK SMILES CCCCC(=O)[O-]
REMARK SMILES IDX 4 1 5 2 6 3 7 4 3 5 2 6 1 7
REMARK H PARENT
REMARK Flexibility Score: inf
ROOT
ATOM      1  C   UNL     1      32.245  50.965  49.475  1.00  0.00     0.053 C 
ENDROOT
BRANCH   1   2
ATOM      2  C   UNL     1      33.693  51.128  49.133  1.00  0.00     0.041 C 
ATOM      3  O   UNL     1      34.243  52.256  49.225  1.00  0.00    -0.550 OA
ATOM      4  O   UNL     1      34.423  50.042  48.666  1.00  0.00    -0.550 OA
ENDBRANCH   1   2
BRANCH   1   5
ATOM      5  C   UNL     1      32.089  50.387  50.884  1.00  0.00     0.006 C 
BRANCH   5   6
ATOM      6  C   UNL     1      32.107  51.500  51.939  1.00  0.00    -0.003 C 
ATOM      7  C   UNL     1      32.543  50.963  53.299  1.00  0.00     0.004 C 
ENDBRANCH   5   6
ENDBRANCH   1   5
TORSDOF 3
ENDMDL
MODEL 7
REMARK VINA RESULT:    -2.913     15.930     17.165
REMARK INTER + INTRA:          -3.459
REMARK INTER:                  -3.377
REMARK INTRA:                  -0.083
REMARK UNBOUND:                -0.036
REMARK SMILES CCCCC(=O)[O-]
REMARK SMILES IDX 4 1 5 2 6 3 7 4 3 5 2 6 1 7
REMARK H PARENT
REMARK Flexibility Score: inf
ROOT
ATOM      1  C   UNL     1      33.733  51.247  48.879  1.00  0.00     0.053 C 
ENDROOT
BRANCH   1   2
ATOM      2  C   UNL     1      33.978  52.238  49.974  1.00  0.00     0.041 C 
ATOM      3  O   UNL     1      34.652  53.277  49.749  1.00  0.00    -0.550 OA
ATOM      4  O   UNL     1      33.503  51.990  51.255  1.00  0.00    -0.550 OA
ENDBRANCH   1   2
BRANCH   1   5
ATOM      5  C   UNL     1      32.512  50.382  49.204  1.00  0.00     0.006 C 
BRANCH   5   6
ATOM      6  C   UNL     1      32.899  48.902  49.302  1.00  0.00    -0.003 C 
ATOM      7  C   UNL     1      34.275  48.649  48.695  1.00  0.00     0.004 C 
ENDBRANCH   5   6
ENDBRANCH   1   5
TORSDOF 3
ENDMDL
MODEL 8
REMARK VINA RESULT:    -2.813     16.681     17.439
REMARK INTER + INTRA:          -3.342
REMARK INTER:                  -3.259
REMARK INTRA:                  -0.083
REMARK UNBOUND:                -0.036
REMARK SMILES CCCCC(=O)[O-]
REMARK SMILES IDX 4 1 5 2 6 3 7 4 3 5 2 6 1 7
REMARK H PARENT
REMARK Flexibility Score: inf
ROOT
ATOM      1  C   UNL     1      32.788  50.529  48.783  1.00  0.00     0.053 C 
ENDROOT
BRANCH   1   2
ATOM      2  C   UNL     1      33.489  49.343  48.197  1.00  0.00     0.041 C 
ATOM      3  O   UNL     1      34.547  48.909  48.722  1.00  0.00    -0.550 OA
ATOM      4  O   UNL     1      33.000  48.748  47.041  1.00  0.00    -0.550 OA
ENDBRANCH   1   2
BRANCH   1   5
ATOM      5  C   UNL     1      33.803  51.593  49.210  1.00  0.00     0.006 C 
BRANCH   5   6
ATOM      6  C   UNL     1      33.595  51.993  50.675  1.00  0.00    -0.003 C 
ATOM      7  C   UNL     1      32.304  51.399  51.232  1.00  0.00     0.004 C 
ENDBRANCH   5   6
ENDBRANCH   1   5
TORSDOF 3
ENDMDL
MODEL 9
REMARK VINA RESULT:    -2.781      4.272      5.197
REMARK INTER + INTRA:          -3.305
REMARK INTER:                  -3.245
REMARK INTRA:                  -0.060
REMARK UNBOUND:                -0.036
REMARK SMILES CCCCC(=O)[O-]
REMARK SMILES IDX 4 1 5 2 6 3 7 4 3 5 2 6 1 7
REMARK H PARENT
REMARK Flexibility Score: inf
ROOT
ATOM      1  C   UNL     1      44.547  67.045  50.296  1.00  0.00     0.053 C 
ENDROOT
BRANCH   1   2
ATOM      2  C   UNL     1      43.839  66.861  48.990  1.00  0.00     0.041 C 
ATOM      3  O   UNL     1      44.432  66.326  48.017  1.00  0.00    -0.550 OA
ATOM      4  O   UNL     1      42.540  67.327  48.832  1.00  0.00    -0.550 OA
ENDBRANCH   1   2
BRANCH   1   5
ATOM      5  C   UNL     1      45.497  65.873  50.559  1.00  0.00     0.006 C 
BRANCH   5   6
ATOM      6  C   UNL     1      45.128  65.148  51.859  1.00  0.00    -0.003 C 
ATOM      7  C   UNL     1      44.007  65.874  52.596  1.00  0.00     0.004 C 
ENDBRANCH   5   6
ENDBRANCH   1   5
TORSDOF 3
ENDMDL
