MODEL 1
REMARK VINA RESULT:    -6.029      0.000      0.000
REMARK INTER + INTRA:          -7.504
REMARK INTER:                  -7.439
REMARK INTRA:                  -0.065
REMARK UNBOUND:                -0.065
REMARK SMILES Oc1cc(O)c2cc(O)c(-c3cc(O)c(O)c(O)c3)[o+]c2c1.[Cl-]
REMARK SMILES IDX 10 1 20 2 21 3 22 4 2 5 3 6 4 7 6 8 7 9 8 10 11 11 12 12
REMARK SMILES IDX 13 13 19 14 15 15 17 16 14 17 16 19 18 21 9 23 1 25 5 27
REMARK H PARENT 14 18 16 20 18 22 9 24 1 26 5 28
REMARK Flexibility Score: inf
ROOT
ATOM      1  C   UNL     1      39.085 -24.124  -4.693  1.00  0.00     0.402 A 
ATOM      2  O   UNL     1      40.115 -24.824  -5.164  1.00  0.00    -0.202 OA
ATOM      3  C   UNL     1      40.441 -24.864  -6.452  1.00  0.00     0.368 A 
ATOM      4  C   UNL     1      41.539 -25.630  -6.852  1.00  0.00     0.162 A 
ATOM      5  C   UNL     1      41.903 -25.694  -8.197  1.00  0.00     0.128 A 
ATOM      6  C   UNL     1      41.163 -24.988  -9.153  1.00  0.00     0.093 A 
ATOM      7  C   UNL     1      40.059 -24.213  -8.778  1.00  0.00     0.136 A 
ATOM      8  C   UNL     1      39.687 -24.144  -7.410  1.00  0.00     0.125 A 
ATOM      9  C   UNL     1      38.604 -23.382  -6.942  1.00  0.00     0.078 A 
ATOM     10  C   UNL     1      38.302 -23.360  -5.577  1.00  0.00     0.223 A 
ENDROOT
BRANCH   1  11
ATOM     11  C   UNL     1      38.817 -24.166  -3.237  1.00  0.00     0.091 A 
ATOM     12  C   UNL     1      37.526 -24.397  -2.739  1.00  0.00     0.068 A 
ATOM     13  C   UNL     1      37.295 -24.456  -1.361  1.00  0.00     0.162 A 
ATOM     14  C   UNL     1      39.883 -24.032  -2.335  1.00  0.00     0.068 A 
ATOM     15  C   UNL     1      38.360 -24.297  -0.456  1.00  0.00     0.200 A 
ATOM     16  C   UNL     1      39.669 -24.088  -0.954  1.00  0.00     0.162 A 
BRANCH  13  17
ATOM     17  O   UNL     1      35.993 -24.679  -0.910  1.00  0.00    -0.504 OA
ATOM     18  H   UNL     1      35.199 -24.168  -1.274  1.00  0.00     0.293 HD
ENDBRANCH  13  17
BRANCH  15  19
ATOM     19  O   UNL     1      38.084 -24.354   0.913  1.00  0.00    -0.502 OA
ATOM     20  H   UNL     1      38.630 -23.887   1.623  1.00  0.00     0.293 HD
ENDBRANCH  15  19
BRANCH  16  21
ATOM     21  O   UNL     1      40.778 -23.933  -0.119  1.00  0.00    -0.504 OA
ATOM     22  H   UNL     1      41.126 -23.043   0.203  1.00  0.00     0.293 HD
ENDBRANCH  16  21
ENDBRANCH   1  11
BRANCH  10  23
ATOM     23  O   UNL     1      37.256 -22.565  -5.105  1.00  0.00    -0.500 OA
ATOM     24  H   UNL     1      36.915 -21.769  -5.630  1.00  0.00     0.294 HD
ENDBRANCH  10  23
BRANCH   5  25
ATOM     25  O   UNL     1      43.001 -26.463  -8.575  1.00  0.00    -0.507 OA
ATOM     26  H   UNL     1      43.098 -27.428  -8.283  1.00  0.00     0.293 HD
ENDBRANCH   5  25
BRANCH   7  27
ATOM     27  O   UNL     1      39.371 -23.541  -9.792  1.00  0.00    -0.507 OA
ATOM     28  H   UNL     1      38.366 -23.516  -9.880  1.00  0.00     0.293 HD
ENDBRANCH   7  27
TORSDOF 7
ENDMDL
MODEL 2
REMARK VINA RESULT:    -5.835     15.149     17.071
REMARK INTER + INTRA:          -7.264
REMARK INTER:                  -6.892
REMARK INTRA:                  -0.372
REMARK UNBOUND:                -0.065
REMARK SMILES Oc1cc(O)c2cc(O)c(-c3cc(O)c(O)c(O)c3)[o+]c2c1.[Cl-]
REMARK SMILES IDX 10 1 20 2 21 3 22 4 2 5 3 6 4 7 6 8 7 9 8 10 11 11 12 12
REMARK SMILES IDX 13 13 19 14 15 15 17 16 14 17 16 19 18 21 9 23 1 25 5 27
REMARK H PARENT 14 18 16 20 18 22 9 24 1 26 5 28
REMARK Flexibility Score: inf
ROOT
ATOM      1  C   UNL     1      54.000 -32.606  -2.624  1.00  0.00     0.402 A 
ATOM      2  O   UNL     1      53.828 -33.781  -3.225  1.00  0.00    -0.202 OA
ATOM      3  C   UNL     1      54.274 -34.046  -4.449  1.00  0.00     0.368 A 
ATOM      4  C   UNL     1      54.042 -35.310  -4.998  1.00  0.00     0.162 A 
ATOM      5  C   UNL     1      54.495 -35.615  -6.282  1.00  0.00     0.128 A 
ATOM      6  C   UNL     1      55.186 -34.650  -7.025  1.00  0.00     0.093 A 
ATOM      7  C   UNL     1      55.431 -33.377  -6.497  1.00  0.00     0.136 A 
ATOM      8  C   UNL     1      54.974 -33.063  -5.191  1.00  0.00     0.125 A 
ATOM      9  C   UNL     1      55.186 -31.818  -4.577  1.00  0.00     0.078 A 
ATOM     10  C   UNL     1      54.709 -31.585  -3.283  1.00  0.00     0.223 A 
ENDROOT
BRANCH   1  11
ATOM     11  C   UNL     1      53.448 -32.429  -1.261  1.00  0.00     0.091 A 
ATOM     12  C   UNL     1      52.227 -31.773  -1.048  1.00  0.00     0.068 A 
ATOM     13  C   UNL     1      51.709 -31.634   0.243  1.00  0.00     0.162 A 
ATOM     14  C   UNL     1      54.127 -32.979  -0.164  1.00  0.00     0.068 A 
ATOM     15  C   UNL     1      52.403 -32.165   1.347  1.00  0.00     0.200 A 
ATOM     16  C   UNL     1      53.623 -32.850   1.134  1.00  0.00     0.162 A 
BRANCH  13  17
ATOM     17  O   UNL     1      50.494 -30.967   0.410  1.00  0.00    -0.504 OA
ATOM     18  H   UNL     1      50.061 -30.851   1.317  1.00  0.00     0.293 HD
ENDBRANCH  13  17
BRANCH  15  19
ATOM     19  O   UNL     1      51.854 -31.996   2.621  1.00  0.00    -0.502 OA
ATOM     20  H   UNL     1      50.930 -32.303   2.886  1.00  0.00     0.293 HD
ENDBRANCH  15  19
BRANCH  16  21
ATOM     21  O   UNL     1      54.364 -33.413   2.176  1.00  0.00    -0.504 OA
ATOM     22  H   UNL     1      54.149 -33.293   3.154  1.00  0.00     0.293 HD
ENDBRANCH  16  21
ENDBRANCH   1  11
BRANCH  10  23
ATOM     23  O   UNL     1      54.962 -30.366  -2.653  1.00  0.00    -0.500 OA
ATOM     24  H   UNL     1      55.804 -29.834  -2.841  1.00  0.00     0.294 HD
ENDBRANCH  10  23
BRANCH   5  25
ATOM     25  O   UNL     1      54.254 -36.880  -6.812  1.00  0.00    -0.507 OA
ATOM     26  H   UNL     1      54.257 -37.046  -7.811  1.00  0.00     0.293 HD
ENDBRANCH   5  25
BRANCH   7  27
ATOM     27  O   UNL     1      56.125 -32.470  -7.302  1.00  0.00    -0.507 OA
ATOM     28  H   UNL     1      55.699 -31.687  -7.777  1.00  0.00     0.293 HD
ENDBRANCH   7  27
TORSDOF 7
ENDMDL
MODEL 3
REMARK VINA RESULT:    -5.774     14.368     15.377
REMARK INTER + INTRA:          -7.189
REMARK INTER:                  -6.818
REMARK INTRA:                  -0.371
REMARK UNBOUND:                -0.065
REMARK SMILES Oc1cc(O)c2cc(O)c(-c3cc(O)c(O)c(O)c3)[o+]c2c1.[Cl-]
REMARK SMILES IDX 10 1 20 2 21 3 22 4 2 5 3 6 4 7 6 8 7 9 8 10 11 11 12 12
REMARK SMILES IDX 13 13 19 14 15 15 17 16 14 17 16 19 18 21 9 23 1 25 5 27
REMARK H PARENT 14 18 16 20 18 22 9 24 1 26 5 28
REMARK Flexibility Score: inf
ROOT
ATOM      1  C   UNL     1      52.444 -32.029  -3.608  1.00  0.00     0.402 A 
ATOM      2  O   UNL     1      52.054 -33.138  -4.233  1.00  0.00    -0.202 OA
ATOM      3  C   UNL     1      51.999 -33.248  -5.556  1.00  0.00     0.368 A 
ATOM      4  C   UNL     1      51.574 -34.453  -6.121  1.00  0.00     0.162 A 
ATOM      5  C   UNL     1      51.503 -34.597  -7.507  1.00  0.00     0.128 A 
ATOM      6  C   UNL     1      51.858 -33.527  -8.337  1.00  0.00     0.093 A 
ATOM      7  C   UNL     1      52.287 -32.309  -7.795  1.00  0.00     0.136 A 
ATOM      8  C   UNL     1      52.363 -32.160  -6.386  1.00  0.00     0.125 A 
ATOM      9  C   UNL     1      52.794 -30.981  -5.757  1.00  0.00     0.078 A 
ATOM     10  C   UNL     1      52.847 -30.912  -4.361  1.00  0.00     0.223 A 
ENDROOT
BRANCH   1  11
ATOM     11  C   UNL     1      52.454 -32.027  -2.126  1.00  0.00     0.091 A 
ATOM     12  C   UNL     1      51.410 -31.449  -1.390  1.00  0.00     0.068 A 
ATOM     13  C   UNL     1      51.424 -31.475   0.007  1.00  0.00     0.162 A 
ATOM     14  C   UNL     1      53.498 -32.666  -1.442  1.00  0.00     0.068 A 
ATOM     15  C   UNL     1      52.484 -32.095   0.694  1.00  0.00     0.200 A 
ATOM     16  C   UNL     1      53.529 -32.701  -0.044  1.00  0.00     0.162 A 
BRANCH  13  17
ATOM     17  O   UNL     1      50.368 -30.880   0.700  1.00  0.00    -0.504 OA
ATOM     18  H   UNL     1      50.230 -31.013   1.694  1.00  0.00     0.293 HD
ENDBRANCH  13  17
BRANCH  15  19
ATOM     19  O   UNL     1      52.464 -32.091   2.091  1.00  0.00    -0.502 OA
ATOM     20  H   UNL     1      52.756 -32.868   2.666  1.00  0.00     0.293 HD
ENDBRANCH  15  19
BRANCH  16  21
ATOM     21  O   UNL     1      54.608 -33.346   0.565  1.00  0.00    -0.504 OA
ATOM     22  H   UNL     1      55.168 -34.057   0.120  1.00  0.00     0.293 HD
ENDBRANCH  16  21
ENDBRANCH   1  11
BRANCH  10  23
ATOM     23  O   UNL     1      53.322 -29.758  -3.736  1.00  0.00    -0.500 OA
ATOM     24  H   UNL     1      54.173 -29.300  -4.039  1.00  0.00     0.294 HD
ENDBRANCH  10  23
BRANCH   5  25
ATOM     25  O   UNL     1      51.077 -35.806  -8.051  1.00  0.00    -0.507 OA
ATOM     26  H   UNL     1      51.502 -36.686  -7.784  1.00  0.00     0.293 HD
ENDBRANCH   5  25
BRANCH   7  27
ATOM     27  O   UNL     1      52.620 -31.289  -8.691  1.00  0.00    -0.507 OA
ATOM     28  H   UNL     1      52.467 -30.306  -8.519  1.00  0.00     0.293 HD
ENDBRANCH   7  27
TORSDOF 7
ENDMDL
MODEL 4
REMARK VINA RESULT:    -5.767      1.819      3.669
REMARK INTER + INTRA:          -7.180
REMARK INTER:                  -6.839
REMARK INTRA:                  -0.341
REMARK UNBOUND:                -0.065
REMARK SMILES Oc1cc(O)c2cc(O)c(-c3cc(O)c(O)c(O)c3)[o+]c2c1.[Cl-]
REMARK SMILES IDX 10 1 20 2 21 3 22 4 2 5 3 6 4 7 6 8 7 9 8 10 11 11 12 12
REMARK SMILES IDX 13 13 19 14 15 15 17 16 14 17 16 19 18 21 9 23 1 25 5 27
REMARK H PARENT 14 18 16 20 18 22 9 24 1 26 5 28
REMARK Flexibility Score: inf
ROOT
ATOM      1  C   UNL     1      38.656 -23.700  -4.311  1.00  0.00     0.402 A 
ATOM      2  O   UNL     1      38.357 -22.494  -4.788  1.00  0.00    -0.202 OA
ATOM      3  C   UNL     1      38.355 -22.204  -6.085  1.00  0.00     0.368 A 
ATOM      4  C   UNL     1      38.030 -20.906  -6.490  1.00  0.00     0.162 A 
ATOM      5  C   UNL     1      38.023 -20.571  -7.845  1.00  0.00     0.128 A 
ATOM      6  C   UNL     1      38.346 -21.539  -8.803  1.00  0.00     0.093 A 
ATOM      7  C   UNL     1      38.675 -22.845  -8.423  1.00  0.00     0.136 A 
ATOM      8  C   UNL     1      38.681 -23.191  -7.047  1.00  0.00     0.125 A 
ATOM      9  C   UNL     1      38.985 -24.478  -6.575  1.00  0.00     0.078 A 
ATOM     10  C   UNL     1      38.965 -24.744  -5.202  1.00  0.00     0.223 A 
ENDROOT
BRANCH   1  11
ATOM     11  C   UNL     1      38.633 -23.898  -2.843  1.00  0.00     0.091 A 
ATOM     12  C   UNL     1      39.819 -23.993  -2.100  1.00  0.00     0.068 A 
ATOM     13  C   UNL     1      39.778 -24.157  -0.712  1.00  0.00     0.162 A 
ATOM     14  C   UNL     1      37.402 -23.933  -2.171  1.00  0.00     0.068 A 
ATOM     15  C   UNL     1      38.543 -24.217  -0.041  1.00  0.00     0.200 A 
ATOM     16  C   UNL     1      37.343 -24.097  -0.783  1.00  0.00     0.162 A 
BRANCH  13  17
ATOM     17  O   UNL     1      40.983 -24.255  -0.014  1.00  0.00    -0.504 OA
ATOM     18  H   UNL     1      41.085 -24.835   0.809  1.00  0.00     0.293 HD
ENDBRANCH  13  17
BRANCH  15  19
ATOM     19  O   UNL     1      38.547 -24.391   1.345  1.00  0.00    -0.502 OA
ATOM     20  H   UNL     1      39.098 -25.085   1.829  1.00  0.00     0.293 HD
ENDBRANCH  15  19
BRANCH  16  21
ATOM     21  O   UNL     1      36.080 -24.135  -0.188  1.00  0.00    -0.504 OA
ATOM     22  H   UNL     1      35.229 -23.848  -0.646  1.00  0.00     0.293 HD
ENDBRANCH  16  21
ENDBRANCH   1  11
BRANCH  10  23
ATOM     23  O   UNL     1      39.219 -26.034  -4.736  1.00  0.00    -0.500 OA
ATOM     24  H   UNL     1      39.019 -26.304  -3.780  1.00  0.00     0.294 HD
ENDBRANCH  10  23
BRANCH   5  25
ATOM     25  O   UNL     1      37.696 -19.272  -8.229  1.00  0.00    -0.507 OA
ATOM     26  H   UNL     1      37.400 -18.578  -7.553  1.00  0.00     0.293 HD
ENDBRANCH   5  25
BRANCH   7  27
ATOM     27  O   UNL     1      38.988 -23.752  -9.440  1.00  0.00    -0.507 OA
ATOM     28  H   UNL     1      39.233 -23.489 -10.383  1.00  0.00     0.293 HD
ENDBRANCH   7  27
TORSDOF 7
ENDMDL
MODEL 5
REMARK VINA RESULT:    -5.755     12.325     15.530
REMARK INTER + INTRA:          -7.166
REMARK INTER:                  -6.787
REMARK INTRA:                  -0.379
REMARK UNBOUND:                -0.065
REMARK SMILES Oc1cc(O)c2cc(O)c(-c3cc(O)c(O)c(O)c3)[o+]c2c1.[Cl-]
REMARK SMILES IDX 10 1 20 2 21 3 22 4 2 5 3 6 4 7 6 8 7 9 8 10 11 11 12 12
REMARK SMILES IDX 13 13 19 14 15 15 17 16 14 17 16 19 18 21 9 23 1 25 5 27
REMARK H PARENT 14 18 16 20 18 22 9 24 1 26 5 28
REMARK Flexibility Score: inf
ROOT
ATOM      1  C   UNL     1      48.996 -26.893   5.167  1.00  0.00     0.402 A 
ATOM      2  O   UNL     1      47.796 -27.445   5.326  1.00  0.00    -0.202 OA
ATOM      3  C   UNL     1      47.184 -27.535   6.503  1.00  0.00     0.368 A 
ATOM      4  C   UNL     1      45.924 -28.135   6.570  1.00  0.00     0.162 A 
ATOM      5  C   UNL     1      45.260 -28.246   7.792  1.00  0.00     0.128 A 
ATOM      6  C   UNL     1      45.859 -27.755   8.958  1.00  0.00     0.093 A 
ATOM      7  C   UNL     1      47.121 -27.150   8.916  1.00  0.00     0.136 A 
ATOM      8  C   UNL     1      47.799 -27.032   7.675  1.00  0.00     0.125 A 
ATOM      9  C   UNL     1      49.059 -26.429   7.538  1.00  0.00     0.078 A 
ATOM     10  C   UNL     1      49.663 -26.347   6.279  1.00  0.00     0.223 A 
ENDROOT
BRANCH   1  11
ATOM     11  C   UNL     1      49.578 -26.861   3.805  1.00  0.00     0.091 A 
ATOM     12  C   UNL     1      50.498 -27.831   3.381  1.00  0.00     0.068 A 
ATOM     13  C   UNL     1      51.020 -27.799   2.085  1.00  0.00     0.162 A 
ATOM     14  C   UNL     1      49.158 -25.877   2.898  1.00  0.00     0.068 A 
ATOM     15  C   UNL     1      50.618 -26.797   1.183  1.00  0.00     0.200 A 
ATOM     16  C   UNL     1      49.671 -25.830   1.598  1.00  0.00     0.162 A 
BRANCH  13  17
ATOM     17  O   UNL     1      51.940 -28.780   1.709  1.00  0.00    -0.504 OA
ATOM     18  H   UNL     1      52.315 -28.838   0.770  1.00  0.00     0.293 HD
ENDBRANCH  13  17
BRANCH  15  19
ATOM     19  O   UNL     1      51.171 -26.796  -0.100  1.00  0.00    -0.502 OA
ATOM     20  H   UNL     1      51.098 -27.565  -0.751  1.00  0.00     0.293 HD
ENDBRANCH  15  19
BRANCH  16  21
ATOM     21  O   UNL     1      49.213 -24.812   0.757  1.00  0.00    -0.504 OA
ATOM     22  H   UNL     1      49.792 -24.326   0.089  1.00  0.00     0.293 HD
ENDBRANCH  16  21
ENDBRANCH   1  11
BRANCH  10  23
ATOM     23  O   UNL     1      50.892 -25.704   6.134  1.00  0.00    -0.500 OA
ATOM     24  H   UNL     1      51.084 -25.091   5.350  1.00  0.00     0.294 HD
ENDBRANCH  10  23
BRANCH   5  25
ATOM     25  O   UNL     1      44.004 -28.847   7.838  1.00  0.00    -0.507 OA
ATOM     26  H   UNL     1      43.496 -28.947   8.709  1.00  0.00     0.293 HD
ENDBRANCH   5  25
BRANCH   7  27
ATOM     27  O   UNL     1      47.652 -26.688  10.124  1.00  0.00    -0.507 OA
ATOM     28  H   UNL     1      47.202 -26.012  10.724  1.00  0.00     0.293 HD
ENDBRANCH   7  27
TORSDOF 7
ENDMDL
MODEL 6
REMARK VINA RESULT:    -5.721     14.207     17.080
REMARK INTER + INTRA:          -7.124
REMARK INTER:                  -6.740
REMARK INTRA:                  -0.385
REMARK UNBOUND:                -0.065
REMARK SMILES Oc1cc(O)c2cc(O)c(-c3cc(O)c(O)c(O)c3)[o+]c2c1.[Cl-]
REMARK SMILES IDX 10 1 20 2 21 3 22 4 2 5 3 6 4 7 6 8 7 9 8 10 11 11 12 12
REMARK SMILES IDX 13 13 19 14 15 15 17 16 14 17 16 19 18 21 9 23 1 25 5 27
REMARK H PARENT 14 18 16 20 18 22 9 24 1 26 5 28
REMARK Flexibility Score: inf
ROOT
ATOM      1  C   UNL     1      50.871 -28.023   5.667  1.00  0.00     0.402 A 
ATOM      2  O   UNL     1      49.570 -28.261   5.513  1.00  0.00    -0.202 OA
ATOM      3  C   UNL     1      48.663 -27.988   6.446  1.00  0.00     0.368 A 
ATOM      4  C   UNL     1      47.320 -28.277   6.192  1.00  0.00     0.162 A 
ATOM      5  C   UNL     1      46.346 -28.005   7.153  1.00  0.00     0.128 A 
ATOM      6  C   UNL     1      46.716 -27.442   8.380  1.00  0.00     0.093 A 
ATOM      7  C   UNL     1      48.056 -27.143   8.658  1.00  0.00     0.136 A 
ATOM      8  C   UNL     1      49.049 -27.416   7.682  1.00  0.00     0.125 A 
ATOM      9  C   UNL     1      50.413 -27.137   7.869  1.00  0.00     0.078 A 
ATOM     10  C   UNL     1      51.333 -27.431   6.857  1.00  0.00     0.223 A 
ENDROOT
BRANCH   1  11
ATOM     11  C   UNL     1      51.785 -28.380   4.558  1.00  0.00     0.091 A 
ATOM     12  C   UNL     1      52.405 -29.637   4.498  1.00  0.00     0.068 A 
ATOM     13  C   UNL     1      53.247 -29.965   3.432  1.00  0.00     0.162 A 
ATOM     14  C   UNL     1      51.992 -27.467   3.514  1.00  0.00     0.068 A 
ATOM     15  C   UNL     1      53.474 -29.039   2.397  1.00  0.00     0.200 A 
ATOM     16  C   UNL     1      52.832 -27.778   2.440  1.00  0.00     0.162 A 
BRANCH  13  17
ATOM     17  O   UNL     1      53.849 -31.224   3.417  1.00  0.00    -0.504 OA
ATOM     18  H   UNL     1      53.624 -31.940   4.097  1.00  0.00     0.293 HD
ENDBRANCH  13  17
BRANCH  15  19
ATOM     19  O   UNL     1      54.330 -29.404   1.354  1.00  0.00    -0.502 OA
ATOM     20  H   UNL     1      55.183 -29.932   1.477  1.00  0.00     0.293 HD
ENDBRANCH  15  19
BRANCH  16  21
ATOM     21  O   UNL     1      52.999 -26.812   1.445  1.00  0.00    -0.504 OA
ATOM     22  H   UNL     1      53.521 -26.958   0.595  1.00  0.00     0.293 HD
ENDBRANCH  16  21
ENDBRANCH   1  11
BRANCH  10  23
ATOM     23  O   UNL     1      52.680 -27.109   7.023  1.00  0.00    -0.500 OA
ATOM     24  H   UNL     1      53.164 -27.278   7.897  1.00  0.00     0.294 HD
ENDBRANCH  10  23
BRANCH   5  25
ATOM     25  O   UNL     1      45.012 -28.300   6.881  1.00  0.00    -0.507 OA
ATOM     26  H   UNL     1      44.691 -29.256   6.777  1.00  0.00     0.293 HD
ENDBRANCH   5  25
BRANCH   7  27
ATOM     27  O   UNL     1      48.344 -26.584   9.906  1.00  0.00    -0.507 OA
ATOM     28  H   UNL     1      48.245 -27.070  10.785  1.00  0.00     0.293 HD
ENDBRANCH   7  27
TORSDOF 7
ENDMDL
MODEL 7
REMARK VINA RESULT:    -5.710     12.848     14.275
REMARK INTER + INTRA:          -7.110
REMARK INTER:                  -6.752
REMARK INTRA:                  -0.358
REMARK UNBOUND:                -0.065
REMARK SMILES Oc1cc(O)c2cc(O)c(-c3cc(O)c(O)c(O)c3)[o+]c2c1.[Cl-]
REMARK SMILES IDX 10 1 20 2 21 3 22 4 2 5 3 6 4 7 6 8 7 9 8 10 11 11 12 12
REMARK SMILES IDX 13 13 19 14 15 15 17 16 14 17 16 19 18 21 9 23 1 25 5 27
REMARK H PARENT 14 18 16 20 18 22 9 24 1 26 5 28
REMARK Flexibility Score: inf
ROOT
ATOM      1  C   UNL     1      48.962 -27.124   5.363  1.00  0.00     0.402 A 
ATOM      2  O   UNL     1      48.854 -26.014   4.638  1.00  0.00    -0.202 OA
ATOM      3  C   UNL     1      49.682 -25.710   3.642  1.00  0.00     0.368 A 
ATOM      4  C   UNL     1      49.490 -24.518   2.939  1.00  0.00     0.162 A 
ATOM      5  C   UNL     1      50.345 -24.171   1.892  1.00  0.00     0.128 A 
ATOM      6  C   UNL     1      51.402 -25.021   1.545  1.00  0.00     0.093 A 
ATOM      7  C   UNL     1      51.615 -26.221   2.235  1.00  0.00     0.136 A 
ATOM      8  C   UNL     1      50.746 -26.578   3.298  1.00  0.00     0.125 A 
ATOM      9  C   UNL     1      50.876 -27.767   4.035  1.00  0.00     0.078 A 
ATOM     10  C   UNL     1      49.976 -28.053   5.068  1.00  0.00     0.223 A 
ENDROOT
BRANCH   1  11
ATOM     11  C   UNL     1      47.983 -27.347   6.453  1.00  0.00     0.091 A 
ATOM     12  C   UNL     1      46.712 -27.880   6.196  1.00  0.00     0.068 A 
ATOM     13  C   UNL     1      45.809 -28.104   7.239  1.00  0.00     0.162 A 
ATOM     14  C   UNL     1      48.353 -27.074   7.778  1.00  0.00     0.068 A 
ATOM     15  C   UNL     1      46.171 -27.807   8.566  1.00  0.00     0.200 A 
ATOM     16  C   UNL     1      47.462 -27.292   8.834  1.00  0.00     0.162 A 
BRANCH  13  17
ATOM     17  O   UNL     1      44.552 -28.630   6.936  1.00  0.00    -0.504 OA
ATOM     18  H   UNL     1      43.693 -28.146   7.167  1.00  0.00     0.293 HD
ENDBRANCH  13  17
BRANCH  15  19
ATOM     19  O   UNL     1      45.236 -28.038   9.578  1.00  0.00    -0.502 OA
ATOM     20  H   UNL     1      44.526 -27.376   9.857  1.00  0.00     0.293 HD
ENDBRANCH  15  19
BRANCH  16  21
ATOM     21  O   UNL     1      47.899 -26.984  10.125  1.00  0.00    -0.504 OA
ATOM     22  H   UNL     1      48.314 -26.103  10.388  1.00  0.00     0.293 HD
ENDBRANCH  16  21
ENDBRANCH   1  11
BRANCH  10  23
ATOM     23  O   UNL     1      50.075 -29.255   5.768  1.00  0.00    -0.500 OA
ATOM     24  H   UNL     1      49.262 -29.828   5.960  1.00  0.00     0.294 HD
ENDBRANCH  10  23
BRANCH   5  25
ATOM     25  O   UNL     1      50.137 -22.979   1.203  1.00  0.00    -0.507 OA
ATOM     26  H   UNL     1      50.899 -22.339   1.008  1.00  0.00     0.293 HD
ENDBRANCH   5  25
BRANCH   7  27
ATOM     27  O   UNL     1      52.693 -27.013   1.829  1.00  0.00    -0.507 OA
ATOM     28  H   UNL     1      53.276 -27.547   2.457  1.00  0.00     0.293 HD
ENDBRANCH   7  27
TORSDOF 7
ENDMDL
MODEL 8
REMARK VINA RESULT:    -5.701     13.937     15.157
REMARK INTER + INTRA:          -7.099
REMARK INTER:                  -6.715
REMARK INTRA:                  -0.384
REMARK UNBOUND:                -0.065
REMARK SMILES Oc1cc(O)c2cc(O)c(-c3cc(O)c(O)c(O)c3)[o+]c2c1.[Cl-]
REMARK SMILES IDX 10 1 20 2 21 3 22 4 2 5 3 6 4 7 6 8 7 9 8 10 11 11 12 12
REMARK SMILES IDX 13 13 19 14 15 15 17 16 14 17 16 19 18 21 9 23 1 25 5 27
REMARK H PARENT 14 18 16 20 18 22 9 24 1 26 5 28
REMARK Flexibility Score: inf
ROOT
ATOM      1  C   UNL     1      49.572 -27.743   5.396  1.00  0.00     0.402 A 
ATOM      2  O   UNL     1      50.359 -28.817   5.386  1.00  0.00    -0.202 OA
ATOM      3  C   UNL     1      51.343 -28.992   4.509  1.00  0.00     0.368 A 
ATOM      4  C   UNL     1      52.114 -30.156   4.578  1.00  0.00     0.162 A 
ATOM      5  C   UNL     1      53.151 -30.369   3.669  1.00  0.00     0.128 A 
ATOM      6  C   UNL     1      53.419 -29.414   2.682  1.00  0.00     0.093 A 
ATOM      7  C   UNL     1      52.661 -28.240   2.593  1.00  0.00     0.136 A 
ATOM      8  C   UNL     1      51.607 -28.018   3.517  1.00  0.00     0.125 A 
ATOM      9  C   UNL     1      50.804 -26.866   3.511  1.00  0.00     0.078 A 
ATOM     10  C   UNL     1      49.787 -26.716   4.458  1.00  0.00     0.223 A 
ENDROOT
BRANCH   1  11
ATOM     11  C   UNL     1      48.503 -27.667   6.418  1.00  0.00     0.091 A 
ATOM     12  C   UNL     1      47.193 -28.079   6.136  1.00  0.00     0.068 A 
ATOM     13  C   UNL     1      46.201 -28.022   7.119  1.00  0.00     0.162 A 
ATOM     14  C   UNL     1      48.817 -27.230   7.713  1.00  0.00     0.068 A 
ATOM     15  C   UNL     1      46.510 -27.559   8.412  1.00  0.00     0.200 A 
ATOM     16  C   UNL     1      47.837 -27.165   8.709  1.00  0.00     0.162 A 
BRANCH  13  17
ATOM     17  O   UNL     1      44.908 -28.434   6.792  1.00  0.00    -0.504 OA
ATOM     18  H   UNL     1      44.236 -28.716   7.495  1.00  0.00     0.293 HD
ENDBRANCH  13  17
BRANCH  15  19
ATOM     19  O   UNL     1      45.487 -27.509   9.362  1.00  0.00    -0.502 OA
ATOM     20  H   UNL     1      44.608 -27.998   9.277  1.00  0.00     0.293 HD
ENDBRANCH  15  19
BRANCH  16  21
ATOM     21  O   UNL     1      48.224 -26.707   9.970  1.00  0.00    -0.504 OA
ATOM     22  H   UNL     1      47.816 -27.022  10.838  1.00  0.00     0.293 HD
ENDBRANCH  16  21
ENDBRANCH   1  11
BRANCH  10  23
ATOM     23  O   UNL     1      49.021 -25.550   4.484  1.00  0.00    -0.500 OA
ATOM     24  H   UNL     1      48.902 -24.974   3.659  1.00  0.00     0.294 HD
ENDBRANCH  10  23
BRANCH   5  25
ATOM     25  O   UNL     1      53.908 -31.535   3.753  1.00  0.00    -0.507 OA
ATOM     26  H   UNL     1      53.593 -32.334   4.289  1.00  0.00     0.293 HD
ENDBRANCH   5  25
BRANCH   7  27
ATOM     27  O   UNL     1      52.990 -27.337   1.578  1.00  0.00    -0.507 OA
ATOM     28  H   UNL     1      53.861 -26.830   1.526  1.00  0.00     0.293 HD
ENDBRANCH   7  27
TORSDOF 7
ENDMDL
MODEL 9
REMARK VINA RESULT:    -5.690     12.794     14.341
REMARK INTER + INTRA:          -7.085
REMARK INTER:                  -6.710
REMARK INTRA:                  -0.376
REMARK UNBOUND:                -0.065
REMARK SMILES Oc1cc(O)c2cc(O)c(-c3cc(O)c(O)c(O)c3)[o+]c2c1.[Cl-]
REMARK SMILES IDX 10 1 20 2 21 3 22 4 2 5 3 6 4 7 6 8 7 9 8 10 11 11 12 12
REMARK SMILES IDX 13 13 19 14 15 15 17 16 14 17 16 19 18 21 9 23 1 25 5 27
REMARK H PARENT 14 18 16 20 18 22 9 24 1 26 5 28
REMARK Flexibility Score: inf
ROOT
ATOM      1  C   UNL     1      48.976 -27.183   5.354  1.00  0.00     0.402 A 
ATOM      2  O   UNL     1      48.850 -26.070   4.636  1.00  0.00    -0.202 OA
ATOM      3  C   UNL     1      49.659 -25.756   3.629  1.00  0.00     0.368 A 
ATOM      4  C   UNL     1      49.448 -24.562   2.934  1.00  0.00     0.162 A 
ATOM      5  C   UNL     1      50.283 -24.204   1.876  1.00  0.00     0.128 A 
ATOM      6  C   UNL     1      51.341 -25.045   1.508  1.00  0.00     0.093 A 
ATOM      7  C   UNL     1      51.573 -26.246   2.189  1.00  0.00     0.136 A 
ATOM      8  C   UNL     1      50.724 -26.615   3.264  1.00  0.00     0.125 A 
ATOM      9  C   UNL     1      50.874 -27.806   3.993  1.00  0.00     0.078 A 
ATOM     10  C   UNL     1      49.993 -28.103   5.039  1.00  0.00     0.223 A 
ENDROOT
BRANCH   1  11
ATOM     11  C   UNL     1      48.017 -27.417   6.458  1.00  0.00     0.091 A 
ATOM     12  C   UNL     1      48.347 -27.118   7.788  1.00  0.00     0.068 A 
ATOM     13  C   UNL     1      47.421 -27.324   8.815  1.00  0.00     0.162 A 
ATOM     14  C   UNL     1      46.731 -27.893   6.165  1.00  0.00     0.068 A 
ATOM     15  C   UNL     1      46.139 -27.825   8.524  1.00  0.00     0.200 A 
ATOM     16  C   UNL     1      45.792 -28.106   7.181  1.00  0.00     0.162 A 
BRANCH  13  17
ATOM     17  O   UNL     1      47.795 -27.019  10.125  1.00  0.00    -0.504 OA
ATOM     18  H   UNL     1      47.550 -27.611  10.909  1.00  0.00     0.293 HD
ENDBRANCH  13  17
BRANCH  15  19
ATOM     19  O   UNL     1      45.247 -28.024   9.581  1.00  0.00    -0.502 OA
ATOM     20  H   UNL     1      44.244 -28.083   9.475  1.00  0.00     0.293 HD
ENDBRANCH  15  19
BRANCH  16  21
ATOM     21  O   UNL     1      44.536 -28.594   6.811  1.00  0.00    -0.504 OA
ATOM     22  H   UNL     1      44.358 -29.546   6.530  1.00  0.00     0.293 HD
ENDBRANCH  16  21
ENDBRANCH   1  11
BRANCH  10  23
ATOM     23  O   UNL     1      50.111 -29.308   5.731  1.00  0.00    -0.500 OA
ATOM     24  H   UNL     1      50.302 -29.334   6.726  1.00  0.00     0.294 HD
ENDBRANCH  10  23
BRANCH   5  25
ATOM     25  O   UNL     1      50.057 -23.010   1.196  1.00  0.00    -0.507 OA
ATOM     26  H   UNL     1      50.822 -22.426   0.881  1.00  0.00     0.293 HD
ENDBRANCH   5  25
BRANCH   7  27
ATOM     27  O   UNL     1      52.650 -27.029   1.763  1.00  0.00    -0.507 OA
ATOM     28  H   UNL     1      53.583 -26.971   2.144  1.00  0.00     0.293 HD
ENDBRANCH   7  27
TORSDOF 7
ENDMDL
