MODEL 1
REMARK VINA RESULT:    -2.436      0.000      0.000
REMARK INTER + INTRA:          -2.778
REMARK INTER:                  -2.721
REMARK INTRA:                  -0.058
REMARK UNBOUND:                -0.058
REMARK SMILES CCCC(=O)[O-]
REMARK SMILES IDX 3 1 4 2 5 3 6 4 2 5 1 6
REMARK H PARENT
REMARK Flexibility Score: inf
ROOT
ATOM      1  C   UNL     1     126.727  54.244  43.608  1.00  0.00     0.052 C 
ENDROOT
BRANCH   1   2
ATOM      2  C   UNL     1     125.855  53.051  43.837  1.00  0.00     0.041 C 
ATOM      3  O   UNL     1     125.140  52.601  42.904  1.00  0.00    -0.550 OA
ATOM      4  O   UNL     1     125.870  52.404  45.066  1.00  0.00    -0.550 OA
ENDBRANCH   1   2
BRANCH   1   5
ATOM      5  C   UNL     1     125.947  55.349  42.890  1.00  0.00     0.003 C 
ATOM      6  C   UNL     1     124.960  56.029  43.834  1.00  0.00     0.004 C 
ENDBRANCH   1   5
TORSDOF 2
ENDMDL
MODEL 2
REMARK VINA RESULT:    -2.363     13.416     13.884
REMARK INTER + INTRA:          -2.697
REMARK INTER:                  -2.659
REMARK INTRA:                  -0.038
REMARK UNBOUND:                -0.058
REMARK SMILES CCCC(=O)[O-]
REMARK SMILES IDX 3 1 4 2 5 3 6 4 2 5 1 6
REMARK H PARENT
REMARK Flexibility Score: inf
ROOT
ATOM      1  C   UNL     1     115.405  53.053  53.543  1.00  0.00     0.052 C 
ENDROOT
BRANCH   1   2
ATOM      2  C   UNL     1     115.360  52.329  52.235  1.00  0.00     0.041 C 
ATOM      3  O   UNL     1     115.337  51.070  52.209  1.00  0.00    -0.550 OA
ATOM      4  O   UNL     1     115.291  53.044  51.046  1.00  0.00    -0.550 OA
ENDBRANCH   1   2
BRANCH   1   5
ATOM      5  C   UNL     1     116.322  52.323  54.529  1.00  0.00     0.003 C 
ATOM      6  C   UNL     1     117.718  52.939  54.543  1.00  0.00     0.004 C 
ENDBRANCH   1   5
TORSDOF 2
ENDMDL
MODEL 3
REMARK VINA RESULT:    -2.355      3.187      4.000
REMARK INTER + INTRA:          -2.688
REMARK INTER:                  -2.671
REMARK INTRA:                  -0.017
REMARK UNBOUND:                -0.058
REMARK SMILES CCCC(=O)[O-]
REMARK SMILES IDX 3 1 4 2 5 3 6 4 2 5 1 6
REMARK H PARENT
REMARK Flexibility Score: inf
ROOT
ATOM      1  C   UNL     1     124.559  55.949  43.658  1.00  0.00     0.052 C 
ENDROOT
BRANCH   1   2
ATOM      2  C   UNL     1     124.694  57.130  44.565  1.00  0.00     0.041 C 
ATOM      3  O   UNL     1     124.217  57.092  45.729  1.00  0.00    -0.550 OA
ATOM      4  O   UNL     1     125.390  58.256  44.143  1.00  0.00    -0.550 OA
ENDBRANCH   1   2
BRANCH   1   5
ATOM      5  C   UNL     1     125.902  55.625  42.997  1.00  0.00     0.003 C 
ATOM      6  C   UNL     1     126.409  54.250  43.424  1.00  0.00     0.004 C 
ENDBRANCH   1   5
TORSDOF 2
ENDMDL
MODEL 4
REMARK VINA RESULT:    -2.354      2.305      3.126
REMARK INTER + INTRA:          -2.687
REMARK INTER:                  -2.625
REMARK INTRA:                  -0.062
REMARK UNBOUND:                -0.058
REMARK SMILES CCCC(=O)[O-]
REMARK SMILES IDX 3 1 4 2 5 3 6 4 2 5 1 6
REMARK H PARENT
REMARK Flexibility Score: inf
ROOT
ATOM      1  C   UNL     1     126.079  55.124  42.990  1.00  0.00     0.052 C 
ENDROOT
BRANCH   1   2
ATOM      2  C   UNL     1     124.877  55.799  43.571  1.00  0.00     0.041 C 
ATOM      3  O   UNL     1     124.990  56.918  44.136  1.00  0.00    -0.550 OA
ATOM      4  O   UNL     1     123.623  55.215  43.444  1.00  0.00    -0.550 OA
ENDBRANCH   1   2
BRANCH   1   5
ATOM      5  C   UNL     1     126.095  53.640  43.366  1.00  0.00     0.003 C 
ATOM      6  C   UNL     1     126.323  53.453  44.863  1.00  0.00     0.004 C 
ENDBRANCH   1   5
TORSDOF 2
ENDMDL
MODEL 5
REMARK VINA RESULT:    -2.326      9.019      9.459
REMARK INTER + INTRA:          -2.655
REMARK INTER:                  -2.646
REMARK INTRA:                  -0.010
REMARK UNBOUND:                -0.058
REMARK SMILES CCCC(=O)[O-]
REMARK SMILES IDX 3 1 4 2 5 3 6 4 2 5 1 6
REMARK H PARENT
REMARK Flexibility Score: inf
ROOT
ATOM      1  C   UNL     1     123.195  57.617  51.351  1.00  0.00     0.052 C 
ENDROOT
BRANCH   1   2
ATOM      2  C   UNL     1     124.563  57.675  51.952  1.00  0.00     0.041 C 
ATOM      3  O   UNL     1     125.168  56.613  52.253  1.00  0.00    -0.550 OA
ATOM      4  O   UNL     1     125.191  58.900  52.135  1.00  0.00    -0.550 OA
ENDBRANCH   1   2
BRANCH   1   5
ATOM      5  C   UNL     1     122.577  59.017  51.289  1.00  0.00     0.003 C 
ATOM      6  C   UNL     1     121.115  58.955  50.855  1.00  0.00     0.004 C 
ENDBRANCH   1   5
TORSDOF 2
ENDMDL
MODEL 6
REMARK VINA RESULT:    -2.300     13.396     13.867
REMARK INTER + INTRA:          -2.627
REMARK INTER:                  -2.599
REMARK INTRA:                  -0.028
REMARK UNBOUND:                -0.058
REMARK SMILES CCCC(=O)[O-]
REMARK SMILES IDX 3 1 4 2 5 3 6 4 2 5 1 6
REMARK H PARENT
REMARK Flexibility Score: inf
ROOT
ATOM      1  C   UNL     1     116.458  52.233  54.453  1.00  0.00     0.052 C 
ENDROOT
BRANCH   1   2
ATOM      2  C   UNL     1     115.592  52.414  53.247  1.00  0.00     0.041 C 
ATOM      3  O   UNL     1     115.216  51.413  52.583  1.00  0.00    -0.550 OA
ATOM      4  O   UNL     1     115.159  53.683  52.886  1.00  0.00    -0.550 OA
ENDBRANCH   1   2
BRANCH   1   5
ATOM      5  C   UNL     1     117.937  52.241  54.058  1.00  0.00     0.003 C 
ATOM      6  C   UNL     1     118.653  53.464  54.624  1.00  0.00     0.004 C 
ENDBRANCH   1   5
TORSDOF 2
ENDMDL
MODEL 7
REMARK VINA RESULT:    -2.260     13.072     13.601
REMARK INTER + INTRA:          -2.582
REMARK INTER:                  -2.512
REMARK INTRA:                  -0.070
REMARK UNBOUND:                -0.058
REMARK SMILES CCCC(=O)[O-]
REMARK SMILES IDX 3 1 4 2 5 3 6 4 2 5 1 6
REMARK H PARENT
REMARK Flexibility Score: inf
ROOT
ATOM      1  C   UNL     1     116.468  52.541  54.671  1.00  0.00     0.052 C 
ENDROOT
BRANCH   1   2
ATOM      2  C   UNL     1     117.904  52.592  54.257  1.00  0.00     0.041 C 
ATOM      3  O   UNL     1     118.616  53.584  54.565  1.00  0.00    -0.550 OA
ATOM      4  O   UNL     1     118.470  51.522  53.575  1.00  0.00    -0.550 OA
ENDBRANCH   1   2
BRANCH   1   5
ATOM      5  C   UNL     1     115.567  52.304  53.455  1.00  0.00     0.003 C 
ATOM      6  C   UNL     1     115.527  53.534  52.552  1.00  0.00     0.004 C 
ENDBRANCH   1   5
TORSDOF 2
ENDMDL
MODEL 8
REMARK VINA RESULT:    -2.255     12.931     13.519
REMARK INTER + INTRA:          -2.577
REMARK INTER:                  -2.536
REMARK INTRA:                  -0.041
REMARK UNBOUND:                -0.058
REMARK SMILES CCCC(=O)[O-]
REMARK SMILES IDX 3 1 4 2 5 3 6 4 2 5 1 6
REMARK H PARENT
REMARK Flexibility Score: inf
ROOT
ATOM      1  C   UNL     1     117.901  52.217  54.054  1.00  0.00     0.052 C 
ENDROOT
BRANCH   1   2
ATOM      2  C   UNL     1     118.600  53.514  54.311  1.00  0.00     0.041 C 
ATOM      3  O   UNL     1     118.918  54.262  53.350  1.00  0.00    -0.550 OA
ATOM      4  O   UNL     1     118.855  53.920  55.614  1.00  0.00    -0.550 OA
ENDBRANCH   1   2
BRANCH   1   5
ATOM      5  C   UNL     1     116.460  52.273  54.569  1.00  0.00     0.003 C 
ATOM      6  C   UNL     1     115.490  52.649  53.453  1.00  0.00     0.004 C 
ENDBRANCH   1   5
TORSDOF 2
ENDMDL
MODEL 9
REMARK VINA RESULT:    -2.252     12.941     13.521
REMARK INTER + INTRA:          -2.573
REMARK INTER:                  -2.545
REMARK INTRA:                  -0.027
REMARK UNBOUND:                -0.058
REMARK SMILES CCCC(=O)[O-]
REMARK SMILES IDX 3 1 4 2 5 3 6 4 2 5 1 6
REMARK H PARENT
REMARK Flexibility Score: inf
ROOT
ATOM      1  C   UNL     1     115.335  53.494  52.760  1.00  0.00     0.052 C 
ENDROOT
BRANCH   1   2
ATOM      2  C   UNL     1     115.461  53.379  51.274  1.00  0.00     0.041 C 
ATOM      3  O   UNL     1     114.948  54.251  50.526  1.00  0.00    -0.550 OA
ATOM      4  O   UNL     1     116.187  52.334  50.717  1.00  0.00    -0.550 OA
ENDBRANCH   1   2
BRANCH   1   5
ATOM      5  C   UNL     1     115.605  52.143  53.428  1.00  0.00     0.003 C 
ATOM      6  C   UNL     1     116.559  52.294  54.610  1.00  0.00     0.004 C 
ENDBRANCH   1   5
TORSDOF 2
ENDMDL
