MODEL 1
REMARK VINA RESULT:    -0.405      0.000      0.000
REMARK INTER + INTRA:          -2.805
REMARK INTER:                  -0.927
REMARK INTRA:                  -1.878
REMARK UNBOUND:                -1.878
REMARK SMILES CCCCCCCCCCCCCCCCCCCCCCCC(=O)[O-]
REMARK SMILES IDX 13 1 14 2 15 3 16 4 17 5 18 6 19 7 20 8 21 9 22 10 23 11
REMARK SMILES IDX 24 12 25 13 26 14 12 15 11 16 10 17 9 18 8 19 7 20 6 21 5 22
REMARK SMILES IDX 4 23 3 24 2 25 1 26
REMARK H PARENT
REMARK Flexibility Score: inf
ROOT
ATOM      1  C   UNL     1     -20.325  -1.868  11.268  1.00  0.00     0.000 C 
ENDROOT
BRANCH   1   2
ATOM      2  C   UNL     1     -20.924  -1.386   9.933  1.00  0.00     0.000 C 
BRANCH   2   3
ATOM      3  C   UNL     1     -20.546  -2.233   8.705  1.00  0.00     0.000 C 
BRANCH   3   4
ATOM      4  C   UNL     1     -19.869  -3.581   9.025  1.00  0.00     0.000 C 
BRANCH   4   5
ATOM      5  C   UNL     1     -19.904  -4.615   7.882  1.00  0.00     0.000 C 
BRANCH   5   6
ATOM      6  C   UNL     1     -20.473  -5.995   8.267  1.00  0.00     0.000 C 
BRANCH   6   7
ATOM      7  C   UNL     1     -21.902  -5.978   8.839  1.00  0.00     0.000 C 
BRANCH   7   8
ATOM      8  C   UNL     1     -22.784  -7.106   8.275  1.00  0.00     0.000 C 
BRANCH   8   9
ATOM      9  C   UNL     1     -24.256  -6.979   8.700  1.00  0.00     0.000 C 
BRANCH   9  10
ATOM     10  C   UNL     1     -25.240  -7.672   7.733  1.00  0.00     0.006 C 
BRANCH  10  11
ATOM     11  C   UNL     1     -25.254  -9.194   7.918  1.00  0.00     0.053 C 
BRANCH  11  12
ATOM     12  C   UNL     1     -26.658  -9.709   7.942  1.00  0.00     0.041 C 
ATOM     13  O   UNL     1     -27.286  -9.889   6.864  1.00  0.00    -0.550 OA
ATOM     14  O   UNL     1     -27.292  -9.943   9.156  1.00  0.00    -0.550 OA
ENDBRANCH  11  12
ENDBRANCH  10  11
ENDBRANCH   9  10
ENDBRANCH   8   9
ENDBRANCH   7   8
ENDBRANCH   6   7
ENDBRANCH   5   6
ENDBRANCH   4   5
ENDBRANCH   3   4
ENDBRANCH   2   3
ENDBRANCH   1   2
BRANCH   1  15
ATOM     15  C   UNL     1     -21.370  -2.427  12.259  1.00  0.00     0.000 C 
BRANCH  15  16
ATOM     16  C   UNL     1     -21.766  -1.468  13.402  1.00  0.00     0.000 C 
BRANCH  16  17
ATOM     17  C   UNL     1     -20.841  -0.249  13.605  1.00  0.00     0.000 C 
BRANCH  17  18
ATOM     18  C   UNL     1     -21.534   1.122  13.511  1.00  0.00    -0.000 C 
BRANCH  18  19
ATOM     19  C   UNL     1     -22.456   1.237  12.285  1.00  0.00    -0.000 C 
BRANCH  19  20
ATOM     20  C   UNL     1     -21.722   1.746  11.031  1.00  0.00    -0.000 C 
BRANCH  20  21
ATOM     21  C   UNL     1     -22.573   1.791   9.749  1.00  0.00    -0.000 C 
BRANCH  21  22
ATOM     22  C   UNL     1     -22.214   2.972   8.831  1.00  0.00    -0.000 C 
BRANCH  22  23
ATOM     23  C   UNL     1     -21.512   2.533   7.533  1.00  0.00    -0.000 C 
BRANCH  23  24
ATOM     24  C   UNL     1     -21.041   1.066   7.505  1.00  0.00    -0.000 C 
BRANCH  24  25
ATOM     25  C   UNL     1     -21.455   0.326   6.225  1.00  0.00    -0.003 C 
ATOM     26  C   UNL     1     -20.280  -0.447   5.632  1.00  0.00     0.004 C 
ENDBRANCH  24  25
ENDBRANCH  23  24
ENDBRANCH  22  23
ENDBRANCH  21  22
ENDBRANCH  20  21
ENDBRANCH  19  20
ENDBRANCH  18  19
ENDBRANCH  17  18
ENDBRANCH  16  17
ENDBRANCH  15  16
ENDBRANCH   1  15
TORSDOF 22
ENDMDL
MODEL 2
REMARK VINA RESULT:     0.024      8.334     12.704
REMARK INTER + INTRA:          -1.823
REMARK INTER:                  -0.516
REMARK INTRA:                  -1.307
REMARK UNBOUND:                -1.878
REMARK SMILES CCCCCCCCCCCCCCCCCCCCCCCC(=O)[O-]
REMARK SMILES IDX 13 1 14 2 15 3 16 4 17 5 18 6 19 7 20 8 21 9 22 10 23 11
REMARK SMILES IDX 24 12 25 13 26 14 12 15 11 16 10 17 9 18 8 19 7 20 6 21 5 22
REMARK SMILES IDX 4 23 3 24 2 25 1 26
REMARK H PARENT
REMARK Flexibility Score: inf
ROOT
ATOM      1  C   UNL     1     -21.725   2.831   8.595  1.00  0.00     0.000 C 
ENDROOT
BRANCH   1   2
ATOM      2  C   UNL     1     -22.863   3.865   8.695  1.00  0.00     0.000 C 
BRANCH   2   3
ATOM      3  C   UNL     1     -22.405   5.321   8.891  1.00  0.00     0.000 C 
BRANCH   3   4
ATOM      4  C   UNL     1     -21.000   5.488   9.501  1.00  0.00     0.000 C 
BRANCH   4   5
ATOM      5  C   UNL     1     -20.221   6.727   9.014  1.00  0.00     0.000 C 
BRANCH   5   6
ATOM      6  C   UNL     1     -18.790   6.860   9.572  1.00  0.00     0.000 C 
BRANCH   6   7
ATOM      7  C   UNL     1     -18.167   8.262   9.450  1.00  0.00     0.000 C 
BRANCH   7   8
ATOM      8  C   UNL     1     -16.629   8.229   9.401  1.00  0.00     0.000 C 
BRANCH   8   9
ATOM      9  C   UNL     1     -15.988   9.452  10.078  1.00  0.00     0.000 C 
BRANCH   9  10
ATOM     10  C   UNL     1     -15.381   9.143  11.464  1.00  0.00     0.006 C 
BRANCH  10  11
ATOM     11  C   UNL     1     -14.258  10.120  11.832  1.00  0.00     0.053 C 
BRANCH  11  12
ATOM     12  C   UNL     1     -13.723   9.819  13.197  1.00  0.00     0.041 C 
ATOM     13  O   UNL     1     -14.492   9.828  14.195  1.00  0.00    -0.550 OA
ATOM     14  O   UNL     1     -12.366   9.576  13.374  1.00  0.00    -0.550 OA
ENDBRANCH  11  12
ENDBRANCH  10  11
ENDBRANCH   9  10
ENDBRANCH   8   9
ENDBRANCH   7   8
ENDBRANCH   6   7
ENDBRANCH   5   6
ENDBRANCH   4   5
ENDBRANCH   3   4
ENDBRANCH   2   3
ENDBRANCH   1   2
BRANCH   1  15
ATOM     15  C   UNL     1     -21.966   1.549   9.423  1.00  0.00     0.000 C 
BRANCH  15  16
ATOM     16  C   UNL     1     -22.541   1.783  10.837  1.00  0.00     0.000 C 
BRANCH  16  17
ATOM     17  C   UNL     1     -21.592   1.455  12.010  1.00  0.00     0.000 C 
BRANCH  17  18
ATOM     18  C   UNL     1     -22.132   0.429  13.021  1.00  0.00    -0.000 C 
BRANCH  18  19
ATOM     19  C   UNL     1     -21.108  -0.667  13.358  1.00  0.00    -0.000 C 
BRANCH  19  20
ATOM     20  C   UNL     1     -21.242  -1.909  12.457  1.00  0.00    -0.000 C 
BRANCH  20  21
ATOM     21  C   UNL     1     -20.316  -1.928  11.227  1.00  0.00    -0.000 C 
BRANCH  21  22
ATOM     22  C   UNL     1     -20.999  -1.409   9.951  1.00  0.00    -0.000 C 
BRANCH  22  23
ATOM     23  C   UNL     1     -20.476  -2.086   8.671  1.00  0.00    -0.000 C 
BRANCH  23  24
ATOM     24  C   UNL     1     -21.119  -1.596   7.360  1.00  0.00    -0.000 C 
BRANCH  24  25
ATOM     25  C   UNL     1     -20.602  -0.220   6.914  1.00  0.00    -0.003 C 
ATOM     26  C   UNL     1     -21.534   0.408   5.881  1.00  0.00     0.004 C 
ENDBRANCH  24  25
ENDBRANCH  23  24
ENDBRANCH  22  23
ENDBRANCH  21  22
ENDBRANCH  20  21
ENDBRANCH  19  20
ENDBRANCH  18  19
ENDBRANCH  17  18
ENDBRANCH  16  17
ENDBRANCH  15  16
ENDBRANCH   1  15
TORSDOF 22
ENDMDL
MODEL 3
REMARK VINA RESULT:     0.106      7.239     11.266
REMARK INTER + INTRA:          -1.636
REMARK INTER:                   0.452
REMARK INTRA:                  -2.087
REMARK UNBOUND:                -1.878
REMARK SMILES CCCCCCCCCCCCCCCCCCCCCCCC(=O)[O-]
REMARK SMILES IDX 13 1 14 2 15 3 16 4 17 5 18 6 19 7 20 8 21 9 22 10 23 11
REMARK SMILES IDX 24 12 25 13 26 14 12 15 11 16 10 17 9 18 8 19 7 20 6 21 5 22
REMARK SMILES IDX 4 23 3 24 2 25 1 26
REMARK H PARENT
REMARK Flexibility Score: inf
ROOT
ATOM      1  C   UNL     1     -22.348   1.291  12.001  1.00  0.00     0.000 C 
ENDROOT
BRANCH   1   2
ATOM      2  C   UNL     1     -21.544   1.899  10.836  1.00  0.00     0.000 C 
BRANCH   2   3
ATOM      3  C   UNL     1     -22.297   1.974   9.496  1.00  0.00     0.000 C 
BRANCH   3   4
ATOM      4  C   UNL     1     -22.996   3.319   9.212  1.00  0.00     0.000 C 
BRANCH   4   5
ATOM      5  C   UNL     1     -22.238   4.257   8.252  1.00  0.00     0.000 C 
BRANCH   5   6
ATOM      6  C   UNL     1     -21.989   5.680   8.789  1.00  0.00     0.000 C 
BRANCH   6   7
ATOM      7  C   UNL     1     -20.793   5.819   9.749  1.00  0.00     0.000 C 
BRANCH   7   8
ATOM      8  C   UNL     1     -19.697   6.753   9.205  1.00  0.00     0.000 C 
BRANCH   8   9
ATOM      9  C   UNL     1     -18.424   6.739  10.068  1.00  0.00     0.000 C 
BRANCH   9  10
ATOM     10  C   UNL     1     -17.236   7.488   9.426  1.00  0.00     0.006 C 
BRANCH  10  11
ATOM     11  C   UNL     1     -17.155   8.947   9.893  1.00  0.00     0.053 C 
BRANCH  11  12
ATOM     12  C   UNL     1     -15.741   9.433   9.859  1.00  0.00     0.041 C 
ATOM     13  O   UNL     1     -15.155   9.754  10.928  1.00  0.00    -0.550 OA
ATOM     14  O   UNL     1     -15.084   9.579   8.643  1.00  0.00    -0.550 OA
ENDBRANCH  11  12
ENDBRANCH  10  11
ENDBRANCH   9  10
ENDBRANCH   8   9
ENDBRANCH   7   8
ENDBRANCH   6   7
ENDBRANCH   5   6
ENDBRANCH   4   5
ENDBRANCH   3   4
ENDBRANCH   2   3
ENDBRANCH   1   2
BRANCH   1  15
ATOM     15  C   UNL     1     -21.650   1.412  13.375  1.00  0.00     0.000 C 
BRANCH  15  16
ATOM     16  C   UNL     1     -21.116   0.084  13.954  1.00  0.00     0.000 C 
BRANCH  16  17
ATOM     17  C   UNL     1     -22.059  -1.131  13.828  1.00  0.00     0.000 C 
BRANCH  17  18
ATOM     18  C   UNL     1     -21.552  -2.261  12.915  1.00  0.00    -0.000 C 
BRANCH  18  19
ATOM     19  C   UNL     1     -20.295  -1.864  12.122  1.00  0.00    -0.000 C 
BRANCH  19  20
ATOM     20  C   UNL     1     -20.593  -1.553  10.644  1.00  0.00    -0.000 C 
BRANCH  20  21
ATOM     21  C   UNL     1     -20.674  -2.782   9.720  1.00  0.00    -0.000 C 
BRANCH  21  22
ATOM     22  C   UNL     1     -20.557  -2.422   8.230  1.00  0.00    -0.000 C 
BRANCH  22  23
ATOM     23  C   UNL     1     -21.097  -1.016   7.908  1.00  0.00    -0.000 C 
BRANCH  23  24
ATOM     24  C   UNL     1     -21.565  -0.809   6.455  1.00  0.00    -0.000 C 
BRANCH  24  25
ATOM     25  C   UNL     1     -21.557   0.665   6.024  1.00  0.00    -0.003 C 
ATOM     26  C   UNL     1     -20.401   1.422   6.673  1.00  0.00     0.004 C 
ENDBRANCH  24  25
ENDBRANCH  23  24
ENDBRANCH  22  23
ENDBRANCH  21  22
ENDBRANCH  20  21
ENDBRANCH  19  20
ENDBRANCH  18  19
ENDBRANCH  17  18
ENDBRANCH  16  17
ENDBRANCH  15  16
ENDBRANCH   1  15
TORSDOF 22
ENDMDL
MODEL 4
REMARK VINA RESULT:     0.158      0.725      4.009
REMARK INTER + INTRA:          -1.516
REMARK INTER:                   0.198
REMARK INTRA:                  -1.714
REMARK UNBOUND:                -1.878
REMARK SMILES CCCCCCCCCCCCCCCCCCCCCCCC(=O)[O-]
REMARK SMILES IDX 13 1 14 2 15 3 16 4 17 5 18 6 19 7 20 8 21 9 22 10 23 11
REMARK SMILES IDX 24 12 25 13 26 14 12 15 11 16 10 17 9 18 8 19 7 20 6 21 5 22
REMARK SMILES IDX 4 23 3 24 2 25 1 26
REMARK H PARENT
REMARK Flexibility Score: inf
ROOT
ATOM      1  C   UNL     1     -21.282   0.556   6.230  1.00  0.00     0.000 C 
ENDROOT
BRANCH   1   2
ATOM      2  C   UNL     1     -21.694  -0.900   6.518  1.00  0.00     0.000 C 
BRANCH   2   3
ATOM      3  C   UNL     1     -20.692  -1.706   7.363  1.00  0.00     0.000 C 
BRANCH   3   4
ATOM      4  C   UNL     1     -20.917  -3.231   7.367  1.00  0.00     0.000 C 
BRANCH   4   5
ATOM      5  C   UNL     1     -19.900  -4.037   8.200  1.00  0.00     0.000 C 
BRANCH   5   6
ATOM      6  C   UNL     1     -20.140  -5.560   8.227  1.00  0.00     0.000 C 
BRANCH   6   7
ATOM      7  C   UNL     1     -21.448  -6.006   8.905  1.00  0.00     0.000 C 
BRANCH   7   8
ATOM      8  C   UNL     1     -22.376  -6.785   7.958  1.00  0.00     0.000 C 
BRANCH   8   9
ATOM      9  C   UNL     1     -23.723  -7.142   8.607  1.00  0.00     0.000 C 
BRANCH   9  10
ATOM     10  C   UNL     1     -24.323  -8.470   8.094  1.00  0.00     0.006 C 
BRANCH  10  11
ATOM     11  C   UNL     1     -25.727  -8.279   7.506  1.00  0.00     0.053 C 
BRANCH  11  12
ATOM     12  C   UNL     1     -26.576  -9.482   7.770  1.00  0.00     0.041 C 
ATOM     13  O   UNL     1     -27.200 -10.036   6.826  1.00  0.00    -0.550 OA
ATOM     14  O   UNL     1     -26.719  -9.962   9.066  1.00  0.00    -0.550 OA
ENDBRANCH  11  12
ENDBRANCH  10  11
ENDBRANCH   9  10
ENDBRANCH   8   9
ENDBRANCH   7   8
ENDBRANCH   6   7
ENDBRANCH   5   6
ENDBRANCH   4   5
ENDBRANCH   3   4
ENDBRANCH   2   3
ENDBRANCH   1   2
BRANCH   1  15
ATOM     15  C   UNL     1     -20.950   1.377   7.496  1.00  0.00     0.000 C 
BRANCH  15  16
ATOM     16  C   UNL     1     -21.676   2.736   7.601  1.00  0.00     0.000 C 
BRANCH  16  17
ATOM     17  C   UNL     1     -22.457   2.980   8.909  1.00  0.00     0.000 C 
BRANCH  17  18
ATOM     18  C   UNL     1     -22.552   1.767   9.851  1.00  0.00    -0.000 C 
BRANCH  18  19
ATOM     19  C   UNL     1     -21.667   1.916  11.100  1.00  0.00    -0.000 C 
BRANCH  19  20
ATOM     20  C   UNL     1     -22.248   1.201  12.334  1.00  0.00    -0.000 C 
BRANCH  20  21
ATOM     21  C   UNL     1     -21.350   1.221  13.585  1.00  0.00    -0.000 C 
BRANCH  21  22
ATOM     22  C   UNL     1     -20.919  -0.184  14.037  1.00  0.00    -0.000 C 
BRANCH  22  23
ATOM     23  C   UNL     1     -22.034  -1.235  13.880  1.00  0.00    -0.000 C 
BRANCH  23  24
ATOM     24  C   UNL     1     -21.757  -2.336  12.840  1.00  0.00    -0.000 C 
BRANCH  24  25
ATOM     25  C   UNL     1     -20.444  -2.122  12.072  1.00  0.00    -0.003 C 
ATOM     26  C   UNL     1     -20.703  -1.507  10.700  1.00  0.00     0.004 C 
ENDBRANCH  24  25
ENDBRANCH  23  24
ENDBRANCH  22  23
ENDBRANCH  21  22
ENDBRANCH  20  21
ENDBRANCH  19  20
ENDBRANCH  18  19
ENDBRANCH  17  18
ENDBRANCH  16  17
ENDBRANCH  15  16
ENDBRANCH   1  15
TORSDOF 22
ENDMDL
MODEL 5
REMARK VINA RESULT:     0.175      5.596      8.073
REMARK INTER + INTRA:          -1.478
REMARK INTER:                   0.063
REMARK INTRA:                  -1.541
REMARK UNBOUND:                -1.878
REMARK SMILES CCCCCCCCCCCCCCCCCCCCCCCC(=O)[O-]
REMARK SMILES IDX 13 1 14 2 15 3 16 4 17 5 18 6 19 7 20 8 21 9 22 10 23 11
REMARK SMILES IDX 24 12 25 13 26 14 12 15 11 16 10 17 9 18 8 19 7 20 6 21 5 22
REMARK SMILES IDX 4 23 3 24 2 25 1 26
REMARK H PARENT
REMARK Flexibility Score: inf
ROOT
ATOM      1  C   UNL     1     -21.856   1.542  10.456  1.00  0.00     0.000 C 
ENDROOT
BRANCH   1   2
ATOM      2  C   UNL     1     -22.489   1.141  11.802  1.00  0.00     0.000 C 
BRANCH   2   3
ATOM      3  C   UNL     1     -21.486   0.813  12.922  1.00  0.00     0.000 C 
BRANCH   3   4
ATOM      4  C   UNL     1     -21.929  -0.300  13.893  1.00  0.00     0.000 C 
BRANCH   4   5
ATOM      5  C   UNL     1     -21.376  -1.703  13.572  1.00  0.00     0.000 C 
BRANCH   5   6
ATOM      6  C   UNL     1     -20.439  -1.771  12.350  1.00  0.00     0.000 C 
BRANCH   6   7
ATOM      7  C   UNL     1     -21.055  -2.399  11.086  1.00  0.00     0.000 C 
BRANCH   7   8
ATOM      8  C   UNL     1     -20.670  -1.649   9.799  1.00  0.00     0.000 C 
BRANCH   8   9
ATOM      9  C   UNL     1     -20.287  -2.597   8.651  1.00  0.00     0.000 C 
BRANCH   9  10
ATOM     10  C   UNL     1     -20.897  -2.197   7.290  1.00  0.00     0.006 C 
BRANCH  10  11
ATOM     11  C   UNL     1     -21.475  -0.777   7.314  1.00  0.00     0.053 C 
BRANCH  11  12
ATOM     12  C   UNL     1     -20.620   0.153   6.510  1.00  0.00     0.041 C 
ATOM     13  O   UNL     1     -20.594   1.383   6.782  1.00  0.00    -0.550 OA
ATOM     14  O   UNL     1     -19.892  -0.331   5.430  1.00  0.00    -0.550 OA
ENDBRANCH  11  12
ENDBRANCH  10  11
ENDBRANCH   9  10
ENDBRANCH   8   9
ENDBRANCH   7   8
ENDBRANCH   6   7
ENDBRANCH   5   6
ENDBRANCH   4   5
ENDBRANCH   3   4
ENDBRANCH   2   3
ENDBRANCH   1   2
BRANCH   1  15
ATOM     15  C   UNL     1     -22.809   2.320   9.521  1.00  0.00     0.000 C 
BRANCH  15  16
ATOM     16  C   UNL     1     -22.121   3.351   8.600  1.00  0.00     0.000 C 
BRANCH  16  17
ATOM     17  C   UNL     1     -22.872   4.685   8.407  1.00  0.00     0.000 C 
BRANCH  17  18
ATOM     18  C   UNL     1     -22.061   5.948   8.744  1.00  0.00    -0.000 C 
BRANCH  18  19
ATOM     19  C   UNL     1     -20.601   5.633   9.114  1.00  0.00    -0.000 C 
BRANCH  19  20
ATOM     20  C   UNL     1     -19.911   6.789   9.860  1.00  0.00    -0.000 C 
BRANCH  20  21
ATOM     21  C   UNL     1     -18.379   6.838   9.717  1.00  0.00    -0.000 C 
BRANCH  21  22
ATOM     22  C   UNL     1     -17.827   8.272   9.653  1.00  0.00    -0.000 C 
BRANCH  22  23
ATOM     23  C   UNL     1     -16.391   8.340   9.102  1.00  0.00    -0.000 C 
BRANCH  23  24
ATOM     24  C   UNL     1     -15.535   9.502   9.640  1.00  0.00    -0.000 C 
BRANCH  24  25
ATOM     25  C   UNL     1     -15.789   9.799  11.125  1.00  0.00    -0.003 C 
ATOM     26  C   UNL     1     -14.477   9.978  11.883  1.00  0.00     0.004 C 
ENDBRANCH  24  25
ENDBRANCH  23  24
ENDBRANCH  22  23
ENDBRANCH  21  22
ENDBRANCH  20  21
ENDBRANCH  19  20
ENDBRANCH  18  19
ENDBRANCH  17  18
ENDBRANCH  16  17
ENDBRANCH  15  16
ENDBRANCH   1  15
TORSDOF 22
ENDMDL
MODEL 6
REMARK VINA RESULT:     0.379      3.248      8.909
REMARK INTER + INTRA:          -1.011
REMARK INTER:                   0.224
REMARK INTRA:                  -1.234
REMARK UNBOUND:                -1.878
REMARK SMILES CCCCCCCCCCCCCCCCCCCCCCCC(=O)[O-]
REMARK SMILES IDX 13 1 14 2 15 3 16 4 17 5 18 6 19 7 20 8 21 9 22 10 23 11
REMARK SMILES IDX 24 12 25 13 26 14 12 15 11 16 10 17 9 18 8 19 7 20 6 21 5 22
REMARK SMILES IDX 4 23 3 24 2 25 1 26
REMARK H PARENT
REMARK Flexibility Score: inf
ROOT
ATOM      1  C   UNL     1     -20.590  -1.838  12.050  1.00  0.00     0.000 C 
ENDROOT
BRANCH   1   2
ATOM      2  C   UNL     1     -21.694  -2.000  13.112  1.00  0.00     0.000 C 
BRANCH   2   3
ATOM      3  C   UNL     1     -22.143  -0.693  13.790  1.00  0.00     0.000 C 
BRANCH   3   4
ATOM      4  C   UNL     1     -21.027   0.350  14.003  1.00  0.00     0.000 C 
BRANCH   4   5
ATOM      5  C   UNL     1     -21.350   1.765  13.483  1.00  0.00     0.000 C 
BRANCH   5   6
ATOM      6  C   UNL     1     -22.286   1.813  12.259  1.00  0.00     0.000 C 
BRANCH   6   7
ATOM      7  C   UNL     1     -21.612   1.515  10.907  1.00  0.00     0.000 C 
BRANCH   7   8
ATOM      8  C   UNL     1     -22.563   1.706   9.712  1.00  0.00     0.000 C 
BRANCH   8   9
ATOM      9  C   UNL     1     -22.095   2.812   8.752  1.00  0.00     0.000 C 
BRANCH   9  10
ATOM     10  C   UNL     1     -21.422   2.273   7.471  1.00  0.00     0.006 C 
BRANCH  10  11
ATOM     11  C   UNL     1     -20.966   0.817   7.630  1.00  0.00     0.053 C 
BRANCH  11  12
ATOM     12  C   UNL     1     -21.161   0.062   6.353  1.00  0.00     0.041 C 
ATOM     13  O   UNL     1     -21.819   0.574   5.408  1.00  0.00    -0.550 OA
ATOM     14  O   UNL     1     -20.660  -1.228   6.224  1.00  0.00    -0.550 OA
ENDBRANCH  11  12
ENDBRANCH  10  11
ENDBRANCH   9  10
ENDBRANCH   8   9
ENDBRANCH   7   8
ENDBRANCH   6   7
ENDBRANCH   5   6
ENDBRANCH   4   5
ENDBRANCH   3   4
ENDBRANCH   2   3
ENDBRANCH   1   2
BRANCH   1  15
ATOM     15  C   UNL     1     -21.048  -2.171  10.612  1.00  0.00     0.000 C 
BRANCH  15  16
ATOM     16  C   UNL     1     -19.917  -2.592   9.648  1.00  0.00     0.000 C 
BRANCH  16  17
ATOM     17  C   UNL     1     -20.371  -3.110   8.267  1.00  0.00     0.000 C 
BRANCH  17  18
ATOM     18  C   UNL     1     -19.719  -4.428   7.815  1.00  0.00    -0.000 C 
BRANCH  18  19
ATOM     19  C   UNL     1     -20.233  -5.644   8.605  1.00  0.00    -0.000 C 
BRANCH  19  20
ATOM     20  C   UNL     1     -21.365  -6.393   7.879  1.00  0.00    -0.000 C 
BRANCH  20  21
ATOM     21  C   UNL     1     -22.659  -6.571   8.694  1.00  0.00    -0.000 C 
BRANCH  21  22
ATOM     22  C   UNL     1     -23.512  -7.758   8.216  1.00  0.00    -0.000 C 
BRANCH  22  23
ATOM     23  C   UNL     1     -25.025  -7.495   8.327  1.00  0.00    -0.000 C 
BRANCH  23  24
ATOM     24  C   UNL     1     -25.900  -8.251   7.310  1.00  0.00    -0.000 C 
BRANCH  24  25
ATOM     25  C   UNL     1     -26.387  -9.612   7.831  1.00  0.00    -0.003 C 
ATOM     26  C   UNL     1     -27.567 -10.124   7.010  1.00  0.00     0.004 C 
ENDBRANCH  24  25
ENDBRANCH  23  24
ENDBRANCH  22  23
ENDBRANCH  21  22
ENDBRANCH  20  21
ENDBRANCH  19  20
ENDBRANCH  18  19
ENDBRANCH  17  18
ENDBRANCH  16  17
ENDBRANCH  15  16
ENDBRANCH   1  15
TORSDOF 22
ENDMDL
MODEL 7
REMARK VINA RESULT:     0.427      3.741      9.704
REMARK INTER + INTRA:          -0.902
REMARK INTER:                   0.247
REMARK INTRA:                  -1.149
REMARK UNBOUND:                -1.878
REMARK SMILES CCCCCCCCCCCCCCCCCCCCCCCC(=O)[O-]
REMARK SMILES IDX 13 1 14 2 15 3 16 4 17 5 18 6 19 7 20 8 21 9 22 10 23 11
REMARK SMILES IDX 24 12 25 13 26 14 12 15 11 16 10 17 9 18 8 19 7 20 6 21 5 22
REMARK SMILES IDX 4 23 3 24 2 25 1 26
REMARK H PARENT
REMARK Flexibility Score: inf
ROOT
ATOM      1  C   UNL     1     -19.974  -4.213   7.933  1.00  0.00     0.000 C 
ENDROOT
BRANCH   1   2
ATOM      2  C   UNL     1     -20.341  -3.168   9.003  1.00  0.00     0.000 C 
BRANCH   2   3
ATOM      3  C   UNL     1     -20.596  -1.748   8.467  1.00  0.00     0.000 C 
BRANCH   3   4
ATOM      4  C   UNL     1     -21.035  -1.675   6.991  1.00  0.00     0.000 C 
BRANCH   4   5
ATOM      5  C   UNL     1     -21.265  -0.250   6.449  1.00  0.00     0.000 C 
BRANCH   5   6
ATOM      6  C   UNL     1     -20.700   0.882   7.330  1.00  0.00     0.000 C 
BRANCH   6   7
ATOM      7  C   UNL     1     -21.715   1.543   8.279  1.00  0.00     0.000 C 
BRANCH   7   8
ATOM      8  C   UNL     1     -21.711   0.919   9.685  1.00  0.00     0.000 C 
BRANCH   8   9
ATOM      9  C   UNL     1     -22.481   1.766  10.713  1.00  0.00     0.000 C 
BRANCH   9  10
ATOM     10  C   UNL     1     -22.026   1.532  12.170  1.00  0.00     0.006 C 
BRANCH  10  11
ATOM     11  C   UNL     1     -21.357   0.164  12.351  1.00  0.00     0.053 C 
BRANCH  11  12
ATOM     12  C   UNL     1     -21.536  -0.328  13.753  1.00  0.00     0.041 C 
ATOM     13  O   UNL     1     -20.538  -0.705  14.425  1.00  0.00    -0.550 OA
ATOM     14  O   UNL     1     -22.810  -0.419  14.301  1.00  0.00    -0.550 OA
ENDBRANCH  11  12
ENDBRANCH  10  11
ENDBRANCH   9  10
ENDBRANCH   8   9
ENDBRANCH   7   8
ENDBRANCH   6   7
ENDBRANCH   5   6
ENDBRANCH   4   5
ENDBRANCH   3   4
ENDBRANCH   2   3
ENDBRANCH   1   2
BRANCH   1  15
ATOM     15  C   UNL     1     -20.243  -5.673   8.361  1.00  0.00     0.000 C 
BRANCH  15  16
ATOM     16  C   UNL     1     -21.630  -6.225   7.967  1.00  0.00     0.000 C 
BRANCH  16  17
ATOM     17  C   UNL     1     -22.530  -6.677   9.137  1.00  0.00     0.000 C 
BRANCH  17  18
ATOM     18  C   UNL     1     -24.025  -6.808   8.800  1.00  0.00    -0.000 C 
BRANCH  18  19
ATOM     19  C   UNL     1     -24.334  -8.055   7.954  1.00  0.00    -0.000 C 
BRANCH  19  20
ATOM     20  C   UNL     1     -25.808  -8.130   7.516  1.00  0.00    -0.000 C 
BRANCH  20  21
ATOM     21  C   UNL     1     -26.426  -9.541   7.536  1.00  0.00    -0.000 C 
BRANCH  21  22
ATOM     22  C   UNL     1     -26.622 -10.091   8.958  1.00  0.00    -0.000 C 
BRANCH  22  23
ATOM     23  C   UNL     1     -28.037  -9.840   9.510  1.00  0.00    -0.000 C 
BRANCH  23  24
ATOM     24  C   UNL     1     -28.096  -9.064  10.839  1.00  0.00    -0.000 C 
BRANCH  24  25
ATOM     25  C   UNL     1     -27.456  -7.670  10.751  1.00  0.00    -0.003 C 
ATOM     26  C   UNL     1     -27.873  -6.798  11.932  1.00  0.00     0.004 C 
ENDBRANCH  24  25
ENDBRANCH  23  24
ENDBRANCH  22  23
ENDBRANCH  21  22
ENDBRANCH  20  21
ENDBRANCH  19  20
ENDBRANCH  18  19
ENDBRANCH  17  18
ENDBRANCH  16  17
ENDBRANCH  15  16
ENDBRANCH   1  15
TORSDOF 22
ENDMDL
MODEL 8
REMARK VINA RESULT:     0.532      7.043      9.525
REMARK INTER + INTRA:          -0.661
REMARK INTER:                   0.276
REMARK INTRA:                  -0.937
REMARK UNBOUND:                -1.878
REMARK SMILES CCCCCCCCCCCCCCCCCCCCCCCC(=O)[O-]
REMARK SMILES IDX 13 1 14 2 15 3 16 4 17 5 18 6 19 7 20 8 21 9 22 10 23 11
REMARK SMILES IDX 24 12 25 13 26 14 12 15 11 16 10 17 9 18 8 19 7 20 6 21 5 22
REMARK SMILES IDX 4 23 3 24 2 25 1 26
REMARK H PARENT
REMARK Flexibility Score: inf
ROOT
ATOM      1  C   UNL     1     -21.944   4.281   8.491  1.00  0.00     0.000 C 
ENDROOT
BRANCH   1   2
ATOM      2  C   UNL     1     -22.480   2.982   9.123  1.00  0.00     0.000 C 
BRANCH   2   3
ATOM      3  C   UNL     1     -21.768   1.695   8.669  1.00  0.00     0.000 C 
BRANCH   3   4
ATOM      4  C   UNL     1     -21.205   1.730   7.234  1.00  0.00     0.000 C 
BRANCH   4   5
ATOM      5  C   UNL     1     -20.741   0.367   6.683  1.00  0.00     0.000 C 
BRANCH   5   6
ATOM      6  C   UNL     1     -21.462  -0.858   7.280  1.00  0.00     0.000 C 
BRANCH   6   7
ATOM      7  C   UNL     1     -20.619  -1.708   8.247  1.00  0.00     0.000 C 
BRANCH   7   8
ATOM      8  C   UNL     1     -20.642  -1.171   9.689  1.00  0.00     0.000 C 
BRANCH   8   9
ATOM      9  C   UNL     1     -20.173  -2.213  10.718  1.00  0.00     0.000 C 
BRANCH   9  10
ATOM     10  C   UNL     1     -20.746  -1.983  12.133  1.00  0.00     0.006 C 
BRANCH  10  11
ATOM     11  C   UNL     1     -21.704  -0.786  12.179  1.00  0.00     0.053 C 
BRANCH  11  12
ATOM     12  C   UNL     1     -21.667  -0.133  13.525  1.00  0.00     0.041 C 
ATOM     13  O   UNL     1     -21.240   1.046  13.646  1.00  0.00    -0.550 OA
ATOM     14  O   UNL     1     -22.058  -0.843  14.654  1.00  0.00    -0.550 OA
ENDBRANCH  11  12
ENDBRANCH  10  11
ENDBRANCH   9  10
ENDBRANCH   8   9
ENDBRANCH   7   8
ENDBRANCH   6   7
ENDBRANCH   5   6
ENDBRANCH   4   5
ENDBRANCH   3   4
ENDBRANCH   2   3
ENDBRANCH   1   2
BRANCH   1  15
ATOM     15  C   UNL     1     -21.380   5.291   9.515  1.00  0.00     0.000 C 
BRANCH  15  16
ATOM     16  C   UNL     1     -20.485   6.397   8.916  1.00  0.00     0.000 C 
BRANCH  16  17
ATOM     17  C   UNL     1     -19.225   6.755   9.732  1.00  0.00     0.000 C 
BRANCH  17  18
ATOM     18  C   UNL     1     -18.390   7.920   9.171  1.00  0.00    -0.000 C 
BRANCH  18  19
ATOM     19  C   UNL     1     -16.950   7.930   9.709  1.00  0.00    -0.000 C 
BRANCH  19  20
ATOM     20  C   UNL     1     -16.026   8.882   8.928  1.00  0.00    -0.000 C 
BRANCH  20  21
ATOM     21  C   UNL     1     -15.250   9.894   9.790  1.00  0.00    -0.000 C 
BRANCH  21  22
ATOM     22  C   UNL     1     -15.583   9.788  11.288  1.00  0.00    -0.000 C 
BRANCH  22  23
ATOM     23  C   UNL     1     -14.385  10.125  12.195  1.00  0.00    -0.000 C 
BRANCH  23  24
ATOM     24  C   UNL     1     -14.124   9.124  13.337  1.00  0.00    -0.000 C 
BRANCH  24  25
ATOM     25  C   UNL     1     -12.969   9.548  14.255  1.00  0.00    -0.003 C 
ATOM     26  C   UNL     1     -11.658   9.648  13.480  1.00  0.00     0.004 C 
ENDBRANCH  24  25
ENDBRANCH  23  24
ENDBRANCH  22  23
ENDBRANCH  21  22
ENDBRANCH  20  21
ENDBRANCH  19  20
ENDBRANCH  18  19
ENDBRANCH  17  18
ENDBRANCH  16  17
ENDBRANCH  15  16
ENDBRANCH   1  15
TORSDOF 22
ENDMDL
MODEL 9
REMARK VINA RESULT:     0.721      3.418      9.221
REMARK INTER + INTRA:          -0.230
REMARK INTER:                   1.023
REMARK INTRA:                  -1.253
REMARK UNBOUND:                -1.878
REMARK SMILES CCCCCCCCCCCCCCCCCCCCCCCC(=O)[O-]
REMARK SMILES IDX 13 1 14 2 15 3 16 4 17 5 18 6 19 7 20 8 21 9 22 10 23 11
REMARK SMILES IDX 24 12 25 13 26 14 12 15 11 16 10 17 9 18 8 19 7 20 6 21 5 22
REMARK SMILES IDX 4 23 3 24 2 25 1 26
REMARK H PARENT
REMARK Flexibility Score: inf
ROOT
ATOM      1  C   UNL     1     -20.906  -1.148   8.534  1.00  0.00     0.000 C 
ENDROOT
BRANCH   1   2
ATOM      2  C   UNL     1     -20.996  -1.637   7.076  1.00  0.00     0.000 C 
BRANCH   2   3
ATOM      3  C   UNL     1     -20.604  -0.594   6.015  1.00  0.00     0.000 C 
BRANCH   3   4
ATOM      4  C   UNL     1     -20.293   0.813   6.564  1.00  0.00     0.000 C 
BRANCH   4   5
ATOM      5  C   UNL     1     -21.506   1.762   6.647  1.00  0.00     0.000 C 
BRANCH   5   6
ATOM      6  C   UNL     1     -21.552   2.654   7.904  1.00  0.00     0.000 C 
BRANCH   6   7
ATOM      7  C   UNL     1     -22.497   2.169   9.018  1.00  0.00     0.000 C 
BRANCH   7   8
ATOM      8  C   UNL     1     -21.746   1.548  10.208  1.00  0.00     0.000 C 
BRANCH   8   9
ATOM      9  C   UNL     1     -22.586   1.533  11.497  1.00  0.00     0.000 C 
BRANCH   9  10
ATOM     10  C   UNL     1     -21.737   1.471  12.785  1.00  0.00     0.006 C 
BRANCH  10  11
ATOM     11  C   UNL     1     -22.240   0.395  13.755  1.00  0.00     0.053 C 
BRANCH  11  12
ATOM     12  C   UNL     1     -21.267  -0.739  13.836  1.00  0.00     0.041 C 
ATOM     13  O   UNL     1     -20.645  -0.964  14.909  1.00  0.00    -0.550 OA
ATOM     14  O   UNL     1     -21.010  -1.516  12.714  1.00  0.00    -0.550 OA
ENDBRANCH  11  12
ENDBRANCH  10  11
ENDBRANCH   9  10
ENDBRANCH   8   9
ENDBRANCH   7   8
ENDBRANCH   6   7
ENDBRANCH   5   6
ENDBRANCH   4   5
ENDBRANCH   3   4
ENDBRANCH   2   3
ENDBRANCH   1   2
BRANCH   1  15
ATOM     15  C   UNL     1     -20.314  -2.190   9.511  1.00  0.00     0.000 C 
BRANCH  15  16
ATOM     16  C   UNL     1     -20.779  -3.643   9.275  1.00  0.00     0.000 C 
BRANCH  16  17
ATOM     17  C   UNL     1     -19.868  -4.500   8.370  1.00  0.00     0.000 C 
BRANCH  17  18
ATOM     18  C   UNL     1     -20.302  -5.967   8.207  1.00  0.00    -0.000 C 
BRANCH  18  19
ATOM     19  C   UNL     1     -21.769  -6.106   7.768  1.00  0.00    -0.000 C 
BRANCH  19  20
ATOM     20  C   UNL     1     -22.657  -6.753   8.847  1.00  0.00    -0.000 C 
BRANCH  20  21
ATOM     21  C   UNL     1     -23.629  -7.831   8.334  1.00  0.00    -0.000 C 
BRANCH  21  22
ATOM     22  C   UNL     1     -25.102  -7.392   8.396  1.00  0.00    -0.000 C 
BRANCH  22  23
ATOM     23  C   UNL     1     -25.956  -7.993   7.264  1.00  0.00    -0.000 C 
BRANCH  23  24
ATOM     24  C   UNL     1     -26.137  -9.521   7.319  1.00  0.00    -0.000 C 
BRANCH  24  25
ATOM     25  C   UNL     1     -26.647 -10.019   8.679  1.00  0.00    -0.003 C 
ATOM     26  C   UNL     1     -28.169 -10.125   8.690  1.00  0.00     0.004 C 
ENDBRANCH  24  25
ENDBRANCH  23  24
ENDBRANCH  22  23
ENDBRANCH  21  22
ENDBRANCH  20  21
ENDBRANCH  19  20
ENDBRANCH  18  19
ENDBRANCH  17  18
ENDBRANCH  16  17
ENDBRANCH  15  16
ENDBRANCH   1  15
TORSDOF 22
ENDMDL
