MODEL 1
REMARK VINA RESULT:    -4.407      0.000      0.000
REMARK INTER + INTRA:          -6.012
REMARK INTER:                  -5.695
REMARK INTRA:                  -0.317
REMARK UNBOUND:                -0.317
REMARK SMILES CCCCCCC(=O)[O-]
REMARK SMILES IDX 5 1 6 2 7 3 8 4 9 5 4 6 3 7 2 8 1 9
REMARK H PARENT
REMARK Flexibility Score: inf
ROOT
ATOM      1  C   UNL     1       6.078   0.604  -0.665  1.00  0.00     0.006 C 
ENDROOT
BRANCH   1   2
ATOM      2  C   UNL     1       7.287   0.626  -1.609  1.00  0.00     0.053 C 
BRANCH   2   3
ATOM      3  C   UNL     1       6.836   0.649  -3.035  1.00  0.00     0.041 C 
ATOM      4  O   UNL     1       6.041   1.539  -3.434  1.00  0.00    -0.550 OA
ATOM      5  O   UNL     1       7.257  -0.343  -3.912  1.00  0.00    -0.550 OA
ENDBRANCH   2   3
ENDBRANCH   1   2
BRANCH   1   6
ATOM      6  C   UNL     1       6.083   1.768   0.343  1.00  0.00     0.000 C 
BRANCH   6   7
ATOM      7  C   UNL     1       6.597   3.108  -0.214  1.00  0.00    -0.000 C 
BRANCH   7   8
ATOM      8  C   UNL     1       7.659   3.761   0.682  1.00  0.00    -0.003 C 
ATOM      9  C   UNL     1       9.054   3.607   0.084  1.00  0.00     0.004 C 
ENDBRANCH   7   8
ENDBRANCH   6   7
ENDBRANCH   1   6
TORSDOF 5
ENDMDL
MODEL 2
REMARK VINA RESULT:    -4.056      1.074      1.411
REMARK INTER + INTRA:          -5.559
REMARK INTER:                  -5.444
REMARK INTRA:                  -0.115
REMARK UNBOUND:                -0.317
REMARK SMILES CCCCCCC(=O)[O-]
REMARK SMILES IDX 5 1 6 2 7 3 8 4 9 5 4 6 3 7 2 8 1 9
REMARK H PARENT
REMARK Flexibility Score: inf
ROOT
ATOM      1  C   UNL     1       6.430   1.790  -1.031  1.00  0.00     0.006 C 
ENDROOT
BRANCH   1   2
ATOM      2  C   UNL     1       7.181   0.646  -1.725  1.00  0.00     0.053 C 
BRANCH   2   3
ATOM      3  C   UNL     1       6.873   0.631  -3.188  1.00  0.00     0.041 C 
ATOM      4  O   UNL     1       6.197   1.559  -3.704  1.00  0.00    -0.550 OA
ATOM      5  O   UNL     1       7.294  -0.434  -3.976  1.00  0.00    -0.550 OA
ENDBRANCH   2   3
ENDBRANCH   1   2
BRANCH   1   6
ATOM      6  C   UNL     1       7.363   2.923  -0.566  1.00  0.00     0.000 C 
BRANCH   6   7
ATOM      7  C   UNL     1       6.903   3.666   0.701  1.00  0.00    -0.000 C 
BRANCH   7   8
ATOM      8  C   UNL     1       7.816   4.844   1.069  1.00  0.00    -0.003 C 
ATOM      9  C   UNL     1       7.296   6.149   0.475  1.00  0.00     0.004 C 
ENDBRANCH   7   8
ENDBRANCH   6   7
ENDBRANCH   1   6
TORSDOF 5
ENDMDL
MODEL 3
REMARK VINA RESULT:    -4.046      1.105      2.274
REMARK INTER + INTRA:          -5.546
REMARK INTER:                  -5.251
REMARK INTRA:                  -0.295
REMARK UNBOUND:                -0.317
REMARK SMILES CCCCCCC(=O)[O-]
REMARK SMILES IDX 5 1 6 2 7 3 8 4 9 5 4 6 3 7 2 8 1 9
REMARK H PARENT
REMARK Flexibility Score: inf
ROOT
ATOM      1  C   UNL     1       8.863   1.876  -2.122  1.00  0.00     0.006 C 
ENDROOT
BRANCH   1   2
ATOM      2  C   UNL     1       8.387   0.429  -2.307  1.00  0.00     0.053 C 
BRANCH   2   3
ATOM      3  C   UNL     1       7.448   0.333  -3.468  1.00  0.00     0.041 C 
ATOM      4  O   UNL     1       6.560   1.209  -3.639  1.00  0.00    -0.550 OA
ATOM      5  O   UNL     1       7.522  -0.751  -4.333  1.00  0.00    -0.550 OA
ENDBRANCH   2   3
ENDBRANCH   1   2
BRANCH   1   6
ATOM      6  C   UNL     1       8.423   2.484  -0.778  1.00  0.00     0.000 C 
BRANCH   6   7
ATOM      7  C   UNL     1       6.940   2.887  -0.701  1.00  0.00    -0.000 C 
BRANCH   7   8
ATOM      8  C   UNL     1       6.174   2.140   0.400  1.00  0.00    -0.003 C 
ATOM      9  C   UNL     1       5.712   0.769  -0.083  1.00  0.00     0.004 C 
ENDBRANCH   7   8
ENDBRANCH   6   7
ENDBRANCH   1   6
TORSDOF 5
ENDMDL
MODEL 4
REMARK VINA RESULT:    -3.942      1.331      1.762
REMARK INTER + INTRA:          -5.412
REMARK INTER:                  -5.246
REMARK INTRA:                  -0.165
REMARK UNBOUND:                -0.317
REMARK SMILES CCCCCCC(=O)[O-]
REMARK SMILES IDX 5 1 6 2 7 3 8 4 9 5 4 6 3 7 2 8 1 9
REMARK H PARENT
REMARK Flexibility Score: inf
ROOT
ATOM      1  C   UNL     1       6.575   0.970  -2.122  1.00  0.00     0.006 C 
ENDROOT
BRANCH   1   2
ATOM      2  C   UNL     1       7.965   0.376  -2.379  1.00  0.00     0.053 C 
BRANCH   2   3
ATOM      3  C   UNL     1       8.167   0.133  -3.842  1.00  0.00     0.041 C 
ATOM      4  O   UNL     1       8.909   0.895  -4.515  1.00  0.00    -0.550 OA
ATOM      5  O   UNL     1       7.495  -0.908  -4.472  1.00  0.00    -0.550 OA
ENDBRANCH   2   3
ENDBRANCH   1   2
BRANCH   1   6
ATOM      6  C   UNL     1       6.026   0.627  -0.725  1.00  0.00     0.000 C 
BRANCH   6   7
ATOM      7  C   UNL     1       6.065   1.783   0.291  1.00  0.00    -0.000 C 
BRANCH   7   8
ATOM      8  C   UNL     1       6.648   3.076  -0.296  1.00  0.00    -0.003 C 
ATOM      9  C   UNL     1       7.238   3.960   0.799  1.00  0.00     0.004 C 
ENDBRANCH   7   8
ENDBRANCH   6   7
ENDBRANCH   1   6
TORSDOF 5
ENDMDL
MODEL 5
REMARK VINA RESULT:    -3.937      3.281      4.892
REMARK INTER + INTRA:          -5.405
REMARK INTER:                  -5.211
REMARK INTRA:                  -0.194
REMARK UNBOUND:                -0.317
REMARK SMILES CCCCCCC(=O)[O-]
REMARK SMILES IDX 5 1 6 2 7 3 8 4 9 5 4 6 3 7 2 8 1 9
REMARK H PARENT
REMARK Flexibility Score: inf
ROOT
ATOM      1  C   UNL     1       6.537   3.303  -0.008  1.00  0.00     0.006 C 
ENDROOT
BRANCH   1   2
ATOM      2  C   UNL     1       7.795   3.796   0.719  1.00  0.00     0.053 C 
BRANCH   2   3
ATOM      3  C   UNL     1       7.670   5.250   1.051  1.00  0.00     0.041 C 
ATOM      4  O   UNL     1       8.268   5.725   2.051  1.00  0.00    -0.550 OA
ATOM      5  O   UNL     1       6.853   6.070   0.283  1.00  0.00    -0.550 OA
ENDBRANCH   2   3
ENDBRANCH   1   2
BRANCH   1   6
ATOM      6  C   UNL     1       6.076   1.913   0.468  1.00  0.00     0.000 C 
BRANCH   6   7
ATOM      7  C   UNL     1       6.097   0.816  -0.611  1.00  0.00    -0.000 C 
BRANCH   7   8
ATOM      8  C   UNL     1       7.102   1.102  -1.736  1.00  0.00    -0.003 C 
ATOM      9  C   UNL     1       6.400   1.212  -3.086  1.00  0.00     0.004 C 
ENDBRANCH   7   8
ENDBRANCH   6   7
ENDBRANCH   1   6
TORSDOF 5
ENDMDL
MODEL 6
REMARK VINA RESULT:    -3.882     19.494     20.210
REMARK INTER + INTRA:          -5.334
REMARK INTER:                  -5.060
REMARK INTRA:                  -0.274
REMARK UNBOUND:                -0.317
REMARK SMILES CCCCCCC(=O)[O-]
REMARK SMILES IDX 5 1 6 2 7 3 8 4 9 5 4 6 3 7 2 8 1 9
REMARK H PARENT
REMARK Flexibility Score: inf
ROOT
ATOM      1  C   UNL     1     -10.638  -4.218   5.431  1.00  0.00     0.006 C 
ENDROOT
BRANCH   1   2
ATOM      2  C   UNL     1     -10.735  -5.100   6.683  1.00  0.00     0.053 C 
BRANCH   2   3
ATOM      3  C   UNL     1      -9.377  -5.570   7.096  1.00  0.00     0.041 C 
ATOM      4  O   UNL     1      -9.255  -6.560   7.865  1.00  0.00    -0.550 OA
ATOM      5  O   UNL     1      -8.245  -4.885   6.671  1.00  0.00    -0.550 OA
ENDBRANCH   2   3
ENDBRANCH   1   2
BRANCH   1   6
ATOM      6  C   UNL     1     -11.030  -4.961   4.142  1.00  0.00     0.000 C 
BRANCH   6   7
ATOM      7  C   UNL     1     -11.024  -6.496   4.249  1.00  0.00    -0.000 C 
BRANCH   7   8
ATOM      8  C   UNL     1      -9.724  -7.127   3.729  1.00  0.00    -0.003 C 
ATOM      9  C   UNL     1      -9.323  -8.335   4.572  1.00  0.00     0.004 C 
ENDBRANCH   7   8
ENDBRANCH   6   7
ENDBRANCH   1   6
TORSDOF 5
ENDMDL
MODEL 7
REMARK VINA RESULT:    -3.804      3.758      5.147
REMARK INTER + INTRA:          -5.233
REMARK INTER:                  -5.003
REMARK INTRA:                  -0.230
REMARK UNBOUND:                -0.317
REMARK SMILES CCCCCCC(=O)[O-]
REMARK SMILES IDX 5 1 6 2 7 3 8 4 9 5 4 6 3 7 2 8 1 9
REMARK H PARENT
REMARK Flexibility Score: inf
ROOT
ATOM      1  C   UNL     1       8.506   3.431   0.083  1.00  0.00     0.006 C 
ENDROOT
BRANCH   1   2
ATOM      2  C   UNL     1       7.259   4.281   0.359  1.00  0.00     0.053 C 
BRANCH   2   3
ATOM      3  C   UNL     1       7.622   5.505   1.138  1.00  0.00     0.041 C 
ATOM      4  O   UNL     1       8.383   5.418   2.136  1.00  0.00    -0.550 OA
ATOM      5  O   UNL     1       7.081   6.736   0.789  1.00  0.00    -0.550 OA
ENDBRANCH   2   3
ENDBRANCH   1   2
BRANCH   1   6
ATOM      6  C   UNL     1       8.323   2.464  -1.101  1.00  0.00     0.000 C 
BRANCH   6   7
ATOM      7  C   UNL     1       6.863   2.117  -1.437  1.00  0.00    -0.000 C 
BRANCH   7   8
ATOM      8  C   UNL     1       6.392   0.811  -0.781  1.00  0.00    -0.003 C 
ATOM      9  C   UNL     1       5.542   1.091   0.455  1.00  0.00     0.004 C 
ENDBRANCH   7   8
ENDBRANCH   6   7
ENDBRANCH   1   6
TORSDOF 5
ENDMDL
MODEL 8
REMARK VINA RESULT:    -3.740      2.090      2.933
REMARK INTER + INTRA:          -5.150
REMARK INTER:                  -4.979
REMARK INTRA:                  -0.171
REMARK UNBOUND:                -0.317
REMARK SMILES CCCCCCC(=O)[O-]
REMARK SMILES IDX 5 1 6 2 7 3 8 4 9 5 4 6 3 7 2 8 1 9
REMARK H PARENT
REMARK Flexibility Score: inf
ROOT
ATOM      1  C   UNL     1       7.001   3.413   0.277  1.00  0.00     0.006 C 
ENDROOT
BRANCH   1   2
ATOM      2  C   UNL     1       7.518   2.619  -0.929  1.00  0.00     0.053 C 
BRANCH   2   3
ATOM      3  C   UNL     1       6.474   1.662  -1.412  1.00  0.00     0.041 C 
ATOM      4  O   UNL     1       5.918   0.871  -0.606  1.00  0.00    -0.550 OA
ATOM      5  O   UNL     1       6.149   1.612  -2.762  1.00  0.00    -0.550 OA
ENDBRANCH   2   3
ENDBRANCH   1   2
BRANCH   1   6
ATOM      6  C   UNL     1       8.133   4.031   1.117  1.00  0.00     0.000 C 
BRANCH   6   7
ATOM      7  C   UNL     1       7.936   5.513   1.483  1.00  0.00    -0.000 C 
BRANCH   7   8
ATOM      8  C   UNL     1       7.231   6.313   0.378  1.00  0.00    -0.003 C 
ATOM      9  C   UNL     1       7.936   7.643   0.126  1.00  0.00     0.004 C 
ENDBRANCH   7   8
ENDBRANCH   6   7
ENDBRANCH   1   6
TORSDOF 5
ENDMDL
MODEL 9
REMARK VINA RESULT:    -3.730     19.502     19.976
REMARK INTER + INTRA:          -5.137
REMARK INTER:                  -4.735
REMARK INTRA:                  -0.402
REMARK UNBOUND:                -0.317
REMARK SMILES CCCCCCC(=O)[O-]
REMARK SMILES IDX 5 1 6 2 7 3 8 4 9 5 4 6 3 7 2 8 1 9
REMARK H PARENT
REMARK Flexibility Score: inf
ROOT
ATOM      1  C   UNL     1     -10.772  -5.034   3.836  1.00  0.00     0.006 C 
ENDROOT
BRANCH   1   2
ATOM      2  C   UNL     1     -11.118  -6.521   3.986  1.00  0.00     0.053 C 
BRANCH   2   3
ATOM      3  C   UNL     1      -9.932  -7.370   3.653  1.00  0.00     0.041 C 
ATOM      4  O   UNL     1      -8.767  -6.947   3.876  1.00  0.00    -0.550 OA
ATOM      5  O   UNL     1     -10.112  -8.609   3.051  1.00  0.00    -0.550 OA
ENDBRANCH   2   3
ENDBRANCH   1   2
BRANCH   1   6
ATOM      6  C   UNL     1     -10.960  -4.240   5.141  1.00  0.00     0.000 C 
BRANCH   6   7
ATOM      7  C   UNL     1     -10.921  -5.084   6.427  1.00  0.00    -0.000 C 
BRANCH   7   8
ATOM      8  C   UNL     1      -9.497  -5.300   6.958  1.00  0.00    -0.003 C 
ATOM      9  C   UNL     1      -9.291  -6.743   7.408  1.00  0.00     0.004 C 
ENDBRANCH   7   8
ENDBRANCH   6   7
ENDBRANCH   1   6
TORSDOF 5
ENDMDL
