MODEL 1
REMARK VINA RESULT:    -7.054      0.000      0.000
REMARK INTER + INTRA:          -9.183
REMARK INTER:                  -9.115
REMARK INTRA:                  -0.068
REMARK UNBOUND:                -0.068
REMARK SMILES CCCCC(=O)c1ccccc1C(=O)[O-]
REMARK SMILES IDX 4 1 5 2 6 3 7 4 12 5 11 6 10 7 8 8 9 9 13 10 14 11 15 12
REMARK SMILES IDX 3 13 2 14 1 15
REMARK H PARENT
REMARK Flexibility Score: inf
ROOT
ATOM      1  C   UNL     1     152.259 154.578 160.594  1.00  0.00     0.081 C 
ENDROOT
BRANCH   1   2
ATOM      2  C   UNL     1     151.771 155.960 160.943  1.00  0.00     0.163 C 
ATOM      3  O   UNL     1     152.064 156.444 162.070  1.00  0.00    -0.294 OA
BRANCH   2   4
ATOM      4  C   UNL     1     150.941 156.756 160.000  1.00  0.00     0.027 A 
ATOM      5  C   UNL     1     151.406 157.123 158.705  1.00  0.00     0.008 A 
ATOM      6  C   UNL     1     150.623 157.985 157.915  1.00  0.00     0.011 A 
ATOM      7  C   UNL     1     149.389 158.447 158.370  1.00  0.00     0.001 A 
ATOM      8  C   UNL     1     149.682 157.219 160.429  1.00  0.00     0.012 A 
ATOM      9  C   UNL     1     148.914 158.055 159.620  1.00  0.00     0.001 A 
BRANCH   5  10
ATOM     10  C   UNL     1     152.656 156.586 158.115  1.00  0.00     0.072 C 
ATOM     11  O   UNL     1     153.780 156.897 158.591  1.00  0.00    -0.545 OA
ATOM     12  O   UNL     1     152.596 155.679 157.063  1.00  0.00    -0.545 OA
ENDBRANCH   5  10
ENDBRANCH   2   4
ENDBRANCH   1   2
BRANCH   1  13
ATOM     13  C   UNL     1     153.373 154.090 161.534  1.00  0.00     0.008 C 
BRANCH  13  14
ATOM     14  C   UNL     1     154.760 154.121 160.874  1.00  0.00    -0.003 C 
ATOM     15  C   UNL     1     155.868 154.092 161.922  1.00  0.00     0.004 C 
ENDBRANCH  13  14
ENDBRANCH   1  13
TORSDOF 5
ENDMDL
MODEL 2
REMARK VINA RESULT:    -6.867     14.911     16.169
REMARK INTER + INTRA:          -8.942
REMARK INTER:                  -8.278
REMARK INTRA:                  -0.664
REMARK UNBOUND:                -0.068
REMARK SMILES CCCCC(=O)c1ccccc1C(=O)[O-]
REMARK SMILES IDX 4 1 5 2 6 3 7 4 12 5 11 6 10 7 8 8 9 9 13 10 14 11 15 12
REMARK SMILES IDX 3 13 2 14 1 15
REMARK H PARENT
REMARK Flexibility Score: inf
ROOT
ATOM      1  C   UNL     1     152.173 170.448 152.783  1.00  0.00     0.081 C 
ENDROOT
BRANCH   1   2
ATOM      2  C   UNL     1     151.197 169.361 152.411  1.00  0.00     0.163 C 
ATOM      3  O   UNL     1     150.859 168.519 153.287  1.00  0.00    -0.294 OA
BRANCH   2   4
ATOM      4  C   UNL     1     150.639 169.251 151.038  1.00  0.00     0.027 A 
ATOM      5  C   UNL     1     149.435 169.906 150.653  1.00  0.00     0.008 A 
ATOM      6  C   UNL     1     148.895 169.654 149.378  1.00  0.00     0.011 A 
ATOM      7  C   UNL     1     149.544 168.806 148.482  1.00  0.00     0.001 A 
ATOM      8  C   UNL     1     151.287 168.414 150.108  1.00  0.00     0.012 A 
ATOM      9  C   UNL     1     150.743 168.196 148.842  1.00  0.00     0.001 A 
BRANCH   5  10
ATOM     10  C   UNL     1     148.749 170.901 151.512  1.00  0.00     0.072 C 
ATOM     11  O   UNL     1     148.759 172.125 151.217  1.00  0.00    -0.545 OA
ATOM     12  O   UNL     1     148.032 170.482 152.627  1.00  0.00    -0.545 OA
ENDBRANCH   5  10
ENDBRANCH   2   4
ENDBRANCH   1   2
BRANCH   1  13
ATOM     13  C   UNL     1     153.501 169.891 153.319  1.00  0.00     0.008 C 
BRANCH  13  14
ATOM     14  C   UNL     1     154.607 169.871 152.254  1.00  0.00    -0.003 C 
ATOM     15  C   UNL     1     154.745 168.486 151.629  1.00  0.00     0.004 C 
ENDBRANCH  13  14
ENDBRANCH   1  13
TORSDOF 5
ENDMDL
MODEL 3
REMARK VINA RESULT:    -6.571     14.112     16.329
REMARK INTER + INTRA:          -8.559
REMARK INTER:                  -7.534
REMARK INTRA:                  -1.025
REMARK UNBOUND:                -0.068
REMARK SMILES CCCCC(=O)c1ccccc1C(=O)[O-]
REMARK SMILES IDX 4 1 5 2 6 3 7 4 12 5 11 6 10 7 8 8 9 9 13 10 14 11 15 12
REMARK SMILES IDX 3 13 2 14 1 15
REMARK H PARENT
REMARK Flexibility Score: inf
ROOT
ATOM      1  C   UNL     1     147.420 170.641 152.161  1.00  0.00     0.081 C 
ENDROOT
BRANCH   1   2
ATOM      2  C   UNL     1     148.724 170.941 151.470  1.00  0.00     0.163 C 
ATOM      3  O   UNL     1     149.252 172.075 151.629  1.00  0.00    -0.294 OA
BRANCH   2   4
ATOM      4  C   UNL     1     149.391 169.941 150.595  1.00  0.00     0.027 A 
ATOM      5  C   UNL     1     150.615 169.312 150.959  1.00  0.00     0.008 A 
ATOM      6  C   UNL     1     151.258 168.474 150.028  1.00  0.00     0.011 A 
ATOM      7  C   UNL     1     150.690 168.225 148.779  1.00  0.00     0.001 A 
ATOM      8  C   UNL     1     148.827 169.658 149.335  1.00  0.00     0.012 A 
ATOM      9  C   UNL     1     149.471 168.807 148.438  1.00  0.00     0.001 A 
BRANCH   5  10
ATOM     10  C   UNL     1     151.222 169.446 152.305  1.00  0.00     0.072 C 
ATOM     11  O   UNL     1     152.038 170.371 152.556  1.00  0.00    -0.545 OA
ATOM     12  O   UNL     1     150.846 168.582 153.328  1.00  0.00    -0.545 OA
ENDBRANCH   5  10
ENDBRANCH   2   4
ENDBRANCH   1   2
BRANCH   1  13
ATOM     13  C   UNL     1     147.474 169.346 152.988  1.00  0.00     0.008 C 
BRANCH  13  14
ATOM     14  C   UNL     1     146.863 168.147 152.248  1.00  0.00    -0.003 C 
ATOM     15  C   UNL     1     147.871 167.010 152.115  1.00  0.00     0.004 C 
ENDBRANCH  13  14
ENDBRANCH   1  13
TORSDOF 5
ENDMDL
MODEL 4
REMARK VINA RESULT:    -6.371     13.626     15.346
REMARK INTER + INTRA:          -8.301
REMARK INTER:                  -7.738
REMARK INTRA:                  -0.563
REMARK UNBOUND:                -0.068
REMARK SMILES CCCCC(=O)c1ccccc1C(=O)[O-]
REMARK SMILES IDX 4 1 5 2 6 3 7 4 12 5 11 6 10 7 8 8 9 9 13 10 14 11 15 12
REMARK SMILES IDX 3 13 2 14 1 15
REMARK H PARENT
REMARK Flexibility Score: inf
ROOT
ATOM      1  C   UNL     1     153.294 169.129 152.064  1.00  0.00     0.081 C 
ENDROOT
BRANCH   1   2
ATOM      2  C   UNL     1     151.866 168.883 152.475  1.00  0.00     0.163 C 
ATOM      3  O   UNL     1     151.627 168.018 153.361  1.00  0.00    -0.294 OA
BRANCH   2   4
ATOM      4  C   UNL     1     150.736 169.622 151.852  1.00  0.00     0.027 A 
ATOM      5  C   UNL     1     150.130 169.196 150.636  1.00  0.00     0.008 A 
ATOM      6  C   UNL     1     149.155 170.013 150.034  1.00  0.00     0.011 A 
ATOM      7  C   UNL     1     148.752 171.206 150.634  1.00  0.00     0.001 A 
ATOM      8  C   UNL     1     150.298 170.821 152.449  1.00  0.00     0.012 A 
ATOM      9  C   UNL     1     149.315 171.603 151.845  1.00  0.00     0.001 A 
BRANCH   5  10
ATOM     10  C   UNL     1     150.432 167.893 149.999  1.00  0.00     0.072 C 
ATOM     11  O   UNL     1     149.798 166.854 150.323  1.00  0.00    -0.545 OA
ATOM     12  O   UNL     1     151.381 167.815 148.985  1.00  0.00    -0.545 OA
ENDBRANCH   5  10
ENDBRANCH   2   4
ENDBRANCH   1   2
BRANCH   1  13
ATOM     13  C   UNL     1     154.175 169.589 153.236  1.00  0.00     0.008 C 
BRANCH  13  14
ATOM     14  C   UNL     1     155.462 168.761 153.368  1.00  0.00    -0.003 C 
ATOM     15  C   UNL     1     155.193 167.281 153.119  1.00  0.00     0.004 C 
ENDBRANCH  13  14
ENDBRANCH   1  13
TORSDOF 5
ENDMDL
MODEL 5
REMARK VINA RESULT:    -6.353     13.446     15.799
REMARK INTER + INTRA:          -8.278
REMARK INTER:                  -7.213
REMARK INTRA:                  -1.065
REMARK UNBOUND:                -0.068
REMARK SMILES CCCCC(=O)c1ccccc1C(=O)[O-]
REMARK SMILES IDX 4 1 5 2 6 3 7 4 12 5 11 6 10 7 8 8 9 9 13 10 14 11 15 12
REMARK SMILES IDX 3 13 2 14 1 15
REMARK H PARENT
REMARK Flexibility Score: inf
ROOT
ATOM      1  C   UNL     1     151.234 168.090 153.342  1.00  0.00     0.081 C 
ENDROOT
BRANCH   1   2
ATOM      2  C   UNL     1     151.445 169.192 152.336  1.00  0.00     0.163 C 
ATOM      3  O   UNL     1     152.281 170.100 152.592  1.00  0.00    -0.294 OA
BRANCH   2   4
ATOM      4  C   UNL     1     150.680 169.240 151.062  1.00  0.00     0.027 A 
ATOM      5  C   UNL     1     149.490 170.008 150.920  1.00  0.00     0.008 A 
ATOM      6  C   UNL     1     148.747 169.906 149.729  1.00  0.00     0.011 A 
ATOM      7  C   UNL     1     149.183 169.096 148.681  1.00  0.00     0.001 A 
ATOM      8  C   UNL     1     151.111 168.444 149.982  1.00  0.00     0.012 A 
ATOM      9  C   UNL     1     150.369 168.375 148.804  1.00  0.00     0.001 A 
BRANCH   5  10
ATOM     10  C   UNL     1     149.024 170.970 151.947  1.00  0.00     0.072 C 
ATOM     11  O   UNL     1     149.525 172.122 152.028  1.00  0.00    -0.545 OA
ATOM     12  O   UNL     1     147.979 170.627 152.799  1.00  0.00    -0.545 OA
ENDBRANCH   5  10
ENDBRANCH   2   4
ENDBRANCH   1   2
BRANCH   1  13
ATOM     13  C   UNL     1     149.755 167.702 153.492  1.00  0.00     0.008 C 
BRANCH  13  14
ATOM     14  C   UNL     1     149.427 166.354 152.834  1.00  0.00    -0.003 C 
ATOM     15  C   UNL     1     148.314 166.502 151.801  1.00  0.00     0.004 C 
ENDBRANCH  13  14
ENDBRANCH   1  13
TORSDOF 5
ENDMDL
MODEL 6
REMARK VINA RESULT:    -6.276     14.298     16.272
REMARK INTER + INTRA:          -8.178
REMARK INTER:                  -7.140
REMARK INTRA:                  -1.038
REMARK UNBOUND:                -0.068
REMARK SMILES CCCCC(=O)c1ccccc1C(=O)[O-]
REMARK SMILES IDX 4 1 5 2 6 3 7 4 12 5 11 6 10 7 8 8 9 9 13 10 14 11 15 12
REMARK SMILES IDX 3 13 2 14 1 15
REMARK H PARENT
REMARK Flexibility Score: inf
ROOT
ATOM      1  C   UNL     1     147.337 170.537 152.100  1.00  0.00     0.081 C 
ENDROOT
BRANCH   1   2
ATOM      2  C   UNL     1     148.599 170.681 151.289  1.00  0.00     0.163 C 
ATOM      3  O   UNL     1     148.518 170.680 150.031  1.00  0.00    -0.294 OA
BRANCH   2   4
ATOM      4  C   UNL     1     149.931 170.807 151.936  1.00  0.00     0.027 A 
ATOM      5  C   UNL     1     150.873 169.740 151.947  1.00  0.00     0.008 A 
ATOM      6  C   UNL     1     152.061 169.883 152.689  1.00  0.00     0.011 A 
ATOM      7  C   UNL     1     152.338 171.065 153.374  1.00  0.00     0.001 A 
ATOM      8  C   UNL     1     150.243 171.999 152.620  1.00  0.00     0.012 A 
ATOM      9  C   UNL     1     151.436 172.125 153.330  1.00  0.00     0.001 A 
BRANCH   5  10
ATOM     10  C   UNL     1     150.694 168.499 151.157  1.00  0.00     0.072 C 
ATOM     11  O   UNL     1     149.977 167.557 151.588  1.00  0.00    -0.545 OA
ATOM     12  O   UNL     1     151.271 168.385 149.897  1.00  0.00    -0.545 OA
ENDBRANCH   5  10
ENDBRANCH   2   4
ENDBRANCH   1   2
BRANCH   1  13
ATOM     13  C   UNL     1     147.383 169.335 153.056  1.00  0.00     0.008 C 
BRANCH  13  14
ATOM     14  C   UNL     1     147.563 169.752 154.523  1.00  0.00    -0.003 C 
ATOM     15  C   UNL     1     148.820 169.131 155.123  1.00  0.00     0.004 C 
ENDBRANCH  13  14
ENDBRANCH   1  13
TORSDOF 5
ENDMDL
MODEL 7
REMARK VINA RESULT:    -6.208     14.328     15.972
REMARK INTER + INTRA:          -8.090
REMARK INTER:                  -7.355
REMARK INTRA:                  -0.736
REMARK UNBOUND:                -0.068
REMARK SMILES CCCCC(=O)c1ccccc1C(=O)[O-]
REMARK SMILES IDX 4 1 5 2 6 3 7 4 12 5 11 6 10 7 8 8 9 9 13 10 14 11 15 12
REMARK SMILES IDX 3 13 2 14 1 15
REMARK H PARENT
REMARK Flexibility Score: inf
ROOT
ATOM      1  C   UNL     1     150.534 169.667 153.703  1.00  0.00     0.081 C 
ENDROOT
BRANCH   1   2
ATOM      2  C   UNL     1     150.062 168.564 152.792  1.00  0.00     0.163 C 
ATOM      3  O   UNL     1     149.968 167.393 153.250  1.00  0.00    -0.294 OA
BRANCH   2   4
ATOM      4  C   UNL     1     149.720 168.822 151.368  1.00  0.00     0.027 A 
ATOM      5  C   UNL     1     148.431 169.270 150.966  1.00  0.00     0.008 A 
ATOM      6  C   UNL     1     148.136 169.368 149.593  1.00  0.00     0.011 A 
ATOM      7  C   UNL     1     149.102 169.071 148.632  1.00  0.00     0.001 A 
ATOM      8  C   UNL     1     150.685 168.546 150.379  1.00  0.00     0.012 A 
ATOM      9  C   UNL     1     150.377 168.671 149.025  1.00  0.00     0.001 A 
BRANCH   5  10
ATOM     10  C   UNL     1     147.392 169.704 151.930  1.00  0.00     0.072 C 
ATOM     11  O   UNL     1     147.237 170.923 152.207  1.00  0.00    -0.545 OA
ATOM     12  O   UNL     1     146.531 168.770 152.496  1.00  0.00    -0.545 OA
ENDBRANCH   5  10
ENDBRANCH   2   4
ENDBRANCH   1   2
BRANCH   1  13
ATOM     13  C   UNL     1     151.077 170.880 152.930  1.00  0.00     0.008 C 
BRANCH  13  14
ATOM     14  C   UNL     1     152.556 171.162 153.236  1.00  0.00    -0.003 C 
ATOM     15  C   UNL     1     153.456 170.087 152.636  1.00  0.00     0.004 C 
ENDBRANCH  13  14
ENDBRANCH   1  13
TORSDOF 5
ENDMDL
MODEL 8
REMARK VINA RESULT:    -6.067     14.563     16.376
REMARK INTER + INTRA:          -7.909
REMARK INTER:                  -7.191
REMARK INTRA:                  -0.717
REMARK UNBOUND:                -0.068
REMARK SMILES CCCCC(=O)c1ccccc1C(=O)[O-]
REMARK SMILES IDX 4 1 5 2 6 3 7 4 12 5 11 6 10 7 8 8 9 9 13 10 14 11 15 12
REMARK SMILES IDX 3 13 2 14 1 15
REMARK H PARENT
REMARK Flexibility Score: inf
ROOT
ATOM      1  C   UNL     1     150.247 168.023 150.378  1.00  0.00     0.081 C 
ENDROOT
BRANCH   1   2
ATOM      2  C   UNL     1     150.250 168.255 151.867  1.00  0.00     0.163 C 
ATOM      3  O   UNL     1     149.675 167.420 152.615  1.00  0.00    -0.294 OA
BRANCH   2   4
ATOM      4  C   UNL     1     150.901 169.449 152.468  1.00  0.00     0.027 A 
ATOM      5  C   UNL     1     150.159 170.599 152.862  1.00  0.00     0.008 A 
ATOM      6  C   UNL     1     150.851 171.743 153.302  1.00  0.00     0.011 A 
ATOM      7  C   UNL     1     152.243 171.746 153.392  1.00  0.00     0.001 A 
ATOM      8  C   UNL     1     152.305 169.470 152.586  1.00  0.00     0.012 A 
ATOM      9  C   UNL     1     152.967 170.607 153.046  1.00  0.00     0.001 A 
BRANCH   5  10
ATOM     10  C   UNL     1     148.678 170.631 152.893  1.00  0.00     0.072 C 
ATOM     11  O   UNL     1     148.022 171.118 151.935  1.00  0.00    -0.545 OA
ATOM     12  O   UNL     1     147.991 170.063 153.960  1.00  0.00    -0.545 OA
ENDBRANCH   5  10
ENDBRANCH   2   4
ENDBRANCH   1   2
BRANCH   1  13
ATOM     13  C   UNL     1     149.889 169.289 149.583  1.00  0.00     0.008 C 
BRANCH  13  14
ATOM     14  C   UNL     1     148.638 169.106 148.712  1.00  0.00    -0.003 C 
ATOM     15  C   UNL     1     147.434 168.697 149.555  1.00  0.00     0.004 C 
ENDBRANCH  13  14
ENDBRANCH   1  13
TORSDOF 5
ENDMDL
MODEL 9
REMARK VINA RESULT:    -6.053     13.892     16.289
REMARK INTER + INTRA:          -7.890
REMARK INTER:                  -7.213
REMARK INTRA:                  -0.677
REMARK UNBOUND:                -0.068
REMARK SMILES CCCCC(=O)c1ccccc1C(=O)[O-]
REMARK SMILES IDX 4 1 5 2 6 3 7 4 12 5 11 6 10 7 8 8 9 9 13 10 14 11 15 12
REMARK SMILES IDX 3 13 2 14 1 15
REMARK H PARENT
REMARK Flexibility Score: inf
ROOT
ATOM      1  C   UNL     1     147.849 170.661 151.813  1.00  0.00     0.081 C 
ENDROOT
BRANCH   1   2
ATOM      2  C   UNL     1     148.634 170.479 153.086  1.00  0.00     0.163 C 
ATOM      3  O   UNL     1     148.017 170.199 154.149  1.00  0.00    -0.294 OA
BRANCH   2   4
ATOM      4  C   UNL     1     150.113 170.638 153.119  1.00  0.00     0.027 A 
ATOM      5  C   UNL     1     150.995 169.521 153.109  1.00  0.00     0.008 A 
ATOM      6  C   UNL     1     152.376 169.738 153.274  1.00  0.00     0.011 A 
ATOM      7  C   UNL     1     152.886 171.029 153.406  1.00  0.00     0.001 A 
ATOM      8  C   UNL     1     150.653 171.934 153.235  1.00  0.00     0.012 A 
ATOM      9  C   UNL     1     152.027 172.125 153.375  1.00  0.00     0.001 A 
BRANCH   5  10
ATOM     10  C   UNL     1     150.536 168.133 152.867  1.00  0.00     0.072 C 
ATOM     11  O   UNL     1     150.344 167.339 153.825  1.00  0.00    -0.545 OA
ATOM     12  O   UNL     1     150.252 167.708 151.573  1.00  0.00    -0.545 OA
ENDBRANCH   5  10
ENDBRANCH   2   4
ENDBRANCH   1   2
BRANCH   1  13
ATOM     13  C   UNL     1     148.747 170.969 150.604  1.00  0.00     0.008 C 
BRANCH  13  14
ATOM     14  C   UNL     1     148.682 169.878 149.526  1.00  0.00    -0.003 C 
ATOM     15  C   UNL     1     147.414 169.040 149.666  1.00  0.00     0.004 C 
ENDBRANCH  13  14
ENDBRANCH   1  13
TORSDOF 5
ENDMDL
