MODEL 1
REMARK VINA RESULT:    -4.851      0.000      0.000
REMARK INTER + INTRA:          -5.834
REMARK INTER:                  -5.560
REMARK INTRA:                  -0.274
REMARK UNBOUND:                -0.274
REMARK SMILES COc1ccc(C=O)c(O)c1
REMARK SMILES IDX 3 1 11 2 9 3 6 4 5 5 4 6 2 7 1 8 10 9 7 11 8 12
REMARK H PARENT 10 10
REMARK Flexibility Score: inf
ROOT
ATOM      1  C   UNL     1       7.432  11.390   5.591  1.00  0.00     0.122 A 
ATOM      2  C   UNL     1       7.452  10.888   6.904  1.00  0.00     0.093 A 
ATOM      3  C   UNL     1       6.277  10.436   7.519  1.00  0.00     0.129 A 
ATOM      4  C   UNL     1       5.051  10.470   6.807  1.00  0.00     0.056 A 
ATOM      5  C   UNL     1       5.044  10.979   5.495  1.00  0.00     0.019 A 
ATOM      6  C   UNL     1       6.222  11.433   4.898  1.00  0.00     0.047 A 
ENDROOT
BRANCH   1   7
ATOM      7  O   UNL     1       8.587  11.854   4.944  1.00  0.00    -0.497 OA
ATOM      8  C   UNL     1       8.600  12.464   3.657  1.00  0.00     0.278 C 
ENDBRANCH   1   7
BRANCH   3   9
ATOM      9  O   UNL     1       6.380   9.972   8.833  1.00  0.00    -0.507 OA
ATOM     10  H   UNL     1       5.595   9.685   9.399  1.00  0.00     0.293 HD
ENDBRANCH   3   9
BRANCH   4  11
ATOM     11  C   UNL     1       3.781   9.976   7.392  1.00  0.00     0.263 C 
ATOM     12  O   UNL     1       3.754   8.913   8.068  1.00  0.00    -0.298 OA
ENDBRANCH   4  11
TORSDOF 3
ENDMDL
MODEL 2
REMARK VINA RESULT:    -4.676      2.227      3.519
REMARK INTER + INTRA:          -5.634
REMARK INTER:                  -5.368
REMARK INTRA:                  -0.267
REMARK UNBOUND:                -0.274
REMARK SMILES COc1ccc(C=O)c(O)c1
REMARK SMILES IDX 3 1 11 2 9 3 6 4 5 5 4 6 2 7 1 8 10 9 7 11 8 12
REMARK H PARENT 10 10
REMARK Flexibility Score: inf
ROOT
ATOM      1  C   UNL     1       5.565  10.616   7.434  1.00  0.00     0.122 A 
ATOM      2  C   UNL     1       4.287  10.288   6.950  1.00  0.00     0.093 A 
ATOM      3  C   UNL     1       3.151  10.438   7.757  1.00  0.00     0.129 A 
ATOM      4  C   UNL     1       3.287  10.939   9.078  1.00  0.00     0.056 A 
ATOM      5  C   UNL     1       4.573  11.261   9.551  1.00  0.00     0.019 A 
ATOM      6  C   UNL     1       5.695  11.100   8.736  1.00  0.00     0.047 A 
ENDROOT
BRANCH   1   7
ATOM      7  O   UNL     1       6.724  10.477   6.656  1.00  0.00    -0.497 OA
ATOM      8  C   UNL     1       6.756  10.568   5.235  1.00  0.00     0.278 C 
ENDBRANCH   1   7
BRANCH   3   9
ATOM      9  O   UNL     1       1.922  10.068   7.207  1.00  0.00    -0.507 OA
ATOM     10  H   UNL     1       1.624  10.300   6.271  1.00  0.00     0.293 HD
ENDBRANCH   3   9
BRANCH   4  11
ATOM     11  C   UNL     1       2.120  11.151   9.968  1.00  0.00     0.263 C 
ATOM     12  O   UNL     1       1.066  11.685   9.533  1.00  0.00    -0.298 OA
ENDBRANCH   4  11
TORSDOF 3
ENDMDL
MODEL 3
REMARK VINA RESULT:    -4.667      1.235      2.172
REMARK INTER + INTRA:          -5.624
REMARK INTER:                  -5.355
REMARK INTRA:                  -0.269
REMARK UNBOUND:                -0.274
REMARK SMILES COc1ccc(C=O)c(O)c1
REMARK SMILES IDX 3 1 11 2 9 3 6 4 5 5 4 6 2 7 1 8 10 9 7 11 8 12
REMARK H PARENT 10 10
REMARK Flexibility Score: inf
ROOT
ATOM      1  C   UNL     1       7.634  11.527   4.640  1.00  0.00     0.122 A 
ATOM      2  C   UNL     1       6.254  11.264   4.688  1.00  0.00     0.093 A 
ATOM      3  C   UNL     1       5.642  10.849   5.878  1.00  0.00     0.129 A 
ATOM      4  C   UNL     1       6.419  10.703   7.056  1.00  0.00     0.056 A 
ATOM      5  C   UNL     1       7.800  10.966   6.993  1.00  0.00     0.019 A 
ATOM      6  C   UNL     1       8.396  11.372   5.798  1.00  0.00     0.047 A 
ENDROOT
BRANCH   1   7
ATOM      7  O   UNL     1       8.281  11.942   3.466  1.00  0.00    -0.497 OA
ATOM      8  C   UNL     1       9.214  13.017   3.397  1.00  0.00     0.278 C 
ENDBRANCH   1   7
BRANCH   3   9
ATOM      9  O   UNL     1       4.270  10.588   5.835  1.00  0.00    -0.507 OA
ATOM     10  H   UNL     1       3.762  10.348   4.996  1.00  0.00     0.293 HD
ENDBRANCH   3   9
BRANCH   4  11
ATOM     11  C   UNL     1       5.823  10.298   8.352  1.00  0.00     0.263 C 
ATOM     12  O   UNL     1       4.954   9.388   8.406  1.00  0.00    -0.298 OA
ENDBRANCH   4  11
TORSDOF 3
ENDMDL
MODEL 4
REMARK VINA RESULT:    -4.544      1.188      4.428
REMARK INTER + INTRA:          -5.482
REMARK INTER:                  -5.227
REMARK INTRA:                  -0.256
REMARK UNBOUND:                -0.274
REMARK SMILES COc1ccc(C=O)c(O)c1
REMARK SMILES IDX 3 1 11 2 9 3 6 4 5 5 4 6 2 7 1 8 10 9 7 11 8 12
REMARK H PARENT 10 10
REMARK Flexibility Score: inf
ROOT
ATOM      1  C   UNL     1       5.360  10.607   6.466  1.00  0.00     0.122 A 
ATOM      2  C   UNL     1       6.705  10.625   6.874  1.00  0.00     0.093 A 
ATOM      3  C   UNL     1       7.705  11.133   6.034  1.00  0.00     0.129 A 
ATOM      4  C   UNL     1       7.359  11.649   4.759  1.00  0.00     0.056 A 
ATOM      5  C   UNL     1       6.009  11.622   4.361  1.00  0.00     0.019 A 
ATOM      6  C   UNL     1       5.025  11.106   5.207  1.00  0.00     0.047 A 
ENDROOT
BRANCH   1   7
ATOM      7  O   UNL     1       4.333  10.104   7.278  1.00  0.00    -0.497 OA
ATOM      8  C   UNL     1       4.543   9.382   8.488  1.00  0.00     0.278 C 
ENDBRANCH   1   7
BRANCH   3   9
ATOM      9  O   UNL     1       9.019  11.094   6.507  1.00  0.00    -0.507 OA
ATOM     10  H   UNL     1       9.283  10.780   7.430  1.00  0.00     0.293 HD
ENDBRANCH   3   9
BRANCH   4  11
ATOM     11  C   UNL     1       8.367  12.230   3.840  1.00  0.00     0.263 C 
ATOM     12  O   UNL     1       9.421  12.755   4.287  1.00  0.00    -0.298 OA
ENDBRANCH   4  11
TORSDOF 3
ENDMDL
MODEL 5
REMARK VINA RESULT:    -4.474      2.169      4.886
REMARK INTER + INTRA:          -5.402
REMARK INTER:                  -5.139
REMARK INTRA:                  -0.263
REMARK UNBOUND:                -0.274
REMARK SMILES COc1ccc(C=O)c(O)c1
REMARK SMILES IDX 3 1 11 2 9 3 6 4 5 5 4 6 2 7 1 8 10 9 7 11 8 12
REMARK H PARENT 10 10
REMARK Flexibility Score: inf
ROOT
ATOM      1  C   UNL     1       3.283  11.000   8.760  1.00  0.00     0.122 A 
ATOM      2  C   UNL     1       4.386  11.631   9.361  1.00  0.00     0.093 A 
ATOM      3  C   UNL     1       5.650  11.601   8.757  1.00  0.00     0.129 A 
ATOM      4  C   UNL     1       5.820  10.936   7.515  1.00  0.00     0.056 A 
ATOM      5  C   UNL     1       4.709  10.305   6.926  1.00  0.00     0.019 A 
ATOM      6  C   UNL     1       3.458  10.338   7.545  1.00  0.00     0.047 A 
ENDROOT
BRANCH   1   7
ATOM      7  O   UNL     1       2.004  11.007   9.338  1.00  0.00    -0.497 OA
ATOM      8  C   UNL     1       1.386  12.155   9.911  1.00  0.00     0.278 C 
ENDBRANCH   1   7
BRANCH   3   9
ATOM      9  O   UNL     1       6.697  12.235   9.430  1.00  0.00    -0.507 OA
ATOM     10  H   UNL     1       7.652  12.256   9.105  1.00  0.00     0.293 HD
ENDBRANCH   3   9
BRANCH   4  11
ATOM     11  C   UNL     1       7.125  10.898   6.810  1.00  0.00     0.263 C 
ATOM     12  O   UNL     1       8.200  10.766   7.452  1.00  0.00    -0.298 OA
ENDBRANCH   4  11
TORSDOF 3
ENDMDL
MODEL 6
REMARK VINA RESULT:    -4.387      1.596      4.727
REMARK INTER + INTRA:          -5.302
REMARK INTER:                  -5.046
REMARK INTRA:                  -0.256
REMARK UNBOUND:                -0.274
REMARK SMILES COc1ccc(C=O)c(O)c1
REMARK SMILES IDX 3 1 11 2 9 3 6 4 5 5 4 6 2 7 1 8 10 9 7 11 8 12
REMARK H PARENT 10 10
REMARK Flexibility Score: inf
ROOT
ATOM      1  C   UNL     1       5.071  10.401   8.115  1.00  0.00     0.122 A 
ATOM      2  C   UNL     1       4.750  10.421   6.747  1.00  0.00     0.093 A 
ATOM      3  C   UNL     1       5.734  10.671   5.780  1.00  0.00     0.129 A 
ATOM      4  C   UNL     1       7.076  10.893   6.183  1.00  0.00     0.056 A 
ATOM      5  C   UNL     1       7.382  10.875   7.557  1.00  0.00     0.019 A 
ATOM      6  C   UNL     1       6.389  10.632   8.507  1.00  0.00     0.047 A 
ENDROOT
BRANCH   1   7
ATOM      7  O   UNL     1       4.112  10.158   9.110  1.00  0.00    -0.497 OA
ATOM      8  C   UNL     1       3.206  11.136   9.612  1.00  0.00     0.278 C 
ENDBRANCH   1   7
BRANCH   3   9
ATOM      9  O   UNL     1       5.327  10.694   4.444  1.00  0.00    -0.507 OA
ATOM     10  H   UNL     1       4.922  11.497   3.986  1.00  0.00     0.293 HD
ENDBRANCH   3   9
BRANCH   4  11
ATOM     11  C   UNL     1       8.166  11.130   5.206  1.00  0.00     0.263 C 
ATOM     12  O   UNL     1       7.945  11.744   4.129  1.00  0.00    -0.298 OA
ENDBRANCH   4  11
TORSDOF 3
ENDMDL
MODEL 7
REMARK VINA RESULT:    -4.376      2.066      4.890
REMARK INTER + INTRA:          -5.290
REMARK INTER:                  -5.020
REMARK INTRA:                  -0.270
REMARK UNBOUND:                -0.274
REMARK SMILES COc1ccc(C=O)c(O)c1
REMARK SMILES IDX 3 1 11 2 9 3 6 4 5 5 4 6 2 7 1 8 10 9 7 11 8 12
REMARK H PARENT 10 10
REMARK Flexibility Score: inf
ROOT
ATOM      1  C   UNL     1       4.095  10.882   8.340  1.00  0.00     0.122 A 
ATOM      2  C   UNL     1       4.587  10.421   7.106  1.00  0.00     0.093 A 
ATOM      3  C   UNL     1       5.939  10.568   6.769  1.00  0.00     0.129 A 
ATOM      4  C   UNL     1       6.831  11.178   7.689  1.00  0.00     0.056 A 
ATOM      5  C   UNL     1       6.325  11.639   8.919  1.00  0.00     0.019 A 
ATOM      6  C   UNL     1       4.973  11.491   9.236  1.00  0.00     0.047 A 
ENDROOT
BRANCH   1   7
ATOM      7  O   UNL     1       2.748  10.754   8.709  1.00  0.00    -0.497 OA
ATOM      8  C   UNL     1       2.077  11.619   9.620  1.00  0.00     0.278 C 
ENDBRANCH   1   7
BRANCH   3   9
ATOM      9  O   UNL     1       6.341  10.102   5.515  1.00  0.00    -0.507 OA
ATOM     10  H   UNL     1       6.579  10.698   4.736  1.00  0.00     0.293 HD
ENDBRANCH   3   9
BRANCH   4  11
ATOM     11  C   UNL     1       8.278  11.332   7.404  1.00  0.00     0.263 C 
ATOM     12  O   UNL     1       8.680  11.614   6.244  1.00  0.00    -0.298 OA
ENDBRANCH   4  11
TORSDOF 3
ENDMDL
MODEL 8
REMARK VINA RESULT:    -4.316      1.292      4.361
REMARK INTER + INTRA:          -5.221
REMARK INTER:                  -4.965
REMARK INTRA:                  -0.257
REMARK UNBOUND:                -0.274
REMARK SMILES COc1ccc(C=O)c(O)c1
REMARK SMILES IDX 3 1 11 2 9 3 6 4 5 5 4 6 2 7 1 8 10 9 7 11 8 12
REMARK H PARENT 10 10
REMARK Flexibility Score: inf
ROOT
ATOM      1  C   UNL     1       5.277  10.270   8.041  1.00  0.00     0.122 A 
ATOM      2  C   UNL     1       6.639  10.609   7.958  1.00  0.00     0.093 A 
ATOM      3  C   UNL     1       7.182  11.122   6.772  1.00  0.00     0.129 A 
ATOM      4  C   UNL     1       6.347  11.316   5.642  1.00  0.00     0.056 A 
ATOM      5  C   UNL     1       4.986  10.969   5.738  1.00  0.00     0.019 A 
ATOM      6  C   UNL     1       4.462  10.453   6.924  1.00  0.00     0.047 A 
ENDROOT
BRANCH   1   7
ATOM      7  O   UNL     1       4.700   9.752   9.210  1.00  0.00    -0.497 OA
ATOM      8  C   UNL     1       3.731  10.433  10.001  1.00  0.00     0.278 C 
ENDBRANCH   1   7
BRANCH   3   9
ATOM      9  O   UNL     1       8.548  11.412   6.767  1.00  0.00    -0.507 OA
ATOM     10  H   UNL     1       9.033  11.884   7.517  1.00  0.00     0.293 HD
ENDBRANCH   3   9
BRANCH   4  11
ATOM     11  C   UNL     1       6.856  11.886   4.371  1.00  0.00     0.263 C 
ATOM     12  O   UNL     1       8.040  11.676   3.999  1.00  0.00    -0.298 OA
ENDBRANCH   4  11
TORSDOF 3
ENDMDL
MODEL 9
REMARK VINA RESULT:    -4.155      1.538      1.710
REMARK INTER + INTRA:          -5.037
REMARK INTER:                  -4.771
REMARK INTRA:                  -0.266
REMARK UNBOUND:                -0.274
REMARK SMILES COc1ccc(C=O)c(O)c1
REMARK SMILES IDX 3 1 11 2 9 3 6 4 5 5 4 6 2 7 1 8 10 9 7 11 8 12
REMARK H PARENT 10 10
REMARK Flexibility Score: inf
ROOT
ATOM      1  C   UNL     1       6.706  10.978   6.578  1.00  0.00     0.122 A 
ATOM      2  C   UNL     1       6.696  11.380   7.925  1.00  0.00     0.093 A 
ATOM      3  C   UNL     1       5.513  11.353   8.675  1.00  0.00     0.129 A 
ATOM      4  C   UNL     1       4.309  10.902   8.076  1.00  0.00     0.056 A 
ATOM      5  C   UNL     1       4.333  10.506   6.725  1.00  0.00     0.019 A 
ATOM      6  C   UNL     1       5.518  10.545   5.989  1.00  0.00     0.047 A 
ENDROOT
BRANCH   1   7
ATOM      7  O   UNL     1       7.871  10.995   5.795  1.00  0.00    -0.497 OA
ATOM      8  C   UNL     1       8.060  11.822   4.651  1.00  0.00     0.278 C 
ENDBRANCH   1   7
BRANCH   3   9
ATOM      9  O   UNL     1       5.585  11.790  10.000  1.00  0.00    -0.507 OA
ATOM     10  H   UNL     1       4.809  12.181  10.514  1.00  0.00     0.293 HD
ENDBRANCH   3   9
BRANCH   4  11
ATOM     11  C   UNL     1       3.034  10.819   8.827  1.00  0.00     0.263 C 
ATOM     12  O   UNL     1       3.009  10.391  10.011  1.00  0.00    -0.298 OA
ENDBRANCH   4  11
TORSDOF 3
ENDMDL
