MODEL 1
REMARK VINA RESULT:    -4.416      0.000      0.000
REMARK INTER + INTRA:          -4.693
REMARK INTER:                  -4.674
REMARK INTRA:                  -0.019
REMARK UNBOUND:                -0.019
REMARK SMILES O=C([O-])c1cccnc1
REMARK SMILES IDX 4 1 5 2 9 3 6 4 8 5 7 6 2 7 1 8 3 9
REMARK H PARENT
REMARK Flexibility Score: inf
ROOT
ATOM      1  C   UNL     1      38.571  18.373  10.960  1.00  0.00     0.016 A 
ATOM      2  C   UNL     1      39.877  18.513  11.455  1.00  0.00     0.013 A 
ATOM      3  C   UNL     1      38.347  18.604   9.591  1.00  0.00     0.120 A 
ATOM      4  C   UNL     1      40.917  18.874  10.597  1.00  0.00     0.021 A 
ATOM      5  N   UNL     1      39.378  18.955   8.776  1.00  0.00    -0.264 NA
ATOM      6  C   UNL     1      40.646  19.092   9.247  1.00  0.00     0.111 A 
ENDROOT
BRANCH   1   7
ATOM      7  C   UNL     1      37.460  17.992  11.859  1.00  0.00     0.073 C 
ATOM      8  O   UNL     1      36.685  17.046  11.554  1.00  0.00    -0.545 OA
ATOM      9  O   UNL     1      37.256  18.673  13.053  1.00  0.00    -0.545 OA
ENDBRANCH   1   7
TORSDOF 1
ENDMDL
MODEL 2
REMARK VINA RESULT:    -4.390      0.952      1.934
REMARK INTER + INTRA:          -4.666
REMARK INTER:                  -4.648
REMARK INTRA:                  -0.017
REMARK UNBOUND:                -0.019
REMARK SMILES O=C([O-])c1cccnc1
REMARK SMILES IDX 4 1 5 2 9 3 6 4 8 5 7 6 2 7 1 8 3 9
REMARK H PARENT
REMARK Flexibility Score: inf
ROOT
ATOM      1  C   UNL     1      38.599  18.314  10.934  1.00  0.00     0.016 A 
ATOM      2  C   UNL     1      38.422  18.630   9.577  1.00  0.00     0.013 A 
ATOM      3  C   UNL     1      39.884  18.448  11.489  1.00  0.00     0.120 A 
ATOM      4  C   UNL     1      39.506  19.066   8.812  1.00  0.00     0.021 A 
ATOM      5  N   UNL     1      40.923  18.874  10.721  1.00  0.00    -0.264 NA
ATOM      6  C   UNL     1      40.761  19.183   9.407  1.00  0.00     0.111 A 
ENDROOT
BRANCH   1   7
ATOM      7  C   UNL     1      37.460  17.851  11.755  1.00  0.00     0.073 C 
ATOM      8  O   UNL     1      37.048  18.541  12.726  1.00  0.00    -0.545 OA
ATOM      9  O   UNL     1      36.827  16.647  11.466  1.00  0.00    -0.545 OA
ENDBRANCH   1   7
TORSDOF 1
ENDMDL
MODEL 3
REMARK VINA RESULT:    -4.243      1.732      2.313
REMARK INTER + INTRA:          -4.510
REMARK INTER:                  -4.488
REMARK INTRA:                  -0.021
REMARK UNBOUND:                -0.019
REMARK SMILES O=C([O-])c1cccnc1
REMARK SMILES IDX 4 1 5 2 9 3 6 4 8 5 7 6 2 7 1 8 3 9
REMARK H PARENT
REMARK Flexibility Score: inf
ROOT
ATOM      1  C   UNL     1      37.966  18.401   9.981  1.00  0.00     0.016 A 
ATOM      2  C   UNL     1      38.843  18.887   8.999  1.00  0.00     0.013 A 
ATOM      3  C   UNL     1      38.482  18.123  11.260  1.00  0.00     0.120 A 
ATOM      4  C   UNL     1      40.192  19.083   9.299  1.00  0.00     0.021 A 
ATOM      5  N   UNL     1      39.800  18.322  11.526  1.00  0.00    -0.264 NA
ATOM      6  C   UNL     1      40.658  18.793  10.581  1.00  0.00     0.111 A 
ENDROOT
BRANCH   1   7
ATOM      7  C   UNL     1      36.535  18.189   9.676  1.00  0.00     0.073 C 
ATOM      8  O   UNL     1      36.176  17.772   8.542  1.00  0.00    -0.545 OA
ATOM      9  O   UNL     1      35.564  18.448  10.637  1.00  0.00    -0.545 OA
ENDBRANCH   1   7
TORSDOF 1
ENDMDL
MODEL 4
REMARK VINA RESULT:    -4.154      2.785      3.788
REMARK INTER + INTRA:          -4.415
REMARK INTER:                  -4.397
REMARK INTRA:                  -0.018
REMARK UNBOUND:                -0.019
REMARK SMILES O=C([O-])c1cccnc1
REMARK SMILES IDX 4 1 5 2 9 3 6 4 8 5 7 6 2 7 1 8 3 9
REMARK H PARENT
REMARK Flexibility Score: inf
ROOT
ATOM      1  C   UNL     1      38.092  18.201  10.395  1.00  0.00     0.016 A 
ATOM      2  C   UNL     1      38.396  18.493  11.734  1.00  0.00     0.013 A 
ATOM      3  C   UNL     1      36.749  17.965  10.050  1.00  0.00     0.120 A 
ATOM      4  C   UNL     1      37.378  18.545  12.688  1.00  0.00     0.021 A 
ATOM      5  N   UNL     1      35.777  18.021  11.000  1.00  0.00    -0.264 NA
ATOM      6  C   UNL     1      36.061  18.304  12.299  1.00  0.00     0.111 A 
ENDROOT
BRANCH   1   7
ATOM      7  C   UNL     1      39.161  18.143   9.375  1.00  0.00     0.073 C 
ATOM      8  O   UNL     1      39.898  19.143   9.162  1.00  0.00    -0.545 OA
ATOM      9  O   UNL     1      39.367  16.984   8.636  1.00  0.00    -0.545 OA
ENDBRANCH   1   7
TORSDOF 1
ENDMDL
MODEL 5
REMARK VINA RESULT:    -4.116      3.250      4.165
REMARK INTER + INTRA:          -4.375
REMARK INTER:                  -4.357
REMARK INTRA:                  -0.018
REMARK UNBOUND:                -0.019
REMARK SMILES O=C([O-])c1cccnc1
REMARK SMILES IDX 4 1 5 2 9 3 6 4 8 5 7 6 2 7 1 8 3 9
REMARK H PARENT
REMARK Flexibility Score: inf
ROOT
ATOM      1  C   UNL     1      40.647  18.741  10.138  1.00  0.00     0.016 A 
ATOM      2  C   UNL     1      39.847  18.961   9.005  1.00  0.00     0.013 A 
ATOM      3  C   UNL     1      40.018  18.358  11.336  1.00  0.00     0.120 A 
ATOM      4  C   UNL     1      38.462  18.799   9.083  1.00  0.00     0.021 A 
ATOM      5  N   UNL     1      38.667  18.208  11.385  1.00  0.00    -0.264 NA
ATOM      6  C   UNL     1      37.884  18.418  10.293  1.00  0.00     0.111 A 
ENDROOT
BRANCH   1   7
ATOM      7  C   UNL     1      42.114  18.909  10.069  1.00  0.00     0.073 C 
ATOM      8  O   UNL     1      42.618  20.024   9.767  1.00  0.00    -0.545 OA
ATOM      9  O   UNL     1      42.959  17.837  10.336  1.00  0.00    -0.545 OA
ENDBRANCH   1   7
TORSDOF 1
ENDMDL
MODEL 6
REMARK VINA RESULT:    -4.083      2.837      3.953
REMARK INTER + INTRA:          -4.341
REMARK INTER:                  -4.323
REMARK INTRA:                  -0.018
REMARK UNBOUND:                -0.019
REMARK SMILES O=C([O-])c1cccnc1
REMARK SMILES IDX 4 1 5 2 9 3 6 4 8 5 7 6 2 7 1 8 3 9
REMARK H PARENT
REMARK Flexibility Score: inf
ROOT
ATOM      1  C   UNL     1      38.504  18.099  10.641  1.00  0.00     0.016 A 
ATOM      2  C   UNL     1      37.768  17.268   9.781  1.00  0.00     0.013 A 
ATOM      3  C   UNL     1      37.972  18.388  11.910  1.00  0.00     0.120 A 
ATOM      4  C   UNL     1      36.538  16.749  10.192  1.00  0.00     0.021 A 
ATOM      5  N   UNL     1      36.771  17.871  12.284  1.00  0.00    -0.264 NA
ATOM      6  C   UNL     1      36.051  17.065  11.459  1.00  0.00     0.111 A 
ENDROOT
BRANCH   1   7
ATOM      7  C   UNL     1      39.808  18.654  10.218  1.00  0.00     0.073 C 
ATOM      8  O   UNL     1      40.848  18.436  10.896  1.00  0.00    -0.545 OA
ATOM      9  O   UNL     1      39.904  19.426   9.066  1.00  0.00    -0.545 OA
ENDBRANCH   1   7
TORSDOF 1
ENDMDL
MODEL 7
REMARK VINA RESULT:    -4.037      8.716      9.745
REMARK INTER + INTRA:          -4.292
REMARK INTER:                  -4.270
REMARK INTRA:                  -0.022
REMARK UNBOUND:                -0.019
REMARK SMILES O=C([O-])c1cccnc1
REMARK SMILES IDX 4 1 5 2 9 3 6 4 8 5 7 6 2 7 1 8 3 9
REMARK H PARENT
REMARK Flexibility Score: inf
ROOT
ATOM      1  C   UNL     1      32.047  13.171  15.401  1.00  0.00     0.016 A 
ATOM      2  C   UNL     1      33.285  13.130  14.741  1.00  0.00     0.013 A 
ATOM      3  C   UNL     1      31.829  14.184  16.352  1.00  0.00     0.120 A 
ATOM      4  C   UNL     1      34.266  14.080  15.032  1.00  0.00     0.021 A 
ATOM      5  N   UNL     1      32.802  15.097  16.617  1.00  0.00    -0.264 NA
ATOM      6  C   UNL     1      34.004  15.066  15.982  1.00  0.00     0.111 A 
ENDROOT
BRANCH   1   7
ATOM      7  C   UNL     1      31.000  12.171  15.102  1.00  0.00     0.073 C 
ATOM      8  O   UNL     1      30.898  11.675  13.948  1.00  0.00    -0.545 OA
ATOM      9  O   UNL     1      30.113  11.763  16.092  1.00  0.00    -0.545 OA
ENDBRANCH   1   7
TORSDOF 1
ENDMDL
MODEL 8
REMARK VINA RESULT:    -3.979      2.976      3.921
REMARK INTER + INTRA:          -4.230
REMARK INTER:                  -4.214
REMARK INTRA:                  -0.016
REMARK UNBOUND:                -0.019
REMARK SMILES O=C([O-])c1cccnc1
REMARK SMILES IDX 4 1 5 2 9 3 6 4 8 5 7 6 2 7 1 8 3 9
REMARK H PARENT
REMARK Flexibility Score: inf
ROOT
ATOM      1  C   UNL     1      38.624  17.851   9.166  1.00  0.00     0.016 A 
ATOM      2  C   UNL     1      37.472  17.398   9.827  1.00  0.00     0.013 A 
ATOM      3  C   UNL     1      39.654  18.424   9.934  1.00  0.00     0.120 A 
ATOM      4  C   UNL     1      37.366  17.519  11.214  1.00  0.00     0.021 A 
ATOM      5  N   UNL     1      39.525  18.531  11.284  1.00  0.00    -0.264 NA
ATOM      6  C   UNL     1      38.413  18.094  11.933  1.00  0.00     0.111 A 
ENDROOT
BRANCH   1   7
ATOM      7  C   UNL     1      38.749  17.728   7.698  1.00  0.00     0.073 C 
ATOM      8  O   UNL     1      38.183  18.557   6.935  1.00  0.00    -0.545 OA
ATOM      9  O   UNL     1      39.493  16.696   7.139  1.00  0.00    -0.545 OA
ENDBRANCH   1   7
TORSDOF 1
ENDMDL
MODEL 9
REMARK VINA RESULT:    -3.955      1.993      2.599
REMARK INTER + INTRA:          -4.205
REMARK INTER:                  -4.188
REMARK INTRA:                  -0.016
REMARK UNBOUND:                -0.019
REMARK SMILES O=C([O-])c1cccnc1
REMARK SMILES IDX 4 1 5 2 9 3 6 4 8 5 7 6 2 7 1 8 3 9
REMARK H PARENT
REMARK Flexibility Score: inf
ROOT
ATOM      1  C   UNL     1      36.247  17.978  11.521  1.00  0.00     0.016 A 
ATOM      2  C   UNL     1      37.305  18.369  12.356  1.00  0.00     0.013 A 
ATOM      3  C   UNL     1      36.528  17.699  10.172  1.00  0.00     0.120 A 
ATOM      4  C   UNL     1      38.600  18.474  11.845  1.00  0.00     0.021 A 
ATOM      5  N   UNL     1      37.798  17.810   9.698  1.00  0.00    -0.264 NA
ATOM      6  C   UNL     1      38.830  18.187  10.499  1.00  0.00     0.111 A 
ENDROOT
BRANCH   1   7
ATOM      7  C   UNL     1      34.871  17.863  12.051  1.00  0.00     0.073 C 
ATOM      8  O   UNL     1      34.536  16.872  12.753  1.00  0.00    -0.545 OA
ATOM      9  O   UNL     1      33.928  18.848  11.781  1.00  0.00    -0.545 OA
ENDBRANCH   1   7
TORSDOF 1
ENDMDL
