MODEL 1
REMARK VINA RESULT:    -4.215      0.000      0.000
REMARK INTER + INTRA:          -5.269
REMARK INTER:                  -5.077
REMARK INTRA:                  -0.192
REMARK UNBOUND:                -0.192
REMARK SMILES C=CCc1ccc(O)c(OC)c1
REMARK SMILES IDX 9 1 7 2 6 3 5 4 4 5 12 6 10 7 11 8 8 9 3 11 2 12 1 13
REMARK H PARENT 8 10
REMARK Flexibility Score: inf
ROOT
ATOM      1  C   UNL     1      84.111  31.587  65.523  1.00  0.00     0.160 A 
ATOM      2  C   UNL     1      84.095  31.757  66.914  1.00  0.00     0.157 A 
ATOM      3  C   UNL     1      85.286  32.011  67.607  1.00  0.00     0.050 A 
ATOM      4  C   UNL     1      86.497  32.092  66.919  1.00  0.00     0.008 A 
ATOM      5  C   UNL     1      86.533  31.913  65.527  1.00  0.00    -0.040 A 
ATOM      6  C   UNL     1      85.337  31.669  64.832  1.00  0.00     0.054 A 
ENDROOT
BRANCH   1   7
ATOM      7  O   UNL     1      82.897  31.339  64.864  1.00  0.00    -0.493 OA
ATOM      8  C   UNL     1      82.486  30.064  64.383  1.00  0.00     0.278 C 
ENDBRANCH   1   7
BRANCH   2   9
ATOM      9  O   UNL     1      82.885  31.676  67.604  1.00  0.00    -0.504 OA
ATOM     10  H   UNL     1      81.998  31.833  67.138  1.00  0.00     0.293 HD
ENDBRANCH   2   9
BRANCH   5  11
ATOM     11  C   UNL     1      87.833  32.030  64.778  1.00  0.00     0.062 C 
BRANCH  11  12
ATOM     12  C   UNL     1      88.111  30.777  63.994  1.00  0.00    -0.030 C 
ATOM     13  C   UNL     1      88.125  29.574  64.574  1.00  0.00     0.004 C 
ENDBRANCH  11  12
ENDBRANCH   5  11
TORSDOF 4
ENDMDL
MODEL 2
REMARK VINA RESULT:    -4.178     16.174     17.218
REMARK INTER + INTRA:          -5.225
REMARK INTER:                  -5.013
REMARK INTRA:                  -0.213
REMARK UNBOUND:                -0.192
REMARK SMILES C=CCc1ccc(O)c(OC)c1
REMARK SMILES IDX 9 1 7 2 6 3 5 4 4 5 12 6 10 7 11 8 8 9 3 11 2 12 1 13
REMARK H PARENT 8 10
REMARK Flexibility Score: inf
ROOT
ATOM      1  C   UNL     1      75.099  33.992  52.756  1.00  0.00     0.160 A 
ATOM      2  C   UNL     1      75.131  35.393  52.747  1.00  0.00     0.157 A 
ATOM      3  C   UNL     1      74.161  36.124  53.446  1.00  0.00     0.050 A 
ATOM      4  C   UNL     1      73.155  35.463  54.152  1.00  0.00     0.008 A 
ATOM      5  C   UNL     1      73.102  34.061  54.162  1.00  0.00    -0.040 A 
ATOM      6  C   UNL     1      74.081  33.329  53.471  1.00  0.00     0.054 A 
ENDROOT
BRANCH   1   7
ATOM      7  O   UNL     1      76.091  33.295  52.049  1.00  0.00    -0.493 OA
ATOM      8  C   UNL     1      76.539  31.982  52.371  1.00  0.00     0.278 C 
ENDBRANCH   1   7
BRANCH   2   9
ATOM      9  O   UNL     1      76.135  36.055  52.041  1.00  0.00    -0.504 OA
ATOM     10  H   UNL     1      76.821  35.546  51.493  1.00  0.00     0.293 HD
ENDBRANCH   2   9
BRANCH   5  11
ATOM     11  C   UNL     1      72.036  33.345  54.947  1.00  0.00     0.062 C 
BRANCH  11  12
ATOM     12  C   UNL     1      71.661  34.128  56.175  1.00  0.00    -0.030 C 
ATOM     13  C   UNL     1      71.305  33.523  57.312  1.00  0.00     0.004 C 
ENDBRANCH  11  12
ENDBRANCH   5  11
TORSDOF 4
ENDMDL
MODEL 3
REMARK VINA RESULT:    -3.887      1.586      2.053
REMARK INTER + INTRA:          -4.875
REMARK INTER:                  -4.652
REMARK INTRA:                  -0.223
REMARK UNBOUND:                -0.192
REMARK SMILES C=CCc1ccc(O)c(OC)c1
REMARK SMILES IDX 9 1 7 2 6 3 5 4 4 5 12 6 10 7 11 8 8 9 3 11 2 12 1 13
REMARK H PARENT 8 10
REMARK Flexibility Score: inf
ROOT
ATOM      1  C   UNL     1      85.077  31.171  66.047  1.00  0.00     0.160 A 
ATOM      2  C   UNL     1      85.748  31.652  67.180  1.00  0.00     0.157 A 
ATOM      3  C   UNL     1      87.108  31.370  67.367  1.00  0.00     0.050 A 
ATOM      4  C   UNL     1      87.803  30.608  66.428  1.00  0.00     0.008 A 
ATOM      5  C   UNL     1      87.145  30.109  65.294  1.00  0.00    -0.040 A 
ATOM      6  C   UNL     1      85.785  30.400  65.102  1.00  0.00     0.054 A 
ENDROOT
BRANCH   1   7
ATOM      7  O   UNL     1      83.717  31.478  65.894  1.00  0.00    -0.493 OA
ATOM      8  C   UNL     1      82.897  30.999  64.832  1.00  0.00     0.278 C 
ENDBRANCH   1   7
BRANCH   2   9
ATOM      9  O   UNL     1      85.053  32.414  68.120  1.00  0.00    -0.504 OA
ATOM     10  H   UNL     1      84.346  32.002  68.718  1.00  0.00     0.293 HD
ENDBRANCH   2   9
BRANCH   5  11
ATOM     11  C   UNL     1      87.900  29.311  64.264  1.00  0.00     0.062 C 
BRANCH  11  12
ATOM     12  C   UNL     1      88.125  27.903  64.741  1.00  0.00    -0.030 C 
ATOM     13  C   UNL     1      87.442  26.873  64.235  1.00  0.00     0.004 C 
ENDBRANCH  11  12
ENDBRANCH   5  11
TORSDOF 4
ENDMDL
MODEL 4
REMARK VINA RESULT:    -3.664     14.798     17.103
REMARK INTER + INTRA:          -4.605
REMARK INTER:                  -4.423
REMARK INTRA:                  -0.182
REMARK UNBOUND:                -0.192
REMARK SMILES C=CCc1ccc(O)c(OC)c1
REMARK SMILES IDX 9 1 7 2 6 3 5 4 4 5 12 6 10 7 11 8 8 9 3 11 2 12 1 13
REMARK H PARENT 8 10
REMARK Flexibility Score: inf
ROOT
ATOM      1  C   UNL     1      78.969  34.116  51.348  1.00  0.00     0.160 A 
ATOM      2  C   UNL     1      79.282  34.913  50.238  1.00  0.00     0.157 A 
ATOM      3  C   UNL     1      78.397  35.915  49.818  1.00  0.00     0.050 A 
ATOM      4  C   UNL     1      77.198  36.125  50.499  1.00  0.00     0.008 A 
ATOM      5  C   UNL     1      76.863  35.329  51.606  1.00  0.00    -0.040 A 
ATOM      6  C   UNL     1      77.755  34.332  52.032  1.00  0.00     0.054 A 
ENDROOT
BRANCH   1   7
ATOM      7  O   UNL     1      79.882  33.126  51.741  1.00  0.00    -0.493 OA
ATOM      8  C   UNL     1      79.526  31.917  52.403  1.00  0.00     0.278 C 
ENDBRANCH   1   7
BRANCH   2   9
ATOM      9  O   UNL     1      80.481  34.703  49.557  1.00  0.00    -0.504 OA
ATOM     10  H   UNL     1      81.170  34.038  49.889  1.00  0.00     0.293 HD
ENDBRANCH   2   9
BRANCH   5  11
ATOM     11  C   UNL     1      75.584  35.573  52.360  1.00  0.00     0.062 C 
BRANCH  11  12
ATOM     12  C   UNL     1      74.886  34.275  52.660  1.00  0.00    -0.030 C 
ATOM     13  C   UNL     1      73.557  34.202  52.773  1.00  0.00     0.004 C 
ENDBRANCH  11  12
ENDBRANCH   5  11
TORSDOF 4
ENDMDL
MODEL 5
REMARK VINA RESULT:    -3.576     16.345     16.695
REMARK INTER + INTRA:          -4.500
REMARK INTER:                  -4.348
REMARK INTRA:                  -0.152
REMARK UNBOUND:                -0.192
REMARK SMILES C=CCc1ccc(O)c(OC)c1
REMARK SMILES IDX 9 1 7 2 6 3 5 4 4 5 12 6 10 7 11 8 8 9 3 11 2 12 1 13
REMARK H PARENT 8 10
REMARK Flexibility Score: inf
ROOT
ATOM      1  C   UNL     1      75.006  35.247  52.739  1.00  0.00     0.160 A 
ATOM      2  C   UNL     1      75.012  33.845  52.723  1.00  0.00     0.157 A 
ATOM      3  C   UNL     1      76.138  33.150  52.262  1.00  0.00     0.050 A 
ATOM      4  C   UNL     1      77.261  33.848  51.814  1.00  0.00     0.008 A 
ATOM      5  C   UNL     1      77.268  35.251  51.813  1.00  0.00    -0.040 A 
ATOM      6  C   UNL     1      76.143  35.947  52.284  1.00  0.00     0.054 A 
ENDROOT
BRANCH   1   7
ATOM      7  O   UNL     1      73.862  35.907  53.211  1.00  0.00    -0.493 OA
ATOM      8  C   UNL     1      73.567  36.125  54.588  1.00  0.00     0.278 C 
ENDBRANCH   1   7
BRANCH   2   9
ATOM      9  O   UNL     1      73.890  33.147  53.170  1.00  0.00    -0.504 OA
ATOM     10  H   UNL     1      73.774  32.157  52.985  1.00  0.00     0.293 HD
ENDBRANCH   2   9
BRANCH   5  11
ATOM     11  C   UNL     1      78.488  36.006  51.358  1.00  0.00     0.062 C 
BRANCH  11  12
ATOM     12  C   UNL     1      79.535  35.063  50.834  1.00  0.00    -0.030 C 
ATOM     13  C   UNL     1      79.855  35.017  49.539  1.00  0.00     0.004 C 
ENDBRANCH  11  12
ENDBRANCH   5  11
TORSDOF 4
ENDMDL
MODEL 6
REMARK VINA RESULT:    -3.573     15.935     17.152
REMARK INTER + INTRA:          -4.496
REMARK INTER:                  -4.619
REMARK INTRA:                   0.124
REMARK UNBOUND:                -0.192
REMARK SMILES C=CCc1ccc(O)c(OC)c1
REMARK SMILES IDX 9 1 7 2 6 3 5 4 4 5 12 6 10 7 11 8 8 9 3 11 2 12 1 13
REMARK H PARENT 8 10
REMARK Flexibility Score: inf
ROOT
ATOM      1  C   UNL     1      73.968  34.932  53.449  1.00  0.00     0.160 A 
ATOM      2  C   UNL     1      74.245  33.593  53.139  1.00  0.00     0.157 A 
ATOM      3  C   UNL     1      73.658  32.562  53.885  1.00  0.00     0.050 A 
ATOM      4  C   UNL     1      72.797  32.860  54.942  1.00  0.00     0.008 A 
ATOM      5  C   UNL     1      72.518  34.195  55.272  1.00  0.00    -0.040 A 
ATOM      6  C   UNL     1      73.098  35.228  54.518  1.00  0.00     0.054 A 
ENDROOT
BRANCH   1   7
ATOM      7  O   UNL     1      74.571  35.936  52.676  1.00  0.00    -0.493 OA
ATOM      8  C   UNL     1      75.978  36.125  52.554  1.00  0.00     0.278 C 
ENDBRANCH   1   7
BRANCH   2   9
ATOM      9  O   UNL     1      75.106  33.294  52.084  1.00  0.00    -0.504 OA
ATOM     10  H   UNL     1      75.070  33.806  51.209  1.00  0.00     0.293 HD
ENDBRANCH   2   9
BRANCH   5  11
ATOM     11  C   UNL     1      71.566  34.520  56.392  1.00  0.00     0.062 C 
BRANCH  11  12
ATOM     12  C   UNL     1      71.309  33.307  57.242  1.00  0.00    -0.030 C 
ATOM     13  C   UNL     1      71.974  33.093  58.380  1.00  0.00     0.004 C 
ENDBRANCH  11  12
ENDBRANCH   5  11
TORSDOF 4
ENDMDL
MODEL 7
REMARK VINA RESULT:    -3.522     15.344     17.163
REMARK INTER + INTRA:          -4.435
REMARK INTER:                  -4.448
REMARK INTRA:                   0.013
REMARK UNBOUND:                -0.192
REMARK SMILES C=CCc1ccc(O)c(OC)c1
REMARK SMILES IDX 9 1 7 2 6 3 5 4 4 5 12 6 10 7 11 8 8 9 3 11 2 12 1 13
REMARK H PARENT 8 10
REMARK Flexibility Score: inf
ROOT
ATOM      1  C   UNL     1      76.188  33.441  52.173  1.00  0.00     0.160 A 
ATOM      2  C   UNL     1      76.931  34.558  51.767  1.00  0.00     0.157 A 
ATOM      3  C   UNL     1      76.418  35.849  51.950  1.00  0.00     0.050 A 
ATOM      4  C   UNL     1      75.164  36.032  52.533  1.00  0.00     0.008 A 
ATOM      5  C   UNL     1      74.402  34.925  52.935  1.00  0.00    -0.040 A 
ATOM      6  C   UNL     1      74.921  33.631  52.762  1.00  0.00     0.054 A 
ENDROOT
BRANCH   1   7
ATOM      7  O   UNL     1      76.737  32.164  51.978  1.00  0.00    -0.493 OA
ATOM      8  C   UNL     1      77.885  31.668  52.659  1.00  0.00     0.278 C 
ENDBRANCH   1   7
BRANCH   2   9
ATOM      9  O   UNL     1      78.184  34.376  51.183  1.00  0.00    -0.504 OA
ATOM     10  H   UNL     1      78.379  33.582  50.584  1.00  0.00     0.293 HD
ENDBRANCH   2   9
BRANCH   5  11
ATOM     11  C   UNL     1      73.062  35.120  53.592  1.00  0.00     0.062 C 
BRANCH  11  12
ATOM     12  C   UNL     1      72.417  33.795  53.891  1.00  0.00    -0.030 C 
ATOM     13  C   UNL     1      72.004  33.477  55.121  1.00  0.00     0.004 C 
ENDBRANCH  11  12
ENDBRANCH   5  11
TORSDOF 4
ENDMDL
