MODEL 1
REMARK VINA RESULT:    -5.935      0.000      0.000
REMARK INTER + INTRA:         -19.242
REMARK INTER:                 -15.649
REMARK INTRA:                  -3.592
REMARK UNBOUND:                -3.592
REMARK SMILES CCCCCCCCCCCCCCCCCCCCCCCCCCCCCC(=O)[O-]
REMARK SMILES IDX 16 1 17 2 18 3 19 4 20 5 21 6 22 7 23 8 24 9 25 10 26 11
REMARK SMILES IDX 27 12 28 13 29 14 30 15 31 16 32 17 15 18 14 19 13 20 12 21
REMARK SMILES IDX 11 22 10 23 9 24 8 25 7 26 6 27 5 28 4 29 3 30 2 31 1 32
REMARK H PARENT
REMARK Flexibility Score: inf
ROOT
ATOM      1  C   UNL     1       2.474   5.645  18.898  1.00  0.00     0.000 C 
ENDROOT
BRANCH   1   2
ATOM      2  C   UNL     1       2.618   4.615  20.035  1.00  0.00     0.000 C 
BRANCH   2   3
ATOM      3  C   UNL     1       1.708   3.376  19.912  1.00  0.00     0.000 C 
BRANCH   3   4
ATOM      4  C   UNL     1       2.445   2.058  19.606  1.00  0.00     0.000 C 
BRANCH   4   5
ATOM      5  C   UNL     1       3.896   2.276  19.153  1.00  0.00     0.000 C 
BRANCH   5   6
ATOM      6  C   UNL     1       4.416   1.068  18.363  1.00  0.00     0.000 C 
BRANCH   6   7
ATOM      7  C   UNL     1       4.510  -0.173  19.263  1.00  0.00     0.000 C 
BRANCH   7   8
ATOM      8  C   UNL     1       4.884  -1.444  18.484  1.00  0.00     0.000 C 
BRANCH   8   9
ATOM      9  C   UNL     1       5.813  -1.153  17.292  1.00  0.00     0.000 C 
BRANCH   9  10
ATOM     10  C   UNL     1       5.060  -1.106  15.951  1.00  0.00     0.000 C 
BRANCH  10  11
ATOM     11  C   UNL     1       5.688  -0.181  14.889  1.00  0.00     0.000 C 
BRANCH  11  12
ATOM     12  C   UNL     1       5.139  -0.362  13.461  1.00  0.00     0.000 C 
BRANCH  12  13
ATOM     13  C   UNL     1       3.708  -0.922  13.437  1.00  0.00     0.006 C 
BRANCH  13  14
ATOM     14  C   UNL     1       2.675   0.187  13.664  1.00  0.00     0.053 C 
BRANCH  14  15
ATOM     15  C   UNL     1       1.655  -0.235  14.676  1.00  0.00     0.041 C 
ATOM     16  O   UNL     1       0.827   0.601  15.130  1.00  0.00    -0.550 OA
ATOM     17  O   UNL     1       1.623  -1.550  15.124  1.00  0.00    -0.550 OA
ENDBRANCH  14  15
ENDBRANCH  13  14
ENDBRANCH  12  13
ENDBRANCH  11  12
ENDBRANCH  10  11
ENDBRANCH   9  10
ENDBRANCH   8   9
ENDBRANCH   7   8
ENDBRANCH   6   7
ENDBRANCH   5   6
ENDBRANCH   4   5
ENDBRANCH   3   4
ENDBRANCH   2   3
ENDBRANCH   1   2
BRANCH   1  18
ATOM     18  C   UNL     1       2.143   5.049  17.515  1.00  0.00     0.000 C 
BRANCH  18  19
ATOM     19  C   UNL     1       3.339   4.947  16.550  1.00  0.00     0.000 C 
BRANCH  19  20
ATOM     20  C   UNL     1       3.356   3.630  15.760  1.00  0.00     0.000 C 
BRANCH  20  21
ATOM     21  C   UNL     1       3.168   3.888  14.257  1.00  0.00     0.000 C 
BRANCH  21  22
ATOM     22  C   UNL     1       4.437   3.589  13.438  1.00  0.00     0.000 C 
BRANCH  22  23
ATOM     23  C   UNL     1       5.169   4.831  12.887  1.00  0.00     0.000 C 
BRANCH  23  24
ATOM     24  C   UNL     1       4.378   6.149  12.973  1.00  0.00    -0.000 C 
BRANCH  24  25
ATOM     25  C   UNL     1       5.288   7.387  13.001  1.00  0.00    -0.000 C 
BRANCH  25  26
ATOM     26  C   UNL     1       6.407   7.226  14.044  1.00  0.00    -0.000 C 
BRANCH  26  27
ATOM     27  C   UNL     1       5.957   7.628  15.458  1.00  0.00    -0.000 C 
BRANCH  27  28
ATOM     28  C   UNL     1       4.703   8.520  15.447  1.00  0.00    -0.000 C 
BRANCH  28  29
ATOM     29  C   UNL     1       3.748   8.211  16.610  1.00  0.00    -0.000 C 
BRANCH  29  30
ATOM     30  C   UNL     1       3.716   9.327  17.668  1.00  0.00    -0.000 C 
BRANCH  30  31
ATOM     31  C   UNL     1       2.323   9.502  18.293  1.00  0.00    -0.003 C 
ATOM     32  C   UNL     1       2.245   8.950  19.717  1.00  0.00     0.004 C 
ENDBRANCH  30  31
ENDBRANCH  29  30
ENDBRANCH  28  29
ENDBRANCH  27  28
ENDBRANCH  26  27
ENDBRANCH  25  26
ENDBRANCH  24  25
ENDBRANCH  23  24
ENDBRANCH  22  23
ENDBRANCH  21  22
ENDBRANCH  20  21
ENDBRANCH  19  20
ENDBRANCH  18  19
ENDBRANCH   1  18
TORSDOF 28
ENDMDL
MODEL 2
REMARK VINA RESULT:    -5.858      2.747      8.054
REMARK INTER + INTRA:         -19.038
REMARK INTER:                 -15.705
REMARK INTRA:                  -3.333
REMARK UNBOUND:                -3.592
REMARK SMILES CCCCCCCCCCCCCCCCCCCCCCCCCCCCCC(=O)[O-]
REMARK SMILES IDX 16 1 17 2 18 3 19 4 20 5 21 6 22 7 23 8 24 9 25 10 26 11
REMARK SMILES IDX 27 12 28 13 29 14 30 15 31 16 32 17 15 18 14 19 13 20 12 21
REMARK SMILES IDX 11 22 10 23 9 24 8 25 7 26 6 27 5 28 4 29 3 30 2 31 1 32
REMARK H PARENT
REMARK Flexibility Score: inf
ROOT
ATOM      1  C   UNL     1       2.225   5.493  19.238  1.00  0.00     0.000 C 
ENDROOT
BRANCH   1   2
ATOM      2  C   UNL     1       1.873   5.371  17.742  1.00  0.00     0.000 C 
BRANCH   2   3
ATOM      3  C   UNL     1       3.040   4.945  16.830  1.00  0.00     0.000 C 
BRANCH   3   4
ATOM      4  C   UNL     1       2.808   3.641  16.044  1.00  0.00     0.000 C 
BRANCH   4   5
ATOM      5  C   UNL     1       2.824   3.850  14.523  1.00  0.00     0.000 C 
BRANCH   5   6
ATOM      6  C   UNL     1       4.247   4.118  14.016  1.00  0.00     0.000 C 
BRANCH   6   7
ATOM      7  C   UNL     1       4.238   5.159  12.887  1.00  0.00     0.000 C 
BRANCH   7   8
ATOM      8  C   UNL     1       5.501   6.034  12.875  1.00  0.00     0.000 C 
BRANCH   8   9
ATOM      9  C   UNL     1       5.180   7.535  12.992  1.00  0.00     0.000 C 
BRANCH   9  10
ATOM     10  C   UNL     1       6.036   8.243  14.057  1.00  0.00     0.000 C 
BRANCH  10  11
ATOM     11  C   UNL     1       5.871   7.694  15.488  1.00  0.00     0.000 C 
BRANCH  11  12
ATOM     12  C   UNL     1       4.439   7.758  16.050  1.00  0.00     0.000 C 
BRANCH  12  13
ATOM     13  C   UNL     1       4.205   8.978  16.956  1.00  0.00     0.006 C 
BRANCH  13  14
ATOM     14  C   UNL     1       2.822   8.923  17.613  1.00  0.00     0.053 C 
BRANCH  14  15
ATOM     15  C   UNL     1       2.884   9.421  19.024  1.00  0.00     0.041 C 
ATOM     16  O   UNL     1       2.230   8.839  19.933  1.00  0.00    -0.550 OA
ATOM     17  O   UNL     1       3.658  10.532  19.336  1.00  0.00    -0.550 OA
ENDBRANCH  14  15
ENDBRANCH  13  14
ENDBRANCH  12  13
ENDBRANCH  11  12
ENDBRANCH  10  11
ENDBRANCH   9  10
ENDBRANCH   8   9
ENDBRANCH   7   8
ENDBRANCH   6   7
ENDBRANCH   5   6
ENDBRANCH   4   5
ENDBRANCH   3   4
ENDBRANCH   2   3
ENDBRANCH   1   2
BRANCH   1  18
ATOM     18  C   UNL     1       2.163   4.172  20.033  1.00  0.00     0.000 C 
BRANCH  18  19
ATOM     19  C   UNL     1       3.385   3.251  19.857  1.00  0.00     0.000 C 
BRANCH  19  20
ATOM     20  C   UNL     1       3.034   1.923  19.172  1.00  0.00     0.000 C 
BRANCH  20  21
ATOM     21  C   UNL     1       4.280   1.283  18.541  1.00  0.00     0.000 C 
BRANCH  21  22
ATOM     22  C   UNL     1       4.815   0.091  19.354  1.00  0.00     0.000 C 
BRANCH  22  23
ATOM     23  C   UNL     1       5.279  -1.118  18.515  1.00  0.00     0.000 C 
BRANCH  23  24
ATOM     24  C   UNL     1       4.769  -1.143  17.063  1.00  0.00    -0.000 C 
BRANCH  24  25
ATOM     25  C   UNL     1       5.804  -0.612  16.060  1.00  0.00    -0.000 C 
BRANCH  25  26
ATOM     26  C   UNL     1       5.323   0.695  15.410  1.00  0.00    -0.000 C 
BRANCH  26  27
ATOM     27  C   UNL     1       5.439   0.670  13.877  1.00  0.00    -0.000 C 
BRANCH  27  28
ATOM     28  C   UNL     1       5.352  -0.755  13.302  1.00  0.00    -0.000 C 
BRANCH  28  29
ATOM     29  C   UNL     1       3.962  -1.383  13.489  1.00  0.00    -0.000 C 
BRANCH  29  30
ATOM     30  C   UNL     1       2.850  -0.333  13.654  1.00  0.00    -0.000 C 
BRANCH  30  31
ATOM     31  C   UNL     1       1.897  -0.666  14.812  1.00  0.00    -0.003 C 
ATOM     32  C   UNL     1       0.888   0.451  15.083  1.00  0.00     0.004 C 
ENDBRANCH  30  31
ENDBRANCH  29  30
ENDBRANCH  28  29
ENDBRANCH  27  28
ENDBRANCH  26  27
ENDBRANCH  25  26
ENDBRANCH  24  25
ENDBRANCH  23  24
ENDBRANCH  22  23
ENDBRANCH  21  22
ENDBRANCH  20  21
ENDBRANCH  19  20
ENDBRANCH  18  19
ENDBRANCH   1  18
TORSDOF 28
ENDMDL
MODEL 3
REMARK VINA RESULT:    -5.650      1.039      7.253
REMARK INTER + INTRA:         -18.491
REMARK INTER:                 -15.288
REMARK INTRA:                  -3.203
REMARK UNBOUND:                -3.592
REMARK SMILES CCCCCCCCCCCCCCCCCCCCCCCCCCCCCC(=O)[O-]
REMARK SMILES IDX 16 1 17 2 18 3 19 4 20 5 21 6 22 7 23 8 24 9 25 10 26 11
REMARK SMILES IDX 27 12 28 13 29 14 30 15 31 16 32 17 15 18 14 19 13 20 12 21
REMARK SMILES IDX 11 22 10 23 9 24 8 25 7 26 6 27 5 28 4 29 3 30 2 31 1 32
REMARK H PARENT
REMARK Flexibility Score: inf
ROOT
ATOM      1  C   UNL     1       2.250   7.822  19.540  1.00  0.00     0.000 C 
ENDROOT
BRANCH   1   2
ATOM      2  C   UNL     1       2.419   9.209  18.887  1.00  0.00     0.000 C 
BRANCH   2   3
ATOM      3  C   UNL     1       3.681   9.370  18.016  1.00  0.00     0.000 C 
BRANCH   3   4
ATOM      4  C   UNL     1       3.489   9.033  16.526  1.00  0.00     0.000 C 
BRANCH   4   5
ATOM      5  C   UNL     1       4.640   8.194  15.951  1.00  0.00     0.000 C 
BRANCH   5   6
ATOM      6  C   UNL     1       5.198   8.826  14.669  1.00  0.00     0.000 C 
BRANCH   6   7
ATOM      7  C   UNL     1       5.161   7.824  13.505  1.00  0.00     0.000 C 
BRANCH   7   8
ATOM      8  C   UNL     1       5.649   6.425  13.911  1.00  0.00     0.000 C 
BRANCH   8   9
ATOM      9  C   UNL     1       5.027   5.310  13.050  1.00  0.00     0.000 C 
BRANCH   9  10
ATOM     10  C   UNL     1       3.833   4.626  13.737  1.00  0.00     0.000 C 
BRANCH  10  11
ATOM     11  C   UNL     1       3.841   4.706  15.277  1.00  0.00     0.000 C 
BRANCH  11  12
ATOM     12  C   UNL     1       3.347   3.437  15.998  1.00  0.00     0.000 C 
BRANCH  12  13
ATOM     13  C   UNL     1       2.363   2.614  15.152  1.00  0.00     0.006 C 
BRANCH  13  14
ATOM     14  C   UNL     1       2.476   1.119  15.471  1.00  0.00     0.053 C 
BRANCH  14  15
ATOM     15  C   UNL     1       1.363   0.353  14.826  1.00  0.00     0.041 C 
ATOM     16  O   UNL     1       0.170   0.530  15.197  1.00  0.00    -0.550 OA
ATOM     17  O   UNL     1       1.642  -0.565  13.819  1.00  0.00    -0.550 OA
ENDBRANCH  14  15
ENDBRANCH  13  14
ENDBRANCH  12  13
ENDBRANCH  11  12
ENDBRANCH  10  11
ENDBRANCH   9  10
ENDBRANCH   8   9
ENDBRANCH   7   8
ENDBRANCH   6   7
ENDBRANCH   5   6
ENDBRANCH   4   5
ENDBRANCH   3   4
ENDBRANCH   2   3
ENDBRANCH   1   2
BRANCH   1  18
ATOM     18  C   UNL     1       1.789   6.703  18.584  1.00  0.00     0.000 C 
BRANCH  18  19
ATOM     19  C   UNL     1       2.623   5.410  18.651  1.00  0.00     0.000 C 
BRANCH  19  20
ATOM     20  C   UNL     1       2.558   4.730  20.026  1.00  0.00     0.000 C 
BRANCH  20  21
ATOM     21  C   UNL     1       2.484   3.202  19.882  1.00  0.00     0.000 C 
BRANCH  21  22
ATOM     22  C   UNL     1       3.548   2.642  18.922  1.00  0.00     0.000 C 
BRANCH  22  23
ATOM     23  C   UNL     1       4.090   1.245  19.287  1.00  0.00     0.000 C 
BRANCH  23  24
ATOM     24  C   UNL     1       4.852   0.522  18.161  1.00  0.00    -0.000 C 
BRANCH  24  25
ATOM     25  C   UNL     1       5.615  -0.716  18.659  1.00  0.00    -0.000 C 
BRANCH  25  26
ATOM     26  C   UNL     1       5.471  -1.886  17.673  1.00  0.00    -0.000 C 
BRANCH  26  27
ATOM     27  C   UNL     1       5.553  -1.433  16.205  1.00  0.00    -0.000 C 
BRANCH  27  28
ATOM     28  C   UNL     1       4.304  -1.824  15.397  1.00  0.00    -0.000 C 
BRANCH  28  29
ATOM     29  C   UNL     1       4.623  -2.125  13.924  1.00  0.00    -0.000 C 
BRANCH  29  30
ATOM     30  C   UNL     1       5.618  -1.123  13.314  1.00  0.00    -0.000 C 
BRANCH  30  31
ATOM     31  C   UNL     1       4.992   0.261  13.087  1.00  0.00    -0.003 C 
ATOM     32  C   UNL     1       6.040   1.369  12.972  1.00  0.00     0.004 C 
ENDBRANCH  30  31
ENDBRANCH  29  30
ENDBRANCH  28  29
ENDBRANCH  27  28
ENDBRANCH  26  27
ENDBRANCH  25  26
ENDBRANCH  24  25
ENDBRANCH  23  24
ENDBRANCH  22  23
ENDBRANCH  21  22
ENDBRANCH  20  21
ENDBRANCH  19  20
ENDBRANCH  18  19
ENDBRANCH   1  18
TORSDOF 28
ENDMDL
MODEL 4
REMARK VINA RESULT:    -5.645      1.806      8.357
REMARK INTER + INTRA:         -18.478
REMARK INTER:                 -15.072
REMARK INTRA:                  -3.406
REMARK UNBOUND:                -3.592
REMARK SMILES CCCCCCCCCCCCCCCCCCCCCCCCCCCCCC(=O)[O-]
REMARK SMILES IDX 16 1 17 2 18 3 19 4 20 5 21 6 22 7 23 8 24 9 25 10 26 11
REMARK SMILES IDX 27 12 28 13 29 14 30 15 31 16 32 17 15 18 14 19 13 20 12 21
REMARK SMILES IDX 11 22 10 23 9 24 8 25 7 26 6 27 5 28 4 29 3 30 2 31 1 32
REMARK H PARENT
REMARK Flexibility Score: inf
ROOT
ATOM      1  C   UNL     1       4.540   3.993  14.607  1.00  0.00     0.000 C 
ENDROOT
BRANCH   1   2
ATOM      2  C   UNL     1       4.243   4.592  13.218  1.00  0.00     0.000 C 
BRANCH   2   3
ATOM      3  C   UNL     1       4.438   6.118  13.111  1.00  0.00     0.000 C 
BRANCH   3   4
ATOM      4  C   UNL     1       5.900   6.577  12.955  1.00  0.00     0.000 C 
BRANCH   4   5
ATOM      5  C   UNL     1       6.348   7.531  14.072  1.00  0.00     0.000 C 
BRANCH   5   6
ATOM      6  C   UNL     1       5.401   7.457  15.276  1.00  0.00     0.000 C 
BRANCH   6   7
ATOM      7  C   UNL     1       4.680   8.797  15.487  1.00  0.00     0.000 C 
BRANCH   7   8
ATOM      8  C   UNL     1       3.744   8.783  16.706  1.00  0.00     0.000 C 
BRANCH   8   9
ATOM      9  C   UNL     1       4.251   9.679  17.850  1.00  0.00     0.000 C 
BRANCH   9  10
ATOM     10  C   UNL     1       3.247   9.785  19.010  1.00  0.00     0.000 C 
BRANCH  10  11
ATOM     11  C   UNL     1       1.977   8.926  18.847  1.00  0.00     0.000 C 
BRANCH  11  12
ATOM     12  C   UNL     1       1.983   7.598  19.625  1.00  0.00     0.000 C 
BRANCH  12  13
ATOM     13  C   UNL     1       2.278   6.383  18.731  1.00  0.00     0.006 C 
BRANCH  13  14
ATOM     14  C   UNL     1       2.605   5.143  19.571  1.00  0.00     0.053 C 
BRANCH  14  15
ATOM     15  C   UNL     1       1.432   4.214  19.627  1.00  0.00     0.041 C 
ATOM     16  O   UNL     1       0.448   4.386  18.856  1.00  0.00    -0.550 OA
ATOM     17  O   UNL     1       1.421   3.162  20.534  1.00  0.00    -0.550 OA
ENDBRANCH  14  15
ENDBRANCH  13  14
ENDBRANCH  12  13
ENDBRANCH  11  12
ENDBRANCH  10  11
ENDBRANCH   9  10
ENDBRANCH   8   9
ENDBRANCH   7   8
ENDBRANCH   6   7
ENDBRANCH   5   6
ENDBRANCH   4   5
ENDBRANCH   3   4
ENDBRANCH   2   3
ENDBRANCH   1   2
BRANCH   1  18
ATOM     18  C   UNL     1       3.413   3.119  15.195  1.00  0.00     0.000 C 
BRANCH  18  19
ATOM     19  C   UNL     1       3.338   3.107  16.733  1.00  0.00     0.000 C 
BRANCH  19  20
ATOM     20  C   UNL     1       3.470   1.696  17.324  1.00  0.00     0.000 C 
BRANCH  20  21
ATOM     21  C   UNL     1       4.047   1.748  18.747  1.00  0.00     0.000 C 
BRANCH  21  22
ATOM     22  C   UNL     1       4.419   0.357  19.290  1.00  0.00     0.000 C 
BRANCH  22  23
ATOM     23  C   UNL     1       5.659  -0.291  18.638  1.00  0.00     0.000 C 
BRANCH  23  24
ATOM     24  C   UNL     1       5.389  -1.603  17.878  1.00  0.00    -0.000 C 
BRANCH  24  25
ATOM     25  C   UNL     1       5.072  -1.375  16.392  1.00  0.00    -0.000 C 
BRANCH  25  26
ATOM     26  C   UNL     1       5.699  -0.064  15.889  1.00  0.00    -0.000 C 
BRANCH  26  27
ATOM     27  C   UNL     1       5.423   0.187  14.398  1.00  0.00    -0.000 C 
BRANCH  27  28
ATOM     28  C   UNL     1       5.290  -1.118  13.594  1.00  0.00    -0.000 C 
BRANCH  28  29
ATOM     29  C   UNL     1       3.827  -1.545  13.398  1.00  0.00    -0.000 C 
BRANCH  29  30
ATOM     30  C   UNL     1       2.834  -0.396  13.637  1.00  0.00    -0.000 C 
BRANCH  30  31
ATOM     31  C   UNL     1       1.779  -0.745  14.699  1.00  0.00    -0.003 C 
ATOM     32  C   UNL     1       0.849   0.429  15.011  1.00  0.00     0.004 C 
ENDBRANCH  30  31
ENDBRANCH  29  30
ENDBRANCH  28  29
ENDBRANCH  27  28
ENDBRANCH  26  27
ENDBRANCH  25  26
ENDBRANCH  24  25
ENDBRANCH  23  24
ENDBRANCH  22  23
ENDBRANCH  21  22
ENDBRANCH  20  21
ENDBRANCH  19  20
ENDBRANCH  18  19
ENDBRANCH   1  18
TORSDOF 28
ENDMDL
MODEL 5
REMARK VINA RESULT:    -5.644      0.786      3.611
REMARK INTER + INTRA:         -18.475
REMARK INTER:                 -15.033
REMARK INTRA:                  -3.441
REMARK UNBOUND:                -3.592
REMARK SMILES CCCCCCCCCCCCCCCCCCCCCCCCCCCCCC(=O)[O-]
REMARK SMILES IDX 16 1 17 2 18 3 19 4 20 5 21 6 22 7 23 8 24 9 25 10 26 11
REMARK SMILES IDX 27 12 28 13 29 14 30 15 31 16 32 17 15 18 14 19 13 20 12 21
REMARK SMILES IDX 11 22 10 23 9 24 8 25 7 26 6 27 5 28 4 29 3 30 2 31 1 32
REMARK H PARENT
REMARK Flexibility Score: inf
ROOT
ATOM      1  C   UNL     1       1.834   5.222  18.889  1.00  0.00     0.000 C 
ENDROOT
BRANCH   1   2
ATOM      2  C   UNL     1       2.645   4.379  19.892  1.00  0.00     0.000 C 
BRANCH   2   3
ATOM      3  C   UNL     1       2.695   2.868  19.584  1.00  0.00     0.000 C 
BRANCH   3   4
ATOM      4  C   UNL     1       3.062   2.514  18.131  1.00  0.00     0.000 C 
BRANCH   4   5
ATOM      5  C   UNL     1       4.288   1.594  18.033  1.00  0.00     0.000 C 
BRANCH   5   6
ATOM      6  C   UNL     1       4.478   0.786  19.323  1.00  0.00     0.000 C 
BRANCH   6   7
ATOM      7  C   UNL     1       5.466  -0.369  19.103  1.00  0.00     0.000 C 
BRANCH   7   8
ATOM      8  C   UNL     1       4.870  -1.509  18.263  1.00  0.00     0.000 C 
BRANCH   8   9
ATOM      9  C   UNL     1       5.645  -1.745  16.954  1.00  0.00     0.000 C 
BRANCH   9  10
ATOM     10  C   UNL     1       4.885  -1.242  15.715  1.00  0.00     0.000 C 
BRANCH  10  11
ATOM     11  C   UNL     1       5.764  -0.558  14.650  1.00  0.00     0.000 C 
BRANCH  11  12
ATOM     12  C   UNL     1       4.991   0.200  13.555  1.00  0.00     0.000 C 
BRANCH  12  13
ATOM     13  C   UNL     1       3.531  -0.260  13.427  1.00  0.00     0.006 C 
BRANCH  13  14
ATOM     14  C   UNL     1       2.602   0.593  14.297  1.00  0.00     0.053 C 
BRANCH  14  15
ATOM     15  C   UNL     1       1.421  -0.205  14.756  1.00  0.00     0.041 C 
ATOM     16  O   UNL     1       1.487  -1.464  14.809  1.00  0.00    -0.550 OA
ATOM     17  O   UNL     1       0.245   0.440  15.121  1.00  0.00    -0.550 OA
ENDBRANCH  14  15
ENDBRANCH  13  14
ENDBRANCH  12  13
ENDBRANCH  11  12
ENDBRANCH  10  11
ENDBRANCH   9  10
ENDBRANCH   8   9
ENDBRANCH   7   8
ENDBRANCH   6   7
ENDBRANCH   5   6
ENDBRANCH   4   5
ENDBRANCH   3   4
ENDBRANCH   2   3
ENDBRANCH   1   2
BRANCH   1  18
ATOM     18  C   UNL     1       2.453   6.590  18.535  1.00  0.00     0.000 C 
BRANCH  18  19
ATOM     19  C   UNL     1       1.873   7.786  19.312  1.00  0.00     0.000 C 
BRANCH  19  20
ATOM     20  C   UNL     1       2.148   9.131  18.626  1.00  0.00     0.000 C 
BRANCH  20  21
ATOM     21  C   UNL     1       3.591   9.595  18.882  1.00  0.00     0.000 C 
BRANCH  21  22
ATOM     22  C   UNL     1       4.479   9.496  17.629  1.00  0.00     0.000 C 
BRANCH  22  23
ATOM     23  C   UNL     1       3.752   9.049  16.344  1.00  0.00     0.000 C 
BRANCH  23  24
ATOM     24  C   UNL     1       4.667   8.774  15.136  1.00  0.00    -0.000 C 
BRANCH  24  25
ATOM     25  C   UNL     1       5.665   7.635  15.393  1.00  0.00    -0.000 C 
BRANCH  25  26
ATOM     26  C   UNL     1       6.400   7.243  14.101  1.00  0.00    -0.000 C 
BRANCH  26  27
ATOM     27  C   UNL     1       5.472   7.232  12.875  1.00  0.00    -0.000 C 
BRANCH  27  28
ATOM     28  C   UNL     1       4.508   6.033  12.876  1.00  0.00    -0.000 C 
BRANCH  28  29
ATOM     29  C   UNL     1       5.240   4.686  12.977  1.00  0.00    -0.000 C 
BRANCH  29  30
ATOM     30  C   UNL     1       4.628   3.754  14.037  1.00  0.00    -0.000 C 
BRANCH  30  31
ATOM     31  C   UNL     1       3.679   4.495  14.991  1.00  0.00    -0.003 C 
ATOM     32  C   UNL     1       2.275   3.890  15.011  1.00  0.00     0.004 C 
ENDBRANCH  30  31
ENDBRANCH  29  30
ENDBRANCH  28  29
ENDBRANCH  27  28
ENDBRANCH  26  27
ENDBRANCH  25  26
ENDBRANCH  24  25
ENDBRANCH  23  24
ENDBRANCH  22  23
ENDBRANCH  21  22
ENDBRANCH  20  21
ENDBRANCH  19  20
ENDBRANCH  18  19
ENDBRANCH   1  18
TORSDOF 28
ENDMDL
MODEL 6
REMARK VINA RESULT:    -5.503      1.415      4.983
REMARK INTER + INTRA:         -18.103
REMARK INTER:                 -14.532
REMARK INTRA:                  -3.572
REMARK UNBOUND:                -3.592
REMARK SMILES CCCCCCCCCCCCCCCCCCCCCCCCCCCCCC(=O)[O-]
REMARK SMILES IDX 16 1 17 2 18 3 19 4 20 5 21 6 22 7 23 8 24 9 25 10 26 11
REMARK SMILES IDX 27 12 28 13 29 14 30 15 31 16 32 17 15 18 14 19 13 20 12 21
REMARK SMILES IDX 11 22 10 23 9 24 8 25 7 26 6 27 5 28 4 29 3 30 2 31 1 32
REMARK H PARENT
REMARK Flexibility Score: inf
ROOT
ATOM      1  C   UNL     1       2.853   9.508  18.646  1.00  0.00     0.000 C 
ENDROOT
BRANCH   1   2
ATOM      2  C   UNL     1       2.234   8.460  19.592  1.00  0.00     0.000 C 
BRANCH   2   3
ATOM      3  C   UNL     1       1.873   7.116  18.928  1.00  0.00     0.000 C 
BRANCH   3   4
ATOM      4  C   UNL     1       2.427   5.869  19.644  1.00  0.00     0.000 C 
BRANCH   4   5
ATOM      5  C   UNL     1       2.557   4.655  18.713  1.00  0.00     0.000 C 
BRANCH   5   6
ATOM      6  C   UNL     1       1.863   3.424  19.310  1.00  0.00     0.000 C 
BRANCH   6   7
ATOM      7  C   UNL     1       2.851   2.256  19.454  1.00  0.00     0.000 C 
BRANCH   7   8
ATOM      8  C   UNL     1       4.032   2.354  18.476  1.00  0.00     0.000 C 
BRANCH   8   9
ATOM      9  C   UNL     1       4.513   0.974  17.993  1.00  0.00     0.000 C 
BRANCH   9  10
ATOM     10  C   UNL     1       4.487  -0.087  19.106  1.00  0.00     0.000 C 
BRANCH  10  11
ATOM     11  C   UNL     1       4.859  -1.512  18.651  1.00  0.00     0.000 C 
BRANCH  11  12
ATOM     12  C   UNL     1       5.862  -1.582  17.484  1.00  0.00     0.000 C 
BRANCH  12  13
ATOM     13  C   UNL     1       5.198  -1.392  16.112  1.00  0.00     0.006 C 
BRANCH  13  14
ATOM     14  C   UNL     1       5.879  -0.273  15.316  1.00  0.00     0.053 C 
BRANCH  14  15
ATOM     15  C   UNL     1       5.559  -0.387  13.858  1.00  0.00     0.041 C 
ATOM     16  O   UNL     1       4.997  -1.424  13.409  1.00  0.00    -0.550 OA
ATOM     17  O   UNL     1       5.889   0.648  12.991  1.00  0.00    -0.550 OA
ENDBRANCH  14  15
ENDBRANCH  13  14
ENDBRANCH  12  13
ENDBRANCH  11  12
ENDBRANCH  10  11
ENDBRANCH   9  10
ENDBRANCH   8   9
ENDBRANCH   7   8
ENDBRANCH   6   7
ENDBRANCH   5   6
ENDBRANCH   4   5
ENDBRANCH   3   4
ENDBRANCH   2   3
ENDBRANCH   1   2
BRANCH   1  18
ATOM     18  C   UNL     1       3.032   9.045  17.185  1.00  0.00     0.000 C 
BRANCH  18  19
ATOM     19  C   UNL     1       4.455   8.582  16.822  1.00  0.00     0.000 C 
BRANCH  19  20
ATOM     20  C   UNL     1       4.498   7.749  15.533  1.00  0.00     0.000 C 
BRANCH  20  21
ATOM     21  C   UNL     1       5.926   7.262  15.240  1.00  0.00     0.000 C 
BRANCH  21  22
ATOM     22  C   UNL     1       6.171   7.002  13.743  1.00  0.00     0.000 C 
BRANCH  22  23
ATOM     23  C   UNL     1       4.898   6.917  12.875  1.00  0.00     0.000 C 
BRANCH  23  24
ATOM     24  C   UNL     1       4.192   5.549  12.880  1.00  0.00    -0.000 C 
BRANCH  24  25
ATOM     25  C   UNL     1       5.129   4.398  13.277  1.00  0.00    -0.000 C 
BRANCH  25  26
ATOM     26  C   UNL     1       4.613   3.676  14.532  1.00  0.00    -0.000 C 
BRANCH  26  27
ATOM     27  C   UNL     1       3.322   4.301  15.084  1.00  0.00    -0.000 C 
BRANCH  27  28
ATOM     28  C   UNL     1       2.245   3.249  15.400  1.00  0.00    -0.000 C 
BRANCH  28  29
ATOM     29  C   UNL     1       2.752   1.810  15.215  1.00  0.00    -0.000 C 
BRANCH  29  30
ATOM     30  C   UNL     1       1.614   0.776  15.180  1.00  0.00    -0.000 C 
BRANCH  30  31
ATOM     31  C   UNL     1       1.860  -0.332  14.145  1.00  0.00    -0.003 C 
ATOM     32  C   UNL     1       1.889  -1.727  14.773  1.00  0.00     0.004 C 
ENDBRANCH  30  31
ENDBRANCH  29  30
ENDBRANCH  28  29
ENDBRANCH  27  28
ENDBRANCH  26  27
ENDBRANCH  25  26
ENDBRANCH  24  25
ENDBRANCH  23  24
ENDBRANCH  22  23
ENDBRANCH  21  22
ENDBRANCH  20  21
ENDBRANCH  19  20
ENDBRANCH  18  19
ENDBRANCH   1  18
TORSDOF 28
ENDMDL
MODEL 7
REMARK VINA RESULT:    -5.420      1.915      8.041
REMARK INTER + INTRA:         -17.884
REMARK INTER:                 -14.056
REMARK INTRA:                  -3.828
REMARK UNBOUND:                -3.592
REMARK SMILES CCCCCCCCCCCCCCCCCCCCCCCCCCCCCC(=O)[O-]
REMARK SMILES IDX 16 1 17 2 18 3 19 4 20 5 21 6 22 7 23 8 24 9 25 10 26 11
REMARK SMILES IDX 27 12 28 13 29 14 30 15 31 16 32 17 15 18 14 19 13 20 12 21
REMARK SMILES IDX 11 22 10 23 9 24 8 25 7 26 6 27 5 28 4 29 3 30 2 31 1 32
REMARK H PARENT
REMARK Flexibility Score: inf
ROOT
ATOM      1  C   UNL     1       3.982   3.652  13.747  1.00  0.00     0.000 C 
ENDROOT
BRANCH   1   2
ATOM      2  C   UNL     1       4.511   4.978  14.330  1.00  0.00     0.000 C 
BRANCH   2   3
ATOM      3  C   UNL     1       4.718   6.107  13.300  1.00  0.00     0.000 C 
BRANCH   3   4
ATOM      4  C   UNL     1       5.830   7.112  13.654  1.00  0.00     0.000 C 
BRANCH   4   5
ATOM      5  C   UNL     1       5.307   8.332  14.426  1.00  0.00     0.000 C 
BRANCH   5   6
ATOM      6  C   UNL     1       5.034   7.982  15.894  1.00  0.00     0.000 C 
BRANCH   6   7
ATOM      7  C   UNL     1       3.800   8.736  16.414  1.00  0.00     0.000 C 
BRANCH   7   8
ATOM      8  C   UNL     1       4.027   9.362  17.799  1.00  0.00     0.000 C 
BRANCH   8   9
ATOM      9  C   UNL     1       2.715   9.811  18.466  1.00  0.00     0.000 C 
BRANCH   9  10
ATOM     10  C   UNL     1       2.322   8.922  19.659  1.00  0.00     0.000 C 
BRANCH  10  11
ATOM     11  C   UNL     1       1.583   7.622  19.281  1.00  0.00     0.000 C 
BRANCH  11  12
ATOM     12  C   UNL     1       2.458   6.355  19.268  1.00  0.00     0.000 C 
BRANCH  12  13
ATOM     13  C   UNL     1       2.046   5.356  18.175  1.00  0.00     0.006 C 
BRANCH  13  14
ATOM     14  C   UNL     1       1.174   4.235  18.749  1.00  0.00     0.053 C 
BRANCH  14  15
ATOM     15  C   UNL     1       1.902   3.494  19.828  1.00  0.00     0.041 C 
ATOM     16  O   UNL     1       1.266   2.769  20.641  1.00  0.00    -0.550 OA
ATOM     17  O   UNL     1       3.282   3.611  19.941  1.00  0.00    -0.550 OA
ENDBRANCH  14  15
ENDBRANCH  13  14
ENDBRANCH  12  13
ENDBRANCH  11  12
ENDBRANCH  10  11
ENDBRANCH   9  10
ENDBRANCH   8   9
ENDBRANCH   7   8
ENDBRANCH   6   7
ENDBRANCH   5   6
ENDBRANCH   4   5
ENDBRANCH   3   4
ENDBRANCH   2   3
ENDBRANCH   1   2
BRANCH   1  18
ATOM     18  C   UNL     1       5.038   2.788  13.028  1.00  0.00     0.000 C 
BRANCH  18  19
ATOM     19  C   UNL     1       5.358   1.449  13.717  1.00  0.00     0.000 C 
BRANCH  19  20
ATOM     20  C   UNL     1       4.861   0.235  12.918  1.00  0.00     0.000 C 
BRANCH  20  21
ATOM     21  C   UNL     1       5.027  -1.061  13.727  1.00  0.00     0.000 C 
BRANCH  21  22
ATOM     22  C   UNL     1       5.483  -0.806  15.175  1.00  0.00     0.000 C 
BRANCH  22  23
ATOM     23  C   UNL     1       4.961  -1.819  16.214  1.00  0.00     0.000 C 
BRANCH  23  24
ATOM     24  C   UNL     1       5.132  -1.397  17.685  1.00  0.00    -0.000 C 
BRANCH  24  25
ATOM     25  C   UNL     1       5.569   0.068  17.835  1.00  0.00    -0.000 C 
BRANCH  25  26
ATOM     26  C   UNL     1       4.361   0.980  18.104  1.00  0.00    -0.000 C 
BRANCH  26  27
ATOM     27  C   UNL     1       4.316   2.193  17.162  1.00  0.00    -0.000 C 
BRANCH  27  28
ATOM     28  C   UNL     1       3.018   2.253  16.338  1.00  0.00    -0.000 C 
BRANCH  28  29
ATOM     29  C   UNL     1       2.371   0.871  16.154  1.00  0.00    -0.000 C 
BRANCH  29  30
ATOM     30  C   UNL     1       1.308   0.854  15.042  1.00  0.00    -0.000 C 
BRANCH  30  31
ATOM     31  C   UNL     1       1.373  -0.422  14.189  1.00  0.00    -0.003 C 
ATOM     32  C   UNL     1       1.779  -1.652  15.002  1.00  0.00     0.004 C 
ENDBRANCH  30  31
ENDBRANCH  29  30
ENDBRANCH  28  29
ENDBRANCH  27  28
ENDBRANCH  26  27
ENDBRANCH  25  26
ENDBRANCH  24  25
ENDBRANCH  23  24
ENDBRANCH  22  23
ENDBRANCH  21  22
ENDBRANCH  20  21
ENDBRANCH  19  20
ENDBRANCH  18  19
ENDBRANCH   1  18
TORSDOF 28
ENDMDL
MODEL 8
REMARK VINA RESULT:    -5.419      1.188      6.529
REMARK INTER + INTRA:         -17.881
REMARK INTER:                 -14.607
REMARK INTRA:                  -3.274
REMARK UNBOUND:                -3.592
REMARK SMILES CCCCCCCCCCCCCCCCCCCCCCCCCCCCCC(=O)[O-]
REMARK SMILES IDX 16 1 17 2 18 3 19 4 20 5 21 6 22 7 23 8 24 9 25 10 26 11
REMARK SMILES IDX 27 12 28 13 29 14 30 15 31 16 32 17 15 18 14 19 13 20 12 21
REMARK SMILES IDX 11 22 10 23 9 24 8 25 7 26 6 27 5 28 4 29 3 30 2 31 1 32
REMARK H PARENT
REMARK Flexibility Score: inf
ROOT
ATOM      1  C   UNL     1       4.816   7.639  15.792  1.00  0.00     0.000 C 
ENDROOT
BRANCH   1   2
ATOM      2  C   UNL     1       6.188   7.973  15.175  1.00  0.00     0.000 C 
BRANCH   2   3
ATOM      3  C   UNL     1       6.184   8.180  13.647  1.00  0.00     0.000 C 
BRANCH   3   4
ATOM      4  C   UNL     1       5.151   7.333  12.880  1.00  0.00     0.000 C 
BRANCH   4   5
ATOM      5  C   UNL     1       5.423   5.825  12.981  1.00  0.00     0.000 C 
BRANCH   5   6
ATOM      6  C   UNL     1       4.149   5.058  13.361  1.00  0.00     0.000 C 
BRANCH   6   7
ATOM      7  C   UNL     1       4.426   4.076  14.509  1.00  0.00     0.000 C 
BRANCH   7   8
ATOM      8  C   UNL     1       3.656   2.755  14.359  1.00  0.00     0.000 C 
BRANCH   8   9
ATOM      9  C   UNL     1       4.264   1.836  13.285  1.00  0.00     0.000 C 
BRANCH   9  10
ATOM     10  C   UNL     1       5.292   0.848  13.862  1.00  0.00     0.000 C 
BRANCH  10  11
ATOM     11  C   UNL     1       5.703  -0.290  12.907  1.00  0.00     0.000 C 
BRANCH  11  12
ATOM     12  C   UNL     1       4.939  -1.613  13.103  1.00  0.00     0.000 C 
BRANCH  12  13
ATOM     13  C   UNL     1       4.223  -1.695  14.460  1.00  0.00     0.006 C 
BRANCH  13  14
ATOM     14  C   UNL     1       2.714  -1.893  14.280  1.00  0.00     0.053 C 
BRANCH  14  15
ATOM     15  C   UNL     1       1.959  -0.695  14.766  1.00  0.00     0.041 C 
ATOM     16  O   UNL     1       0.874  -0.361  14.215  1.00  0.00    -0.550 OA
ATOM     17  O   UNL     1       2.456   0.058  15.823  1.00  0.00    -0.550 OA
ENDBRANCH  14  15
ENDBRANCH  13  14
ENDBRANCH  12  13
ENDBRANCH  11  12
ENDBRANCH  10  11
ENDBRANCH   9  10
ENDBRANCH   8   9
ENDBRANCH   7   8
ENDBRANCH   6   7
ENDBRANCH   5   6
ENDBRANCH   4   5
ENDBRANCH   3   4
ENDBRANCH   2   3
ENDBRANCH   1   2
BRANCH   1  18
ATOM     18  C   UNL     1       3.965   8.862  16.192  1.00  0.00     0.000 C 
BRANCH  18  19
ATOM     19  C   UNL     1       3.923   9.155  17.704  1.00  0.00     0.000 C 
BRANCH  19  20
ATOM     20  C   UNL     1       2.493   9.187  18.263  1.00  0.00     0.000 C 
BRANCH  20  21
ATOM     21  C   UNL     1       2.238   7.989  19.191  1.00  0.00     0.000 C 
BRANCH  21  22
ATOM     22  C   UNL     1       2.171   6.651  18.432  1.00  0.00     0.000 C 
BRANCH  22  23
ATOM     23  C   UNL     1       2.614   5.415  19.243  1.00  0.00     0.000 C 
BRANCH  23  24
ATOM     24  C   UNL     1       1.467   4.541  19.783  1.00  0.00    -0.000 C 
BRANCH  24  25
ATOM     25  C   UNL     1       1.571   3.077  19.330  1.00  0.00    -0.000 C 
BRANCH  25  26
ATOM     26  C   UNL     1       2.300   2.968  17.981  1.00  0.00    -0.000 C 
BRANCH  26  27
ATOM     27  C   UNL     1       3.744   2.461  18.130  1.00  0.00    -0.000 C 
BRANCH  27  28
ATOM     28  C   UNL     1       3.939   1.596  19.388  1.00  0.00    -0.000 C 
BRANCH  28  29
ATOM     29  C   UNL     1       4.298   0.140  19.054  1.00  0.00    -0.000 C 
BRANCH  29  30
ATOM     30  C   UNL     1       5.076   0.005  17.734  1.00  0.00    -0.000 C 
BRANCH  30  31
ATOM     31  C   UNL     1       5.966  -1.246  17.704  1.00  0.00    -0.003 C 
ATOM     32  C   UNL     1       6.293  -1.769  19.104  1.00  0.00     0.004 C 
ENDBRANCH  30  31
ENDBRANCH  29  30
ENDBRANCH  28  29
ENDBRANCH  27  28
ENDBRANCH  26  27
ENDBRANCH  25  26
ENDBRANCH  24  25
ENDBRANCH  23  24
ENDBRANCH  22  23
ENDBRANCH  21  22
ENDBRANCH  20  21
ENDBRANCH  19  20
ENDBRANCH  18  19
ENDBRANCH   1  18
TORSDOF 28
ENDMDL
MODEL 9
REMARK VINA RESULT:    -5.292      0.910      7.113
REMARK INTER + INTRA:         -17.547
REMARK INTER:                 -15.151
REMARK INTRA:                  -2.396
REMARK UNBOUND:                -3.592
REMARK SMILES CCCCCCCCCCCCCCCCCCCCCCCCCCCCCC(=O)[O-]
REMARK SMILES IDX 16 1 17 2 18 3 19 4 20 5 21 6 22 7 23 8 24 9 25 10 26 11
REMARK SMILES IDX 27 12 28 13 29 14 30 15 31 16 32 17 15 18 14 19 13 20 12 21
REMARK SMILES IDX 11 22 10 23 9 24 8 25 7 26 6 27 5 28 4 29 3 30 2 31 1 32
REMARK H PARENT
REMARK Flexibility Score: inf
ROOT
ATOM      1  C   UNL     1       3.941   8.977  17.779  1.00  0.00     0.000 C 
ENDROOT
BRANCH   1   2
ATOM      2  C   UNL     1       3.999   9.043  16.240  1.00  0.00     0.000 C 
BRANCH   2   3
ATOM      3  C   UNL     1       4.488   7.754  15.550  1.00  0.00     0.000 C 
BRANCH   3   4
ATOM      4  C   UNL     1       6.019   7.593  15.485  1.00  0.00     0.000 C 
BRANCH   4   5
ATOM      5  C   UNL     1       6.592   7.898  14.094  1.00  0.00     0.000 C 
BRANCH   5   6
ATOM      6  C   UNL     1       5.475   8.012  13.048  1.00  0.00     0.000 C 
BRANCH   6   7
ATOM      7  C   UNL     1       4.745   6.670  12.882  1.00  0.00     0.000 C 
BRANCH   7   8
ATOM      8  C   UNL     1       5.703   5.469  12.875  1.00  0.00     0.000 C 
BRANCH   8   9
ATOM      9  C   UNL     1       4.960   4.121  12.876  1.00  0.00     0.000 C 
BRANCH   9  10
ATOM     10  C   UNL     1       3.570   4.210  13.528  1.00  0.00     0.000 C 
BRANCH  10  11
ATOM     11  C   UNL     1       3.557   3.992  15.055  1.00  0.00     0.000 C 
BRANCH  11  12
ATOM     12  C   UNL     1       2.299   3.293  15.602  1.00  0.00     0.000 C 
BRANCH  12  13
ATOM     13  C   UNL     1       2.515   1.794  15.867  1.00  0.00     0.006 C 
BRANCH  13  14
ATOM     14  C   UNL     1       2.280   0.968  14.598  1.00  0.00     0.053 C 
BRANCH  14  15
ATOM     15  C   UNL     1       1.196  -0.042  14.814  1.00  0.00     0.041 C 
ATOM     16  O   UNL     1       0.016   0.334  15.055  1.00  0.00    -0.550 OA
ATOM     17  O   UNL     1       1.488  -1.399  14.757  1.00  0.00    -0.550 OA
ENDBRANCH  14  15
ENDBRANCH  13  14
ENDBRANCH  12  13
ENDBRANCH  11  12
ENDBRANCH  10  11
ENDBRANCH   9  10
ENDBRANCH   8   9
ENDBRANCH   7   8
ENDBRANCH   6   7
ENDBRANCH   5   6
ENDBRANCH   4   5
ENDBRANCH   3   4
ENDBRANCH   2   3
ENDBRANCH   1   2
BRANCH   1  18
ATOM     18  C   UNL     1       2.522   9.031  18.382  1.00  0.00     0.000 C 
BRANCH  18  19
ATOM     19  C   UNL     1       2.045   7.720  19.036  1.00  0.00     0.000 C 
BRANCH  19  20
ATOM     20  C   UNL     1       2.450   6.475  18.234  1.00  0.00     0.000 C 
BRANCH  20  21
ATOM     21  C   UNL     1       1.858   5.202  18.860  1.00  0.00     0.000 C 
BRANCH  21  22
ATOM     22  C   UNL     1       2.923   4.319  19.535  1.00  0.00     0.000 C 
BRANCH  22  23
ATOM     23  C   UNL     1       2.759   2.803  19.304  1.00  0.00     0.000 C 
BRANCH  23  24
ATOM     24  C   UNL     1       4.011   2.082  18.772  1.00  0.00    -0.000 C 
BRANCH  24  25
ATOM     25  C   UNL     1       4.098   0.620  19.235  1.00  0.00    -0.000 C 
BRANCH  25  26
ATOM     26  C   UNL     1       5.232  -0.122  18.510  1.00  0.00    -0.000 C 
BRANCH  26  27
ATOM     27  C   UNL     1       4.709  -1.190  17.534  1.00  0.00    -0.000 C 
BRANCH  27  28
ATOM     28  C   UNL     1       5.402  -1.124  16.162  1.00  0.00    -0.000 C 
BRANCH  28  29
ATOM     29  C   UNL     1       5.463   0.304  15.598  1.00  0.00    -0.000 C 
BRANCH  29  30
ATOM     30  C   UNL     1       6.095   0.365  14.198  1.00  0.00    -0.000 C 
BRANCH  30  31
ATOM     31  C   UNL     1       5.150  -0.156  13.104  1.00  0.00    -0.003 C 
ATOM     32  C   UNL     1       4.708  -1.599  13.349  1.00  0.00     0.004 C 
ENDBRANCH  30  31
ENDBRANCH  29  30
ENDBRANCH  28  29
ENDBRANCH  27  28
ENDBRANCH  26  27
ENDBRANCH  25  26
ENDBRANCH  24  25
ENDBRANCH  23  24
ENDBRANCH  22  23
ENDBRANCH  21  22
ENDBRANCH  20  21
ENDBRANCH  19  20
ENDBRANCH  18  19
ENDBRANCH   1  18
TORSDOF 28
ENDMDL
