MODEL 1
REMARK VINA RESULT:    -4.353      0.000      0.000
REMARK INTER + INTRA:          -6.841
REMARK INTER:                  -6.644
REMARK INTRA:                  -0.197
REMARK UNBOUND:                -0.197
REMARK SMILES CC1=CCC[C@H](C)C(=O)C[C@@H](C(C)C)C(=O)C1
REMARK SMILES IDX 8 1 9 2 6 3 7 4 5 5 4 6 3 7 2 8 1 9 10 11 11 12 15 13 16 14
REMARK SMILES IDX 17 15 12 17 13 18 14 19
REMARK H PARENT
REMARK Flexibility Score: 70.00
ROOT
ATOM      1  C   UNL     1      16.282 -29.614  21.598  1.00  0.00     0.136 C 
ATOM      2  O   UNL     1      16.278 -28.393  21.672  1.00  0.00    -0.299 OA
ENDROOT
BRANCH   1   3
ATOM      3  C   UNL     1      17.568 -30.392  21.821  1.00  0.00     0.053 C 
ATOM      4  C   UNL     1      18.747 -29.829  21.010  1.00  0.00     0.016 C 
BRANCH   3   5
ATOM      5  C   UNL     1      17.918 -30.549  23.321  1.00  0.00     0.015 C 
BRANCH   5   6
ATOM      6  C   UNL     1      17.518 -31.876  24.001  1.00  0.00     0.028 C 
BRANCH   6   7
ATOM      7  C   UNL     1      17.738 -33.127  23.180  1.00  0.00    -0.028 C 
ATOM      8  C   UNL     1      16.773 -33.929  22.674  1.00  0.00    -0.070 CG0
ATOM      9  C   UNL     1      17.203 -35.087  21.806  1.00  0.00     0.039 C 
ATOM     10  G   UNL     1      15.291 -33.713  22.917  1.00  0.00     0.000 G0
ENDBRANCH   6   7
ENDBRANCH   5   6
ENDBRANCH   3   5
ENDBRANCH   1   3
BRANCH   1  11
ATOM     11  C   UNL     1      14.993 -30.326  21.252  1.00  0.00     0.087 C 
BRANCH  11  12
ATOM     12  C   UNL     1      14.500 -31.238  22.405  1.00  0.00     0.066 C 
BRANCH  12  13
ATOM     13  C   UNL     1      14.619 -32.705  22.014  1.00  0.00     0.140 C 
ATOM     14  O   UNL     1      14.138 -33.083  20.955  1.00  0.00    -0.299 OA
BRANCH  13  15
ATOM     15  C   UNL     1      15.260 -33.739  22.911  1.00  0.00     0.106 CG0
ATOM     16  G   UNL     1      16.749 -33.910  22.671  1.00  0.00     0.000 G0
ENDBRANCH  13  15
ENDBRANCH  12  13
BRANCH  12  17
ATOM     17  C   UNL     1      13.054 -30.900  22.893  1.00  0.00    -0.006 C 
ATOM     18  C   UNL     1      13.056 -29.720  23.880  1.00  0.00     0.008 C 
ATOM     19  C   UNL     1      12.053 -30.622  21.755  1.00  0.00     0.008 C 
ENDBRANCH  12  17
ENDBRANCH  11  12
ENDBRANCH   1  11
TORSDOF 1
ENDMDL
MODEL 2
REMARK VINA RESULT:    -4.347      1.616      2.017
REMARK INTER + INTRA:          -6.831
REMARK INTER:                  -6.637
REMARK INTRA:                  -0.195
REMARK UNBOUND:                -0.197
REMARK SMILES CC1=CCC[C@H](C)C(=O)C[C@@H](C(C)C)C(=O)C1
REMARK SMILES IDX 8 1 9 2 6 3 7 4 5 5 4 6 3 7 2 8 1 9 10 11 11 12 15 13 16 14
REMARK SMILES IDX 17 15 12 17 13 18 14 19
REMARK H PARENT
REMARK Flexibility Score: 70.00
ROOT
ATOM      1  C   UNL     1      17.129 -30.213  22.104  1.00  0.00     0.136 C 
ATOM      2  O   UNL     1      17.389 -30.115  23.295  1.00  0.00    -0.299 OA
ENDROOT
BRANCH   1   3
ATOM      3  C   UNL     1      18.202 -29.950  21.061  1.00  0.00     0.053 C 
ATOM      4  C   UNL     1      18.893 -28.590  21.253  1.00  0.00     0.016 C 
BRANCH   3   5
ATOM      5  C   UNL     1      19.223 -31.110  20.950  1.00  0.00     0.015 C 
BRANCH   5   6
ATOM      6  C   UNL     1      18.756 -32.504  21.419  1.00  0.00     0.028 C 
BRANCH   6   7
ATOM      7  C   UNL     1      18.240 -33.424  20.336  1.00  0.00    -0.028 C 
ATOM      8  C   UNL     1      17.080 -34.119  20.365  1.00  0.00    -0.070 CG0
ATOM      9  C   UNL     1      16.705 -34.917  19.139  1.00  0.00     0.039 C 
ATOM     10  G   UNL     1      16.134 -34.121  21.552  1.00  0.00     0.000 G0
ENDBRANCH   6   7
ENDBRANCH   5   6
ENDBRANCH   3   5
ENDBRANCH   1   3
BRANCH   1  11
ATOM     11  C   UNL     1      15.717 -30.568  21.694  1.00  0.00     0.087 C 
BRANCH  11  12
ATOM     12  C   UNL     1      15.180 -31.807  22.458  1.00  0.00     0.066 C 
BRANCH  12  13
ATOM     13  C   UNL     1      15.097 -33.011  21.529  1.00  0.00     0.140 C 
ATOM     14  O   UNL     1      14.145 -33.116  20.768  1.00  0.00    -0.299 OA
BRANCH  13  15
ATOM     15  C   UNL     1      16.116 -34.127  21.547  1.00  0.00     0.106 CG0
ATOM     16  G   UNL     1      17.064 -34.100  20.362  1.00  0.00     0.000 G0
ENDBRANCH  13  15
ENDBRANCH  12  13
BRANCH  12  17
ATOM     17  C   UNL     1      13.816 -31.554  23.177  1.00  0.00    -0.006 C 
ATOM     18  C   UNL     1      13.618 -32.515  24.361  1.00  0.00     0.008 C 
ATOM     19  C   UNL     1      13.613 -30.101  23.650  1.00  0.00     0.008 C 
ENDBRANCH  12  17
ENDBRANCH  11  12
ENDBRANCH   1  11
TORSDOF 1
ENDMDL
MODEL 3
REMARK VINA RESULT:    -4.342      2.155      3.836
REMARK INTER + INTRA:          -6.824
REMARK INTER:                  -6.597
REMARK INTRA:                  -0.227
REMARK UNBOUND:                -0.197
REMARK SMILES CC1=CCC[C@H](C)C(=O)C[C@@H](C(C)C)C(=O)C1
REMARK SMILES IDX 8 1 9 2 6 3 7 4 5 5 4 6 3 7 2 8 1 9 10 11 11 12 15 13 16 14
REMARK SMILES IDX 17 15 12 17 13 18 14 19
REMARK H PARENT
REMARK Flexibility Score: 70.00
ROOT
ATOM      1  C   UNL     1      15.158 -33.892  20.474  1.00  0.00     0.136 C 
ATOM      2  O   UNL     1      14.177 -33.374  19.958  1.00  0.00    -0.299 OA
ENDROOT
BRANCH   1   3
ATOM      3  C   UNL     1      16.146 -34.676  19.626  1.00  0.00     0.053 C 
ATOM      4  C   UNL     1      17.345 -33.824  19.177  1.00  0.00     0.016 C 
BRANCH   3   5
ATOM      5  C   UNL     1      16.593 -35.998  20.299  1.00  0.00     0.015 C 
BRANCH   5   6
ATOM      6  C   UNL     1      18.036 -36.056  20.844  1.00  0.00     0.028 C 
BRANCH   6   7
ATOM      7  C   UNL     1      18.170 -36.052  22.350  1.00  0.00    -0.028 C 
ATOM      8  C   UNL     1      18.287 -34.958  23.138  1.00  0.00    -0.070 CG0
ATOM      9  C   UNL     1      18.323 -35.166  24.632  1.00  0.00     0.039 C 
ATOM     10  G   UNL     1      18.363 -33.541  22.598  1.00  0.00     0.000 G0
ENDBRANCH   6   7
ENDBRANCH   5   6
ENDBRANCH   3   5
ENDBRANCH   1   3
BRANCH   1  11
ATOM     11  C   UNL     1      15.347 -33.764  21.969  1.00  0.00     0.087 C 
BRANCH  11  12
ATOM     12  C   UNL     1      15.973 -32.402  22.366  1.00  0.00     0.066 C 
BRANCH  12  13
ATOM     13  C   UNL     1      17.283 -32.614  23.113  1.00  0.00     0.140 C 
ATOM     14  O   UNL     1      17.493 -31.989  24.143  1.00  0.00    -0.299 OA
BRANCH  13  15
ATOM     15  C   UNL     1      18.375 -33.527  22.604  1.00  0.00     0.106 CG0
ATOM     16  G   UNL     1      18.275 -34.946  23.134  1.00  0.00     0.000 G0
ENDBRANCH  13  15
ENDBRANCH  12  13
BRANCH  12  17
ATOM     17  C   UNL     1      15.005 -31.481  23.175  1.00  0.00    -0.006 C 
ATOM     18  C   UNL     1      14.389 -30.390  22.282  1.00  0.00     0.008 C 
ATOM     19  C   UNL     1      13.884 -32.239  23.914  1.00  0.00     0.008 C 
ENDBRANCH  12  17
ENDBRANCH  11  12
ENDBRANCH   1  11
TORSDOF 1
ENDMDL
MODEL 4
REMARK VINA RESULT:    -4.183      1.969      4.143
REMARK INTER + INTRA:          -6.582
REMARK INTER:                  -6.461
REMARK INTRA:                  -0.121
REMARK UNBOUND:                -0.197
REMARK SMILES CC1=CCC[C@H](C)C(=O)C[C@@H](C(C)C)C(=O)C1
REMARK SMILES IDX 8 1 9 2 6 3 7 4 5 5 4 6 3 7 2 8 1 9 10 11 11 12 15 13 16 14
REMARK SMILES IDX 17 15 12 17 13 18 14 19
REMARK H PARENT
REMARK Flexibility Score: 70.00
ROOT
ATOM      1  C   UNL     1      15.860 -34.165  21.343  1.00  0.00     0.136 C 
ATOM      2  O   UNL     1      14.852 -34.029  20.662  1.00  0.00    -0.299 OA
ENDROOT
BRANCH   1   3
ATOM      3  C   UNL     1      16.912 -35.192  20.958  1.00  0.00     0.053 C 
ATOM      4  C   UNL     1      16.485 -36.054  19.757  1.00  0.00     0.016 C 
BRANCH   3   5
ATOM      5  C   UNL     1      18.313 -34.564  20.753  1.00  0.00     0.015 C 
BRANCH   5   6
ATOM      6  C   UNL     1      18.371 -33.189  20.053  1.00  0.00     0.028 C 
BRANCH   6   7
ATOM      7  C   UNL     1      19.130 -32.108  20.788  1.00  0.00    -0.028 C 
ATOM      8  C   UNL     1      18.604 -30.973  21.303  1.00  0.00    -0.070 CG0
ATOM      9  C   UNL     1      19.521 -30.059  22.079  1.00  0.00     0.039 C 
ATOM     10  G   UNL     1      17.144 -30.584  21.155  1.00  0.00     0.000 G0
ENDBRANCH   6   7
ENDBRANCH   5   6
ENDBRANCH   3   5
ENDBRANCH   1   3
BRANCH   1  11
ATOM     11  C   UNL     1      16.020 -33.316  22.584  1.00  0.00     0.087 C 
BRANCH  11  12
ATOM     12  C   UNL     1      15.283 -31.957  22.463  1.00  0.00     0.066 C 
BRANCH  12  13
ATOM     13  C   UNL     1      16.285 -30.814  22.362  1.00  0.00     0.140 C 
ATOM     14  O   UNL     1      16.378 -30.017  23.285  1.00  0.00    -0.299 OA
BRANCH  13  15
ATOM     15  C   UNL     1      17.137 -30.581  21.135  1.00  0.00     0.106 CG0
ATOM     16  G   UNL     1      18.590 -30.977  21.323  1.00  0.00     0.000 G0
ENDBRANCH  13  15
ENDBRANCH  12  13
BRANCH  12  17
ATOM     17  C   UNL     1      14.250 -31.702  23.607  1.00  0.00    -0.006 C 
ATOM     18  C   UNL     1      12.994 -30.987  23.081  1.00  0.00     0.008 C 
ATOM     19  C   UNL     1      13.839 -32.972  24.379  1.00  0.00     0.008 C 
ENDBRANCH  12  17
ENDBRANCH  11  12
ENDBRANCH   1  11
TORSDOF 1
ENDMDL
MODEL 5
REMARK VINA RESULT:    -4.146      2.193      3.530
REMARK INTER + INTRA:          -6.524
REMARK INTER:                  -6.275
REMARK INTRA:                  -0.249
REMARK UNBOUND:                -0.197
REMARK SMILES CC1=CCC[C@H](C)C(=O)C[C@@H](C(C)C)C(=O)C1
REMARK SMILES IDX 8 1 9 2 6 3 7 4 5 5 4 6 3 7 2 8 1 9 10 11 11 12 15 13 16 14
REMARK SMILES IDX 17 15 12 17 13 18 14 19
REMARK H PARENT
REMARK Flexibility Score: 70.00
ROOT
ATOM      1  C   UNL     1      15.085 -33.686  21.025  1.00  0.00     0.136 C 
ATOM      2  O   UNL     1      14.253 -33.610  20.130  1.00  0.00    -0.299 OA
ENDROOT
BRANCH   1   3
ATOM      3  C   UNL     1      16.472 -34.234  20.735  1.00  0.00     0.053 C 
ATOM      4  C   UNL     1      16.435 -35.548  19.937  1.00  0.00     0.016 C 
BRANCH   3   5
ATOM      5  C   UNL     1      17.404 -33.184  20.081  1.00  0.00     0.015 C 
BRANCH   5   6
ATOM      6  C   UNL     1      18.528 -32.596  20.961  1.00  0.00     0.028 C 
BRANCH   6   7
ATOM      7  C   UNL     1      19.106 -33.531  22.000  1.00  0.00    -0.028 C 
ATOM      8  C   UNL     1      18.885 -33.476  23.334  1.00  0.00    -0.070 CG0
ATOM      9  C   UNL     1      19.489 -34.560  24.193  1.00  0.00     0.039 C 
ATOM     10  G   UNL     1      18.049 -32.399  24.000  1.00  0.00     0.000 G0
ENDBRANCH   6   7
ENDBRANCH   5   6
ENDBRANCH   3   5
ENDBRANCH   1   3
BRANCH   1  11
ATOM     11  C   UNL     1      14.695 -33.256  22.421  1.00  0.00     0.087 C 
BRANCH  11  12
ATOM     12  C   UNL     1      15.613 -32.130  22.965  1.00  0.00     0.066 C 
BRANCH  12  13
ATOM     13  C   UNL     1      16.558 -32.679  24.026  1.00  0.00     0.140 C 
ATOM     14  O   UNL     1      16.102 -33.334  24.952  1.00  0.00    -0.299 OA
BRANCH  13  15
ATOM     15  C   UNL     1      18.043 -32.397  24.020  1.00  0.00     0.106 CG0
ATOM     16  G   UNL     1      18.862 -33.482  23.345  1.00  0.00     0.000 G0
ENDBRANCH  13  15
ENDBRANCH  12  13
BRANCH  12  17
ATOM     17  C   UNL     1      14.829 -30.887  23.495  1.00  0.00    -0.006 C 
ATOM     18  C   UNL     1      15.508 -29.573  23.072  1.00  0.00     0.008 C 
ATOM     19  C   UNL     1      13.343 -30.857  23.087  1.00  0.00     0.008 C 
ENDBRANCH  12  17
ENDBRANCH  11  12
ENDBRANCH   1  11
TORSDOF 1
ENDMDL
MODEL 6
REMARK VINA RESULT:    -4.096      2.026      3.995
REMARK INTER + INTRA:          -6.449
REMARK INTER:                  -6.085
REMARK INTRA:                  -0.364
REMARK UNBOUND:                -0.197
REMARK SMILES CC1=CCC[C@H](C)C(=O)C[C@@H](C(C)C)C(=O)C1
REMARK SMILES IDX 8 1 9 2 6 3 7 4 5 5 4 6 3 7 2 8 1 9 10 11 11 12 15 13 16 14
REMARK SMILES IDX 17 15 12 17 13 18 14 19
REMARK H PARENT
REMARK Flexibility Score: 70.00
ROOT
ATOM      1  C   UNL     1      16.062 -33.103  24.081  1.00  0.00     0.136 C 
ATOM      2  O   UNL     1      15.031 -33.485  24.616  1.00  0.00    -0.299 OA
ENDROOT
BRANCH   1   3
ATOM      3  C   UNL     1      17.195 -34.080  23.813  1.00  0.00     0.053 C 
ATOM      4  C   UNL     1      17.275 -35.195  24.869  1.00  0.00     0.016 C 
BRANCH   3   5
ATOM      5  C   UNL     1      17.166 -34.646  22.372  1.00  0.00     0.015 C 
BRANCH   5   6
ATOM      6  C   UNL     1      18.399 -34.372  21.484  1.00  0.00     0.028 C 
BRANCH   6   7
ATOM      7  C   UNL     1      19.341 -33.299  21.982  1.00  0.00    -0.028 C 
ATOM      8  C   UNL     1      19.250 -31.974  21.724  1.00  0.00    -0.070 CG0
ATOM      9  C   UNL     1      20.247 -31.056  22.389  1.00  0.00     0.039 C 
ATOM     10  G   UNL     1      18.192 -31.368  20.821  1.00  0.00     0.000 G0
ENDBRANCH   6   7
ENDBRANCH   5   6
ENDBRANCH   3   5
ENDBRANCH   1   3
BRANCH   1  11
ATOM     11  C   UNL     1      16.197 -31.640  23.723  1.00  0.00     0.087 C 
BRANCH  11  12
ATOM     12  C   UNL     1      15.932 -31.379  22.217  1.00  0.00     0.066 C 
BRANCH  12  13
ATOM     13  C   UNL     1      17.104 -30.635  21.590  1.00  0.00     0.140 C 
ATOM     14  O   UNL     1      17.147 -29.415  21.664  1.00  0.00    -0.299 OA
BRANCH  13  15
ATOM     15  C   UNL     1      18.198 -31.337  20.819  1.00  0.00     0.106 CG0
ATOM     16  G   UNL     1      19.247 -31.981  21.707  1.00  0.00     0.000 G0
ENDBRANCH  13  15
ENDBRANCH  12  13
BRANCH  12  17
ATOM     17  C   UNL     1      14.582 -30.643  21.938  1.00  0.00    -0.006 C 
ATOM     18  C   UNL     1      13.550 -31.586  21.297  1.00  0.00     0.008 C 
ATOM     19  C   UNL     1      13.966 -29.966  23.179  1.00  0.00     0.008 C 
ENDBRANCH  12  17
ENDBRANCH  11  12
ENDBRANCH   1  11
TORSDOF 1
ENDMDL
MODEL 7
REMARK VINA RESULT:    -4.091      2.066      4.533
REMARK INTER + INTRA:          -6.441
REMARK INTER:                  -6.077
REMARK INTRA:                  -0.364
REMARK UNBOUND:                -0.197
REMARK SMILES CC1=CCC[C@H](C)C(=O)C[C@@H](C(C)C)C(=O)C1
REMARK SMILES IDX 8 1 9 2 6 3 7 4 5 5 4 6 3 7 2 8 1 9 10 11 11 12 15 13 16 14
REMARK SMILES IDX 17 15 12 17 13 18 14 19
REMARK H PARENT
REMARK Flexibility Score: 70.00
ROOT
ATOM      1  C   UNL     1      17.450 -34.343  23.265  1.00  0.00     0.136 C 
ATOM      2  O   UNL     1      18.292 -35.230  23.216  1.00  0.00    -0.299 OA
ENDROOT
BRANCH   1   3
ATOM      3  C   UNL     1      17.631 -33.166  24.210  1.00  0.00     0.053 C 
ATOM      4  C   UNL     1      18.332 -33.562  25.520  1.00  0.00     0.016 C 
BRANCH   3   5
ATOM      5  C   UNL     1      18.313 -31.954  23.528  1.00  0.00     0.015 C 
BRANCH   5   6
ATOM      6  C   UNL     1      17.540 -30.617  23.535  1.00  0.00     0.028 C 
BRANCH   6   7
ATOM      7  C   UNL     1      16.070 -30.710  23.875  1.00  0.00    -0.028 C 
ATOM      8  C   UNL     1      15.066 -30.973  23.007  1.00  0.00    -0.070 CG0
ATOM      9  C   UNL     1      13.670 -31.108  23.565  1.00  0.00     0.039 C 
ATOM     10  G   UNL     1      15.275 -31.158  21.515  1.00  0.00     0.000 G0
ENDBRANCH   6   7
ENDBRANCH   5   6
ENDBRANCH   3   5
ENDBRANCH   1   3
BRANCH   1  11
ATOM     11  C   UNL     1      16.219 -34.458  22.394  1.00  0.00     0.087 C 
BRANCH  11  12
ATOM     12  C   UNL     1      16.314 -33.572  21.125  1.00  0.00     0.066 C 
BRANCH  12  13
ATOM     13  C   UNL     1      15.141 -32.604  21.061  1.00  0.00     0.140 C 
ATOM     14  O   UNL     1      14.077 -32.982  20.590  1.00  0.00    -0.299 OA
BRANCH  13  15
ATOM     15  C   UNL     1      15.247 -31.162  21.502  1.00  0.00     0.106 CG0
ATOM     16  G   UNL     1      15.057 -30.969  22.995  1.00  0.00     0.000 G0
ENDBRANCH  13  15
ENDBRANCH  12  13
BRANCH  12  17
ATOM     17  C   UNL     1      16.444 -34.390  19.800  1.00  0.00    -0.006 C 
ATOM     18  C   UNL     1      17.826 -34.199  19.154  1.00  0.00     0.008 C 
ATOM     19  C   UNL     1      16.149 -35.895  19.958  1.00  0.00     0.008 C 
ENDBRANCH  12  17
ENDBRANCH  11  12
ENDBRANCH   1  11
TORSDOF 1
ENDMDL
MODEL 8
REMARK VINA RESULT:    -4.004      2.002      4.562
REMARK INTER + INTRA:          -6.308
REMARK INTER:                  -6.206
REMARK INTRA:                  -0.101
REMARK UNBOUND:                -0.197
REMARK SMILES CC1=CCC[C@H](C)C(=O)C[C@@H](C(C)C)C(=O)C1
REMARK SMILES IDX 8 1 9 2 6 3 7 4 5 5 4 6 3 7 2 8 1 9 10 11 11 12 15 13 16 14
REMARK SMILES IDX 17 15 12 17 13 18 14 19
REMARK H PARENT
REMARK Flexibility Score: 70.00
ROOT
ATOM      1  C   UNL     1      14.615 -32.580  22.027  1.00  0.00     0.136 C 
ATOM      2  O   UNL     1      14.310 -32.617  20.843  1.00  0.00    -0.299 OA
ENDROOT
BRANCH   1   3
ATOM      3  C   UNL     1      14.106 -31.457  22.916  1.00  0.00     0.053 C 
ATOM      4  C   UNL     1      13.566 -31.967  24.262  1.00  0.00     0.016 C 
BRANCH   3   5
ATOM      5  C   UNL     1      15.147 -30.324  23.099  1.00  0.00     0.015 C 
BRANCH   5   6
ATOM      6  C   UNL     1      15.782 -29.740  21.819  1.00  0.00     0.028 C 
BRANCH   6   7
ATOM      7  C   UNL     1      17.293 -29.688  21.800  1.00  0.00    -0.028 C 
ATOM      8  C   UNL     1      18.115 -30.591  21.218  1.00  0.00    -0.070 CG0
ATOM      9  C   UNL     1      19.598 -30.309  21.237  1.00  0.00     0.039 C 
ATOM     10  G   UNL     1      17.623 -31.854  20.534  1.00  0.00     0.000 G0
ENDBRANCH   6   7
ENDBRANCH   5   6
ENDBRANCH   3   5
ENDBRANCH   1   3
BRANCH   1  11
ATOM     11  C   UNL     1      15.529 -33.653  22.577  1.00  0.00     0.087 C 
BRANCH  11  12
ATOM     12  C   UNL     1      16.987 -33.152  22.740  1.00  0.00     0.066 C 
BRANCH  12  13
ATOM     13  C   UNL     1      17.685 -33.090  21.387  1.00  0.00     0.140 C 
ATOM     14  O   UNL     1      18.340 -34.050  21.006  1.00  0.00    -0.299 OA
BRANCH  13  15
ATOM     15  C   UNL     1      17.654 -31.861  20.508  1.00  0.00     0.106 CG0
ATOM     16  G   UNL     1      18.105 -30.597  21.219  1.00  0.00     0.000 G0
ENDBRANCH  13  15
ENDBRANCH  12  13
BRANCH  12  17
ATOM     17  C   UNL     1      17.822 -33.983  23.767  1.00  0.00    -0.006 C 
ATOM     18  C   UNL     1      19.028 -33.183  24.289  1.00  0.00     0.008 C 
ATOM     19  C   UNL     1      17.003 -34.520  24.957  1.00  0.00     0.008 C 
ENDBRANCH  12  17
ENDBRANCH  11  12
ENDBRANCH   1  11
TORSDOF 1
ENDMDL
MODEL 9
REMARK VINA RESULT:    -3.814      2.327      4.653
REMARK INTER + INTRA:          -6.017
REMARK INTER:                  -6.125
REMARK INTRA:                   0.108
REMARK UNBOUND:                -0.197
REMARK SMILES CC1=CCC[C@H](C)C(=O)C[C@@H](C(C)C)C(=O)C1
REMARK SMILES IDX 8 1 9 2 6 3 7 4 5 5 4 6 3 7 2 8 1 9 10 11 11 12 15 13 16 14
REMARK SMILES IDX 17 15 12 17 13 18 14 19
REMARK H PARENT
REMARK Flexibility Score: 70.00
ROOT
ATOM      1  C   UNL     1      15.344 -32.914  21.215  1.00  0.00     0.136 C 
ATOM      2  O   UNL     1      14.608 -33.815  20.836  1.00  0.00    -0.299 OA
ENDROOT
BRANCH   1   3
ATOM      3  C   UNL     1      14.757 -31.610  21.729  1.00  0.00     0.053 C 
ATOM      4  C   UNL     1      13.330 -31.359  21.213  1.00  0.00     0.016 C 
BRANCH   3   5
ATOM      5  C   UNL     1      14.848 -31.482  23.270  1.00  0.00     0.015 C 
BRANCH   5   6
ATOM      6  C   UNL     1      16.243 -31.652  23.908  1.00  0.00     0.028 C 
BRANCH   6   7
ATOM      7  C   UNL     1      16.437 -32.899  24.741  1.00  0.00    -0.028 C 
ATOM      8  C   UNL     1      17.419 -33.817  24.588  1.00  0.00    -0.070 CG0
ATOM      9  C   UNL     1      17.487 -34.950  25.583  1.00  0.00     0.039 C 
ATOM     10  G   UNL     1      18.460 -33.753  23.485  1.00  0.00     0.000 G0
ENDBRANCH   6   7
ENDBRANCH   5   6
ENDBRANCH   3   5
ENDBRANCH   1   3
BRANCH   1  11
ATOM     11  C   UNL     1      16.841 -33.112  21.131  1.00  0.00     0.087 C 
BRANCH  11  12
ATOM     12  C   UNL     1      17.242 -34.604  21.271  1.00  0.00     0.066 C 
BRANCH  12  13
ATOM     13  C   UNL     1      18.261 -34.779  22.391  1.00  0.00     0.140 C 
ATOM     14  O   UNL     1      18.915 -35.811  22.448  1.00  0.00    -0.299 OA
BRANCH  13  15
ATOM     15  C   UNL     1      18.460 -33.752  23.481  1.00  0.00     0.106 CG0
ATOM     16  G   UNL     1      17.419 -33.828  24.583  1.00  0.00     0.000 G0
ENDBRANCH  13  15
ENDBRANCH  12  13
BRANCH  12  17
ATOM     17  C   UNL     1      17.753 -35.241  19.939  1.00  0.00    -0.006 C 
ATOM     18  C   UNL     1      16.768 -36.295  19.407  1.00  0.00     0.008 C 
ATOM     19  C   UNL     1      18.066 -34.217  18.830  1.00  0.00     0.008 C 
ENDBRANCH  12  17
ENDBRANCH  11  12
ENDBRANCH   1  11
TORSDOF 1
ENDMDL
