MODEL 1
REMARK VINA RESULT:    -4.835      0.000      0.000
REMARK INTER + INTRA:          -7.688
REMARK INTER:                  -6.813
REMARK INTRA:                  -0.875
REMARK UNBOUND:                -0.875
REMARK SMILES CCCCCCCCC(=O)[O-]
REMARK SMILES IDX 6 1 7 2 8 3 9 4 10 5 11 6 5 7 4 8 3 9 2 10 1 11
REMARK H PARENT
REMARK Flexibility Score: inf
ROOT
ATOM      1  C   UNL     1      -1.049  31.286  41.249  1.00  0.00     0.000 C 
ENDROOT
BRANCH   1   2
ATOM      2  C   UNL     1      -0.166  30.295  40.466  1.00  0.00     0.006 C 
BRANCH   2   3
ATOM      3  C   UNL     1       1.112  29.869  41.215  1.00  0.00     0.053 C 
BRANCH   3   4
ATOM      4  C   UNL     1       0.895  28.674  42.093  1.00  0.00     0.041 C 
ATOM      5  O   UNL     1       1.716  28.402  43.009  1.00  0.00    -0.550 OA
ATOM      6  O   UNL     1      -0.234  27.881  41.924  1.00  0.00    -0.550 OA
ENDBRANCH   3   4
ENDBRANCH   2   3
ENDBRANCH   1   2
BRANCH   1   7
ATOM      7  C   UNL     1      -2.409  30.735  41.717  1.00  0.00     0.000 C 
BRANCH   7   8
ATOM      8  C   UNL     1      -2.537  30.502  43.234  1.00  0.00    -0.000 C 
BRANCH   8   9
ATOM      9  C   UNL     1      -1.326  31.025  44.024  1.00  0.00    -0.000 C 
BRANCH   9  10
ATOM     10  C   UNL     1      -0.823  30.014  45.066  1.00  0.00    -0.003 C 
ATOM     11  C   UNL     1      -1.666  28.740  45.112  1.00  0.00     0.004 C 
ENDBRANCH   9  10
ENDBRANCH   8   9
ENDBRANCH   7   8
ENDBRANCH   1   7
TORSDOF 7
ENDMDL
MODEL 2
REMARK VINA RESULT:    -4.763      1.308      3.569
REMARK INTER + INTRA:          -7.588
REMARK INTER:                  -6.730
REMARK INTRA:                  -0.858
REMARK UNBOUND:                -0.875
REMARK SMILES CCCCCCCCC(=O)[O-]
REMARK SMILES IDX 6 1 7 2 8 3 9 4 10 5 11 6 5 7 4 8 3 9 2 10 1 11
REMARK H PARENT
REMARK Flexibility Score: inf
ROOT
ATOM      1  C   UNL     1      -2.897  29.852  43.701  1.00  0.00     0.000 C 
ENDROOT
BRANCH   1   2
ATOM      2  C   UNL     1      -2.092  29.125  44.797  1.00  0.00     0.006 C 
BRANCH   2   3
ATOM      3  C   UNL     1      -1.542  27.753  44.362  1.00  0.00     0.053 C 
BRANCH   3   4
ATOM      4  C   UNL     1      -0.152  27.838  43.807  1.00  0.00     0.041 C 
ATOM      5  O   UNL     1       0.349  26.856  43.198  1.00  0.00    -0.550 OA
ATOM      6  O   UNL     1       0.578  29.014  43.931  1.00  0.00    -0.550 OA
ENDBRANCH   3   4
ENDBRANCH   2   3
ENDBRANCH   1   2
BRANCH   1   7
ATOM      7  C   UNL     1      -2.229  31.109  43.113  1.00  0.00     0.000 C 
BRANCH   7   8
ATOM      8  C   UNL     1      -1.727  30.970  41.663  1.00  0.00    -0.000 C 
BRANCH   8   9
ATOM      9  C   UNL     1      -2.117  29.628  41.021  1.00  0.00    -0.000 C 
BRANCH   9  10
ATOM     10  C   UNL     1      -0.919  28.917  40.373  1.00  0.00    -0.003 C 
ATOM     11  C   UNL     1       0.332  29.793  40.316  1.00  0.00     0.004 C 
ENDBRANCH   9  10
ENDBRANCH   8   9
ENDBRANCH   7   8
ENDBRANCH   1   7
TORSDOF 7
ENDMDL
MODEL 3
REMARK VINA RESULT:    -4.736      1.846      3.636
REMARK INTER + INTRA:          -7.549
REMARK INTER:                  -6.750
REMARK INTRA:                  -0.799
REMARK UNBOUND:                -0.875
REMARK SMILES CCCCCCCCC(=O)[O-]
REMARK SMILES IDX 6 1 7 2 8 3 9 4 10 5 11 6 5 7 4 8 3 9 2 10 1 11
REMARK H PARENT
REMARK Flexibility Score: inf
ROOT
ATOM      1  C   UNL     1      -2.364  30.892  41.804  1.00  0.00     0.000 C 
ENDROOT
BRANCH   1   2
ATOM      2  C   UNL     1      -2.201  30.868  43.336  1.00  0.00     0.006 C 
BRANCH   2   3
ATOM      3  C   UNL     1      -2.809  29.623  44.010  1.00  0.00     0.053 C 
BRANCH   3   4
ATOM      4  C   UNL     1      -1.894  29.013  45.028  1.00  0.00     0.041 C 
ATOM      5  O   UNL     1      -1.313  29.741  45.876  1.00  0.00    -0.550 OA
ATOM      6  O   UNL     1      -1.711  27.636  45.065  1.00  0.00    -0.550 OA
ENDBRANCH   3   4
ENDBRANCH   2   3
ENDBRANCH   1   2
BRANCH   1   7
ATOM      7  C   UNL     1      -1.130  31.368  41.014  1.00  0.00     0.000 C 
BRANCH   7   8
ATOM      8  C   UNL     1      -0.106  30.271  40.671  1.00  0.00    -0.000 C 
BRANCH   8   9
ATOM      9  C   UNL     1      -0.704  28.855  40.724  1.00  0.00    -0.000 C 
BRANCH   9  10
ATOM     10  C   UNL     1      -0.093  28.001  41.846  1.00  0.00    -0.003 C 
ATOM     11  C   UNL     1       1.014  28.727  42.609  1.00  0.00     0.004 C 
ENDBRANCH   9  10
ENDBRANCH   8   9
ENDBRANCH   7   8
ENDBRANCH   1   7
TORSDOF 7
ENDMDL
MODEL 4
REMARK VINA RESULT:    -4.709     19.429     21.311
REMARK INTER + INTRA:          -7.511
REMARK INTER:                  -6.643
REMARK INTRA:                  -0.867
REMARK UNBOUND:                -0.875
REMARK SMILES CCCCCCCCC(=O)[O-]
REMARK SMILES IDX 6 1 7 2 8 3 9 4 10 5 11 6 5 7 4 8 3 9 2 10 1 11
REMARK H PARENT
REMARK Flexibility Score: inf
ROOT
ATOM      1  C   UNL     1      14.860  13.234  44.753  1.00  0.00     0.000 C 
ENDROOT
BRANCH   1   2
ATOM      2  C   UNL     1      14.419  14.122  43.573  1.00  0.00     0.006 C 
BRANCH   2   3
ATOM      3  C   UNL     1      12.962  14.612  43.670  1.00  0.00     0.053 C 
BRANCH   3   4
ATOM      4  C   UNL     1      12.822  15.847  44.508  1.00  0.00     0.041 C 
ATOM      5  O   UNL     1      11.760  16.061  45.149  1.00  0.00    -0.550 OA
ATOM      6  O   UNL     1      13.879  16.742  44.611  1.00  0.00    -0.550 OA
ENDBRANCH   3   4
ENDBRANCH   2   3
ENDBRANCH   1   2
BRANCH   1   7
ATOM      7  C   UNL     1      16.009  13.795  45.611  1.00  0.00     0.000 C 
BRANCH   7   8
ATOM      8  C   UNL     1      15.591  14.359  46.982  1.00  0.00    -0.000 C 
BRANCH   8   9
ATOM      9  C   UNL     1      14.201  13.877  47.429  1.00  0.00    -0.000 C 
BRANCH   9  10
ATOM     10  C   UNL     1      13.388  14.985  48.117  1.00  0.00    -0.003 C 
ATOM     11  C   UNL     1      14.114  16.330  48.136  1.00  0.00     0.004 C 
ENDBRANCH   9  10
ENDBRANCH   8   9
ENDBRANCH   7   8
ENDBRANCH   1   7
TORSDOF 7
ENDMDL
MODEL 5
REMARK VINA RESULT:    -4.654     19.342     21.453
REMARK INTER + INTRA:          -7.434
REMARK INTER:                  -6.594
REMARK INTRA:                  -0.839
REMARK UNBOUND:                -0.875
REMARK SMILES CCCCCCCCC(=O)[O-]
REMARK SMILES IDX 6 1 7 2 8 3 9 4 10 5 11 6 5 7 4 8 3 9 2 10 1 11
REMARK H PARENT
REMARK Flexibility Score: inf
ROOT
ATOM      1  C   UNL     1      15.583  14.901  47.570  1.00  0.00     0.000 C 
ENDROOT
BRANCH   1   2
ATOM      2  C   UNL     1      14.341  15.614  48.139  1.00  0.00     0.006 C 
BRANCH   2   3
ATOM      3  C   UNL     1      13.033  15.282  47.395  1.00  0.00     0.053 C 
BRANCH   3   4
ATOM      4  C   UNL     1      12.715  16.274  46.317  1.00  0.00     0.041 C 
ATOM      5  O   UNL     1      11.826  16.018  45.462  1.00  0.00    -0.550 OA
ATOM      6  O   UNL     1      13.373  17.497  46.278  1.00  0.00    -0.550 OA
ENDBRANCH   3   4
ENDBRANCH   2   3
ENDBRANCH   1   2
BRANCH   1   7
ATOM      7  C   UNL     1      15.295  13.666  46.696  1.00  0.00     0.000 C 
BRANCH   7   8
ATOM      8  C   UNL     1      15.758  13.774  45.231  1.00  0.00    -0.000 C 
BRANCH   8   9
ATOM      9  C   UNL     1      16.008  15.225  44.788  1.00  0.00    -0.000 C 
BRANCH   9  10
ATOM     10  C   UNL     1      15.100  15.649  43.623  1.00  0.00    -0.003 C 
ATOM     11  C   UNL     1      14.118  14.554  43.206  1.00  0.00     0.004 C 
ENDBRANCH   9  10
ENDBRANCH   8   9
ENDBRANCH   7   8
ENDBRANCH   1   7
TORSDOF 7
ENDMDL
MODEL 6
REMARK VINA RESULT:    -4.631      1.591      2.306
REMARK INTER + INTRA:          -7.401
REMARK INTER:                  -6.527
REMARK INTRA:                  -0.874
REMARK UNBOUND:                -0.875
REMARK SMILES CCCCCCCCC(=O)[O-]
REMARK SMILES IDX 6 1 7 2 8 3 9 4 10 5 11 6 5 7 4 8 3 9 2 10 1 11
REMARK H PARENT
REMARK Flexibility Score: inf
ROOT
ATOM      1  C   UNL     1      -2.007  30.911  43.085  1.00  0.00     0.000 C 
ENDROOT
BRANCH   1   2
ATOM      2  C   UNL     1      -1.478  31.179  41.662  1.00  0.00     0.006 C 
BRANCH   2   3
ATOM      3  C   UNL     1      -0.076  30.597  41.397  1.00  0.00     0.053 C 
BRANCH   3   4
ATOM      4  C   UNL     1      -0.100  29.448  40.434  1.00  0.00     0.041 C 
ATOM      5  O   UNL     1       0.959  29.076  39.863  1.00  0.00    -0.550 OA
ATOM      6  O   UNL     1      -1.285  28.764  40.195  1.00  0.00    -0.550 OA
ENDBRANCH   3   4
ENDBRANCH   2   3
ENDBRANCH   1   2
BRANCH   1   7
ATOM      7  C   UNL     1      -2.793  29.599  43.263  1.00  0.00     0.000 C 
BRANCH   7   8
ATOM      8  C   UNL     1      -2.049  28.483  44.020  1.00  0.00    -0.000 C 
BRANCH   8   9
ATOM      9  C   UNL     1      -0.820  28.998  44.787  1.00  0.00    -0.000 C 
BRANCH   9  10
ATOM     10  C   UNL     1       0.490  28.365  44.292  1.00  0.00    -0.003 C 
ATOM     11  C   UNL     1       0.260  27.205  43.324  1.00  0.00     0.004 C 
ENDBRANCH   9  10
ENDBRANCH   8   9
ENDBRANCH   7   8
ENDBRANCH   1   7
TORSDOF 7
ENDMDL
MODEL 7
REMARK VINA RESULT:    -4.599     19.295     21.374
REMARK INTER + INTRA:          -7.357
REMARK INTER:                  -6.570
REMARK INTRA:                  -0.787
REMARK UNBOUND:                -0.875
REMARK SMILES CCCCCCCCC(=O)[O-]
REMARK SMILES IDX 6 1 7 2 8 3 9 4 10 5 11 6 5 7 4 8 3 9 2 10 1 11
REMARK H PARENT
REMARK Flexibility Score: inf
ROOT
ATOM      1  C   UNL     1      16.009  14.566  45.530  1.00  0.00     0.000 C 
ENDROOT
BRANCH   1   2
ATOM      2  C   UNL     1      15.871  14.864  47.036  1.00  0.00     0.006 C 
BRANCH   2   3
ATOM      3  C   UNL     1      14.893  16.010  47.359  1.00  0.00     0.053 C 
BRANCH   3   4
ATOM      4  C   UNL     1      13.714  15.552  48.163  1.00  0.00     0.041 C 
ATOM      5  O   UNL     1      13.063  16.375  48.860  1.00  0.00    -0.550 OA
ATOM      6  O   UNL     1      13.309  14.223  48.113  1.00  0.00    -0.550 OA
ENDBRANCH   3   4
ENDBRANCH   2   3
ENDBRANCH   1   2
BRANCH   1   7
ATOM      7  C   UNL     1      15.104  13.442  44.992  1.00  0.00     0.000 C 
BRANCH   7   8
ATOM      8  C   UNL     1      13.725  13.897  44.479  1.00  0.00    -0.000 C 
BRANCH   8   9
ATOM      9  C   UNL     1      13.820  14.881  43.301  1.00  0.00    -0.000 C 
BRANCH   9  10
ATOM     10  C   UNL     1      13.385  16.303  43.687  1.00  0.00    -0.003 C 
ATOM     11  C   UNL     1      12.262  16.319  44.724  1.00  0.00     0.004 C 
ENDBRANCH   9  10
ENDBRANCH   8   9
ENDBRANCH   7   8
ENDBRANCH   1   7
TORSDOF 7
ENDMDL
MODEL 8
REMARK VINA RESULT:    -4.577     19.436     21.345
REMARK INTER + INTRA:          -7.325
REMARK INTER:                  -6.578
REMARK INTRA:                  -0.748
REMARK UNBOUND:                -0.875
REMARK SMILES CCCCCCCCC(=O)[O-]
REMARK SMILES IDX 6 1 7 2 8 3 9 4 10 5 11 6 5 7 4 8 3 9 2 10 1 11
REMARK H PARENT
REMARK Flexibility Score: inf
ROOT
ATOM      1  C   UNL     1      15.945  15.143  46.086  1.00  0.00     0.000 C 
ENDROOT
BRANCH   1   2
ATOM      2  C   UNL     1      16.038  13.897  45.184  1.00  0.00     0.006 C 
BRANCH   2   3
ATOM      3  C   UNL     1      14.670  13.351  44.729  1.00  0.00     0.053 C 
BRANCH   3   4
ATOM      4  C   UNL     1      13.984  14.257  43.752  1.00  0.00     0.041 C 
ATOM      5  O   UNL     1      14.650  14.858  42.868  1.00  0.00    -0.550 OA
ATOM      6  O   UNL     1      12.603  14.409  43.794  1.00  0.00    -0.550 OA
ENDBRANCH   3   4
ENDBRANCH   2   3
ENDBRANCH   1   2
BRANCH   1   7
ATOM      7  C   UNL     1      15.644  14.865  47.571  1.00  0.00     0.000 C 
BRANCH   7   8
ATOM      8  C   UNL     1      14.416  15.599  48.141  1.00  0.00    -0.000 C 
BRANCH   8   9
ATOM      9  C   UNL     1      13.089  15.092  47.552  1.00  0.00    -0.000 C 
BRANCH   9  10
ATOM     10  C   UNL     1      12.225  16.230  46.985  1.00  0.00    -0.003 C 
ATOM     11  C   UNL     1      13.003  17.156  46.051  1.00  0.00     0.004 C 
ENDBRANCH   9  10
ENDBRANCH   8   9
ENDBRANCH   7   8
ENDBRANCH   1   7
TORSDOF 7
ENDMDL
MODEL 9
REMARK VINA RESULT:    -4.539      9.547     10.455
REMARK INTER + INTRA:          -7.271
REMARK INTER:                  -6.546
REMARK INTRA:                  -0.726
REMARK UNBOUND:                -0.875
REMARK SMILES CCCCCCCCC(=O)[O-]
REMARK SMILES IDX 6 1 7 2 8 3 9 4 10 5 11 6 5 7 4 8 3 9 2 10 1 11
REMARK H PARENT
REMARK Flexibility Score: inf
ROOT
ATOM      1  C   UNL     1       6.362  22.008  41.822  1.00  0.00     0.000 C 
ENDROOT
BRANCH   1   2
ATOM      2  C   UNL     1       7.797  22.440  42.182  1.00  0.00     0.006 C 
BRANCH   2   3
ATOM      3  C   UNL     1       7.939  23.945  42.483  1.00  0.00     0.053 C 
BRANCH   3   4
ATOM      4  C   UNL     1       7.178  24.363  43.705  1.00  0.00     0.041 C 
ATOM      5  O   UNL     1       6.143  25.072  43.595  1.00  0.00    -0.550 OA
ATOM      6  O   UNL     1       7.589  23.939  44.962  1.00  0.00    -0.550 OA
ENDBRANCH   3   4
ENDBRANCH   2   3
ENDBRANCH   1   2
BRANCH   1   7
ATOM      7  C   UNL     1       6.000  20.553  42.176  1.00  0.00     0.000 C 
BRANCH   7   8
ATOM      8  C   UNL     1       5.245  20.369  43.505  1.00  0.00    -0.000 C 
BRANCH   8   9
ATOM      9  C   UNL     1       4.527  21.648  43.969  1.00  0.00    -0.000 C 
BRANCH   9  10
ATOM     10  C   UNL     1       4.667  21.886  45.480  1.00  0.00    -0.003 C 
ATOM     11  C   UNL     1       5.813  21.089  46.103  1.00  0.00     0.004 C 
ENDBRANCH   9  10
ENDBRANCH   8   9
ENDBRANCH   7   8
ENDBRANCH   1   7
TORSDOF 7
ENDMDL
