MODEL 1
REMARK VINA RESULT:    -3.455      0.000      0.000
REMARK INTER + INTRA:          -4.924
REMARK INTER:                  -4.667
REMARK INTRA:                  -0.256
REMARK UNBOUND:                -0.256
REMARK SMILES CCCCCCC=CC(=O)[O-]
REMARK SMILES IDX 5 1 6 2 7 3 8 4 9 5 10 6 11 7 4 8 3 9 2 10 1 11
REMARK H PARENT
REMARK Flexibility Score: inf
ROOT
ATOM      1  C   UNL     1      17.136  21.992   4.878  1.00  0.00     0.004 C 
ENDROOT
BRANCH   1   2
ATOM      2  C   UNL     1      17.573  23.336   4.271  1.00  0.00     0.027 C 
BRANCH   2   3
ATOM      3  C   UNL     1      16.961  23.563   2.918  1.00  0.00    -0.025 C 
ATOM      4  C   UNL     1      16.294  22.597   2.280  1.00  0.00     0.020 C 
BRANCH   4   5
ATOM      5  C   UNL     1      15.659  22.819   0.972  1.00  0.00     0.064 C 
ATOM      6  O   UNL     1      15.828  23.916   0.378  1.00  0.00    -0.545 OA
ATOM      7  O   UNL     1      14.876  21.836   0.380  1.00  0.00    -0.545 OA
ENDBRANCH   4   5
ENDBRANCH   2   3
ENDBRANCH   1   2
BRANCH   1   8
ATOM      8  C   UNL     1      16.695  22.076   6.352  1.00  0.00     0.000 C 
BRANCH   8   9
ATOM      9  C   UNL     1      16.158  20.738   6.889  1.00  0.00    -0.000 C 
BRANCH   9  10
ATOM     10  C   UNL     1      16.480  20.531   8.377  1.00  0.00    -0.003 C 
ATOM     11  C   UNL     1      17.444  21.583   8.929  1.00  0.00     0.004 C 
ENDBRANCH   9  10
ENDBRANCH   8   9
ENDBRANCH   1   8
TORSDOF 6
ENDMDL
MODEL 2
REMARK VINA RESULT:    -3.374      2.086      3.286
REMARK INTER + INTRA:          -4.813
REMARK INTER:                  -4.174
REMARK INTRA:                  -0.640
REMARK UNBOUND:                -0.256
REMARK SMILES CCCCCCC=CC(=O)[O-]
REMARK SMILES IDX 5 1 6 2 7 3 8 4 9 5 10 6 11 7 4 8 3 9 2 10 1 11
REMARK H PARENT
REMARK Flexibility Score: inf
ROOT
ATOM      1  C   UNL     1      17.408  23.696   8.282  1.00  0.00     0.004 C 
ENDROOT
BRANCH   1   2
ATOM      2  C   UNL     1      16.160  23.971   7.426  1.00  0.00     0.027 C 
BRANCH   2   3
ATOM      3  C   UNL     1      16.460  23.878   5.957  1.00  0.00    -0.025 C 
ATOM      4  C   UNL     1      17.015  22.786   5.423  1.00  0.00     0.020 C 
BRANCH   4   5
ATOM      5  C   UNL     1      17.278  22.670   3.981  1.00  0.00     0.064 C 
ATOM      6  O   UNL     1      17.017  21.591   3.386  1.00  0.00    -0.545 OA
ATOM      7  O   UNL     1      17.810  23.734   3.262  1.00  0.00    -0.545 OA
ENDBRANCH   4   5
ENDBRANCH   2   3
ENDBRANCH   1   2
BRANCH   1   8
ATOM      8  C   UNL     1      17.195  22.653   9.396  1.00  0.00     0.000 C 
BRANCH   8   9
ATOM      9  C   UNL     1      17.410  21.210   8.909  1.00  0.00    -0.000 C 
BRANCH   9  10
ATOM     10  C   UNL     1      16.087  20.462   8.684  1.00  0.00    -0.003 C 
ATOM     11  C   UNL     1      15.962  19.887   7.272  1.00  0.00     0.004 C 
ENDBRANCH   9  10
ENDBRANCH   8   9
ENDBRANCH   1   8
TORSDOF 6
ENDMDL
MODEL 3
REMARK VINA RESULT:    -3.371      1.964      3.248
REMARK INTER + INTRA:          -4.810
REMARK INTER:                  -4.361
REMARK INTRA:                  -0.449
REMARK UNBOUND:                -0.256
REMARK SMILES CCCCCCC=CC(=O)[O-]
REMARK SMILES IDX 5 1 6 2 7 3 8 4 9 5 10 6 11 7 4 8 3 9 2 10 1 11
REMARK H PARENT
REMARK Flexibility Score: inf
ROOT
ATOM      1  C   UNL     1      17.205  21.928   8.087  1.00  0.00     0.004 C 
ENDROOT
BRANCH   1   2
ATOM      2  C   UNL     1      16.121  22.836   7.483  1.00  0.00     0.027 C 
BRANCH   2   3
ATOM      3  C   UNL     1      16.535  23.391   6.150  1.00  0.00    -0.025 C 
ATOM      4  C   UNL     1      16.960  22.596   5.163  1.00  0.00     0.020 C 
BRANCH   4   5
ATOM      5  C   UNL     1      17.333  23.124   3.842  1.00  0.00     0.064 C 
ATOM      6  O   UNL     1      18.246  23.986   3.752  1.00  0.00    -0.545 OA
ATOM      7  O   UNL     1      16.694  22.685   2.688  1.00  0.00    -0.545 OA
ENDBRANCH   4   5
ENDBRANCH   2   3
ENDBRANCH   1   2
BRANCH   1   8
ATOM      8  C   UNL     1      16.670  20.611   8.680  1.00  0.00     0.000 C 
BRANCH   8   9
ATOM      9  C   UNL     1      15.533  20.000   7.843  1.00  0.00    -0.000 C 
BRANCH   9  10
ATOM     10  C   UNL     1      16.035  19.396   6.523  1.00  0.00    -0.003 C 
ATOM     11  C   UNL     1      16.024  17.866   6.527  1.00  0.00     0.004 C 
ENDBRANCH   9  10
ENDBRANCH   8   9
ENDBRANCH   1   8
TORSDOF 6
ENDMDL
MODEL 4
REMARK VINA RESULT:    -3.359      1.039      1.564
REMARK INTER + INTRA:          -4.794
REMARK INTER:                  -4.577
REMARK INTRA:                  -0.217
REMARK UNBOUND:                -0.256
REMARK SMILES CCCCCCC=CC(=O)[O-]
REMARK SMILES IDX 5 1 6 2 7 3 8 4 9 5 10 6 11 7 4 8 3 9 2 10 1 11
REMARK H PARENT
REMARK Flexibility Score: inf
ROOT
ATOM      1  C   UNL     1      16.809  23.231   5.394  1.00  0.00     0.004 C 
ENDROOT
BRANCH   1   2
ATOM      2  C   UNL     1      17.567  23.118   4.061  1.00  0.00     0.027 C 
BRANCH   2   3
ATOM      3  C   UNL     1      16.814  22.290   3.059  1.00  0.00    -0.025 C 
ATOM      4  C   UNL     1      16.066  22.854   2.106  1.00  0.00     0.020 C 
BRANCH   4   5
ATOM      5  C   UNL     1      15.355  22.055   1.097  1.00  0.00     0.064 C 
ATOM      6  O   UNL     1      14.875  20.936   1.416  1.00  0.00    -0.545 OA
ATOM      7  O   UNL     1      15.201  22.517  -0.205  1.00  0.00    -0.545 OA
ENDBRANCH   4   5
ENDBRANCH   2   3
ENDBRANCH   1   2
BRANCH   1   8
ATOM      8  C   UNL     1      16.766  21.926   6.212  1.00  0.00     0.000 C 
BRANCH   8   9
ATOM      9  C   UNL     1      16.892  22.168   7.725  1.00  0.00    -0.000 C 
BRANCH   9  10
ATOM     10  C   UNL     1      16.611  20.901   8.548  1.00  0.00    -0.003 C 
ATOM     11  C   UNL     1      15.415  20.105   8.024  1.00  0.00     0.004 C 
ENDBRANCH   9  10
ENDBRANCH   8   9
ENDBRANCH   1   8
TORSDOF 6
ENDMDL
MODEL 5
REMARK VINA RESULT:    -3.300      3.730      6.161
REMARK INTER + INTRA:          -4.713
REMARK INTER:                  -4.404
REMARK INTRA:                  -0.310
REMARK UNBOUND:                -0.256
REMARK SMILES CCCCCCC=CC(=O)[O-]
REMARK SMILES IDX 5 1 6 2 7 3 8 4 9 5 10 6 11 7 4 8 3 9 2 10 1 11
REMARK H PARENT
REMARK Flexibility Score: inf
ROOT
ATOM      1  C   UNL     1      17.595  22.460   4.368  1.00  0.00     0.004 C 
ENDROOT
BRANCH   1   2
ATOM      2  C   UNL     1      16.802  23.323   5.365  1.00  0.00     0.027 C 
BRANCH   2   3
ATOM      3  C   UNL     1      16.580  22.609   6.667  1.00  0.00    -0.025 C 
ATOM      4  C   UNL     1      16.397  21.286   6.719  1.00  0.00     0.020 C 
BRANCH   4   5
ATOM      5  C   UNL     1      16.215  20.572   7.991  1.00  0.00     0.064 C 
ATOM      6  O   UNL     1      15.180  19.879   8.173  1.00  0.00    -0.545 OA
ATOM      7  O   UNL     1      17.170  20.648   8.998  1.00  0.00    -0.545 OA
ENDBRANCH   4   5
ENDBRANCH   2   3
ENDBRANCH   1   2
BRANCH   1   8
ATOM      8  C   UNL     1      16.819  22.098   3.087  1.00  0.00     0.000 C 
BRANCH   8   9
ATOM      9  C   UNL     1      16.483  23.329   2.227  1.00  0.00    -0.000 C 
BRANCH   9  10
ATOM     10  C   UNL     1      15.393  23.037   1.185  1.00  0.00    -0.003 C 
ATOM     11  C   UNL     1      15.032  21.553   1.102  1.00  0.00     0.004 C 
ENDBRANCH   9  10
ENDBRANCH   8   9
ENDBRANCH   1   8
TORSDOF 6
ENDMDL
MODEL 6
REMARK VINA RESULT:    -3.272      2.342      3.872
REMARK INTER + INTRA:          -4.676
REMARK INTER:                  -4.208
REMARK INTRA:                  -0.468
REMARK UNBOUND:                -0.256
REMARK SMILES CCCCCCC=CC(=O)[O-]
REMARK SMILES IDX 5 1 6 2 7 3 8 4 9 5 10 6 11 7 4 8 3 9 2 10 1 11
REMARK H PARENT
REMARK Flexibility Score: inf
ROOT
ATOM      1  C   UNL     1      16.387  21.143   8.476  1.00  0.00     0.004 C 
ENDROOT
BRANCH   1   2
ATOM      2  C   UNL     1      16.344  21.019   6.944  1.00  0.00     0.027 C 
BRANCH   2   3
ATOM      3  C   UNL     1      16.745  22.299   6.268  1.00  0.00    -0.025 C 
ATOM      4  C   UNL     1      17.079  22.334   4.975  1.00  0.00     0.020 C 
BRANCH   4   5
ATOM      5  C   UNL     1      17.439  23.587   4.295  1.00  0.00     0.064 C 
ATOM      6  O   UNL     1      17.479  23.622   3.037  1.00  0.00    -0.545 OA
ATOM      7  O   UNL     1      17.734  24.736   5.019  1.00  0.00    -0.545 OA
ENDBRANCH   4   5
ENDBRANCH   2   3
ENDBRANCH   1   2
BRANCH   1   8
ATOM      8  C   UNL     1      17.553  21.997   9.010  1.00  0.00     0.000 C 
BRANCH   8   9
ATOM      9  C   UNL     1      17.101  23.037  10.049  1.00  0.00    -0.000 C 
BRANCH   9  10
ATOM     10  C   UNL     1      17.343  24.480   9.580  1.00  0.00    -0.003 C 
ATOM     11  C   UNL     1      18.740  24.688   8.993  1.00  0.00     0.004 C 
ENDBRANCH   9  10
ENDBRANCH   8   9
ENDBRANCH   1   8
TORSDOF 6
ENDMDL
MODEL 7
REMARK VINA RESULT:    -3.177      3.575      5.478
REMARK INTER + INTRA:          -4.548
REMARK INTER:                  -3.843
REMARK INTRA:                  -0.705
REMARK UNBOUND:                -0.256
REMARK SMILES CCCCCCC=CC(=O)[O-]
REMARK SMILES IDX 5 1 6 2 7 3 8 4 9 5 10 6 11 7 4 8 3 9 2 10 1 11
REMARK H PARENT
REMARK Flexibility Score: inf
ROOT
ATOM      1  C   UNL     1      16.975  24.128   5.751  1.00  0.00     0.004 C 
ENDROOT
BRANCH   1   2
ATOM      2  C   UNL     1      16.055  24.082   6.983  1.00  0.00     0.027 C 
BRANCH   2   3
ATOM      3  C   UNL     1      15.511  22.702   7.223  1.00  0.00    -0.025 C 
ATOM      4  C   UNL     1      16.315  21.637   7.302  1.00  0.00     0.020 C 
BRANCH   4   5
ATOM      5  C   UNL     1      15.797  20.288   7.574  1.00  0.00     0.064 C 
ATOM      6  O   UNL     1      16.086  19.343   6.794  1.00  0.00    -0.545 OA
ATOM      7  O   UNL     1      14.994  20.037   8.680  1.00  0.00    -0.545 OA
ENDBRANCH   4   5
ENDBRANCH   2   3
ENDBRANCH   1   2
BRANCH   1   8
ATOM      8  C   UNL     1      16.237  24.343   4.416  1.00  0.00     0.000 C 
BRANCH   8   9
ATOM      9  C   UNL     1      16.731  23.402   3.305  1.00  0.00    -0.000 C 
BRANCH   9  10
ATOM     10  C   UNL     1      17.503  22.194   3.858  1.00  0.00    -0.003 C 
ATOM     11  C   UNL     1      16.778  20.867   3.623  1.00  0.00     0.004 C 
ENDBRANCH   9  10
ENDBRANCH   8   9
ENDBRANCH   1   8
TORSDOF 6
ENDMDL
MODEL 8
REMARK VINA RESULT:    -3.038      4.310      6.587
REMARK INTER + INTRA:          -4.361
REMARK INTER:                  -4.111
REMARK INTRA:                  -0.250
REMARK UNBOUND:                -0.256
REMARK SMILES CCCCCCC=CC(=O)[O-]
REMARK SMILES IDX 5 1 6 2 7 3 8 4 9 5 10 6 11 7 4 8 3 9 2 10 1 11
REMARK H PARENT
REMARK Flexibility Score: inf
ROOT
ATOM      1  C   UNL     1      16.408  21.158   6.435  1.00  0.00     0.004 C 
ENDROOT
BRANCH   1   2
ATOM      2  C   UNL     1      16.361  21.341   7.960  1.00  0.00     0.027 C 
BRANCH   2   3
ATOM      3  C   UNL     1      16.671  22.755   8.363  1.00  0.00    -0.025 C 
ATOM      4  C   UNL     1      17.754  23.056   9.085  1.00  0.00     0.020 C 
BRANCH   4   5
ATOM      5  C   UNL     1      18.087  24.440   9.453  1.00  0.00     0.064 C 
ATOM      6  O   UNL     1      17.267  25.119  10.124  1.00  0.00    -0.545 OA
ATOM      7  O   UNL     1      19.295  25.012   9.072  1.00  0.00    -0.545 OA
ENDBRANCH   4   5
ENDBRANCH   2   3
ENDBRANCH   1   2
BRANCH   1   8
ATOM      8  C   UNL     1      16.770  22.435   5.653  1.00  0.00     0.000 C 
BRANCH   8   9
ATOM      9  C   UNL     1      17.458  22.136   4.310  1.00  0.00    -0.000 C 
BRANCH   9  10
ATOM     10  C   UNL     1      17.525  23.370   3.397  1.00  0.00    -0.003 C 
ATOM     11  C   UNL     1      16.310  23.495   2.476  1.00  0.00     0.004 C 
ENDBRANCH   9  10
ENDBRANCH   8   9
ENDBRANCH   1   8
TORSDOF 6
ENDMDL
MODEL 9
REMARK VINA RESULT:    -2.454     20.427     21.769
REMARK INTER + INTRA:          -3.571
REMARK INTER:                  -3.522
REMARK INTRA:                  -0.049
REMARK UNBOUND:                -0.256
REMARK SMILES CCCCCCC=CC(=O)[O-]
REMARK SMILES IDX 5 1 6 2 7 3 8 4 9 5 10 6 11 7 4 8 3 9 2 10 1 11
REMARK H PARENT
REMARK Flexibility Score: inf
ROOT
ATOM      1  C   UNL     1      31.201  14.254 -10.112  1.00  0.00     0.004 C 
ENDROOT
BRANCH   1   2
ATOM      2  C   UNL     1      30.215  15.342  -9.653  1.00  0.00     0.027 C 
BRANCH   2   3
ATOM      3  C   UNL     1      30.536  15.838  -8.271  1.00  0.00    -0.025 C 
ATOM      4  C   UNL     1      30.973  17.083  -8.059  1.00  0.00     0.020 C 
BRANCH   4   5
ATOM      5  C   UNL     1      31.255  17.591  -6.708  1.00  0.00     0.064 C 
ATOM      6  O   UNL     1      30.301  17.938  -5.963  1.00  0.00    -0.545 OA
ATOM      7  O   UNL     1      32.559  17.695  -6.239  1.00  0.00    -0.545 OA
ENDBRANCH   4   5
ENDBRANCH   2   3
ENDBRANCH   1   2
BRANCH   1   8
ATOM      8  C   UNL     1      32.538  14.246  -9.348  1.00  0.00     0.000 C 
BRANCH   8   9
ATOM      9  C   UNL     1      33.483  15.377  -9.790  1.00  0.00    -0.000 C 
BRANCH   9  10
ATOM     10  C   UNL     1      34.956  14.940  -9.803  1.00  0.00    -0.003 C 
ATOM     11  C   UNL     1      35.125  13.422  -9.885  1.00  0.00     0.004 C 
ENDBRANCH   9  10
ENDBRANCH   8   9
ENDBRANCH   1   8
TORSDOF 6
ENDMDL
