MODEL 1
REMARK VINA RESULT:    -5.949      0.000      0.000
REMARK INTER + INTRA:          -7.285
REMARK INTER:                  -6.992
REMARK INTRA:                  -0.293
REMARK UNBOUND:                -0.293
REMARK SMILES O=c1c(O)c(-c2ccc(O)cc2)oc2cc(O)cc(O)c12
REMARK SMILES IDX 5 1 3 2 2 3 1 4 21 5 19 6 18 7 16 8 15 9 14 10 13 11 6 12
REMARK SMILES IDX 7 13 8 14 9 15 12 16 11 17 10 18 4 20 20 22 17 24
REMARK H PARENT 10 19 4 21 20 23 17 25
REMARK Flexibility Score: inf
ROOT
ATOM      1  C   UNL     1      24.627  -1.019  16.793  1.00  0.00     0.180 A 
ATOM      2  C   UNL     1      23.643  -2.015  16.941  1.00  0.00     0.208 A 
ATOM      3  C   UNL     1      23.074  -2.224  18.206  1.00  0.00     0.238 A 
ATOM      4  O   UNL     1      22.200  -3.121  18.354  1.00  0.00    -0.285 OA
ATOM      5  C   UNL     1      23.481  -1.424  19.294  1.00  0.00     0.111 A 
ATOM      6  C   UNL     1      22.954  -1.567  20.601  1.00  0.00     0.134 A 
ATOM      7  C   UNL     1      23.404  -0.725  21.628  1.00  0.00     0.093 A 
ATOM      8  C   UNL     1      24.367   0.255  21.376  1.00  0.00     0.123 A 
ATOM      9  C   UNL     1      24.892   0.401  20.087  1.00  0.00     0.094 A 
ATOM     10  C   UNL     1      24.457  -0.429  19.051  1.00  0.00     0.146 A 
ATOM     11  O   UNL     1      24.975  -0.274  17.838  1.00  0.00    -0.452 OA
ENDROOT
BRANCH   1  12
ATOM     12  C   UNL     1      25.287  -0.752  15.494  1.00  0.00     0.021 A 
ATOM     13  C   UNL     1      24.841   0.316  14.698  1.00  0.00     0.016 A 
ATOM     14  C   UNL     1      25.464   0.600  13.480  1.00  0.00     0.047 A 
ATOM     15  C   UNL     1      26.552  -0.170  13.049  1.00  0.00     0.115 A 
ATOM     16  C   UNL     1      26.394  -1.508  15.065  1.00  0.00     0.016 A 
ATOM     17  C   UNL     1      27.016  -1.220  13.846  1.00  0.00     0.047 A 
BRANCH  15  18
ATOM     18  O   UNL     1      27.181   0.104  11.836  1.00  0.00    -0.508 OA
ATOM     19  H   UNL     1      27.996  -0.414  11.534  1.00  0.00     0.293 HD
ENDBRANCH  15  18
ENDBRANCH   1  12
BRANCH   2  20
ATOM     20  O   UNL     1      23.222  -2.761  15.836  1.00  0.00    -0.502 OA
ATOM     21  H   UNL     1      23.679  -3.621  15.555  1.00  0.00     0.293 HD
ENDBRANCH   2  20
BRANCH   6  22
ATOM     22  O   UNL     1      21.990  -2.536  20.884  1.00  0.00    -0.507 OA
ATOM     23  H   UNL     1      22.077  -3.488  20.550  1.00  0.00     0.293 HD
ENDBRANCH   6  22
BRANCH   8  24
ATOM     24  O   UNL     1      24.796   1.080  22.414  1.00  0.00    -0.508 OA
ATOM     25  H   UNL     1      24.166   1.374  23.152  1.00  0.00     0.293 HD
ENDBRANCH   8  24
TORSDOF 5
ENDMDL
MODEL 2
REMARK VINA RESULT:    -5.699      1.766      3.907
REMARK INTER + INTRA:          -6.991
REMARK INTER:                  -6.733
REMARK INTRA:                  -0.258
REMARK UNBOUND:                -0.293
REMARK SMILES O=c1c(O)c(-c2ccc(O)cc2)oc2cc(O)cc(O)c12
REMARK SMILES IDX 5 1 3 2 2 3 1 4 21 5 19 6 18 7 16 8 15 9 14 10 13 11 6 12
REMARK SMILES IDX 7 13 8 14 9 15 12 16 11 17 10 18 4 20 20 22 17 24
REMARK H PARENT 10 19 4 21 20 23 17 25
REMARK Flexibility Score: inf
ROOT
ATOM      1  C   UNL     1      24.369  -1.423  16.228  1.00  0.00     0.180 A 
ATOM      2  C   UNL     1      24.219  -0.888  17.522  1.00  0.00     0.208 A 
ATOM      3  C   UNL     1      23.375  -1.542  18.432  1.00  0.00     0.238 A 
ATOM      4  O   UNL     1      23.224  -1.066  19.591  1.00  0.00    -0.285 OA
ATOM      5  C   UNL     1      22.713  -2.725  18.044  1.00  0.00     0.111 A 
ATOM      6  C   UNL     1      21.848  -3.447  18.902  1.00  0.00     0.134 A 
ATOM      7  C   UNL     1      21.235  -4.621  18.444  1.00  0.00     0.093 A 
ATOM      8  C   UNL     1      21.467  -5.088  17.148  1.00  0.00     0.123 A 
ATOM      9  C   UNL     1      22.319  -4.378  16.294  1.00  0.00     0.094 A 
ATOM     10  C   UNL     1      22.939  -3.206  16.732  1.00  0.00     0.146 A 
ATOM     11  O   UNL     1      23.740  -2.548  15.901  1.00  0.00    -0.452 OA
ENDROOT
BRANCH   1  12
ATOM     12  C   UNL     1      25.226  -0.780  15.205  1.00  0.00     0.021 A 
ATOM     13  C   UNL     1      26.463  -1.359  14.878  1.00  0.00     0.016 A 
ATOM     14  C   UNL     1      27.279  -0.783  13.900  1.00  0.00     0.047 A 
ATOM     15  C   UNL     1      26.859   0.371  13.225  1.00  0.00     0.115 A 
ATOM     16  C   UNL     1      24.802   0.366  14.508  1.00  0.00     0.016 A 
ATOM     17  C   UNL     1      25.620   0.940  13.530  1.00  0.00     0.047 A 
BRANCH  15  18
ATOM     18  O   UNL     1      27.664   0.955  12.248  1.00  0.00    -0.508 OA
ATOM     19  H   UNL     1      27.266   1.466  11.470  1.00  0.00     0.293 HD
ENDBRANCH  15  18
ENDBRANCH   1  12
BRANCH   2  20
ATOM     20  O   UNL     1      24.925   0.258  17.898  1.00  0.00    -0.502 OA
ATOM     21  H   UNL     1      25.683   0.635  17.342  1.00  0.00     0.293 HD
ENDBRANCH   2  20
BRANCH   6  22
ATOM     22  O   UNL     1      21.597  -3.007  20.203  1.00  0.00    -0.507 OA
ATOM     23  H   UNL     1      21.936  -3.515  21.012  1.00  0.00     0.293 HD
ENDBRANCH   6  22
BRANCH   8  24
ATOM     24  O   UNL     1      20.845  -6.258  16.717  1.00  0.00    -0.508 OA
ATOM     25  H   UNL     1      20.095  -6.686  17.248  1.00  0.00     0.293 HD
ENDBRANCH   8  24
TORSDOF 5
ENDMDL
MODEL 3
REMARK VINA RESULT:    -5.656      3.276      5.162
REMARK INTER + INTRA:          -6.940
REMARK INTER:                  -6.790
REMARK INTRA:                  -0.151
REMARK UNBOUND:                -0.293
REMARK SMILES O=c1c(O)c(-c2ccc(O)cc2)oc2cc(O)cc(O)c12
REMARK SMILES IDX 5 1 3 2 2 3 1 4 21 5 19 6 18 7 16 8 15 9 14 10 13 11 6 12
REMARK SMILES IDX 7 13 8 14 9 15 12 16 11 17 10 18 4 20 20 22 17 24
REMARK H PARENT 10 19 4 21 20 23 17 25
REMARK Flexibility Score: inf
ROOT
ATOM      1  C   UNL     1      22.818  -3.085  17.980  1.00  0.00     0.180 A 
ATOM      2  C   UNL     1      21.996  -2.136  18.616  1.00  0.00     0.208 A 
ATOM      3  C   UNL     1      22.593  -1.032  19.243  1.00  0.00     0.238 A 
ATOM      4  O   UNL     1      21.867  -0.181  19.827  1.00  0.00    -0.285 OA
ATOM      5  C   UNL     1      23.995  -0.885  19.208  1.00  0.00     0.111 A 
ATOM      6  C   UNL     1      24.676   0.201  19.812  1.00  0.00     0.134 A 
ATOM      7  C   UNL     1      26.073   0.282  19.722  1.00  0.00     0.093 A 
ATOM      8  C   UNL     1      26.802  -0.698  19.045  1.00  0.00     0.123 A 
ATOM      9  C   UNL     1      26.135  -1.773  18.447  1.00  0.00     0.094 A 
ATOM     10  C   UNL     1      24.744  -1.872  18.525  1.00  0.00     0.146 A 
ATOM     11  O   UNL     1      24.136  -2.905  17.954  1.00  0.00    -0.452 OA
ENDROOT
BRANCH   1  12
ATOM     12  C   UNL     1      22.264  -4.286  17.313  1.00  0.00     0.021 A 
ATOM     13  C   UNL     1      22.479  -4.473  15.938  1.00  0.00     0.016 A 
ATOM     14  C   UNL     1      21.985  -5.610  15.292  1.00  0.00     0.047 A 
ATOM     15  C   UNL     1      21.283  -6.582  16.017  1.00  0.00     0.115 A 
ATOM     16  C   UNL     1      21.577  -5.276  18.039  1.00  0.00     0.016 A 
ATOM     17  C   UNL     1      21.084  -6.412  17.390  1.00  0.00     0.047 A 
BRANCH  15  18
ATOM     18  O   UNL     1      20.785  -7.719  15.384  1.00  0.00    -0.508 OA
ATOM     19  H   UNL     1      21.297  -8.593  15.386  1.00  0.00     0.293 HD
ENDBRANCH  15  18
ENDBRANCH   1  12
BRANCH   2  20
ATOM     20  O   UNL     1      20.606  -2.279  18.595  1.00  0.00    -0.502 OA
ATOM     21  H   UNL     1      20.124  -2.799  17.871  1.00  0.00     0.293 HD
ENDBRANCH   2  20
BRANCH   6  22
ATOM     22  O   UNL     1      23.976   1.197  20.495  1.00  0.00    -0.507 OA
ATOM     23  H   UNL     1      23.160   0.985  21.056  1.00  0.00     0.293 HD
ENDBRANCH   6  22
BRANCH   8  24
ATOM     24  O   UNL     1      28.190  -0.594  18.971  1.00  0.00    -0.508 OA
ATOM     25  H   UNL     1      28.785  -1.413  19.010  1.00  0.00     0.293 HD
ENDBRANCH   8  24
TORSDOF 5
ENDMDL
MODEL 4
REMARK VINA RESULT:    -5.653      2.863      7.199
REMARK INTER + INTRA:          -6.937
REMARK INTER:                  -6.647
REMARK INTRA:                  -0.290
REMARK UNBOUND:                -0.293
REMARK SMILES O=c1c(O)c(-c2ccc(O)cc2)oc2cc(O)cc(O)c12
REMARK SMILES IDX 5 1 3 2 2 3 1 4 21 5 19 6 18 7 16 8 15 9 14 10 13 11 6 12
REMARK SMILES IDX 7 13 8 14 9 15 12 16 11 17 10 18 4 20 20 22 17 24
REMARK H PARENT 10 19 4 21 20 23 17 25
REMARK Flexibility Score: inf
ROOT
ATOM      1  C   UNL     1      25.683  -0.471  14.698  1.00  0.00     0.180 A 
ATOM      2  C   UNL     1      26.284  -1.111  13.597  1.00  0.00     0.208 A 
ATOM      3  C   UNL     1      26.041  -0.612  12.308  1.00  0.00     0.238 A 
ATOM      4  O   UNL     1      26.564  -1.183  11.312  1.00  0.00    -0.285 OA
ATOM      5  C   UNL     1      25.223   0.524  12.143  1.00  0.00     0.111 A 
ATOM      6  C   UNL     1      24.932   1.093  10.878  1.00  0.00     0.134 A 
ATOM      7  C   UNL     1      24.117   2.231  10.799  1.00  0.00     0.093 A 
ATOM      8  C   UNL     1      23.588   2.811  11.954  1.00  0.00     0.123 A 
ATOM      9  C   UNL     1      23.871   2.254  13.206  1.00  0.00     0.094 A 
ATOM     10  C   UNL     1      24.680   1.120  13.306  1.00  0.00     0.146 A 
ATOM     11  O   UNL     1      24.929   0.607  14.506  1.00  0.00    -0.452 OA
ENDROOT
BRANCH   1  12
ATOM     12  C   UNL     1      25.876  -0.949  16.087  1.00  0.00     0.021 A 
ATOM     13  C   UNL     1      24.992  -1.901  16.618  1.00  0.00     0.016 A 
ATOM     14  C   UNL     1      25.168  -2.384  17.919  1.00  0.00     0.047 A 
ATOM     15  C   UNL     1      26.241  -1.931  18.698  1.00  0.00     0.115 A 
ATOM     16  C   UNL     1      26.964  -0.515  16.867  1.00  0.00     0.016 A 
ATOM     17  C   UNL     1      27.137  -1.000  18.167  1.00  0.00     0.047 A 
BRANCH  15  18
ATOM     18  O   UNL     1      26.426  -2.405  19.995  1.00  0.00    -0.508 OA
ATOM     19  H   UNL     1      27.350  -2.594  20.363  1.00  0.00     0.293 HD
ENDBRANCH  15  18
ENDBRANCH   1  12
BRANCH   2  20
ATOM     20  O   UNL     1      27.131  -2.205  13.791  1.00  0.00    -0.502 OA
ATOM     21  H   UNL     1      26.874  -3.146  13.514  1.00  0.00     0.293 HD
ENDBRANCH   2  20
BRANCH   6  22
ATOM     22  O   UNL     1      25.446   0.537   9.706  1.00  0.00    -0.507 OA
ATOM     23  H   UNL     1      25.971   1.091   9.039  1.00  0.00     0.293 HD
ENDBRANCH   6  22
BRANCH   8  24
ATOM     24  O   UNL     1      22.781   3.943  11.847  1.00  0.00    -0.508 OA
ATOM     25  H   UNL     1      22.607   4.387  10.952  1.00  0.00     0.293 HD
ENDBRANCH   8  24
TORSDOF 5
ENDMDL
MODEL 5
REMARK VINA RESULT:    -5.344      3.585      5.367
REMARK INTER + INTRA:          -6.574
REMARK INTER:                  -6.277
REMARK INTRA:                  -0.297
REMARK UNBOUND:                -0.293
REMARK SMILES O=c1c(O)c(-c2ccc(O)cc2)oc2cc(O)cc(O)c12
REMARK SMILES IDX 5 1 3 2 2 3 1 4 21 5 19 6 18 7 16 8 15 9 14 10 13 11 6 12
REMARK SMILES IDX 7 13 8 14 9 15 12 16 11 17 10 18 4 20 20 22 17 24
REMARK H PARENT 10 19 4 21 20 23 17 25
REMARK Flexibility Score: inf
ROOT
ATOM      1  C   UNL     1      22.260  -4.525  17.152  1.00  0.00     0.180 A 
ATOM      2  C   UNL     1      21.185  -4.093  17.952  1.00  0.00     0.208 A 
ATOM      3  C   UNL     1      21.346  -2.944  18.742  1.00  0.00     0.238 A 
ATOM      4  O   UNL     1      20.394  -2.554  19.471  1.00  0.00    -0.285 OA
ATOM      5  C   UNL     1      22.566  -2.238  18.704  1.00  0.00     0.111 A 
ATOM      6  C   UNL     1      22.808  -1.069  19.466  1.00  0.00     0.134 A 
ATOM      7  C   UNL     1      24.046  -0.418  19.366  1.00  0.00     0.093 A 
ATOM      8  C   UNL     1      25.044  -0.910  18.521  1.00  0.00     0.123 A 
ATOM      9  C   UNL     1      24.811  -2.065  17.767  1.00  0.00     0.094 A 
ATOM     10  C   UNL     1      23.585  -2.729  17.854  1.00  0.00     0.146 A 
ATOM     11  O   UNL     1      23.391  -3.826  17.131  1.00  0.00    -0.452 OA
ENDROOT
BRANCH   1  12
ATOM     12  C   UNL     1      22.174  -5.738  16.306  1.00  0.00     0.021 A 
ATOM     13  C   UNL     1      21.822  -5.613  14.953  1.00  0.00     0.016 A 
ATOM     14  C   UNL     1      21.756  -6.741  14.130  1.00  0.00     0.047 A 
ATOM     15  C   UNL     1      22.058  -8.008  14.648  1.00  0.00     0.115 A 
ATOM     16  C   UNL     1      22.496  -7.010  16.814  1.00  0.00     0.016 A 
ATOM     17  C   UNL     1      22.430  -8.137  15.989  1.00  0.00     0.047 A 
BRANCH  15  18
ATOM     18  O   UNL     1      21.995  -9.140  13.837  1.00  0.00    -0.508 OA
ATOM     19  H   UNL     1      22.727  -9.840  13.849  1.00  0.00     0.293 HD
ENDBRANCH  15  18
ENDBRANCH   1  12
BRANCH   2  20
ATOM     20  O   UNL     1      19.969  -4.782  17.934  1.00  0.00    -0.502 OA
ATOM     21  H   UNL     1      19.905  -5.764  17.690  1.00  0.00     0.293 HD
ENDBRANCH   2  20
BRANCH   6  22
ATOM     22  O   UNL     1      21.831  -0.552  20.318  1.00  0.00    -0.507 OA
ATOM     23  H   UNL     1      21.791  -0.804  21.299  1.00  0.00     0.293 HD
ENDBRANCH   6  22
BRANCH   8  24
ATOM     24  O   UNL     1      26.265  -0.243  18.440  1.00  0.00    -0.508 OA
ATOM     25  H   UNL     1      27.018  -0.435  19.091  1.00  0.00     0.293 HD
ENDBRANCH   8  24
TORSDOF 5
ENDMDL
MODEL 6
REMARK VINA RESULT:    -5.326      2.675      6.968
REMARK INTER + INTRA:          -6.553
REMARK INTER:                  -6.269
REMARK INTRA:                  -0.284
REMARK UNBOUND:                -0.293
REMARK SMILES O=c1c(O)c(-c2ccc(O)cc2)oc2cc(O)cc(O)c12
REMARK SMILES IDX 5 1 3 2 2 3 1 4 21 5 19 6 18 7 16 8 15 9 14 10 13 11 6 12
REMARK SMILES IDX 7 13 8 14 9 15 12 16 11 17 10 18 4 20 20 22 17 24
REMARK H PARENT 10 19 4 21 20 23 17 25
REMARK Flexibility Score: inf
ROOT
ATOM      1  C   UNL     1      23.987  -1.620  15.848  1.00  0.00     0.180 A 
ATOM      2  C   UNL     1      25.383  -1.564  16.015  1.00  0.00     0.208 A 
ATOM      3  C   UNL     1      26.134  -0.728  15.174  1.00  0.00     0.238 A 
ATOM      4  O   UNL     1      27.388  -0.679  15.307  1.00  0.00    -0.285 OA
ATOM      5  C   UNL     1      25.478   0.048  14.197  1.00  0.00     0.111 A 
ATOM      6  C   UNL     1      26.161   0.918  13.312  1.00  0.00     0.134 A 
ATOM      7  C   UNL     1      25.434   1.666  12.374  1.00  0.00     0.093 A 
ATOM      8  C   UNL     1      24.043   1.562  12.303  1.00  0.00     0.123 A 
ATOM      9  C   UNL     1      23.363   0.703  13.174  1.00  0.00     0.094 A 
ATOM     10  C   UNL     1      24.069  -0.051  14.115  1.00  0.00     0.146 A 
ATOM     11  O   UNL     1      23.400  -0.862  14.926  1.00  0.00    -0.452 OA
ENDROOT
BRANCH   1  12
ATOM     12  C   UNL     1      23.128  -2.491  16.684  1.00  0.00     0.021 A 
ATOM     13  C   UNL     1      22.824  -3.789  16.243  1.00  0.00     0.016 A 
ATOM     14  C   UNL     1      22.035  -4.637  17.026  1.00  0.00     0.047 A 
ATOM     15  C   UNL     1      21.554  -4.202  18.268  1.00  0.00     0.115 A 
ATOM     16  C   UNL     1      22.660  -2.069  17.942  1.00  0.00     0.016 A 
ATOM     17  C   UNL     1      21.871  -2.919  18.723  1.00  0.00     0.047 A 
BRANCH  15  18
ATOM     18  O   UNL     1      20.766  -5.038  19.057  1.00  0.00    -0.508 OA
ATOM     19  H   UNL     1      19.773  -4.876  19.172  1.00  0.00     0.293 HD
ENDBRANCH  15  18
ENDBRANCH   1  12
BRANCH   2  20
ATOM     20  O   UNL     1      26.005  -2.306  17.023  1.00  0.00    -0.502 OA
ATOM     21  H   UNL     1      26.849  -1.991  17.488  1.00  0.00     0.293 HD
ENDBRANCH   2  20
BRANCH   6  22
ATOM     22  O   UNL     1      27.550   1.046  13.359  1.00  0.00    -0.507 OA
ATOM     23  H   UNL     1      28.023   1.428  14.170  1.00  0.00     0.293 HD
ENDBRANCH   6  22
BRANCH   8  24
ATOM     24  O   UNL     1      23.345   2.316  11.362  1.00  0.00    -0.508 OA
ATOM     25  H   UNL     1      23.437   3.325  11.318  1.00  0.00     0.293 HD
ENDBRANCH   8  24
TORSDOF 5
ENDMDL
MODEL 7
REMARK VINA RESULT:    -5.309      3.474      6.130
REMARK INTER + INTRA:          -6.532
REMARK INTER:                  -6.348
REMARK INTRA:                  -0.184
REMARK UNBOUND:                -0.293
REMARK SMILES O=c1c(O)c(-c2ccc(O)cc2)oc2cc(O)cc(O)c12
REMARK SMILES IDX 5 1 3 2 2 3 1 4 21 5 19 6 18 7 16 8 15 9 14 10 13 11 6 12
REMARK SMILES IDX 7 13 8 14 9 15 12 16 11 17 10 18 4 20 20 22 17 24
REMARK H PARENT 10 19 4 21 20 23 17 25
REMARK Flexibility Score: inf
ROOT
ATOM      1  C   UNL     1      23.032  -3.102  17.123  1.00  0.00     0.180 A 
ATOM      2  C   UNL     1      21.773  -2.620  17.528  1.00  0.00     0.208 A 
ATOM      3  C   UNL     1      20.621  -3.321  17.138  1.00  0.00     0.238 A 
ATOM      4  O   UNL     1      19.487  -2.892  17.485  1.00  0.00    -0.285 OA
ATOM      5  C   UNL     1      20.747  -4.496  16.370  1.00  0.00     0.111 A 
ATOM      6  C   UNL     1      19.637  -5.263  15.940  1.00  0.00     0.134 A 
ATOM      7  C   UNL     1      19.846  -6.428  15.187  1.00  0.00     0.093 A 
ATOM      8  C   UNL     1      21.139  -6.840  14.857  1.00  0.00     0.123 A 
ATOM      9  C   UNL     1      22.240  -6.087  15.278  1.00  0.00     0.094 A 
ATOM     10  C   UNL     1      22.052  -4.923  16.028  1.00  0.00     0.146 A 
ATOM     11  O   UNL     1      23.114  -4.222  16.412  1.00  0.00    -0.452 OA
ENDROOT
BRANCH   1  12
ATOM     12  C   UNL     1      24.292  -2.408  17.478  1.00  0.00     0.021 A 
ATOM     13  C   UNL     1      24.751  -2.447  18.805  1.00  0.00     0.016 A 
ATOM     14  C   UNL     1      25.949  -1.819  19.158  1.00  0.00     0.047 A 
ATOM     15  C   UNL     1      26.710  -1.157  18.186  1.00  0.00     0.115 A 
ATOM     16  C   UNL     1      25.072  -1.759  16.503  1.00  0.00     0.016 A 
ATOM     17  C   UNL     1      26.270  -1.133  16.860  1.00  0.00     0.047 A 
BRANCH  15  18
ATOM     18  O   UNL     1      27.905  -0.526  18.527  1.00  0.00    -0.508 OA
ATOM     19  H   UNL     1      27.915   0.348  19.038  1.00  0.00     0.293 HD
ENDBRANCH  15  18
ENDBRANCH   1  12
BRANCH   2  20
ATOM     20  O   UNL     1      21.678  -1.479  18.330  1.00  0.00    -0.502 OA
ATOM     21  H   UNL     1      21.677  -0.542  17.944  1.00  0.00     0.293 HD
ENDBRANCH   2  20
BRANCH   6  22
ATOM     22  O   UNL     1      18.333  -4.879  16.254  1.00  0.00    -0.507 OA
ATOM     23  H   UNL     1      17.875  -5.191  17.103  1.00  0.00     0.293 HD
ENDBRANCH   6  22
BRANCH   8  24
ATOM     24  O   UNL     1      21.320  -8.002  14.108  1.00  0.00    -0.508 OA
ATOM     25  H   UNL     1      20.596  -8.710  14.046  1.00  0.00     0.293 HD
ENDBRANCH   8  24
TORSDOF 5
ENDMDL
MODEL 8
REMARK VINA RESULT:    -5.147      3.886      5.820
REMARK INTER + INTRA:          -6.343
REMARK INTER:                  -6.055
REMARK INTRA:                  -0.287
REMARK UNBOUND:                -0.293
REMARK SMILES O=c1c(O)c(-c2ccc(O)cc2)oc2cc(O)cc(O)c12
REMARK SMILES IDX 5 1 3 2 2 3 1 4 21 5 19 6 18 7 16 8 15 9 14 10 13 11 6 12
REMARK SMILES IDX 7 13 8 14 9 15 12 16 11 17 10 18 4 20 20 22 17 24
REMARK H PARENT 10 19 4 21 20 23 17 25
REMARK Flexibility Score: inf
ROOT
ATOM      1  C   UNL     1      21.961  -4.650  17.339  1.00  0.00     0.180 A 
ATOM      2  C   UNL     1      22.847  -3.556  17.379  1.00  0.00     0.208 A 
ATOM      3  C   UNL     1      22.705  -2.606  18.403  1.00  0.00     0.238 A 
ATOM      4  O   UNL     1      23.485  -1.615  18.442  1.00  0.00    -0.285 OA
ATOM      5  C   UNL     1      21.699  -2.774  19.375  1.00  0.00     0.111 A 
ATOM      6  C   UNL     1      21.491  -1.865  20.441  1.00  0.00     0.134 A 
ATOM      7  C   UNL     1      20.474  -2.109  21.375  1.00  0.00     0.093 A 
ATOM      8  C   UNL     1      19.662  -3.239  21.266  1.00  0.00     0.123 A 
ATOM      9  C   UNL     1      19.861  -4.141  20.215  1.00  0.00     0.094 A 
ATOM     10  C   UNL     1      20.868  -3.915  19.273  1.00  0.00     0.146 A 
ATOM     11  O   UNL     1      21.033  -4.784  18.282  1.00  0.00    -0.452 OA
ENDROOT
BRANCH   1  12
ATOM     12  C   UNL     1      22.035  -5.683  16.280  1.00  0.00     0.021 A 
ATOM     13  C   UNL     1      22.660  -6.910  16.556  1.00  0.00     0.016 A 
ATOM     14  C   UNL     1      22.721  -7.909  15.579  1.00  0.00     0.047 A 
ATOM     15  C   UNL     1      22.144  -7.698  14.320  1.00  0.00     0.115 A 
ATOM     16  C   UNL     1      21.439  -5.486  15.021  1.00  0.00     0.016 A 
ATOM     17  C   UNL     1      21.501  -6.487  14.047  1.00  0.00     0.047 A 
BRANCH  15  18
ATOM     18  O   UNL     1      22.199  -8.686  13.339  1.00  0.00    -0.508 OA
ATOM     19  H   UNL     1      21.357  -9.081  12.937  1.00  0.00     0.293 HD
ENDBRANCH  15  18
ENDBRANCH   1  12
BRANCH   2  20
ATOM     20  O   UNL     1      23.867  -3.438  16.432  1.00  0.00    -0.502 OA
ATOM     21  H   UNL     1      23.788  -2.836  15.621  1.00  0.00     0.293 HD
ENDBRANCH   2  20
BRANCH   6  22
ATOM     22  O   UNL     1      22.287  -0.726  20.579  1.00  0.00    -0.507 OA
ATOM     23  H   UNL     1      21.898   0.207  20.513  1.00  0.00     0.293 HD
ENDBRANCH   6  22
BRANCH   8  24
ATOM     24  O   UNL     1      18.658  -3.458  22.208  1.00  0.00    -0.508 OA
ATOM     25  H   UNL     1      18.818  -4.031  23.029  1.00  0.00     0.293 HD
ENDBRANCH   8  24
TORSDOF 5
ENDMDL
MODEL 9
REMARK VINA RESULT:    -5.046      2.831      5.927
REMARK INTER + INTRA:          -6.224
REMARK INTER:                  -5.944
REMARK INTRA:                  -0.279
REMARK UNBOUND:                -0.293
REMARK SMILES O=c1c(O)c(-c2ccc(O)cc2)oc2cc(O)cc(O)c12
REMARK SMILES IDX 5 1 3 2 2 3 1 4 21 5 19 6 18 7 16 8 15 9 14 10 13 11 6 12
REMARK SMILES IDX 7 13 8 14 9 15 12 16 11 17 10 18 4 20 20 22 17 24
REMARK H PARENT 10 19 4 21 20 23 17 25
REMARK Flexibility Score: inf
ROOT
ATOM      1  C   UNL     1      22.340  -3.242  18.129  1.00  0.00     0.180 A 
ATOM      2  C   UNL     1      23.217  -3.302  17.029  1.00  0.00     0.208 A 
ATOM      3  C   UNL     1      24.363  -2.492  17.030  1.00  0.00     0.238 A 
ATOM      4  O   UNL     1      25.150  -2.528  16.045  1.00  0.00    -0.285 OA
ATOM      5  C   UNL     1      24.623  -1.654  18.134  1.00  0.00     0.111 A 
ATOM      6  C   UNL     1      25.757  -0.809  18.215  1.00  0.00     0.134 A 
ATOM      7  C   UNL     1      25.950  -0.013  19.353  1.00  0.00     0.093 A 
ATOM      8  C   UNL     1      25.035  -0.043  20.408  1.00  0.00     0.123 A 
ATOM      9  C   UNL     1      23.912  -0.874  20.333  1.00  0.00     0.094 A 
ATOM     10  C   UNL     1      23.701  -1.675  19.208  1.00  0.00     0.146 A 
ATOM     11  O   UNL     1      22.625  -2.451  19.159  1.00  0.00    -0.452 OA
ENDROOT
BRANCH   1  12
ATOM     12  C   UNL     1      21.101  -4.052  18.192  1.00  0.00     0.021 A 
ATOM     13  C   UNL     1      19.890  -3.498  17.747  1.00  0.00     0.016 A 
ATOM     14  C   UNL     1      18.713  -4.252  17.777  1.00  0.00     0.047 A 
ATOM     15  C   UNL     1      18.736  -5.575  18.237  1.00  0.00     0.115 A 
ATOM     16  C   UNL     1      21.121  -5.388  18.633  1.00  0.00     0.016 A 
ATOM     17  C   UNL     1      19.943  -6.140  18.660  1.00  0.00     0.047 A 
BRANCH  15  18
ATOM     18  O   UNL     1      17.569  -6.336  18.271  1.00  0.00    -0.508 OA
ATOM     19  H   UNL     1      17.595  -7.347  18.231  1.00  0.00     0.293 HD
ENDBRANCH  15  18
ENDBRANCH   1  12
BRANCH   2  20
ATOM     20  O   UNL     1      22.963  -4.177  15.969  1.00  0.00    -0.502 OA
ATOM     21  H   UNL     1      22.497  -3.880  15.119  1.00  0.00     0.293 HD
ENDBRANCH   2  20
BRANCH   6  22
ATOM     22  O   UNL     1      26.690  -0.758  17.179  1.00  0.00    -0.507 OA
ATOM     23  H   UNL     1      26.487  -0.292  16.302  1.00  0.00     0.293 HD
ENDBRANCH   6  22
BRANCH   8  24
ATOM     24  O   UNL     1      25.251   0.759  21.528  1.00  0.00    -0.508 OA
ATOM     25  H   UNL     1      25.952   1.491  21.528  1.00  0.00     0.293 HD
ENDBRANCH   8  24
TORSDOF 5
ENDMDL
