MODEL 1
REMARK VINA RESULT:    -6.400      0.000      0.000
REMARK INTER + INTRA:          -9.620
REMARK INTER:                  -8.644
REMARK INTRA:                  -0.976
REMARK UNBOUND:                -0.976
REMARK SMILES CC(=O)CCC=C(C)CCC=C(C)C
REMARK SMILES IDX 7 1 6 2 8 3 9 4 10 5 11 6 13 7 12 8 14 9 5 10 4 11 2 12 3 13
REMARK SMILES IDX 1 14
REMARK H PARENT
REMARK Flexibility Score: inf
ROOT
ATOM      1  C   UNL     1      26.524  56.488 140.896  1.00  0.00    -0.077 C 
ATOM      2  C   UNL     1      26.897  57.222 141.970  1.00  0.00    -0.028 C 
ATOM      3  C   UNL     1      27.486  55.558 140.195  1.00  0.00     0.039 C 
ENDROOT
BRANCH   1   4
ATOM      4  C   UNL     1      25.102  56.597 140.392  1.00  0.00     0.034 C 
BRANCH   4   5
ATOM      5  C   UNL     1      25.044  57.406 139.091  1.00  0.00     0.032 C 
BRANCH   5   6
ATOM      6  C   UNL     1      25.995  58.576 139.143  1.00  0.00    -0.028 C 
ATOM      7  C   UNL     1      27.269  57.832 137.119  1.00  0.00     0.039 C 
ATOM      8  C   UNL     1      26.979  58.796 138.242  1.00  0.00    -0.080 C 
ATOM      9  C   UNL     1      27.857  60.014 138.375  1.00  0.00     0.039 C 
ENDBRANCH   5   6
ENDBRANCH   4   5
ENDBRANCH   1   4
BRANCH   2  10
ATOM     10  C   UNL     1      28.287  57.240 142.552  1.00  0.00     0.035 C 
BRANCH  10  11
ATOM     11  C   UNL     1      28.930  58.620 142.381  1.00  0.00     0.079 C 
BRANCH  11  12
ATOM     12  C   UNL     1      30.284  58.501 141.733  1.00  0.00     0.130 C 
ATOM     13  O   UNL     1      31.217  59.165 142.161  1.00  0.00    -0.300 OA
ATOM     14  C   UNL     1      30.518  57.573 140.578  1.00  0.00     0.087 C 
ENDBRANCH  11  12
ENDBRANCH  10  11
ENDBRANCH   2  10
TORSDOF 6
ENDMDL
MODEL 2
REMARK VINA RESULT:    -6.316      2.288      4.608
REMARK INTER + INTRA:          -9.507
REMARK INTER:                  -8.003
REMARK INTRA:                  -1.504
REMARK UNBOUND:                -0.976
REMARK SMILES CC(=O)CCC=C(C)CCC=C(C)C
REMARK SMILES IDX 7 1 6 2 8 3 9 4 10 5 11 6 13 7 12 8 14 9 5 10 4 11 2 12 3 13
REMARK SMILES IDX 1 14
REMARK H PARENT
REMARK Flexibility Score: inf
ROOT
ATOM      1  C   UNL     1      26.665  59.128 138.754  1.00  0.00    -0.077 C 
ATOM      2  C   UNL     1      25.629  58.462 139.313  1.00  0.00    -0.028 C 
ATOM      3  C   UNL     1      27.453  58.552 137.601  1.00  0.00     0.039 C 
ENDROOT
BRANCH   1   4
ATOM      4  C   UNL     1      27.036  60.493 139.293  1.00  0.00     0.034 C 
BRANCH   4   5
ATOM      5  C   UNL     1      27.064  60.485 140.826  1.00  0.00     0.032 C 
BRANCH   5   6
ATOM      6  C   UNL     1      28.310  59.804 141.335  1.00  0.00    -0.028 C 
ATOM      7  C   UNL     1      27.030  58.136 142.698  1.00  0.00     0.039 C 
ATOM      8  C   UNL     1      28.307  58.725 142.152  1.00  0.00    -0.080 C 
ATOM      9  C   UNL     1      29.612  58.106 142.580  1.00  0.00     0.039 C 
ENDBRANCH   5   6
ENDBRANCH   4   5
ENDBRANCH   1   4
BRANCH   2  10
ATOM     10  C   UNL     1      25.177  57.084 138.903  1.00  0.00     0.035 C 
BRANCH  10  11
ATOM     11  C   UNL     1      25.575  56.045 139.957  1.00  0.00     0.079 C 
BRANCH  11  12
ATOM     12  C   UNL     1      26.804  55.291 139.524  1.00  0.00     0.130 C 
ATOM     13  O   UNL     1      26.682  54.271 138.861  1.00  0.00    -0.300 OA
ATOM     14  C   UNL     1      28.180  55.769 139.879  1.00  0.00     0.087 C 
ENDBRANCH  11  12
ENDBRANCH  10  11
ENDBRANCH   2  10
TORSDOF 6
ENDMDL
MODEL 3
REMARK VINA RESULT:    -6.289      2.047      3.787
REMARK INTER + INTRA:          -9.470
REMARK INTER:                  -8.254
REMARK INTRA:                  -1.217
REMARK UNBOUND:                -0.976
REMARK SMILES CC(=O)CCC=C(C)CCC=C(C)C
REMARK SMILES IDX 7 1 6 2 8 3 9 4 10 5 11 6 13 7 12 8 14 9 5 10 4 11 2 12 3 13
REMARK SMILES IDX 1 14
REMARK H PARENT
REMARK Flexibility Score: inf
ROOT
ATOM      1  C   UNL     1      27.367  59.785 140.757  1.00  0.00    -0.077 C 
ATOM      2  C   UNL     1      28.186  58.761 141.091  1.00  0.00    -0.028 C 
ATOM      3  C   UNL     1      27.098  60.931 141.704  1.00  0.00     0.039 C 
ENDROOT
BRANCH   1   4
ATOM      4  C   UNL     1      26.712  59.785 139.393  1.00  0.00     0.034 C 
BRANCH   4   5
ATOM      5  C   UNL     1      26.639  58.364 138.822  1.00  0.00     0.032 C 
BRANCH   5   6
ATOM      6  C   UNL     1      25.258  57.784 139.001  1.00  0.00    -0.028 C 
ATOM      7  C   UNL     1      26.120  55.511 139.605  1.00  0.00     0.039 C 
ATOM      8  C   UNL     1      25.012  56.511 139.385  1.00  0.00    -0.080 C 
ATOM      9  C   UNL     1      23.590  56.042 139.558  1.00  0.00     0.039 C 
ENDBRANCH   5   6
ENDBRANCH   4   5
ENDBRANCH   1   4
BRANCH   2  10
ATOM     10  C   UNL     1      28.871  58.614 142.425  1.00  0.00     0.035 C 
BRANCH  10  11
ATOM     11  C   UNL     1      28.347  57.384 143.174  1.00  0.00     0.079 C 
BRANCH  11  12
ATOM     12  C   UNL     1      26.925  57.598 143.619  1.00  0.00     0.130 C 
ATOM     13  O   UNL     1      26.657  58.542 144.347  1.00  0.00    -0.300 OA
ATOM     14  C   UNL     1      25.823  56.681 143.178  1.00  0.00     0.087 C 
ENDBRANCH  11  12
ENDBRANCH  10  11
ENDBRANCH   2  10
TORSDOF 6
ENDMDL
MODEL 4
REMARK VINA RESULT:    -6.250      1.449      3.244
REMARK INTER + INTRA:          -9.418
REMARK INTER:                  -8.317
REMARK INTRA:                  -1.101
REMARK UNBOUND:                -0.976
REMARK SMILES CC(=O)CCC=C(C)CCC=C(C)C
REMARK SMILES IDX 7 1 6 2 8 3 9 4 10 5 11 6 13 7 12 8 14 9 5 10 4 11 2 12 3 13
REMARK SMILES IDX 1 14
REMARK H PARENT
REMARK Flexibility Score: inf
ROOT
ATOM      1  C   UNL     1      28.579  57.098 139.300  1.00  0.00    -0.077 C 
ATOM      2  C   UNL     1      29.444  58.016 139.786  1.00  0.00    -0.028 C 
ATOM      3  C   UNL     1      28.512  55.694 139.855  1.00  0.00     0.039 C 
ENDROOT
BRANCH   1   4
ATOM      4  C   UNL     1      27.647  57.492 138.175  1.00  0.00     0.034 C 
BRANCH   4   5
ATOM      5  C   UNL     1      26.420  58.234 138.716  1.00  0.00     0.032 C 
BRANCH   5   6
ATOM      6  C   UNL     1      25.193  57.359 138.655  1.00  0.00    -0.028 C 
ATOM      7  C   UNL     1      25.320  56.741 141.080  1.00  0.00     0.039 C 
ATOM      8  C   UNL     1      24.669  56.709 139.720  1.00  0.00    -0.080 C 
ATOM      9  C   UNL     1      23.421  55.880 139.551  1.00  0.00     0.039 C 
ENDBRANCH   5   6
ENDBRANCH   4   5
ENDBRANCH   1   4
BRANCH   2  10
ATOM     10  C   UNL     1      30.452  57.750 140.874  1.00  0.00     0.035 C 
BRANCH  10  11
ATOM     11  C   UNL     1      30.149  58.596 142.115  1.00  0.00     0.079 C 
BRANCH  11  12
ATOM     12  C   UNL     1      28.751  58.335 142.609  1.00  0.00     0.130 C 
ATOM     13  O   UNL     1      28.502  57.286 143.185  1.00  0.00    -0.300 OA
ATOM     14  C   UNL     1      27.655  59.342 142.421  1.00  0.00     0.087 C 
ENDBRANCH  11  12
ENDBRANCH  10  11
ENDBRANCH   2  10
TORSDOF 6
ENDMDL
MODEL 5
REMARK VINA RESULT:    -6.249      1.391      3.473
REMARK INTER + INTRA:          -9.417
REMARK INTER:                  -8.256
REMARK INTRA:                  -1.160
REMARK UNBOUND:                -0.976
REMARK SMILES CC(=O)CCC=C(C)CCC=C(C)C
REMARK SMILES IDX 7 1 6 2 8 3 9 4 10 5 11 6 13 7 12 8 14 9 5 10 4 11 2 12 3 13
REMARK SMILES IDX 1 14
REMARK H PARENT
REMARK Flexibility Score: inf
ROOT
ATOM      1  C   UNL     1      26.497  58.484 138.776  1.00  0.00    -0.077 C 
ATOM      2  C   UNL     1      26.765  59.562 139.546  1.00  0.00    -0.028 C 
ATOM      3  C   UNL     1      27.452  58.012 137.705  1.00  0.00     0.039 C 
ENDROOT
BRANCH   1   4
ATOM      4  C   UNL     1      25.207  57.725 139.001  1.00  0.00     0.034 C 
BRANCH   4   5
ATOM      5  C   UNL     1      25.473  56.397 139.717  1.00  0.00     0.032 C 
BRANCH   5   6
ATOM      6  C   UNL     1      25.260  56.537 141.204  1.00  0.00    -0.028 C 
ATOM      7  C   UNL     1      27.707  56.763 141.692  1.00  0.00     0.039 C 
ATOM      8  C   UNL     1      26.255  56.736 142.099  1.00  0.00    -0.080 C 
ATOM      9  C   UNL     1      25.926  56.889 143.562  1.00  0.00     0.039 C 
ENDBRANCH   5   6
ENDBRANCH   4   5
ENDBRANCH   1   4
BRANCH   2  10
ATOM     10  C   UNL     1      27.989  60.431 139.405  1.00  0.00     0.035 C 
BRANCH  10  11
ATOM     11  C   UNL     1      28.763  60.498 140.726  1.00  0.00     0.079 C 
BRANCH  11  12
ATOM     12  C   UNL     1      29.928  59.544 140.710  1.00  0.00     0.130 C 
ATOM     13  O   UNL     1      30.225  58.974 139.671  1.00  0.00    -0.300 OA
ATOM     14  C   UNL     1      30.743  59.285 141.943  1.00  0.00     0.087 C 
ENDBRANCH  11  12
ENDBRANCH  10  11
ENDBRANCH   2  10
TORSDOF 6
ENDMDL
MODEL 6
REMARK VINA RESULT:    -6.201      1.659      2.245
REMARK INTER + INTRA:          -9.353
REMARK INTER:                  -7.951
REMARK INTRA:                  -1.402
REMARK UNBOUND:                -0.976
REMARK SMILES CC(=O)CCC=C(C)CCC=C(C)C
REMARK SMILES IDX 7 1 6 2 8 3 9 4 10 5 11 6 13 7 12 8 14 9 5 10 4 11 2 12 3 13
REMARK SMILES IDX 1 14
REMARK H PARENT
REMARK Flexibility Score: inf
ROOT
ATOM      1  C   UNL     1      26.082  56.514 140.441  1.00  0.00    -0.077 C 
ATOM      2  C   UNL     1      25.577  56.799 141.662  1.00  0.00    -0.028 C 
ATOM      3  C   UNL     1      27.335  55.686 140.270  1.00  0.00     0.039 C 
ENDROOT
BRANCH   1   4
ATOM      4  C   UNL     1      25.366  57.031 139.212  1.00  0.00     0.034 C 
BRANCH   4   5
ATOM      5  C   UNL     1      26.310  57.866 138.340  1.00  0.00     0.032 C 
BRANCH   5   6
ATOM      6  C   UNL     1      26.588  59.203 138.979  1.00  0.00    -0.028 C 
ATOM      7  C   UNL     1      29.061  58.818 139.080  1.00  0.00     0.039 C 
ATOM      8  C   UNL     1      27.825  59.657 139.286  1.00  0.00    -0.080 C 
ATOM      9  C   UNL     1      27.991  61.023 139.900  1.00  0.00     0.039 C 
ENDBRANCH   5   6
ENDBRANCH   4   5
ENDBRANCH   1   4
BRANCH   2  10
ATOM     10  C   UNL     1      26.208  56.383 142.967  1.00  0.00     0.035 C 
BRANCH  10  11
ATOM     11  C   UNL     1      26.504  57.605 143.842  1.00  0.00     0.079 C 
BRANCH  11  12
ATOM     12  C   UNL     1      27.476  58.528 143.156  1.00  0.00     0.130 C 
ATOM     13  O   UNL     1      27.149  59.683 142.925  1.00  0.00    -0.300 OA
ATOM     14  C   UNL     1      28.846  58.064 142.759  1.00  0.00     0.087 C 
ENDBRANCH  11  12
ENDBRANCH  10  11
ENDBRANCH   2  10
TORSDOF 6
ENDMDL
MODEL 7
REMARK VINA RESULT:    -6.125      2.165      5.042
REMARK INTER + INTRA:          -9.249
REMARK INTER:                  -7.956
REMARK INTRA:                  -1.293
REMARK UNBOUND:                -0.976
REMARK SMILES CC(=O)CCC=C(C)CCC=C(C)C
REMARK SMILES IDX 7 1 6 2 8 3 9 4 10 5 11 6 13 7 12 8 14 9 5 10 4 11 2 12 3 13
REMARK SMILES IDX 1 14
REMARK H PARENT
REMARK Flexibility Score: inf
ROOT
ATOM      1  C   UNL     1      28.836  56.840 139.677  1.00  0.00    -0.077 C 
ATOM      2  C   UNL     1      28.142  57.777 138.992  1.00  0.00    -0.028 C 
ATOM      3  C   UNL     1      28.353  55.412 139.785  1.00  0.00     0.039 C 
ENDROOT
BRANCH   1   4
ATOM      4  C   UNL     1      30.136  57.232 140.345  1.00  0.00     0.034 C 
BRANCH   4   5
ATOM      5  C   UNL     1      29.886  58.219 141.490  1.00  0.00     0.032 C 
BRANCH   5   6
ATOM      6  C   UNL     1      28.988  57.609 142.538  1.00  0.00    -0.028 C 
ATOM      7  C   UNL     1      27.278  59.430 142.358  1.00  0.00     0.039 C 
ATOM      8  C   UNL     1      27.796  58.127 142.913  1.00  0.00    -0.080 C 
ATOM      9  C   UNL     1      26.966  57.420 143.953  1.00  0.00     0.039 C 
ENDBRANCH   5   6
ENDBRANCH   4   5
ENDBRANCH   1   4
BRANCH   2  10
ATOM     10  C   UNL     1      26.818  57.536 138.314  1.00  0.00     0.035 C 
BRANCH  10  11
ATOM     11  C   UNL     1      25.664  58.070 139.169  1.00  0.00     0.079 C 
BRANCH  11  12
ATOM     12  C   UNL     1      24.936  56.940 139.846  1.00  0.00     0.130 C 
ATOM     13  O   UNL     1      25.332  56.530 140.928  1.00  0.00    -0.300 OA
ATOM     14  C   UNL     1      23.724  56.309 139.228  1.00  0.00     0.087 C 
ENDBRANCH  11  12
ENDBRANCH  10  11
ENDBRANCH   2  10
TORSDOF 6
ENDMDL
MODEL 8
REMARK VINA RESULT:    -6.109      1.234      3.144
REMARK INTER + INTRA:          -9.227
REMARK INTER:                  -8.321
REMARK INTRA:                  -0.906
REMARK UNBOUND:                -0.976
REMARK SMILES CC(=O)CCC=C(C)CCC=C(C)C
REMARK SMILES IDX 7 1 6 2 8 3 9 4 10 5 11 6 13 7 12 8 14 9 5 10 4 11 2 12 3 13
REMARK SMILES IDX 1 14
REMARK H PARENT
REMARK Flexibility Score: inf
ROOT
ATOM      1  C   UNL     1      27.372  59.830 140.310  1.00  0.00    -0.077 C 
ATOM      2  C   UNL     1      27.470  58.983 141.360  1.00  0.00    -0.028 C 
ATOM      3  C   UNL     1      28.215  61.080 140.213  1.00  0.00     0.039 C 
ENDROOT
BRANCH   1   4
ATOM      4  C   UNL     1      26.395  59.510 139.199  1.00  0.00     0.034 C 
BRANCH   4   5
ATOM      5  C   UNL     1      26.554  58.059 138.733  1.00  0.00     0.032 C 
BRANCH   5   6
ATOM      6  C   UNL     1      25.217  57.363 138.681  1.00  0.00    -0.028 C 
ATOM      7  C   UNL     1      25.528  56.259 140.909  1.00  0.00     0.039 C 
ATOM      8  C   UNL     1      24.730  56.577 139.669  1.00  0.00    -0.080 C 
ATOM      9  C   UNL     1      23.367  55.950 139.524  1.00  0.00     0.039 C 
ENDBRANCH   5   6
ENDBRANCH   4   5
ENDBRANCH   1   4
BRANCH   2  10
ATOM     10  C   UNL     1      28.370  59.197 142.550  1.00  0.00     0.035 C 
BRANCH  10  11
ATOM     11  C   UNL     1      29.428  58.092 142.638  1.00  0.00     0.079 C 
BRANCH  11  12
ATOM     12  C   UNL     1      30.515  58.314 141.620  1.00  0.00     0.130 C 
ATOM     13  O   UNL     1      31.350  59.185 141.811  1.00  0.00    -0.300 OA
ATOM     14  C   UNL     1      30.603  57.479 140.377  1.00  0.00     0.087 C 
ENDBRANCH  11  12
ENDBRANCH  10  11
ENDBRANCH   2  10
TORSDOF 6
ENDMDL
MODEL 9
REMARK VINA RESULT:    -6.087      1.585      3.700
REMARK INTER + INTRA:          -9.198
REMARK INTER:                  -7.845
REMARK INTRA:                  -1.353
REMARK UNBOUND:                -0.976
REMARK SMILES CC(=O)CCC=C(C)CCC=C(C)C
REMARK SMILES IDX 7 1 6 2 8 3 9 4 10 5 11 6 13 7 12 8 14 9 5 10 4 11 2 12 3 13
REMARK SMILES IDX 1 14
REMARK H PARENT
REMARK Flexibility Score: inf
ROOT
ATOM      1  C   UNL     1      27.956  58.624 142.608  1.00  0.00    -0.077 C 
ATOM      2  C   UNL     1      27.506  59.686 141.903  1.00  0.00    -0.028 C 
ATOM      3  C   UNL     1      29.373  58.119 142.471  1.00  0.00     0.039 C 
ENDROOT
BRANCH   1   4
ATOM      4  C   UNL     1      27.014  57.929 143.568  1.00  0.00     0.034 C 
BRANCH   4   5
ATOM      5  C   UNL     1      26.480  56.626 142.962  1.00  0.00     0.032 C 
BRANCH   5   6
ATOM      6  C   UNL     1      25.599  56.910 141.770  1.00  0.00    -0.028 C 
ATOM      7  C   UNL     1      27.215  55.909 140.139  1.00  0.00     0.039 C 
ATOM      8  C   UNL     1      25.904  56.562 140.499  1.00  0.00    -0.080 C 
ATOM      9  C   UNL     1      24.937  56.871 139.386  1.00  0.00     0.039 C 
ENDBRANCH   5   6
ENDBRANCH   4   5
ENDBRANCH   1   4
BRANCH   2  10
ATOM     10  C   UNL     1      28.320  60.446 140.888  1.00  0.00     0.035 C 
BRANCH  10  11
ATOM     11  C   UNL     1      27.657  60.392 139.508  1.00  0.00     0.079 C 
BRANCH  11  12
ATOM     12  C   UNL     1      28.237  59.275 138.681  1.00  0.00     0.130 C 
ATOM     13  O   UNL     1      29.310  58.784 139.001  1.00  0.00    -0.300 OA
ATOM     14  C   UNL     1      27.520  58.741 137.477  1.00  0.00     0.087 C 
ENDBRANCH  11  12
ENDBRANCH  10  11
ENDBRANCH   2  10
TORSDOF 6
ENDMDL
