MODEL 1
REMARK VINA RESULT:    -3.660      0.000      0.000
REMARK INTER + INTRA:          -4.276
REMARK INTER:                  -4.195
REMARK INTRA:                  -0.081
REMARK UNBOUND:                -0.081
REMARK SMILES COc1cc(C(=O)[O-])ccc1O
REMARK SMILES IDX 5 1 9 2 4 3 10 4 3 5 11 6 6 7 7 8 8 9 2 10 1 11 12 12
REMARK H PARENT 12 13
REMARK Flexibility Score: inf
ROOT
ATOM      1  C   UNL     1      27.898  25.756   9.467  1.00  0.00     0.001 A 
ATOM      2  C   UNL     1      29.237  25.639   9.872  1.00  0.00     0.014 A 
ATOM      3  C   UNL     1      27.163  26.892   9.854  1.00  0.00     0.060 A 
ATOM      4  C   UNL     1      29.831  26.636  10.649  1.00  0.00     0.051 A 
ATOM      5  C   UNL     1      27.759  27.901  10.639  1.00  0.00     0.161 A 
ATOM      6  C   UNL     1      29.097  27.765  11.033  1.00  0.00     0.157 A 
ENDROOT
BRANCH   1   7
ATOM      7  C   UNL     1      27.274  24.697   8.643  1.00  0.00     0.072 C 
ATOM      8  O   UNL     1      26.766  24.971   7.523  1.00  0.00    -0.545 OA
ATOM      9  O   UNL     1      27.239  23.383   9.095  1.00  0.00    -0.545 OA
ENDBRANCH   1   7
BRANCH   5  10
ATOM     10  O   UNL     1      27.057  29.048  11.043  1.00  0.00    -0.493 OA
ATOM     11  C   UNL     1      25.666  29.077  11.346  1.00  0.00     0.278 C 
ENDBRANCH   5  10
BRANCH   6  12
ATOM     12  O   UNL     1      29.692  28.759  11.808  1.00  0.00    -0.504 OA
ATOM     13  H   UNL     1      30.581  29.171  11.553  1.00  0.00     0.293 HD
ENDBRANCH   6  12
TORSDOF 3
ENDMDL
MODEL 2
REMARK VINA RESULT:    -3.501      2.270      3.666
REMARK INTER + INTRA:          -4.094
REMARK INTER:                  -4.014
REMARK INTRA:                  -0.079
REMARK UNBOUND:                -0.081
REMARK SMILES COc1cc(C(=O)[O-])ccc1O
REMARK SMILES IDX 5 1 9 2 4 3 10 4 3 5 11 6 6 7 7 8 8 9 2 10 1 11 12 12
REMARK H PARENT 12 13
REMARK Flexibility Score: inf
ROOT
ATOM      1  C   UNL     1      26.283  23.743   8.330  1.00  0.00     0.001 A 
ATOM      2  C   UNL     1      25.635  24.740   7.584  1.00  0.00     0.014 A 
ATOM      3  C   UNL     1      27.216  24.122   9.313  1.00  0.00     0.060 A 
ATOM      4  C   UNL     1      25.913  26.089   7.813  1.00  0.00     0.051 A 
ATOM      5  C   UNL     1      27.500  25.484   9.548  1.00  0.00     0.161 A 
ATOM      6  C   UNL     1      26.842  26.463   8.792  1.00  0.00     0.157 A 
ENDROOT
BRANCH   1   7
ATOM      7  C   UNL     1      25.985  22.315   8.083  1.00  0.00     0.072 C 
ATOM      8  O   UNL     1      26.872  21.543   7.631  1.00  0.00    -0.545 OA
ATOM      9  O   UNL     1      24.720  21.804   8.347  1.00  0.00    -0.545 OA
ENDBRANCH   1   7
BRANCH   5  10
ATOM     10  O   UNL     1      28.424  25.899  10.520  1.00  0.00    -0.493 OA
ATOM     11  C   UNL     1      29.821  26.052  10.292  1.00  0.00     0.278 C 
ENDBRANCH   5  10
BRANCH   6  12
ATOM     12  O   UNL     1      27.118  27.810   9.019  1.00  0.00    -0.504 OA
ATOM     13  H   UNL     1      27.903  28.103   9.588  1.00  0.00     0.293 HD
ENDBRANCH   6  12
TORSDOF 3
ENDMDL
MODEL 3
REMARK VINA RESULT:    -3.417      2.077      4.036
REMARK INTER + INTRA:          -3.997
REMARK INTER:                  -3.916
REMARK INTRA:                  -0.081
REMARK UNBOUND:                -0.081
REMARK SMILES COc1cc(C(=O)[O-])ccc1O
REMARK SMILES IDX 5 1 9 2 4 3 10 4 3 5 11 6 6 7 7 8 8 9 2 10 1 11 12 12
REMARK H PARENT 12 13
REMARK Flexibility Score: inf
ROOT
ATOM      1  C   UNL     1      30.093  28.399   9.838  1.00  0.00     0.001 A 
ATOM      2  C   UNL     1      30.542  27.070   9.876  1.00  0.00     0.014 A 
ATOM      3  C   UNL     1      28.772  28.687  10.226  1.00  0.00     0.060 A 
ATOM      4  C   UNL     1      29.688  26.046  10.293  1.00  0.00     0.051 A 
ATOM      5  C   UNL     1      27.905  27.656  10.648  1.00  0.00     0.161 A 
ATOM      6  C   UNL     1      28.374  26.336  10.678  1.00  0.00     0.157 A 
ENDROOT
BRANCH   1   7
ATOM      7  C   UNL     1      31.002  29.480   9.395  1.00  0.00     0.072 C 
ATOM      8  O   UNL     1      31.970  29.230   8.629  1.00  0.00    -0.545 OA
ATOM      9  O   UNL     1      30.800  30.788   9.819  1.00  0.00    -0.545 OA
ENDBRANCH   1   7
BRANCH   5  10
ATOM     10  O   UNL     1      26.582  27.906  11.042  1.00  0.00    -0.493 OA
ATOM     11  C   UNL     1      26.018  29.204  11.202  1.00  0.00     0.278 C 
ENDBRANCH   5  10
BRANCH   6  12
ATOM     12  O   UNL     1      27.522  25.313  11.094  1.00  0.00    -0.504 OA
ATOM     13  H   UNL     1      26.704  25.501  11.662  1.00  0.00     0.293 HD
ENDBRANCH   6  12
TORSDOF 3
ENDMDL
MODEL 4
REMARK VINA RESULT:    -3.349      1.408      2.938
REMARK INTER + INTRA:          -3.919
REMARK INTER:                  -3.833
REMARK INTRA:                  -0.085
REMARK UNBOUND:                -0.081
REMARK SMILES COc1cc(C(=O)[O-])ccc1O
REMARK SMILES IDX 5 1 9 2 4 3 10 4 3 5 11 6 6 7 7 8 8 9 2 10 1 11 12 12
REMARK H PARENT 12 13
REMARK Flexibility Score: inf
ROOT
ATOM      1  C   UNL     1      27.674  25.444   9.465  1.00  0.00     0.001 A 
ATOM      2  C   UNL     1      27.051  26.391  10.293  1.00  0.00     0.014 A 
ATOM      3  C   UNL     1      29.069  25.498   9.293  1.00  0.00     0.060 A 
ATOM      4  C   UNL     1      27.805  27.374  10.936  1.00  0.00     0.051 A 
ATOM      5  C   UNL     1      29.836  26.489   9.941  1.00  0.00     0.161 A 
ATOM      6  C   UNL     1      29.194  27.425  10.763  1.00  0.00     0.157 A 
ENDROOT
BRANCH   1   7
ATOM      7  C   UNL     1      26.869  24.404   8.785  1.00  0.00     0.072 C 
ATOM      8  O   UNL     1      25.937  24.725   8.001  1.00  0.00    -0.545 OA
ATOM      9  O   UNL     1      27.131  23.056   9.003  1.00  0.00    -0.545 OA
ENDBRANCH   1   7
BRANCH   5  10
ATOM     10  O   UNL     1      31.229  26.574   9.793  1.00  0.00    -0.493 OA
ATOM     11  C   UNL     1      31.914  26.498   8.547  1.00  0.00     0.278 C 
ENDBRANCH   5  10
BRANCH   6  12
ATOM     12  O   UNL     1      29.946  28.407  11.406  1.00  0.00    -0.504 OA
ATOM     13  H   UNL     1      29.600  28.888  12.228  1.00  0.00     0.293 HD
ENDBRANCH   6  12
TORSDOF 3
ENDMDL
MODEL 5
REMARK VINA RESULT:    -3.321      1.659      4.159
REMARK INTER + INTRA:          -3.887
REMARK INTER:                  -3.788
REMARK INTRA:                  -0.099
REMARK UNBOUND:                -0.081
REMARK SMILES COc1cc(C(=O)[O-])ccc1O
REMARK SMILES IDX 5 1 9 2 4 3 10 4 3 5 11 6 6 7 7 8 8 9 2 10 1 11 12 12
REMARK H PARENT 12 13
REMARK Flexibility Score: inf
ROOT
ATOM      1  C   UNL     1      27.452  28.486  10.800  1.00  0.00     0.001 A 
ATOM      2  C   UNL     1      28.802  28.859  10.892  1.00  0.00     0.014 A 
ATOM      3  C   UNL     1      27.129  27.135  10.573  1.00  0.00     0.060 A 
ATOM      4  C   UNL     1      29.811  27.902  10.758  1.00  0.00     0.051 A 
ATOM      5  C   UNL     1      28.145  26.166  10.437  1.00  0.00     0.161 A 
ATOM      6  C   UNL     1      29.486  26.560  10.532  1.00  0.00     0.157 A 
ENDROOT
BRANCH   1   7
ATOM      7  C   UNL     1      26.387  29.504  10.943  1.00  0.00     0.072 C 
ATOM      8  O   UNL     1      26.652  30.651  11.389  1.00  0.00    -0.545 OA
ATOM      9  O   UNL     1      25.077  29.207  10.584  1.00  0.00    -0.545 OA
ENDBRANCH   1   7
BRANCH   5  10
ATOM     10  O   UNL     1      27.860  24.811  10.209  1.00  0.00    -0.493 OA
ATOM     11  C   UNL     1      27.185  24.309   9.060  1.00  0.00     0.278 C 
ENDBRANCH   5  10
BRANCH   6  12
ATOM     12  O   UNL     1      30.495  25.606  10.398  1.00  0.00    -0.504 OA
ATOM     13  H   UNL     1      31.474  25.867  10.384  1.00  0.00     0.293 HD
ENDBRANCH   6  12
TORSDOF 3
ENDMDL
MODEL 6
REMARK VINA RESULT:    -3.266      2.171      3.444
REMARK INTER + INTRA:          -3.824
REMARK INTER:                  -3.748
REMARK INTRA:                  -0.075
REMARK UNBOUND:                -0.081
REMARK SMILES COc1cc(C(=O)[O-])ccc1O
REMARK SMILES IDX 5 1 9 2 4 3 10 4 3 5 11 6 6 7 7 8 8 9 2 10 1 11 12 12
REMARK H PARENT 12 13
REMARK Flexibility Score: inf
ROOT
ATOM      1  C   UNL     1      27.575  24.662   8.860  1.00  0.00     0.001 A 
ATOM      2  C   UNL     1      27.553  25.221  10.148  1.00  0.00     0.014 A 
ATOM      3  C   UNL     1      28.610  25.021   7.977  1.00  0.00     0.060 A 
ATOM      4  C   UNL     1      28.543  26.121  10.546  1.00  0.00     0.051 A 
ATOM      5  C   UNL     1      29.613  25.930   8.375  1.00  0.00     0.161 A 
ATOM      6  C   UNL     1      29.571  26.476   9.665  1.00  0.00     0.157 A 
ENDROOT
BRANCH   1   7
ATOM      7  C   UNL     1      26.523  23.709   8.443  1.00  0.00     0.072 C 
ATOM      8  O   UNL     1      25.452  24.122   7.925  1.00  0.00    -0.545 OA
ATOM      9  O   UNL     1      26.702  22.341   8.618  1.00  0.00    -0.545 OA
ENDBRANCH   1   7
BRANCH   5  10
ATOM     10  O   UNL     1      30.660  26.310   7.521  1.00  0.00    -0.493 OA
ATOM     11  C   UNL     1      31.038  25.605   6.344  1.00  0.00     0.278 C 
ENDBRANCH   5  10
BRANCH   6  12
ATOM     12  O   UNL     1      30.560  27.374  10.064  1.00  0.00    -0.504 OA
ATOM     13  H   UNL     1      31.492  27.064  10.311  1.00  0.00     0.293 HD
ENDBRANCH   6  12
TORSDOF 3
ENDMDL
MODEL 7
REMARK VINA RESULT:    -3.233     10.212     11.501
REMARK INTER + INTRA:          -3.786
REMARK INTER:                  -3.711
REMARK INTRA:                  -0.075
REMARK UNBOUND:                -0.081
REMARK SMILES COc1cc(C(=O)[O-])ccc1O
REMARK SMILES IDX 5 1 9 2 4 3 10 4 3 5 11 6 6 7 7 8 8 9 2 10 1 11 12 12
REMARK H PARENT 12 13
REMARK Flexibility Score: inf
ROOT
ATOM      1  C   UNL     1      31.019  18.925  17.697  1.00  0.00     0.001 A 
ATOM      2  C   UNL     1      32.178  18.903  18.488  1.00  0.00     0.014 A 
ATOM      3  C   UNL     1      31.147  18.947  16.296  1.00  0.00     0.060 A 
ATOM      4  C   UNL     1      33.442  18.905  17.893  1.00  0.00     0.051 A 
ATOM      5  C   UNL     1      32.421  18.949  15.690  1.00  0.00     0.161 A 
ATOM      6  C   UNL     1      33.566  18.928  16.498  1.00  0.00     0.157 A 
ENDROOT
BRANCH   1   7
ATOM      7  C   UNL     1      29.683  18.923  18.333  1.00  0.00     0.072 C 
ATOM      8  O   UNL     1      29.014  17.859  18.417  1.00  0.00    -0.545 OA
ATOM      9  O   UNL     1      29.147  20.097  18.849  1.00  0.00    -0.545 OA
ENDBRANCH   1   7
BRANCH   5  10
ATOM     10  O   UNL     1      32.587  18.970  14.297  1.00  0.00    -0.493 OA
ATOM     11  C   UNL     1      31.560  19.300  13.366  1.00  0.00     0.278 C 
ENDBRANCH   5  10
BRANCH   6  12
ATOM     12  O   UNL     1      34.827  18.929  15.906  1.00  0.00    -0.504 OA
ATOM     13  H   UNL     1      35.213  18.097  15.475  1.00  0.00     0.293 HD
ENDBRANCH   6  12
TORSDOF 3
ENDMDL
MODEL 8
REMARK VINA RESULT:    -3.164      9.260     11.341
REMARK INTER + INTRA:          -3.707
REMARK INTER:                  -3.609
REMARK INTRA:                  -0.097
REMARK UNBOUND:                -0.081
REMARK SMILES COc1cc(C(=O)[O-])ccc1O
REMARK SMILES IDX 5 1 9 2 4 3 10 4 3 5 11 6 6 7 7 8 8 9 2 10 1 11 12 12
REMARK H PARENT 12 13
REMARK Flexibility Score: inf
ROOT
ATOM      1  C   UNL     1      32.857  18.223  14.562  1.00  0.00     0.001 A 
ATOM      2  C   UNL     1      31.782  19.125  14.607  1.00  0.00     0.014 A 
ATOM      3  C   UNL     1      33.017  17.406  13.428  1.00  0.00     0.060 A 
ATOM      4  C   UNL     1      30.884  19.209  13.541  1.00  0.00     0.051 A 
ATOM      5  C   UNL     1      32.113  17.488  12.348  1.00  0.00     0.161 A 
ATOM      6  C   UNL     1      31.047  18.395  12.414  1.00  0.00     0.157 A 
ENDROOT
BRANCH   1   7
ATOM      7  C   UNL     1      33.805  18.137  15.695  1.00  0.00     0.072 C 
ATOM      8  O   UNL     1      33.934  17.065  16.344  1.00  0.00    -0.545 OA
ATOM      9  O   UNL     1      34.568  19.241  16.060  1.00  0.00    -0.545 OA
ENDBRANCH   1   7
BRANCH   5  10
ATOM     10  O   UNL     1      32.242  16.689  11.202  1.00  0.00    -0.493 OA
ATOM     11  C   UNL     1      33.220  16.888  10.185  1.00  0.00     0.278 C 
ENDBRANCH   5  10
BRANCH   6  12
ATOM     12  O   UNL     1      30.150  18.480  11.350  1.00  0.00    -0.504 OA
ATOM     13  H   UNL     1      29.814  17.654  10.871  1.00  0.00     0.293 HD
ENDBRANCH   6  12
TORSDOF 3
ENDMDL
MODEL 9
REMARK VINA RESULT:    -3.152      4.587      7.202
REMARK INTER + INTRA:          -3.693
REMARK INTER:                  -3.597
REMARK INTRA:                  -0.097
REMARK UNBOUND:                -0.081
REMARK SMILES COc1cc(C(=O)[O-])ccc1O
REMARK SMILES IDX 5 1 9 2 4 3 10 4 3 5 11 6 6 7 7 8 8 9 2 10 1 11 12 12
REMARK H PARENT 12 13
REMARK Flexibility Score: inf
ROOT
ATOM      1  C   UNL     1      23.499  21.735   7.057  1.00  0.00     0.001 A 
ATOM      2  C   UNL     1      23.954  20.776   6.138  1.00  0.00     0.014 A 
ATOM      3  C   UNL     1      24.427  22.356   7.914  1.00  0.00     0.060 A 
ATOM      4  C   UNL     1      25.308  20.442   6.076  1.00  0.00     0.051 A 
ATOM      5  C   UNL     1      25.796  22.021   7.854  1.00  0.00     0.161 A 
ATOM      6  C   UNL     1      26.229  21.061   6.930  1.00  0.00     0.157 A 
ENDROOT
BRANCH   1   7
ATOM      7  C   UNL     1      22.062  22.085   7.119  1.00  0.00     0.072 C 
ATOM      8  O   UNL     1      21.220  21.465   6.416  1.00  0.00    -0.545 OA
ATOM      9  O   UNL     1      21.621  23.104   7.955  1.00  0.00    -0.545 OA
ENDBRANCH   1   7
BRANCH   5  10
ATOM     10  O   UNL     1      26.749  22.620   8.693  1.00  0.00    -0.493 OA
ATOM     11  C   UNL     1      26.989  24.021   8.771  1.00  0.00     0.278 C 
ENDBRANCH   5  10
BRANCH   6  12
ATOM     12  O   UNL     1      27.581  20.727   6.867  1.00  0.00    -0.504 OA
ATOM     13  H   UNL     1      28.180  21.077   6.129  1.00  0.00     0.293 HD
ENDBRANCH   6  12
TORSDOF 3
ENDMDL
