MODEL 1
REMARK VINA RESULT:     0.251      0.000      0.000
REMARK INTER + INTRA:           0.738
REMARK INTER:                   0.368
REMARK INTRA:                   0.370
REMARK UNBOUND:                 0.370
REMARK SMILES C=C1C=C[C@H](C(C)C)CCC(C)=CCC1
REMARK SMILES IDX 3 1 4 2 5 3 9 4 10 5 11 6 12 7 13 8 6 10 7 11 8 12 2 13 1 14
REMARK SMILES IDX 15 15 14 16
REMARK H PARENT
REMARK Flexibility Score: 70.00
ROOT
ATOM      1  C   UNL     1       4.937   8.162  11.503  1.00  0.00    -0.001 C 
ATOM      2  C   UNL     1       6.278   8.157  11.600  1.00  0.00    -0.023 C 
ENDROOT
BRANCH   2   3
ATOM      3  C   UNL     1       7.147   7.438  12.631  1.00  0.00     0.014 C 
BRANCH   3   4
ATOM      4  C   UNL     1       8.057   6.347  12.011  1.00  0.00     0.012 C 
BRANCH   4   5
ATOM      5  C   UNL     1       7.686   4.912  12.438  1.00  0.00     0.031 C 
BRANCH   5   6
ATOM      6  C   UNL     1       6.671   4.944  13.560  1.00  0.00    -0.077 C 
ATOM      7  C   UNL     1       7.172   4.919  14.981  1.00  0.00     0.039 C 
ATOM      8  C   UNL     1       5.334   4.917  13.353  1.00  0.00    -0.028 CG0
ATOM      9  G   UNL     1       4.638   4.945  12.009  1.00  0.00     0.000 G0
ENDBRANCH   5   6
ENDBRANCH   4   5
ENDBRANCH   3   4
BRANCH   3  10
ATOM     10  C   UNL     1       7.949   8.423  13.545  1.00  0.00    -0.010 C 
ATOM     11  C   UNL     1       7.509   8.343  15.018  1.00  0.00     0.008 C 
ATOM     12  C   UNL     1       9.465   8.160  13.467  1.00  0.00     0.008 C 
ENDBRANCH   3  10
ENDBRANCH   2   3
BRANCH   1  13
ATOM     13  C   UNL     1       4.003   7.436  12.386  1.00  0.00    -0.055 C 
ATOM     14  C   UNL     1       3.858   7.839  13.652  1.00  0.00     0.012 C 
BRANCH  13  15
ATOM     15  C   UNL     1       3.522   6.055  11.997  1.00  0.00     0.039 C 
BRANCH  15  16
ATOM     16  C   UNL     1       4.608   4.963  12.034  1.00  0.00     0.032 CG0
ATOM     17  G   UNL     1       5.343   4.912  13.356  1.00  0.00     0.000 G0
ENDBRANCH  15  16
ENDBRANCH  13  15
ENDBRANCH   1  13
TORSDOF 1
ENDMDL
MODEL 2
REMARK VINA RESULT:     1.582      0.991      3.001
REMARK INTER + INTRA:           2.692
REMARK INTER:                  -0.493
REMARK INTRA:                   3.184
REMARK UNBOUND:                 0.370
REMARK SMILES C=C1C=C[C@H](C(C)C)CCC(C)=CCC1
REMARK SMILES IDX 3 1 4 2 5 3 9 4 10 5 11 6 12 7 13 8 6 10 7 11 8 12 2 13 1 14
REMARK SMILES IDX 15 15 14 16
REMARK H PARENT
REMARK Flexibility Score: 70.00
ROOT
ATOM      1  C   UNL     1       7.607   5.344  12.375  1.00  0.00    -0.001 C 
ATOM      2  C   UNL     1       8.063   6.500  11.861  1.00  0.00    -0.023 C 
ENDROOT
BRANCH   2   3
ATOM      3  C   UNL     1       7.491   7.904  12.046  1.00  0.00     0.014 C 
BRANCH   3   4
ATOM      4  C   UNL     1       5.962   7.980  11.798  1.00  0.00     0.012 C 
BRANCH   4   5
ATOM      5  C   UNL     1       5.220   8.913  12.775  1.00  0.00     0.031 C 
BRANCH   5   6
ATOM      6  C   UNL     1       3.989   8.225  13.325  1.00  0.00    -0.077 C 
ATOM      7  C   UNL     1       3.151   8.959  14.340  1.00  0.00     0.039 C 
ATOM      8  C   UNL     1       3.644   6.956  13.008  1.00  0.00    -0.028 CG0
ATOM      9  G   UNL     1       4.349   6.061  12.012  1.00  0.00     0.000 G0
ENDBRANCH   5   6
ENDBRANCH   4   5
ENDBRANCH   3   4
BRANCH   3  10
ATOM     10  C   UNL     1       7.897   8.553  13.410  1.00  0.00    -0.010 C 
ATOM     11  C   UNL     1       7.359   7.762  14.617  1.00  0.00     0.008 C 
ATOM     12  C   UNL     1       9.427   8.680  13.545  1.00  0.00     0.008 C 
ENDBRANCH   3  10
ENDBRANCH   2   3
BRANCH   1  13
ATOM     13  C   UNL     1       6.439   5.193  13.265  1.00  0.00    -0.055 C 
ATOM     14  C   UNL     1       6.637   5.002  14.572  1.00  0.00     0.012 C 
BRANCH  13  15
ATOM     15  C   UNL     1       5.082   4.875  12.674  1.00  0.00     0.039 C 
BRANCH  15  16
ATOM     16  C   UNL     1       4.371   6.074  12.019  1.00  0.00     0.032 CG0
ATOM     17  G   UNL     1       3.660   6.955  13.022  1.00  0.00     0.000 G0
ENDBRANCH  15  16
ENDBRANCH  13  15
ENDBRANCH   1  13
TORSDOF 1
ENDMDL
