MODEL 1
REMARK VINA RESULT:    -5.930      0.000      0.000
REMARK INTER + INTRA:          -5.930
REMARK INTER:                  -5.930
REMARK INTRA:                   0.000
REMARK UNBOUND:                 0.000
REMARK SMILES Cc1cc2cc3c(C)cc(=O)oc3c(C)c2o1
REMARK SMILES IDX 8 1 7 2 9 3 10 4 11 5 12 6 13 7 6 8 5 9 4 10 3 11 2 12 17 13
REMARK SMILES IDX 16 14 14 15 15 16 1 17
REMARK H PARENT
REMARK Flexibility Score: inf
ROOT
ATOM      1  C   UNL     1      18.868  12.803   4.574  1.00  0.00     0.045 C 
ATOM      2  C   UNL     1      18.199  12.858   3.225  1.00  0.00    -0.033 A 
ATOM      3  C   UNL     1      17.875  14.103   2.672  1.00  0.00     0.098 A 
ATOM      4  C   UNL     1      17.253  14.163   1.424  1.00  0.00     0.336 A 
ATOM      5  O   UNL     1      16.959  15.280   0.923  1.00  0.00    -0.246 OA
ATOM      6  O   UNL     1      16.969  13.051   0.758  1.00  0.00    -0.422 OA
ATOM      7  C   UNL     1      17.249  11.837   1.223  1.00  0.00     0.145 A 
ATOM      8  C   UNL     1      17.884  11.688   2.497  1.00  0.00     0.022 A 
ATOM      9  C   UNL     1      18.170  10.391   2.989  1.00  0.00     0.024 A 
ATOM     10  C   UNL     1      17.814   9.300   2.204  1.00  0.00     0.022 A 
ATOM     11  C   UNL     1      17.960   7.952   2.431  1.00  0.00     0.054 A 
ATOM     12  C   UNL     1      17.412   7.355   1.301  1.00  0.00     0.102 A 
ATOM     13  O   UNL     1      16.974   8.267   0.453  1.00  0.00    -0.461 OA
ATOM     14  C   UNL     1      17.209   9.443   0.985  1.00  0.00     0.140 A 
ATOM     15  C   UNL     1      16.915  10.700   0.448  1.00  0.00     0.036 A 
ATOM     16  C   UNL     1      16.225  10.836  -0.878  1.00  0.00     0.052 C 
ATOM     17  C   UNL     1      17.338   5.886   1.054  1.00  0.00     0.087 C 
ENDROOT
TORSDOF 0
ENDMDL
MODEL 2
REMARK VINA RESULT:    -5.506      2.076      5.744
REMARK INTER + INTRA:          -5.506
REMARK INTER:                  -5.506
REMARK INTRA:                   0.000
REMARK UNBOUND:                 0.000
REMARK SMILES Cc1cc2cc3c(C)cc(=O)oc3c(C)c2o1
REMARK SMILES IDX 8 1 7 2 9 3 10 4 11 5 12 6 13 7 6 8 5 9 4 10 3 11 2 12 17 13
REMARK SMILES IDX 16 14 14 15 15 16 1 17
REMARK H PARENT
REMARK Flexibility Score: inf
ROOT
ATOM      1  C   UNL     1      15.997  10.244  -2.679  1.00  0.00     0.045 C 
ATOM      2  C   UNL     1      16.425   9.159  -1.726  1.00  0.00    -0.033 A 
ATOM      3  C   UNL     1      16.342   7.820  -2.128  1.00  0.00     0.098 A 
ATOM      4  C   UNL     1      16.734   6.809  -1.251  1.00  0.00     0.336 A 
ATOM      5  O   UNL     1      16.660   5.604  -1.609  1.00  0.00    -0.246 OA
ATOM      6  O   UNL     1      17.187   7.105  -0.039  1.00  0.00    -0.422 OA
ATOM      7  C   UNL     1      17.293   8.353   0.408  1.00  0.00     0.145 A 
ATOM      8  C   UNL     1      16.908   9.449  -0.429  1.00  0.00     0.022 A 
ATOM      9  C   UNL     1      17.016  10.774   0.059  1.00  0.00     0.024 A 
ATOM     10  C   UNL     1      17.495  10.959   1.351  1.00  0.00     0.022 A 
ATOM     11  C   UNL     1      17.691  12.113   2.074  1.00  0.00     0.054 A 
ATOM     12  C   UNL     1      18.176  11.669   3.298  1.00  0.00     0.102 A 
ATOM     13  O   UNL     1      18.273  10.353   3.317  1.00  0.00    -0.461 OA
ATOM     14  C   UNL     1      17.864   9.912   2.150  1.00  0.00     0.140 A 
ATOM     15  C   UNL     1      17.789   8.586   1.714  1.00  0.00     0.036 A 
ATOM     16  C   UNL     1      18.172   7.448   2.616  1.00  0.00     0.052 C 
ATOM     17  C   UNL     1      18.561  12.547   4.441  1.00  0.00     0.087 C 
ENDROOT
TORSDOF 0
ENDMDL
MODEL 3
REMARK VINA RESULT:    -5.394      2.063      3.390
REMARK INTER + INTRA:          -5.394
REMARK INTER:                  -5.394
REMARK INTRA:                   0.000
REMARK UNBOUND:                 0.000
REMARK SMILES Cc1cc2cc3c(C)cc(=O)oc3c(C)c2o1
REMARK SMILES IDX 8 1 7 2 9 3 10 4 11 5 12 6 13 7 6 8 5 9 4 10 3 11 2 12 17 13
REMARK SMILES IDX 16 14 14 15 15 16 1 17
REMARK H PARENT
REMARK Flexibility Score: inf
ROOT
ATOM      1  C   UNL     1      16.589  13.218   0.647  1.00  0.00     0.045 C 
ATOM      2  C   UNL     1      17.137  12.115   1.514  1.00  0.00    -0.033 A 
ATOM      3  C   UNL     1      17.690  12.433   2.761  1.00  0.00     0.098 A 
ATOM      4  C   UNL     1      18.203  11.418   3.569  1.00  0.00     0.336 A 
ATOM      5  O   UNL     1      18.702  11.700   4.690  1.00  0.00    -0.246 OA
ATOM      6  O   UNL     1      18.168  10.153   3.167  1.00  0.00    -0.422 OA
ATOM      7  C   UNL     1      17.656   9.780   1.998  1.00  0.00     0.145 A 
ATOM      8  C   UNL     1      17.114  10.761   1.108  1.00  0.00     0.022 A 
ATOM      9  C   UNL     1      16.580  10.355  -0.140  1.00  0.00     0.024 A 
ATOM     10  C   UNL     1      16.609   9.001  -0.455  1.00  0.00     0.022 A 
ATOM     11  C   UNL     1      16.178   8.337  -1.579  1.00  0.00     0.054 A 
ATOM     12  C   UNL     1      16.478   7.004  -1.323  1.00  0.00     0.102 A 
ATOM     13  O   UNL     1      17.040   6.868  -0.137  1.00  0.00    -0.461 OA
ATOM     14  C   UNL     1      17.127   8.064   0.397  1.00  0.00     0.140 A 
ATOM     15  C   UNL     1      17.654   8.409   1.644  1.00  0.00     0.036 A 
ATOM     16  C   UNL     1      18.244   7.369   2.553  1.00  0.00     0.052 C 
ATOM     17  C   UNL     1      16.192   5.865  -2.243  1.00  0.00     0.087 C 
ENDROOT
TORSDOF 0
ENDMDL
MODEL 4
REMARK VINA RESULT:    -5.188      1.510      5.231
REMARK INTER + INTRA:          -5.188
REMARK INTER:                  -5.188
REMARK INTRA:                   0.000
REMARK UNBOUND:                 0.000
REMARK SMILES Cc1cc2cc3c(C)cc(=O)oc3c(C)c2o1
REMARK SMILES IDX 8 1 7 2 9 3 10 4 11 5 12 6 13 7 6 8 5 9 4 10 3 11 2 12 17 13
REMARK SMILES IDX 16 14 14 15 15 16 1 17
REMARK H PARENT
REMARK Flexibility Score: inf
ROOT
ATOM      1  C   UNL     1      18.261   5.941   1.791  1.00  0.00     0.045 C 
ATOM      2  C   UNL     1      17.619   6.991   0.920  1.00  0.00    -0.033 A 
ATOM      3  C   UNL     1      17.059   6.614  -0.307  1.00  0.00     0.098 A 
ATOM      4  C   UNL     1      16.465   7.580  -1.121  1.00  0.00     0.336 A 
ATOM      5  O   UNL     1      15.962   7.246  -2.225  1.00  0.00    -0.246 OA
ATOM      6  O   UNL     1      16.425   8.850  -0.740  1.00  0.00    -0.422 OA
ATOM      7  C   UNL     1      16.935   9.277   0.412  1.00  0.00     0.145 A 
ATOM      8  C   UNL     1      17.565   8.351   1.302  1.00  0.00     0.022 A 
ATOM      9  C   UNL     1      18.115   8.815   2.522  1.00  0.00     0.024 A 
ATOM     10  C   UNL     1      18.021  10.173   2.807  1.00  0.00     0.022 A 
ATOM     11  C   UNL     1      18.467  10.890   3.893  1.00  0.00     0.054 A 
ATOM     12  C   UNL     1      18.093  12.199   3.612  1.00  0.00     0.102 A 
ATOM     13  O   UNL     1      17.467  12.272   2.453  1.00  0.00    -0.461 OA
ATOM     14  C   UNL     1      17.417  11.058   1.956  1.00  0.00     0.140 A 
ATOM     15  C   UNL     1      16.848  10.650   0.746  1.00  0.00     0.036 A 
ATOM     16  C   UNL     1      16.215  11.641  -0.188  1.00  0.00     0.052 C 
ATOM     17  C   UNL     1      18.341  13.374   4.498  1.00  0.00     0.087 C 
ENDROOT
TORSDOF 0
ENDMDL
MODEL 5
REMARK VINA RESULT:    -5.124      2.325      6.909
REMARK INTER + INTRA:          -5.124
REMARK INTER:                  -5.124
REMARK INTRA:                   0.000
REMARK UNBOUND:                 0.000
REMARK SMILES Cc1cc2cc3c(C)cc(=O)oc3c(C)c2o1
REMARK SMILES IDX 8 1 7 2 9 3 10 4 11 5 12 6 13 7 6 8 5 9 4 10 3 11 2 12 17 13
REMARK SMILES IDX 16 14 14 15 15 16 1 17
REMARK H PARENT
REMARK Flexibility Score: inf
ROOT
ATOM      1  C   UNL     1      15.877   6.096  -2.618  1.00  0.00     0.045 C 
ATOM      2  C   UNL     1      16.620   5.803  -1.340  1.00  0.00    -0.033 A 
ATOM      3  C   UNL     1      16.970   4.481  -1.038  1.00  0.00     0.098 A 
ATOM      4  C   UNL     1      17.656   4.200   0.144  1.00  0.00     0.336 A 
ATOM      5  O   UNL     1      17.971   3.013   0.420  1.00  0.00    -0.246 OA
ATOM      6  O   UNL     1      17.981   5.176   0.983  1.00  0.00    -0.422 OA
ATOM      7  C   UNL     1      17.682   6.452   0.759  1.00  0.00     0.145 A 
ATOM      8  C   UNL     1      16.976   6.824  -0.429  1.00  0.00     0.022 A 
ATOM      9  C   UNL     1      16.654   8.185  -0.655  1.00  0.00     0.024 A 
ATOM     10  C   UNL     1      17.038   9.116   0.303  1.00  0.00     0.022 A 
ATOM     11  C   UNL     1      16.852  10.478   0.348  1.00  0.00     0.054 A 
ATOM     12  C   UNL     1      17.444  10.862   1.546  1.00  0.00     0.102 A 
ATOM     13  O   UNL     1      17.953   9.820   2.175  1.00  0.00    -0.461 OA
ATOM     14  C   UNL     1      17.715   8.760   1.438  1.00  0.00     0.140 A 
ATOM     15  C   UNL     1      18.068   7.435   1.703  1.00  0.00     0.036 A 
ATOM     16  C   UNL     1      18.785   7.060   2.968  1.00  0.00     0.052 C 
ATOM     17  C   UNL     1      17.520  12.261   2.059  1.00  0.00     0.087 C 
ENDROOT
TORSDOF 0
ENDMDL
MODEL 6
REMARK VINA RESULT:    -5.052      1.334      5.422
REMARK INTER + INTRA:          -5.052
REMARK INTER:                  -5.052
REMARK INTRA:                   0.000
REMARK UNBOUND:                 0.000
REMARK SMILES Cc1cc2cc3c(C)cc(=O)oc3c(C)c2o1
REMARK SMILES IDX 8 1 7 2 9 3 10 4 11 5 12 6 13 7 6 8 5 9 4 10 3 11 2 12 17 13
REMARK SMILES IDX 16 14 14 15 15 16 1 17
REMARK H PARENT
REMARK Flexibility Score: inf
ROOT
ATOM      1  C   UNL     1      18.677   6.950   2.951  1.00  0.00     0.045 C 
ATOM      2  C   UNL     1      18.113   7.298   1.597  1.00  0.00    -0.033 A 
ATOM      3  C   UNL     1      17.968   6.290   0.635  1.00  0.00     0.098 A 
ATOM      4  C   UNL     1      17.449   6.605  -0.622  1.00  0.00     0.336 A 
ATOM      5  O   UNL     1      17.318   5.702  -1.489  1.00  0.00    -0.246 OA
ATOM      6  O   UNL     1      17.091   7.849  -0.911  1.00  0.00    -0.422 OA
ATOM      7  C   UNL     1      17.200   8.853  -0.047  1.00  0.00     0.145 A 
ATOM      8  C   UNL     1      17.726   8.616   1.263  1.00  0.00     0.022 A 
ATOM      9  C   UNL     1      17.848   9.694   2.174  1.00  0.00     0.024 A 
ATOM     10  C   UNL     1      17.449  10.956   1.751  1.00  0.00     0.022 A 
ATOM     11  C   UNL     1      17.464  12.164   2.409  1.00  0.00     0.054 A 
ATOM     12  C   UNL     1      16.955  13.065   1.480  1.00  0.00     0.102 A 
ATOM     13  O   UNL     1      16.651  12.453   0.350  1.00  0.00    -0.461 OA
ATOM     14  C   UNL     1      16.944  11.183   0.500  1.00  0.00     0.140 A 
ATOM     15  C   UNL     1      16.792  10.153  -0.433  1.00  0.00     0.036 A 
ATOM     16  C   UNL     1      16.263  10.426  -1.812  1.00  0.00     0.052 C 
ATOM     17  C   UNL     1      16.755  14.524   1.715  1.00  0.00     0.087 C 
ENDROOT
TORSDOF 0
ENDMDL
MODEL 7
REMARK VINA RESULT:    -4.960      1.603      5.842
REMARK INTER + INTRA:          -4.960
REMARK INTER:                  -4.960
REMARK INTRA:                   0.000
REMARK UNBOUND:                 0.000
REMARK SMILES Cc1cc2cc3c(C)cc(=O)oc3c(C)c2o1
REMARK SMILES IDX 8 1 7 2 9 3 10 4 11 5 12 6 13 7 6 8 5 9 4 10 3 11 2 12 17 13
REMARK SMILES IDX 16 14 14 15 15 16 1 17
REMARK H PARENT
REMARK Flexibility Score: inf
ROOT
ATOM      1  C   UNL     1      16.678   7.915  -1.509  1.00  0.00     0.045 C 
ATOM      2  C   UNL     1      17.188   8.200  -0.119  1.00  0.00    -0.033 A 
ATOM      3  C   UNL     1      17.735   7.155   0.637  1.00  0.00     0.098 A 
ATOM      4  C   UNL     1      18.207   7.409   1.925  1.00  0.00     0.336 A 
ATOM      5  O   UNL     1      18.699   6.473   2.608  1.00  0.00    -0.246 OA
ATOM      6  O   UNL     1      18.143   8.631   2.439  1.00  0.00    -0.422 OA
ATOM      7  C   UNL     1      17.637   9.668   1.777  1.00  0.00     0.145 A 
ATOM      8  C   UNL     1      17.128   9.492   0.451  1.00  0.00     0.022 A 
ATOM      9  C   UNL     1      16.582  10.600  -0.242  1.00  0.00     0.024 A 
ATOM     10  C   UNL     1      16.560  11.830   0.405  1.00  0.00     0.022 A 
ATOM     11  C   UNL     1      16.089  13.051  -0.016  1.00  0.00     0.054 A 
ATOM     12  C   UNL     1      16.328  13.898   1.060  1.00  0.00     0.102 A 
ATOM     13  O   UNL     1      16.903  13.246   2.053  1.00  0.00    -0.461 OA
ATOM     14  C   UNL     1      17.048  11.998   1.672  1.00  0.00     0.140 A 
ATOM     15  C   UNL     1      17.608  10.942   2.396  1.00  0.00     0.036 A 
ATOM     16  C   UNL     1      18.111  11.140   3.796  1.00  0.00     0.052 C 
ATOM     17  C   UNL     1      16.004  15.354   1.098  1.00  0.00     0.087 C 
ENDROOT
TORSDOF 0
ENDMDL
MODEL 8
REMARK VINA RESULT:    -4.932      1.862      5.307
REMARK INTER + INTRA:          -4.932
REMARK INTER:                  -4.932
REMARK INTRA:                   0.000
REMARK UNBOUND:                 0.000
REMARK SMILES Cc1cc2cc3c(C)cc(=O)oc3c(C)c2o1
REMARK SMILES IDX 8 1 7 2 9 3 10 4 11 5 12 6 13 7 6 8 5 9 4 10 3 11 2 12 17 13
REMARK SMILES IDX 16 14 14 15 15 16 1 17
REMARK H PARENT
REMARK Flexibility Score: inf
ROOT
ATOM      1  C   UNL     1      19.015  12.956   4.630  1.00  0.00     0.045 C 
ATOM      2  C   UNL     1      18.352  12.159   3.536  1.00  0.00    -0.033 A 
ATOM      3  C   UNL     1      18.332  10.761   3.623  1.00  0.00     0.098 A 
ATOM      4  C   UNL     1      17.722  10.016   2.613  1.00  0.00     0.336 A 
ATOM      5  O   UNL     1      17.702   8.759   2.687  1.00  0.00    -0.246 OA
ATOM      6  O   UNL     1      17.161  10.620   1.574  1.00  0.00    -0.422 OA
ATOM      7  C   UNL     1      17.143  11.941   1.428  1.00  0.00     0.145 A 
ATOM      8  C   UNL     1      17.750  12.779   2.418  1.00  0.00     0.022 A 
ATOM      9  C   UNL     1      17.734  14.185   2.250  1.00  0.00     0.024 A 
ATOM     10  C   UNL     1      17.125  14.701   1.112  1.00  0.00     0.022 A 
ATOM     11  C   UNL     1      16.974  16.003   0.693  1.00  0.00     0.054 A 
ATOM     12  C   UNL     1      16.294  15.895  -0.515  1.00  0.00     0.102 A 
ATOM     13  O   UNL     1      16.047  14.631  -0.805  1.00  0.00    -0.461 OA
ATOM     14  C   UNL     1      16.543  13.901   0.167  1.00  0.00     0.140 A 
ATOM     15  C   UNL     1      16.520  12.509   0.290  1.00  0.00     0.036 A 
ATOM     16  C   UNL     1      15.902  11.645  -0.772  1.00  0.00     0.052 C 
ATOM     17  C   UNL     1      15.875  17.041  -1.373  1.00  0.00     0.087 C 
ENDROOT
TORSDOF 0
ENDMDL
MODEL 9
REMARK VINA RESULT:    -4.711      1.564      2.068
REMARK INTER + INTRA:          -4.711
REMARK INTER:                  -4.711
REMARK INTRA:                   0.000
REMARK UNBOUND:                 0.000
REMARK SMILES Cc1cc2cc3c(C)cc(=O)oc3c(C)c2o1
REMARK SMILES IDX 8 1 7 2 9 3 10 4 11 5 12 6 13 7 6 8 5 9 4 10 3 11 2 12 17 13
REMARK SMILES IDX 16 14 14 15 15 16 1 17
REMARK H PARENT
REMARK Flexibility Score: inf
ROOT
ATOM      1  C   UNL     1      18.484  10.372   3.795  1.00  0.00     0.045 C 
ATOM      2  C   UNL     1      17.909  11.078   2.594  1.00  0.00    -0.033 A 
ATOM      3  C   UNL     1      17.814  12.476   2.602  1.00  0.00     0.098 A 
ATOM      4  C   UNL     1      17.280  13.137   1.495  1.00  0.00     0.336 A 
ATOM      5  O   UNL     1      17.193  14.393   1.498  1.00  0.00    -0.246 OA
ATOM      6  O   UNL     1      16.863  12.454   0.437  1.00  0.00    -0.422 OA
ATOM      7  C   UNL     1      16.924  11.128   0.362  1.00  0.00     0.145 A 
ATOM      8  C   UNL     1      17.455  10.373   1.456  1.00  0.00     0.022 A 
ATOM      9  C   UNL     1      17.508   8.960   1.372  1.00  0.00     0.024 A 
ATOM     10  C   UNL     1      17.030   8.356   0.215  1.00  0.00     0.022 A 
ATOM     11  C   UNL     1      16.950   7.026  -0.130  1.00  0.00     0.054 A 
ATOM     12  C   UNL     1      16.380   7.037  -1.398  1.00  0.00     0.102 A 
ATOM     13  O   UNL     1      16.138   8.273  -1.794  1.00  0.00    -0.461 OA
ATOM     14  C   UNL     1      16.524   9.077  -0.832  1.00  0.00     0.140 A 
ATOM     15  C   UNL     1      16.461  10.473  -0.805  1.00  0.00     0.036 A 
ATOM     16  C   UNL     1      15.875  11.246  -1.951  1.00  0.00     0.052 C 
ATOM     17  C   UNL     1      16.092   5.828  -2.223  1.00  0.00     0.087 C 
ENDROOT
TORSDOF 0
ENDMDL
