MODEL 1
REMARK VINA RESULT:    -4.189      0.000      0.000
REMARK INTER + INTRA:          -7.572
REMARK INTER:                  -6.393
REMARK INTRA:                  -1.179
REMARK UNBOUND:                -1.179
REMARK SMILES CCCCCCCCCCC(=O)[O-]
REMARK SMILES IDX 7 1 8 2 9 3 10 4 11 5 12 6 13 7 6 8 5 9 4 10 3 11 2 12 1 13
REMARK H PARENT
REMARK Flexibility Score: inf
ROOT
ATOM      1  C   UNL     1      10.254  25.093 -14.624  1.00  0.00     0.000 C 
ENDROOT
BRANCH   1   2
ATOM      2  C   UNL     1       9.139  24.584 -13.689  1.00  0.00     0.000 C 
BRANCH   2   3
ATOM      3  C   UNL     1       9.408  24.791 -12.189  1.00  0.00     0.006 C 
BRANCH   3   4
ATOM      4  C   UNL     1       8.143  24.643 -11.332  1.00  0.00     0.053 C 
BRANCH   4   5
ATOM      5  C   UNL     1       8.179  23.358 -10.568  1.00  0.00     0.041 C 
ATOM      6  O   UNL     1       8.555  22.297 -11.132  1.00  0.00    -0.550 OA
ATOM      7  O   UNL     1       7.847  23.340  -9.219  1.00  0.00    -0.550 OA
ENDBRANCH   4   5
ENDBRANCH   3   4
ENDBRANCH   2   3
ENDBRANCH   1   2
BRANCH   1   8
ATOM      8  C   UNL     1      10.856  26.449 -14.194  1.00  0.00     0.000 C 
BRANCH   8   9
ATOM      9  C   UNL     1      10.511  27.578 -15.176  1.00  0.00    -0.000 C 
BRANCH   9  10
ATOM     10  C   UNL     1       9.928  28.792 -14.436  1.00  0.00    -0.000 C 
BRANCH  10  11
ATOM     11  C   UNL     1       9.659  28.508 -12.950  1.00  0.00    -0.000 C 
BRANCH  11  12
ATOM     12  C   UNL     1       8.189  28.724 -12.562  1.00  0.00    -0.003 C 
ATOM     13  C   UNL     1       7.276  27.751 -13.302  1.00  0.00     0.004 C 
ENDBRANCH  11  12
ENDBRANCH  10  11
ENDBRANCH   9  10
ENDBRANCH   8   9
ENDBRANCH   1   8
TORSDOF 9
ENDMDL
MODEL 2
REMARK VINA RESULT:    -4.165      8.376      9.652
REMARK INTER + INTRA:          -7.535
REMARK INTER:                  -6.980
REMARK INTRA:                  -0.555
REMARK UNBOUND:                -1.179
REMARK SMILES CCCCCCCCCCC(=O)[O-]
REMARK SMILES IDX 7 1 8 2 9 3 10 4 11 5 12 6 13 7 6 8 5 9 4 10 3 11 2 12 1 13
REMARK H PARENT
REMARK Flexibility Score: inf
ROOT
ATOM      1  C   UNL     1       3.392  22.603 -17.466  1.00  0.00     0.000 C 
ENDROOT
BRANCH   1   2
ATOM      2  C   UNL     1       3.888  22.223 -16.057  1.00  0.00     0.000 C 
BRANCH   2   3
ATOM      3  C   UNL     1       2.806  21.657 -15.122  1.00  0.00     0.006 C 
BRANCH   3   4
ATOM      4  C   UNL     1       2.788  22.344 -13.749  1.00  0.00     0.053 C 
BRANCH   4   5
ATOM      5  C   UNL     1       2.415  21.365 -12.682  1.00  0.00     0.041 C 
ATOM      6  O   UNL     1       2.185  20.163 -12.977  1.00  0.00    -0.550 OA
ATOM      7  O   UNL     1       2.371  21.768 -11.352  1.00  0.00    -0.550 OA
ENDBRANCH   4   5
ENDBRANCH   3   4
ENDBRANCH   2   3
ENDBRANCH   1   2
BRANCH   1   8
ATOM      8  C   UNL     1       1.873  22.866 -17.542  1.00  0.00     0.000 C 
BRANCH   8   9
ATOM      9  C   UNL     1       1.283  22.496 -18.911  1.00  0.00    -0.000 C 
BRANCH   9  10
ATOM     10  C   UNL     1       2.187  21.495 -19.647  1.00  0.00    -0.000 C 
BRANCH  10  11
ATOM     11  C   UNL     1       1.484  20.157 -19.927  1.00  0.00    -0.000 C 
BRANCH  11  12
ATOM     12  C   UNL     1       2.408  19.132 -20.602  1.00  0.00    -0.003 C 
ATOM     13  C   UNL     1       3.703  19.787 -21.073  1.00  0.00     0.004 C 
ENDBRANCH  11  12
ENDBRANCH  10  11
ENDBRANCH   9  10
ENDBRANCH   8   9
ENDBRANCH   1   8
TORSDOF 9
ENDMDL
MODEL 3
REMARK VINA RESULT:    -4.045     14.488     16.573
REMARK INTER + INTRA:          -7.353
REMARK INTER:                  -6.538
REMARK INTRA:                  -0.815
REMARK UNBOUND:                -1.179
REMARK SMILES CCCCCCCCCCC(=O)[O-]
REMARK SMILES IDX 7 1 8 2 9 3 10 4 11 5 12 6 13 7 6 8 5 9 4 10 3 11 2 12 1 13
REMARK H PARENT
REMARK Flexibility Score: inf
ROOT
ATOM      1  C   UNL     1      -4.237  32.840 -19.109  1.00  0.00     0.000 C 
ENDROOT
BRANCH   1   2
ATOM      2  C   UNL     1      -4.038  34.016 -18.133  1.00  0.00     0.000 C 
BRANCH   2   3
ATOM      3  C   UNL     1      -2.578  34.283 -17.730  1.00  0.00     0.006 C 
BRANCH   3   4
ATOM      4  C   UNL     1      -1.644  33.112 -18.069  1.00  0.00     0.053 C 
BRANCH   4   5
ATOM      5  C   UNL     1      -0.461  33.598 -18.845  1.00  0.00     0.041 C 
ATOM      6  O   UNL     1      -0.018  32.924 -19.811  1.00  0.00    -0.550 OA
ATOM      7  O   UNL     1       0.121  34.821 -18.534  1.00  0.00    -0.550 OA
ENDBRANCH   4   5
ENDBRANCH   3   4
ENDBRANCH   2   3
ENDBRANCH   1   2
BRANCH   1   8
ATOM      8  C   UNL     1      -4.738  31.546 -18.431  1.00  0.00     0.000 C 
BRANCH   8   9
ATOM      9  C   UNL     1      -4.925  31.714 -16.916  1.00  0.00    -0.000 C 
BRANCH   9  10
ATOM     10  C   UNL     1      -6.412  31.666 -16.535  1.00  0.00    -0.000 C 
BRANCH  10  11
ATOM     11  C   UNL     1      -6.942  33.022 -16.044  1.00  0.00    -0.000 C 
BRANCH  11  12
ATOM     12  C   UNL     1      -8.237  33.444 -16.755  1.00  0.00    -0.003 C 
ATOM     13  C   UNL     1      -8.024  33.562 -18.261  1.00  0.00     0.004 C 
ENDBRANCH  11  12
ENDBRANCH  10  11
ENDBRANCH   9  10
ENDBRANCH   8   9
ENDBRANCH   1   8
TORSDOF 9
ENDMDL
MODEL 4
REMARK VINA RESULT:    -4.038      1.664      2.655
REMARK INTER + INTRA:          -7.342
REMARK INTER:                  -6.588
REMARK INTRA:                  -0.754
REMARK UNBOUND:                -1.179
REMARK SMILES CCCCCCCCCCC(=O)[O-]
REMARK SMILES IDX 7 1 8 2 9 3 10 4 11 5 12 6 13 7 6 8 5 9 4 10 3 11 2 12 1 13
REMARK H PARENT
REMARK Flexibility Score: inf
ROOT
ATOM      1  C   UNL     1       7.403  27.081 -12.784  1.00  0.00     0.000 C 
ENDROOT
BRANCH   1   2
ATOM      2  C   UNL     1       7.485  25.542 -12.793  1.00  0.00     0.000 C 
BRANCH   2   3
ATOM      3  C   UNL     1       8.879  24.967 -12.495  1.00  0.00     0.006 C 
BRANCH   3   4
ATOM      4  C   UNL     1       9.145  24.799 -10.992  1.00  0.00     0.053 C 
BRANCH   4   5
ATOM      5  C   UNL     1       8.527  23.531 -10.493  1.00  0.00     0.041 C 
ATOM      6  O   UNL     1       7.872  23.527  -9.418  1.00  0.00    -0.550 OA
ATOM      7  O   UNL     1       8.632  22.365 -11.241  1.00  0.00    -0.550 OA
ENDBRANCH   4   5
ENDBRANCH   3   4
ENDBRANCH   2   3
ENDBRANCH   1   2
BRANCH   1   8
ATOM      8  C   UNL     1       8.704  27.777 -13.238  1.00  0.00     0.000 C 
BRANCH   8   9
ATOM      9  C   UNL     1       8.924  29.123 -12.532  1.00  0.00    -0.000 C 
BRANCH   9  10
ATOM     10  C   UNL     1       7.750  30.079 -12.790  1.00  0.00    -0.000 C 
BRANCH  10  11
ATOM     11  C   UNL     1       7.628  30.482 -14.268  1.00  0.00    -0.000 C 
BRANCH  11  12
ATOM     12  C   UNL     1       6.263  30.116 -14.871  1.00  0.00    -0.003 C 
ATOM     13  C   UNL     1       6.424  29.180 -16.065  1.00  0.00     0.004 C 
ENDBRANCH  11  12
ENDBRANCH  10  11
ENDBRANCH   9  10
ENDBRANCH   8   9
ENDBRANCH   1   8
TORSDOF 9
ENDMDL
MODEL 5
REMARK VINA RESULT:    -4.017      3.651      5.615
REMARK INTER + INTRA:          -7.310
REMARK INTER:                  -6.617
REMARK INTRA:                  -0.693
REMARK UNBOUND:                -1.179
REMARK SMILES CCCCCCCCCCC(=O)[O-]
REMARK SMILES IDX 7 1 8 2 9 3 10 4 11 5 12 6 13 7 6 8 5 9 4 10 3 11 2 12 1 13
REMARK H PARENT
REMARK Flexibility Score: inf
ROOT
ATOM      1  C   UNL     1       9.816  27.333 -12.466  1.00  0.00     0.000 C 
ENDROOT
BRANCH   1   2
ATOM      2  C   UNL     1       9.444  28.799 -12.761  1.00  0.00     0.000 C 
BRANCH   2   3
ATOM      3  C   UNL     1       7.937  29.103 -12.727  1.00  0.00     0.006 C 
BRANCH   3   4
ATOM      4  C   UNL     1       7.166  28.418 -13.864  1.00  0.00     0.053 C 
BRANCH   4   5
ATOM      5  C   UNL     1       6.746  29.424 -14.888  1.00  0.00     0.041 C 
ATOM      6  O   UNL     1       6.883  30.655 -14.660  1.00  0.00    -0.550 OA
ATOM      7  O   UNL     1       6.250  29.002 -16.116  1.00  0.00    -0.550 OA
ENDBRANCH   4   5
ENDBRANCH   3   4
ENDBRANCH   2   3
ENDBRANCH   1   2
BRANCH   1   8
ATOM      8  C   UNL     1      10.288  26.547 -13.709  1.00  0.00     0.000 C 
BRANCH   8   9
ATOM      9  C   UNL     1       9.672  25.142 -13.781  1.00  0.00    -0.000 C 
BRANCH   9  10
ATOM     10  C   UNL     1       8.494  25.006 -12.803  1.00  0.00    -0.000 C 
BRANCH  10  11
ATOM     11  C   UNL     1       8.644  23.803 -11.860  1.00  0.00    -0.000 C 
BRANCH  11  12
ATOM     12  C   UNL     1       8.536  24.195 -10.378  1.00  0.00    -0.003 C 
ATOM     13  C   UNL     1       7.838  23.105  -9.571  1.00  0.00     0.004 C 
ENDBRANCH  11  12
ENDBRANCH  10  11
ENDBRANCH   9  10
ENDBRANCH   8   9
ENDBRANCH   1   8
TORSDOF 9
ENDMDL
MODEL 6
REMARK VINA RESULT:    -3.979      4.582      6.670
REMARK INTER + INTRA:          -7.253
REMARK INTER:                  -6.785
REMARK INTRA:                  -0.468
REMARK UNBOUND:                -1.179
REMARK SMILES CCCCCCCCCCC(=O)[O-]
REMARK SMILES IDX 7 1 8 2 9 3 10 4 11 5 12 6 13 7 6 8 5 9 4 10 3 11 2 12 1 13
REMARK H PARENT
REMARK Flexibility Score: inf
ROOT
ATOM      1  C   UNL     1       8.373  27.753 -12.810  1.00  0.00     0.000 C 
ENDROOT
BRANCH   1   2
ATOM      2  C   UNL     1       7.759  29.121 -13.168  1.00  0.00     0.000 C 
BRANCH   2   3
ATOM      3  C   UNL     1       7.600  29.384 -14.675  1.00  0.00     0.006 C 
BRANCH   3   4
ATOM      4  C   UNL     1       6.190  29.862 -15.050  1.00  0.00     0.053 C 
BRANCH   4   5
ATOM      5  C   UNL     1       6.179  31.345 -15.246  1.00  0.00     0.041 C 
ATOM      6  O   UNL     1       5.100  31.941 -15.501  1.00  0.00    -0.550 OA
ATOM      7  O   UNL     1       7.351  32.076 -15.097  1.00  0.00    -0.550 OA
ENDBRANCH   4   5
ENDBRANCH   3   4
ENDBRANCH   2   3
ENDBRANCH   1   2
BRANCH   1   8
ATOM      8  C   UNL     1       7.348  26.599 -12.777  1.00  0.00     0.000 C 
BRANCH   8   9
ATOM      9  C   UNL     1       8.017  25.220 -12.872  1.00  0.00    -0.000 C 
BRANCH   9  10
ATOM     10  C   UNL     1       9.284  25.162 -12.004  1.00  0.00    -0.000 C 
BRANCH  10  11
ATOM     11  C   UNL     1       9.010  24.617 -10.593  1.00  0.00    -0.000 C 
BRANCH  11  12
ATOM     12  C   UNL     1       7.767  23.717 -10.537  1.00  0.00    -0.003 C 
ATOM     13  C   UNL     1       7.721  22.926  -9.233  1.00  0.00     0.004 C 
ENDBRANCH  11  12
ENDBRANCH  10  11
ENDBRANCH   9  10
ENDBRANCH   8   9
ENDBRANCH   1   8
TORSDOF 9
ENDMDL
MODEL 7
REMARK VINA RESULT:    -3.873      9.308     11.837
REMARK INTER + INTRA:          -7.090
REMARK INTER:                  -5.863
REMARK INTRA:                  -1.227
REMARK UNBOUND:                -1.179
REMARK SMILES CCCCCCCCCCC(=O)[O-]
REMARK SMILES IDX 7 1 8 2 9 3 10 4 11 5 12 6 13 7 6 8 5 9 4 10 3 11 2 12 1 13
REMARK H PARENT
REMARK Flexibility Score: inf
ROOT
ATOM      1  C   UNL     1       2.277  21.363  -6.923  1.00  0.00     0.000 C 
ENDROOT
BRANCH   1   2
ATOM      2  C   UNL     1       3.174  20.520  -7.851  1.00  0.00     0.000 C 
BRANCH   2   3
ATOM      3  C   UNL     1       2.418  19.684  -8.897  1.00  0.00     0.006 C 
BRANCH   3   4
ATOM      4  C   UNL     1       3.087  19.713 -10.278  1.00  0.00     0.053 C 
BRANCH   4   5
ATOM      5  C   UNL     1       2.226  20.444 -11.258  1.00  0.00     0.041 C 
ATOM      6  O   UNL     1       1.458  21.362 -10.865  1.00  0.00    -0.550 OA
ATOM      7  O   UNL     1       2.308  20.148 -12.614  1.00  0.00    -0.550 OA
ENDBRANCH   4   5
ENDBRANCH   3   4
ENDBRANCH   2   3
ENDBRANCH   1   2
BRANCH   1   8
ATOM      8  C   UNL     1       0.774  21.276  -7.263  1.00  0.00     0.000 C 
BRANCH   8   9
ATOM      9  C   UNL     1      -0.103  21.166  -6.007  1.00  0.00    -0.000 C 
BRANCH   9  10
ATOM     10  C   UNL     1       0.254  19.913  -5.193  1.00  0.00    -0.000 C 
BRANCH  10  11
ATOM     11  C   UNL     1      -0.004  18.610  -5.966  1.00  0.00    -0.000 C 
BRANCH  11  12
ATOM     12  C   UNL     1       1.196  17.652  -5.930  1.00  0.00    -0.003 C 
ATOM     13  C   UNL     1       2.285  18.171  -4.997  1.00  0.00     0.004 C 
ENDBRANCH  11  12
ENDBRANCH  10  11
ENDBRANCH   9  10
ENDBRANCH   8   9
ENDBRANCH   1   8
TORSDOF 9
ENDMDL
MODEL 8
REMARK VINA RESULT:    -3.785      9.721     11.917
REMARK INTER + INTRA:          -6.956
REMARK INTER:                  -5.735
REMARK INTRA:                  -1.220
REMARK UNBOUND:                -1.179
REMARK SMILES CCCCCCCCCCC(=O)[O-]
REMARK SMILES IDX 7 1 8 2 9 3 10 4 11 5 12 6 13 7 6 8 5 9 4 10 3 11 2 12 1 13
REMARK H PARENT
REMARK Flexibility Score: inf
ROOT
ATOM      1  C   UNL     1      -0.312  17.620  -6.449  1.00  0.00     0.000 C 
ENDROOT
BRANCH   1   2
ATOM      2  C   UNL     1      -0.133  17.268  -7.939  1.00  0.00     0.000 C 
BRANCH   2   3
ATOM      3  C   UNL     1       0.568  18.349  -8.779  1.00  0.00     0.006 C 
BRANCH   3   4
ATOM      4  C   UNL     1       1.655  17.775  -9.699  1.00  0.00     0.053 C 
BRANCH   4   5
ATOM      5  C   UNL     1       2.993  18.335  -9.336  1.00  0.00     0.041 C 
ATOM      6  O   UNL     1       3.595  17.922  -8.309  1.00  0.00    -0.550 OA
ATOM      7  O   UNL     1       3.600  19.276 -10.157  1.00  0.00    -0.550 OA
ENDBRANCH   4   5
ENDBRANCH   3   4
ENDBRANCH   2   3
ENDBRANCH   1   2
BRANCH   1   8
ATOM      8  C   UNL     1       0.799  18.533  -5.887  1.00  0.00     0.000 C 
BRANCH   8   9
ATOM      9  C   UNL     1       0.239  19.826  -5.276  1.00  0.00    -0.000 C 
BRANCH   9  10
ATOM     10  C   UNL     1       1.192  21.007  -5.516  1.00  0.00    -0.000 C 
BRANCH  10  11
ATOM     11  C   UNL     1       2.472  20.593  -6.259  1.00  0.00    -0.000 C 
BRANCH  11  12
ATOM     12  C   UNL     1       2.743  21.459  -7.499  1.00  0.00    -0.003 C 
ATOM     13  C   UNL     1       1.451  21.760  -8.251  1.00  0.00     0.004 C 
ENDBRANCH  11  12
ENDBRANCH  10  11
ENDBRANCH   9  10
ENDBRANCH   8   9
ENDBRANCH   1   8
TORSDOF 9
ENDMDL
