MODEL 1
REMARK VINA RESULT:    -5.240      0.000      0.000
REMARK INTER + INTRA:          -9.037
REMARK INTER:                  -8.304
REMARK INTRA:                  -0.734
REMARK UNBOUND:                -0.734
REMARK SMILES CCCCCCCCCCCC(=O)[O-]
REMARK SMILES IDX 7 1 8 2 9 3 10 4 11 5 12 6 13 7 14 8 6 9 5 10 4 11 3 12 2 13
REMARK SMILES IDX 1 14
REMARK H PARENT
REMARK Flexibility Score: inf
ROOT
ATOM      1  C   UNL     1      -7.974  64.063  53.563  1.00  0.00     0.000 C 
ENDROOT
BRANCH   1   2
ATOM      2  C   UNL     1      -6.575  64.614  53.231  1.00  0.00     0.000 C 
BRANCH   2   3
ATOM      3  C   UNL     1      -6.394  64.926  51.735  1.00  0.00     0.000 C 
BRANCH   3   4
ATOM      4  C   UNL     1      -7.309  64.065  50.840  1.00  0.00     0.006 C 
BRANCH   4   5
ATOM      5  C   UNL     1      -7.879  64.827  49.632  1.00  0.00     0.053 C 
BRANCH   5   6
ATOM      6  C   UNL     1      -8.871  64.015  48.862  1.00  0.00     0.041 C 
ATOM      7  O   UNL     1      -9.974  64.518  48.521  1.00  0.00    -0.550 OA
ATOM      8  O   UNL     1      -8.566  62.709  48.496  1.00  0.00    -0.550 OA
ENDBRANCH   5   6
ENDBRANCH   4   5
ENDBRANCH   3   4
ENDBRANCH   2   3
ENDBRANCH   1   2
BRANCH   1   9
ATOM      9  C   UNL     1      -7.983  62.768  54.396  1.00  0.00     0.000 C 
BRANCH   9  10
ATOM     10  C   UNL     1      -7.678  61.517  53.559  1.00  0.00    -0.000 C 
BRANCH  10  11
ATOM     11  C   UNL     1      -6.401  60.826  54.050  1.00  0.00    -0.000 C 
BRANCH  11  12
ATOM     12  C   UNL     1      -6.250  60.958  55.569  1.00  0.00    -0.000 C 
BRANCH  12  13
ATOM     13  C   UNL     1      -6.169  59.581  56.237  1.00  0.00    -0.003 C 
ATOM     14  C   UNL     1      -4.825  58.912  55.963  1.00  0.00     0.004 C 
ENDBRANCH  12  13
ENDBRANCH  11  12
ENDBRANCH  10  11
ENDBRANCH   9  10
ENDBRANCH   1   9
TORSDOF 10
ENDMDL
MODEL 2
REMARK VINA RESULT:    -5.066      3.595      6.814
REMARK INTER + INTRA:          -8.761
REMARK INTER:                  -7.897
REMARK INTRA:                  -0.863
REMARK UNBOUND:                -0.734
REMARK SMILES CCCCCCCCCCCC(=O)[O-]
REMARK SMILES IDX 7 1 8 2 9 3 10 4 11 5 12 6 13 7 14 8 6 9 5 10 4 11 3 12 2 13
REMARK SMILES IDX 1 14
REMARK H PARENT
REMARK Flexibility Score: inf
ROOT
ATOM      1  C   UNL     1      -7.980  64.068  53.635  1.00  0.00     0.000 C 
ENDROOT
BRANCH   1   2
ATOM      2  C   UNL     1      -7.925  62.778  54.475  1.00  0.00     0.000 C 
BRANCH   2   3
ATOM      3  C   UNL     1      -7.712  61.516  53.621  1.00  0.00     0.000 C 
BRANCH   3   4
ATOM      4  C   UNL     1      -6.379  60.808  53.942  1.00  0.00     0.006 C 
BRANCH   4   5
ATOM      5  C   UNL     1      -5.858  61.096  55.360  1.00  0.00     0.053 C 
BRANCH   5   6
ATOM      6  C   UNL     1      -5.704  59.850  56.174  1.00  0.00     0.041 C 
ATOM      7  O   UNL     1      -6.537  58.913  56.060  1.00  0.00    -0.550 OA
ATOM      8  O   UNL     1      -4.626  59.713  57.039  1.00  0.00    -0.550 OA
ENDBRANCH   5   6
ENDBRANCH   4   5
ENDBRANCH   3   4
ENDBRANCH   2   3
ENDBRANCH   1   2
BRANCH   1   9
ATOM      9  C   UNL     1      -6.641  64.494  53.008  1.00  0.00     0.000 C 
BRANCH   9  10
ATOM     10  C   UNL     1      -6.802  65.090  51.602  1.00  0.00    -0.000 C 
BRANCH  10  11
ATOM     11  C   UNL     1      -6.285  64.121  50.532  1.00  0.00    -0.000 C 
BRANCH  11  12
ATOM     12  C   UNL     1      -7.432  63.594  49.663  1.00  0.00    -0.000 C 
BRANCH  12  13
ATOM     13  C   UNL     1      -8.603  64.583  49.639  1.00  0.00    -0.003 C 
ATOM     14  C   UNL     1      -9.313  64.564  48.288  1.00  0.00     0.004 C 
ENDBRANCH  12  13
ENDBRANCH  11  12
ENDBRANCH  10  11
ENDBRANCH   9  10
ENDBRANCH   1   9
TORSDOF 10
ENDMDL
MODEL 3
REMARK VINA RESULT:    -5.060     11.885     14.367
REMARK INTER + INTRA:          -8.751
REMARK INTER:                  -7.917
REMARK INTRA:                  -0.834
REMARK UNBOUND:                -0.734
REMARK SMILES CCCCCCCCCCCC(=O)[O-]
REMARK SMILES IDX 7 1 8 2 9 3 10 4 11 5 12 6 13 7 14 8 6 9 5 10 4 11 3 12 2 13
REMARK SMILES IDX 1 14
REMARK H PARENT
REMARK Flexibility Score: inf
ROOT
ATOM      1  C   UNL     1     -10.888  61.255  40.647  1.00  0.00     0.000 C 
ENDROOT
BRANCH   1   2
ATOM      2  C   UNL     1     -10.423  61.871  39.314  1.00  0.00     0.000 C 
BRANCH   2   3
ATOM      3  C   UNL     1     -10.836  63.345  39.160  1.00  0.00     0.000 C 
BRANCH   3   4
ATOM      4  C   UNL     1      -9.621  64.280  38.978  1.00  0.00     0.006 C 
BRANCH   4   5
ATOM      5  C   UNL     1      -8.647  64.257  40.168  1.00  0.00     0.053 C 
BRANCH   5   6
ATOM      6  C   UNL     1      -9.244  64.849  41.404  1.00  0.00     0.041 C 
ATOM      7  O   UNL     1      -9.360  66.098  41.517  1.00  0.00    -0.550 OA
ATOM      8  O   UNL     1      -9.700  64.020  42.423  1.00  0.00    -0.550 OA
ENDBRANCH   5   6
ENDBRANCH   4   5
ENDBRANCH   3   4
ENDBRANCH   2   3
ENDBRANCH   1   2
BRANCH   1   9
ATOM      9  C   UNL     1     -12.335  60.730  40.651  1.00  0.00     0.000 C 
BRANCH   9  10
ATOM     10  C   UNL     1     -12.554  59.572  39.667  1.00  0.00    -0.000 C 
BRANCH  10  11
ATOM     11  C   UNL     1     -13.521  59.977  38.548  1.00  0.00    -0.000 C 
BRANCH  11  12
ATOM     12  C   UNL     1     -14.484  61.072  39.019  1.00  0.00    -0.000 C 
BRANCH  12  13
ATOM     13  C   UNL     1     -15.764  61.079  38.177  1.00  0.00    -0.003 C 
ATOM     14  C   UNL     1     -16.920  60.419  38.923  1.00  0.00     0.004 C 
ENDBRANCH  12  13
ENDBRANCH  11  12
ENDBRANCH  10  11
ENDBRANCH   9  10
ENDBRANCH   1   9
TORSDOF 10
ENDMDL
MODEL 4
REMARK VINA RESULT:    -5.052     12.039     14.451
REMARK INTER + INTRA:          -8.739
REMARK INTER:                  -7.916
REMARK INTRA:                  -0.823
REMARK UNBOUND:                -0.734
REMARK SMILES CCCCCCCCCCCC(=O)[O-]
REMARK SMILES IDX 7 1 8 2 9 3 10 4 11 5 12 6 13 7 14 8 6 9 5 10 4 11 3 12 2 13
REMARK SMILES IDX 1 14
REMARK H PARENT
REMARK Flexibility Score: inf
ROOT
ATOM      1  C   UNL     1     -11.361  62.066  39.235  1.00  0.00     0.000 C 
ENDROOT
BRANCH   1   2
ATOM      2  C   UNL     1      -9.975  62.483  38.708  1.00  0.00     0.000 C 
BRANCH   2   3
ATOM      3  C   UNL     1      -9.900  63.974  38.335  1.00  0.00     0.000 C 
BRANCH   3   4
ATOM      4  C   UNL     1      -8.616  64.647  38.862  1.00  0.00     0.006 C 
BRANCH   4   5
ATOM      5  C   UNL     1      -8.294  64.294  40.323  1.00  0.00     0.053 C 
BRANCH   5   6
ATOM      6  C   UNL     1      -9.226  64.958  41.287  1.00  0.00     0.041 C 
ATOM      7  O   UNL     1     -10.048  64.271  41.948  1.00  0.00    -0.550 OA
ATOM      8  O   UNL     1      -9.168  66.333  41.476  1.00  0.00    -0.550 OA
ENDBRANCH   5   6
ENDBRANCH   4   5
ENDBRANCH   3   4
ENDBRANCH   2   3
ENDBRANCH   1   2
BRANCH   1   9
ATOM      9  C   UNL     1     -11.352  60.897  40.236  1.00  0.00     0.000 C 
BRANCH   9  10
ATOM     10  C   UNL     1     -12.650  60.077  40.207  1.00  0.00    -0.000 C 
BRANCH  10  11
ATOM     11  C   UNL     1     -13.339  60.185  38.842  1.00  0.00    -0.000 C 
BRANCH  11  12
ATOM     12  C   UNL     1     -14.860  60.290  38.998  1.00  0.00    -0.000 C 
BRANCH  12  13
ATOM     13  C   UNL     1     -15.425  61.424  38.135  1.00  0.00    -0.003 C 
ATOM     14  C   UNL     1     -14.745  62.752  38.454  1.00  0.00     0.004 C 
ENDBRANCH  12  13
ENDBRANCH  11  12
ENDBRANCH  10  11
ENDBRANCH   9  10
ENDBRANCH   1   9
TORSDOF 10
ENDMDL
MODEL 5
REMARK VINA RESULT:    -5.014     12.219     14.929
REMARK INTER + INTRA:          -8.679
REMARK INTER:                  -7.970
REMARK INTRA:                  -0.709
REMARK UNBOUND:                -0.734
REMARK SMILES CCCCCCCCCCCC(=O)[O-]
REMARK SMILES IDX 7 1 8 2 9 3 10 4 11 5 12 6 13 7 14 8 6 9 5 10 4 11 3 12 2 13
REMARK SMILES IDX 1 14
REMARK H PARENT
REMARK Flexibility Score: inf
ROOT
ATOM      1  C   UNL     1     -11.202  61.091  40.145  1.00  0.00     0.000 C 
ENDROOT
BRANCH   1   2
ATOM      2  C   UNL     1     -12.293  60.006  40.080  1.00  0.00     0.000 C 
BRANCH   2   3
ATOM      3  C   UNL     1     -13.713  60.591  39.985  1.00  0.00     0.000 C 
BRANCH   3   4
ATOM      4  C   UNL     1     -14.378  60.300  38.623  1.00  0.00     0.006 C 
BRANCH   4   5
ATOM      5  C   UNL     1     -15.498  61.291  38.264  1.00  0.00     0.053 C 
BRANCH   5   6
ATOM      6  C   UNL     1     -16.858  60.742  38.555  1.00  0.00     0.041 C 
ATOM      7  O   UNL     1     -16.986  59.577  39.017  1.00  0.00    -0.550 OA
ATOM      8  O   UNL     1     -17.985  61.527  38.343  1.00  0.00    -0.550 OA
ENDBRANCH   5   6
ENDBRANCH   4   5
ENDBRANCH   3   4
ENDBRANCH   2   3
ENDBRANCH   1   2
BRANCH   1   9
ATOM      9  C   UNL     1     -11.500  62.364  39.335  1.00  0.00     0.000 C 
BRANCH   9  10
ATOM     10  C   UNL     1     -10.365  62.741  38.372  1.00  0.00    -0.000 C 
BRANCH  10  11
ATOM     11  C   UNL     1      -9.863  64.164  38.644  1.00  0.00    -0.000 C 
BRANCH  11  12
ATOM     12  C   UNL     1      -8.679  64.156  39.618  1.00  0.00    -0.000 C 
BRANCH  12  13
ATOM     13  C   UNL     1      -8.979  65.008  40.856  1.00  0.00    -0.003 C 
ATOM     14  C   UNL     1      -9.714  64.197  41.920  1.00  0.00     0.004 C 
ENDBRANCH  12  13
ENDBRANCH  11  12
ENDBRANCH  10  11
ENDBRANCH   9  10
ENDBRANCH   1   9
TORSDOF 10
ENDMDL
MODEL 6
REMARK VINA RESULT:    -5.008     11.589     14.488
REMARK INTER + INTRA:          -8.670
REMARK INTER:                  -7.793
REMARK INTRA:                  -0.877
REMARK UNBOUND:                -0.734
REMARK SMILES CCCCCCCCCCCC(=O)[O-]
REMARK SMILES IDX 7 1 8 2 9 3 10 4 11 5 12 6 13 7 14 8 6 9 5 10 4 11 3 12 2 13
REMARK SMILES IDX 1 14
REMARK H PARENT
REMARK Flexibility Score: inf
ROOT
ATOM      1  C   UNL     1     -11.568  62.255  39.407  1.00  0.00     0.000 C 
ENDROOT
BRANCH   1   2
ATOM      2  C   UNL     1     -11.414  60.904  40.129  1.00  0.00     0.000 C 
BRANCH   2   3
ATOM      3  C   UNL     1     -12.627  59.978  39.932  1.00  0.00     0.000 C 
BRANCH   3   4
ATOM      4  C   UNL     1     -13.377  60.264  38.615  1.00  0.00     0.006 C 
BRANCH   4   5
ATOM      5  C   UNL     1     -14.906  60.295  38.775  1.00  0.00     0.053 C 
BRANCH   5   6
ATOM      6  C   UNL     1     -15.490  61.621  38.403  1.00  0.00     0.041 C 
ATOM      7  O   UNL     1     -14.753  62.639  38.323  1.00  0.00    -0.550 OA
ATOM      8  O   UNL     1     -16.846  61.729  38.117  1.00  0.00    -0.550 OA
ENDBRANCH   5   6
ENDBRANCH   4   5
ENDBRANCH   3   4
ENDBRANCH   2   3
ENDBRANCH   1   2
BRANCH   1   9
ATOM      9  C   UNL     1     -10.376  62.661  38.522  1.00  0.00     0.000 C 
BRANCH   9  10
ATOM     10  C   UNL     1      -9.933  64.114  38.744  1.00  0.00    -0.000 C 
BRANCH  10  11
ATOM     11  C   UNL     1      -8.543  64.172  39.387  1.00  0.00    -0.000 C 
BRANCH  11  12
ATOM     12  C   UNL     1      -8.560  65.020  40.664  1.00  0.00    -0.000 C 
BRANCH  12  13
ATOM     13  C   UNL     1      -9.881  64.851  41.421  1.00  0.00    -0.003 C 
ATOM     14  C   UNL     1      -9.793  63.719  42.441  1.00  0.00     0.004 C 
ENDBRANCH  12  13
ENDBRANCH  11  12
ENDBRANCH  10  11
ENDBRANCH   9  10
ENDBRANCH   1   9
TORSDOF 10
ENDMDL
MODEL 7
REMARK VINA RESULT:    -4.996      4.200      7.342
REMARK INTER + INTRA:          -8.651
REMARK INTER:                  -8.145
REMARK INTRA:                  -0.505
REMARK UNBOUND:                -0.734
REMARK SMILES CCCCCCCCCCCC(=O)[O-]
REMARK SMILES IDX 7 1 8 2 9 3 10 4 11 5 12 6 13 7 14 8 6 9 5 10 4 11 3 12 2 13
REMARK SMILES IDX 1 14
REMARK H PARENT
REMARK Flexibility Score: inf
ROOT
ATOM      1  C   UNL     1      -7.811  62.861  54.409  1.00  0.00     0.000 C 
ENDROOT
BRANCH   1   2
ATOM      2  C   UNL     1      -7.634  61.538  53.642  1.00  0.00     0.000 C 
BRANCH   2   3
ATOM      3  C   UNL     1      -6.388  60.751  54.086  1.00  0.00     0.000 C 
BRANCH   3   4
ATOM      4  C   UNL     1      -6.227  60.722  55.621  1.00  0.00     0.006 C 
BRANCH   4   5
ATOM      5  C   UNL     1      -5.994  59.312  56.186  1.00  0.00     0.053 C 
BRANCH   5   6
ATOM      6  C   UNL     1      -4.582  59.104  56.634  1.00  0.00     0.041 C 
ATOM      7  O   UNL     1      -3.823  58.326  55.998  1.00  0.00    -0.550 OA
ATOM      8  O   UNL     1      -4.094  59.792  57.738  1.00  0.00    -0.550 OA
ENDBRANCH   5   6
ENDBRANCH   4   5
ENDBRANCH   3   4
ENDBRANCH   2   3
ENDBRANCH   1   2
BRANCH   1   9
ATOM      9  C   UNL     1      -7.950  64.113  53.525  1.00  0.00     0.000 C 
BRANCH   9  10
ATOM     10  C   UNL     1      -6.596  64.687  53.084  1.00  0.00    -0.000 C 
BRANCH  10  11
ATOM     11  C   UNL     1      -6.738  65.501  51.792  1.00  0.00    -0.000 C 
BRANCH  11  12
ATOM     12  C   UNL     1      -6.232  64.708  50.582  1.00  0.00    -0.000 C 
BRANCH  12  13
ATOM     13  C   UNL     1      -5.547  65.630  49.568  1.00  0.00    -0.003 C 
ATOM     14  C   UNL     1      -4.998  66.884  50.243  1.00  0.00     0.004 C 
ENDBRANCH  12  13
ENDBRANCH  11  12
ENDBRANCH  10  11
ENDBRANCH   9  10
ENDBRANCH   1   9
TORSDOF 10
ENDMDL
MODEL 8
REMARK VINA RESULT:    -4.694      1.469      1.994
REMARK INTER + INTRA:          -8.171
REMARK INTER:                  -7.592
REMARK INTRA:                  -0.579
REMARK UNBOUND:                -0.734
REMARK SMILES CCCCCCCCCCCC(=O)[O-]
REMARK SMILES IDX 7 1 8 2 9 3 10 4 11 5 12 6 13 7 14 8 6 9 5 10 4 11 3 12 2 13
REMARK SMILES IDX 1 14
REMARK H PARENT
REMARK Flexibility Score: inf
ROOT
ATOM      1  C   UNL     1      -7.964  62.862  54.478  1.00  0.00     0.000 C 
ENDROOT
BRANCH   1   2
ATOM      2  C   UNL     1      -7.461  63.296  53.089  1.00  0.00     0.000 C 
BRANCH   2   3
ATOM      3  C   UNL     1      -6.531  64.521  53.144  1.00  0.00     0.000 C 
BRANCH   3   4
ATOM      4  C   UNL     1      -6.948  65.620  52.144  1.00  0.00     0.006 C 
BRANCH   4   5
ATOM      5  C   UNL     1      -6.139  65.598  50.837  1.00  0.00     0.053 C 
BRANCH   5   6
ATOM      6  C   UNL     1      -6.682  64.614  49.849  1.00  0.00     0.041 C 
ATOM      7  O   UNL     1      -7.824  64.785  49.347  1.00  0.00    -0.550 OA
ATOM      8  O   UNL     1      -5.915  63.522  49.461  1.00  0.00    -0.550 OA
ENDBRANCH   5   6
ENDBRANCH   4   5
ENDBRANCH   3   4
ENDBRANCH   2   3
ENDBRANCH   1   2
BRANCH   1   9
ATOM      9  C   UNL     1      -7.189  61.694  55.115  1.00  0.00     0.000 C 
BRANCH   9  10
ATOM     10  C   UNL     1      -6.321  60.930  54.105  1.00  0.00    -0.000 C 
BRANCH  10  11
ATOM     11  C   UNL     1      -5.113  60.286  54.795  1.00  0.00    -0.000 C 
BRANCH  11  12
ATOM     12  C   UNL     1      -5.531  59.560  56.078  1.00  0.00    -0.000 C 
BRANCH  12  13
ATOM     13  C   UNL     1      -4.347  59.413  57.039  1.00  0.00    -0.003 C 
ATOM     14  C   UNL     1      -3.219  60.375  56.676  1.00  0.00     0.004 C 
ENDBRANCH  12  13
ENDBRANCH  11  12
ENDBRANCH  10  11
ENDBRANCH   9  10
ENDBRANCH   1   9
TORSDOF 10
ENDMDL
MODEL 9
REMARK VINA RESULT:    -4.668     11.454     13.770
REMARK INTER + INTRA:          -8.131
REMARK INTER:                  -7.170
REMARK INTRA:                  -0.961
REMARK UNBOUND:                -0.734
REMARK SMILES CCCCCCCCCCCC(=O)[O-]
REMARK SMILES IDX 7 1 8 2 9 3 10 4 11 5 12 6 13 7 14 8 6 9 5 10 4 11 3 12 2 13
REMARK SMILES IDX 1 14
REMARK H PARENT
REMARK Flexibility Score: inf
ROOT
ATOM      1  C   UNL     1      -9.694  62.367  41.584  1.00  0.00     0.000 C 
ENDROOT
BRANCH   1   2
ATOM      2  C   UNL     1      -9.811  62.452  40.051  1.00  0.00     0.000 C 
BRANCH   2   3
ATOM      3  C   UNL     1     -11.103  61.814  39.512  1.00  0.00     0.000 C 
BRANCH   3   4
ATOM      4  C   UNL     1     -11.647  60.711  40.445  1.00  0.00     0.006 C 
BRANCH   4   5
ATOM      5  C   UNL     1     -12.601  59.731  39.742  1.00  0.00     0.053 C 
BRANCH   5   6
ATOM      6  C   UNL     1     -13.948  60.330  39.489  1.00  0.00     0.041 C 
ATOM      7  O   UNL     1     -14.513  61.018  40.380  1.00  0.00    -0.550 OA
ATOM      8  O   UNL     1     -14.568  60.153  38.259  1.00  0.00    -0.550 OA
ENDBRANCH   5   6
ENDBRANCH   4   5
ENDBRANCH   3   4
ENDBRANCH   2   3
ENDBRANCH   1   2
BRANCH   1   9
ATOM      9  C   UNL     1      -9.663  63.723  42.311  1.00  0.00     0.000 C 
BRANCH   9  10
ATOM     10  C   UNL     1     -10.150  64.884  41.431  1.00  0.00    -0.000 C 
BRANCH  10  11
ATOM     11  C   UNL     1      -9.188  66.075  41.511  1.00  0.00    -0.000 C 
BRANCH  11  12
ATOM     12  C   UNL     1      -8.118  65.995  40.416  1.00  0.00    -0.000 C 
BRANCH  12  13
ATOM     13  C   UNL     1      -8.757  65.894  39.028  1.00  0.00    -0.003 C 
ATOM     14  C   UNL     1      -7.835  65.176  38.046  1.00  0.00     0.004 C 
ENDBRANCH  12  13
ENDBRANCH  11  12
ENDBRANCH  10  11
ENDBRANCH   9  10
ENDBRANCH   1   9
TORSDOF 10
ENDMDL
