MODEL 1
REMARK VINA RESULT:    -0.429      0.000      0.000
REMARK INTER + INTRA:          -0.718
REMARK INTER:                  -0.467
REMARK INTRA:                  -0.251
REMARK UNBOUND:                -0.251
REMARK SMILES CC(C)c1cc2c(cc1O)[C@@]1(C)CCCC(C)(C)[C@H]1CC2=O
REMARK SMILES IDX 4 1 9 2 8 3 7 4 6 5 5 6 21 7 22 8 20 9 19 10 11 11 13 12
REMARK SMILES IDX 14 13 15 14 16 15 17 16 18 17 12 18 2 19 1 20 3 21 10 22
REMARK H PARENT 10 23
REMARK Flexibility Score: inf
ROOT
ATOM      1  C   UNL     1       9.218 -31.898  17.874  1.00  0.00    -0.003 A 
ATOM      2  C   UNL     1       9.647 -31.702  16.549  1.00  0.00     0.119 A 
ATOM      3  C   UNL     1       9.259 -32.599  15.548  1.00  0.00     0.051 A 
ATOM      4  C   UNL     1       8.415 -33.701  15.821  1.00  0.00    -0.027 A 
ATOM      5  C   UNL     1       8.061 -33.936  17.166  1.00  0.00     0.022 A 
ATOM      6  C   UNL     1       8.438 -33.028  18.170  1.00  0.00     0.020 A 
ATOM      7  C   UNL     1       7.358 -35.169  17.531  1.00  0.00     0.163 C 
ATOM      8  O   UNL     1       6.865 -35.318  18.684  1.00  0.00    -0.294 OA
ATOM      9  C   UNL     1       7.292 -36.287  16.552  1.00  0.00     0.086 C 
ATOM     10  C   UNL     1       6.933 -35.758  15.140  1.00  0.00     0.013 C 
ATOM     11  C   UNL     1       7.974 -34.643  14.666  1.00  0.00    -0.003 C 
ATOM     12  C   UNL     1       9.270 -35.326  14.134  1.00  0.00     0.012 C 
ATOM     13  C   UNL     1       9.029 -36.427  13.097  1.00  0.00     0.001 C 
ATOM     14  C   UNL     1       8.087 -37.506  13.626  1.00  0.00     0.007 C 
ATOM     15  C   UNL     1       6.722 -36.946  14.098  1.00  0.00    -0.031 C 
ATOM     16  C   UNL     1       5.879 -36.491  12.875  1.00  0.00     0.011 C 
ATOM     17  C   UNL     1       5.925 -38.125  14.723  1.00  0.00     0.011 C 
ATOM     18  C   UNL     1       7.318 -33.748  13.559  1.00  0.00     0.017 C 
ENDROOT
BRANCH   1  19
ATOM     19  C   UNL     1       9.623 -30.934  18.980  1.00  0.00     0.017 C 
ATOM     20  C   UNL     1       8.526 -29.893  19.243  1.00  0.00     0.012 C 
ATOM     21  C   UNL     1       9.983 -31.691  20.264  1.00  0.00     0.012 C 
ENDBRANCH   1  19
BRANCH   2  22
ATOM     22  O   UNL     1      10.462 -30.618  16.222  1.00  0.00    -0.508 OA
ATOM     23  H   UNL     1      11.304 -30.730  15.670  1.00  0.00     0.293 HD
ENDBRANCH   2  22
TORSDOF 2
ENDMDL
