MODEL 1
REMARK VINA RESULT:    -3.722      0.000      0.000
REMARK INTER + INTRA:         -13.145
REMARK INTER:                  -9.380
REMARK INTRA:                  -3.766
REMARK UNBOUND:                -3.766
REMARK SMILES CCCCCCCCCCCCCCCCCCCCCCCCCCCC(=O)[O-]
REMARK SMILES IDX 15 1 16 2 17 3 18 4 19 5 20 6 21 7 22 8 23 9 24 10 25 11
REMARK SMILES IDX 26 12 27 13 28 14 29 15 30 16 14 17 13 18 12 19 11 20 10 21
REMARK SMILES IDX 9 22 8 23 7 24 6 25 5 26 4 27 3 28 2 29 1 30
REMARK H PARENT
REMARK Flexibility Score: inf
ROOT
ATOM      1  C   UNL     1      -7.722   0.885  -7.341  1.00  0.00     0.000 C 
ENDROOT
BRANCH   1   2
ATOM      2  C   UNL     1      -7.503   0.103  -6.034  1.00  0.00     0.000 C 
BRANCH   2   3
ATOM      3  C   UNL     1      -6.969   0.989  -4.898  1.00  0.00     0.000 C 
BRANCH   3   4
ATOM      4  C   UNL     1      -5.619   0.493  -4.350  1.00  0.00     0.000 C 
BRANCH   4   5
ATOM      5  C   UNL     1      -5.129  -0.783  -5.050  1.00  0.00     0.000 C 
BRANCH   5   6
ATOM      6  C   UNL     1      -3.991  -0.515  -6.052  1.00  0.00     0.000 C 
BRANCH   6   7
ATOM      7  C   UNL     1      -3.922  -1.578  -7.161  1.00  0.00     0.000 C 
BRANCH   7   8
ATOM      8  C   UNL     1      -4.074  -0.976  -8.568  1.00  0.00     0.000 C 
BRANCH   8   9
ATOM      9  C   UNL     1      -5.148  -1.691  -9.403  1.00  0.00     0.000 C 
BRANCH   9  10
ATOM     10  C   UNL     1      -6.252  -2.311  -8.534  1.00  0.00     0.000 C 
BRANCH  10  11
ATOM     11  C   UNL     1      -6.601  -3.727  -9.011  1.00  0.00     0.000 C 
BRANCH  11  12
ATOM     12  C   UNL     1      -5.368  -4.641  -8.965  1.00  0.00     0.006 C 
BRANCH  12  13
ATOM     13  C   UNL     1      -5.113  -5.202  -7.561  1.00  0.00     0.053 C 
BRANCH  13  14
ATOM     14  C   UNL     1      -5.479  -6.652  -7.467  1.00  0.00     0.041 C 
ATOM     15  O   UNL     1      -4.611  -7.540  -7.676  1.00  0.00    -0.550 OA
ATOM     16  O   UNL     1      -6.786  -7.021  -7.175  1.00  0.00    -0.550 OA
ENDBRANCH  13  14
ENDBRANCH  12  13
ENDBRANCH  11  12
ENDBRANCH  10  11
ENDBRANCH   9  10
ENDBRANCH   8   9
ENDBRANCH   7   8
ENDBRANCH   6   7
ENDBRANCH   5   6
ENDBRANCH   4   5
ENDBRANCH   3   4
ENDBRANCH   2   3
ENDBRANCH   1   2
BRANCH   1  17
ATOM     17  C   UNL     1      -6.479   1.682  -7.767  1.00  0.00     0.000 C 
BRANCH  17  18
ATOM     18  C   UNL     1      -6.459   1.979  -9.276  1.00  0.00     0.000 C 
BRANCH  18  19
ATOM     19  C   UNL     1      -6.624   3.475  -9.595  1.00  0.00     0.000 C 
BRANCH  19  20
ATOM     20  C   UNL     1      -6.671   4.376  -8.342  1.00  0.00     0.000 C 
BRANCH  20  21
ATOM     21  C   UNL     1      -6.313   5.836  -8.660  1.00  0.00     0.000 C 
BRANCH  21  22
ATOM     22  C   UNL     1      -4.940   5.935  -9.336  1.00  0.00    -0.000 C 
BRANCH  22  23
ATOM     23  C   UNL     1      -3.832   6.160  -8.296  1.00  0.00    -0.000 C 
BRANCH  23  24
ATOM     24  C   UNL     1      -3.332   7.612  -8.273  1.00  0.00    -0.000 C 
BRANCH  24  25
ATOM     25  C   UNL     1      -2.828   8.041  -6.884  1.00  0.00    -0.000 C 
BRANCH  25  26
ATOM     26  C   UNL     1      -3.407   7.180  -5.746  1.00  0.00    -0.000 C 
BRANCH  26  27
ATOM     27  C   UNL     1      -3.803   7.959  -4.478  1.00  0.00    -0.000 C 
BRANCH  27  28
ATOM     28  C   UNL     1      -5.290   7.797  -4.118  1.00  0.00    -0.000 C 
BRANCH  28  29
ATOM     29  C   UNL     1      -6.162   7.486  -5.345  1.00  0.00    -0.003 C 
ATOM     30  C   UNL     1      -7.420   6.693  -4.992  1.00  0.00     0.004 C 
ENDBRANCH  28  29
ENDBRANCH  27  28
ENDBRANCH  26  27
ENDBRANCH  25  26
ENDBRANCH  24  25
ENDBRANCH  23  24
ENDBRANCH  22  23
ENDBRANCH  21  22
ENDBRANCH  20  21
ENDBRANCH  19  20
ENDBRANCH  18  19
ENDBRANCH  17  18
ENDBRANCH   1  17
TORSDOF 26
ENDMDL
MODEL 2
REMARK VINA RESULT:    -3.618      6.796      9.663
REMARK INTER + INTRA:         -12.883
REMARK INTER:                 -11.084
REMARK INTRA:                  -1.798
REMARK UNBOUND:                -3.766
REMARK SMILES CCCCCCCCCCCCCCCCCCCCCCCCCCCC(=O)[O-]
REMARK SMILES IDX 15 1 16 2 17 3 18 4 19 5 20 6 21 7 22 8 23 9 24 10 25 11
REMARK SMILES IDX 26 12 27 13 28 14 29 15 30 16 14 17 13 18 12 19 11 20 10 21
REMARK SMILES IDX 9 22 8 23 7 24 6 25 5 26 4 27 3 28 2 29 1 30
REMARK H PARENT
REMARK Flexibility Score: inf
ROOT
ATOM      1  C   UNL     1      -8.121   2.928  -1.269  1.00  0.00     0.000 C 
ENDROOT
BRANCH   1   2
ATOM      2  C   UNL     1      -7.876   3.098  -2.779  1.00  0.00     0.000 C 
BRANCH   2   3
ATOM      3  C   UNL     1      -8.036   1.781  -3.555  1.00  0.00     0.000 C 
BRANCH   3   4
ATOM      4  C   UNL     1      -6.705   1.275  -4.136  1.00  0.00     0.000 C 
BRANCH   4   5
ATOM      5  C   UNL     1      -6.544  -0.248  -4.010  1.00  0.00     0.000 C 
BRANCH   5   6
ATOM      6  C   UNL     1      -5.151  -0.739  -4.441  1.00  0.00     0.000 C 
BRANCH   6   7
ATOM      7  C   UNL     1      -4.704  -0.135  -5.783  1.00  0.00     0.000 C 
BRANCH   7   8
ATOM      8  C   UNL     1      -4.213  -1.201  -6.778  1.00  0.00     0.000 C 
BRANCH   8   9
ATOM      9  C   UNL     1      -5.017  -2.508  -6.688  1.00  0.00     0.000 C 
BRANCH   9  10
ATOM     10  C   UNL     1      -4.901  -3.359  -7.960  1.00  0.00     0.000 C 
BRANCH  10  11
ATOM     11  C   UNL     1      -4.962  -4.856  -7.631  1.00  0.00     0.000 C 
BRANCH  11  12
ATOM     12  C   UNL     1      -5.599  -5.646  -8.785  1.00  0.00     0.006 C 
BRANCH  12  13
ATOM     13  C   UNL     1      -6.340  -6.896  -8.293  1.00  0.00     0.053 C 
BRANCH  13  14
ATOM     14  C   UNL     1      -5.392  -7.938  -7.784  1.00  0.00     0.041 C 
ATOM     15  O   UNL     1      -4.464  -8.367  -8.519  1.00  0.00    -0.550 OA
ATOM     16  O   UNL     1      -5.549  -8.455  -6.503  1.00  0.00    -0.550 OA
ENDBRANCH  13  14
ENDBRANCH  12  13
ENDBRANCH  11  12
ENDBRANCH  10  11
ENDBRANCH   9  10
ENDBRANCH   8   9
ENDBRANCH   7   8
ENDBRANCH   6   7
ENDBRANCH   5   6
ENDBRANCH   4   5
ENDBRANCH   3   4
ENDBRANCH   2   3
ENDBRANCH   1   2
BRANCH   1  17
ATOM     17  C   UNL     1      -7.057   3.635  -0.415  1.00  0.00     0.000 C 
BRANCH  17  18
ATOM     18  C   UNL     1      -7.360   3.553   1.090  1.00  0.00     0.000 C 
BRANCH  18  19
ATOM     19  C   UNL     1      -7.999   2.214   1.501  1.00  0.00     0.000 C 
BRANCH  19  20
ATOM     20  C   UNL     1      -7.261   1.503   2.655  1.00  0.00     0.000 C 
BRANCH  20  21
ATOM     21  C   UNL     1      -7.377  -0.027   2.567  1.00  0.00     0.000 C 
BRANCH  21  22
ATOM     22  C   UNL     1      -7.813  -0.626   3.910  1.00  0.00    -0.000 C 
BRANCH  22  23
ATOM     23  C   UNL     1      -6.615  -0.764   4.862  1.00  0.00    -0.000 C 
BRANCH  23  24
ATOM     24  C   UNL     1      -6.662   0.246   6.019  1.00  0.00    -0.000 C 
BRANCH  24  25
ATOM     25  C   UNL     1      -5.484   1.236   5.986  1.00  0.00    -0.000 C 
BRANCH  25  26
ATOM     26  C   UNL     1      -4.727   1.310   7.325  1.00  0.00    -0.000 C 
BRANCH  26  27
ATOM     27  C   UNL     1      -4.585  -0.032   8.065  1.00  0.00    -0.000 C 
BRANCH  27  28
ATOM     28  C   UNL     1      -3.493  -0.934   7.464  1.00  0.00    -0.000 C 
BRANCH  28  29
ATOM     29  C   UNL     1      -3.995  -2.360   7.187  1.00  0.00    -0.003 C 
ATOM     30  C   UNL     1      -5.331  -2.659   7.869  1.00  0.00     0.004 C 
ENDBRANCH  28  29
ENDBRANCH  27  28
ENDBRANCH  26  27
ENDBRANCH  25  26
ENDBRANCH  24  25
ENDBRANCH  23  24
ENDBRANCH  22  23
ENDBRANCH  21  22
ENDBRANCH  20  21
ENDBRANCH  19  20
ENDBRANCH  18  19
ENDBRANCH  17  18
ENDBRANCH   1  17
TORSDOF 26
ENDMDL
MODEL 3
REMARK VINA RESULT:    -3.379      4.215      9.771
REMARK INTER + INTRA:         -12.280
REMARK INTER:                  -8.797
REMARK INTRA:                  -3.483
REMARK UNBOUND:                -3.766
REMARK SMILES CCCCCCCCCCCCCCCCCCCCCCCCCCCC(=O)[O-]
REMARK SMILES IDX 15 1 16 2 17 3 18 4 19 5 20 6 21 7 22 8 23 9 24 10 25 11
REMARK SMILES IDX 26 12 27 13 28 14 29 15 30 16 14 17 13 18 12 19 11 20 10 21
REMARK SMILES IDX 9 22 8 23 7 24 6 25 5 26 4 27 3 28 2 29 1 30
REMARK H PARENT
REMARK Flexibility Score: inf
ROOT
ATOM      1  C   UNL     1      -2.025  -0.504  -7.509  1.00  0.00     0.000 C 
ENDROOT
BRANCH   1   2
ATOM      2  C   UNL     1      -1.524   0.211  -8.776  1.00  0.00     0.000 C 
BRANCH   2   3
ATOM      3  C   UNL     1      -2.661   0.883  -9.563  1.00  0.00     0.000 C 
BRANCH   3   4
ATOM      4  C   UNL     1      -2.514   2.414  -9.616  1.00  0.00     0.000 C 
BRANCH   4   5
ATOM      5  C   UNL     1      -3.843   3.127  -9.907  1.00  0.00     0.000 C 
BRANCH   5   6
ATOM      6  C   UNL     1      -5.060   2.192  -9.788  1.00  0.00     0.000 C 
BRANCH   6   7
ATOM      7  C   UNL     1      -5.806   2.366  -8.455  1.00  0.00     0.000 C 
BRANCH   7   8
ATOM      8  C   UNL     1      -7.126   3.141  -8.611  1.00  0.00     0.000 C 
BRANCH   8   9
ATOM      9  C   UNL     1      -6.919   4.546  -9.199  1.00  0.00     0.000 C 
BRANCH   9  10
ATOM     10  C   UNL     1      -6.546   5.583  -8.130  1.00  0.00     0.000 C 
BRANCH  10  11
ATOM     11  C   UNL     1      -5.131   6.130  -8.360  1.00  0.00     0.000 C 
BRANCH  11  12
ATOM     12  C   UNL     1      -4.910   7.429  -7.572  1.00  0.00     0.006 C 
BRANCH  12  13
ATOM     13  C   UNL     1      -3.867   7.263  -6.460  1.00  0.00     0.053 C 
BRANCH  13  14
ATOM     14  C   UNL     1      -4.434   7.594  -5.113  1.00  0.00     0.041 C 
ATOM     15  O   UNL     1      -5.677   7.728  -4.963  1.00  0.00    -0.550 OA
ATOM     16  O   UNL     1      -3.586   7.781  -4.028  1.00  0.00    -0.550 OA
ENDBRANCH  13  14
ENDBRANCH  12  13
ENDBRANCH  11  12
ENDBRANCH  10  11
ENDBRANCH   9  10
ENDBRANCH   8   9
ENDBRANCH   7   8
ENDBRANCH   6   7
ENDBRANCH   5   6
ENDBRANCH   4   5
ENDBRANCH   3   4
ENDBRANCH   2   3
ENDBRANCH   1   2
BRANCH   1  17
ATOM     17  C   UNL     1      -3.549  -0.410  -7.341  1.00  0.00     0.000 C 
BRANCH  17  18
ATOM     18  C   UNL     1      -4.099  -1.454  -6.355  1.00  0.00     0.000 C 
BRANCH  18  19
ATOM     19  C   UNL     1      -4.806  -0.821  -5.144  1.00  0.00     0.000 C 
BRANCH  19  20
ATOM     20  C   UNL     1      -5.843   0.257  -5.523  1.00  0.00     0.000 C 
BRANCH  20  21
ATOM     21  C   UNL     1      -7.288  -0.216  -5.298  1.00  0.00     0.000 C 
BRANCH  21  22
ATOM     22  C   UNL     1      -7.732  -1.179  -6.405  1.00  0.00    -0.000 C 
BRANCH  22  23
ATOM     23  C   UNL     1      -8.013  -0.421  -7.711  1.00  0.00    -0.000 C 
BRANCH  23  24
ATOM     24  C   UNL     1      -7.518  -1.180  -8.952  1.00  0.00    -0.000 C 
BRANCH  24  25
ATOM     25  C   UNL     1      -6.445  -2.230  -8.613  1.00  0.00    -0.000 C 
BRANCH  25  26
ATOM     26  C   UNL     1      -6.964  -3.675  -8.732  1.00  0.00    -0.000 C 
BRANCH  26  27
ATOM     27  C   UNL     1      -6.684  -4.568  -7.509  1.00  0.00    -0.000 C 
BRANCH  27  28
ATOM     28  C   UNL     1      -5.221  -5.038  -7.435  1.00  0.00    -0.000 C 
BRANCH  28  29
ATOM     29  C   UNL     1      -5.097  -6.571  -7.418  1.00  0.00    -0.003 C 
ATOM     30  C   UNL     1      -6.454  -7.273  -7.364  1.00  0.00     0.004 C 
ENDBRANCH  28  29
ENDBRANCH  27  28
ENDBRANCH  26  27
ENDBRANCH  25  26
ENDBRANCH  24  25
ENDBRANCH  23  24
ENDBRANCH  22  23
ENDBRANCH  21  22
ENDBRANCH  20  21
ENDBRANCH  19  20
ENDBRANCH  18  19
ENDBRANCH  17  18
ENDBRANCH   1  17
TORSDOF 26
ENDMDL
MODEL 4
REMARK VINA RESULT:    -3.226      1.857      3.773
REMARK INTER + INTRA:         -11.896
REMARK INTER:                  -8.245
REMARK INTRA:                  -3.650
REMARK UNBOUND:                -3.766
REMARK SMILES CCCCCCCCCCCCCCCCCCCCCCCCCCCC(=O)[O-]
REMARK SMILES IDX 15 1 16 2 17 3 18 4 19 5 20 6 21 7 22 8 23 9 24 10 25 11
REMARK SMILES IDX 26 12 27 13 28 14 29 15 30 16 14 17 13 18 12 19 11 20 10 21
REMARK SMILES IDX 9 22 8 23 7 24 6 25 5 26 4 27 3 28 2 29 1 30
REMARK H PARENT
REMARK Flexibility Score: inf
ROOT
ATOM      1  C   UNL     1      -1.651   0.366  -9.390  1.00  0.00     0.000 C 
ENDROOT
BRANCH   1   2
ATOM      2  C   UNL     1      -1.766   0.146  -7.872  1.00  0.00     0.000 C 
BRANCH   2   3
ATOM      3  C   UNL     1      -2.797  -0.936  -7.509  1.00  0.00     0.000 C 
BRANCH   3   4
ATOM      4  C   UNL     1      -3.912  -0.402  -6.593  1.00  0.00     0.000 C 
BRANCH   4   5
ATOM      5  C   UNL     1      -4.369  -1.435  -5.552  1.00  0.00     0.000 C 
BRANCH   5   6
ATOM      6  C   UNL     1      -5.500  -0.912  -4.648  1.00  0.00     0.000 C 
BRANCH   6   7
ATOM      7  C   UNL     1      -5.497   0.622  -4.533  1.00  0.00     0.000 C 
BRANCH   7   8
ATOM      8  C   UNL     1      -6.908   1.203  -4.343  1.00  0.00     0.000 C 
BRANCH   8   9
ATOM      9  C   UNL     1      -7.777   1.068  -5.603  1.00  0.00     0.000 C 
BRANCH   9  10
ATOM     10  C   UNL     1      -6.983   1.312  -6.895  1.00  0.00     0.000 C 
BRANCH  10  11
ATOM     11  C   UNL     1      -7.547   0.481  -8.055  1.00  0.00     0.000 C 
BRANCH  11  12
ATOM     12  C   UNL     1      -7.347  -1.021  -7.803  1.00  0.00     0.006 C 
BRANCH  12  13
ATOM     13  C   UNL     1      -6.445  -1.672  -8.859  1.00  0.00     0.053 C 
BRANCH  13  14
ATOM     14  C   UNL     1      -5.941  -3.009  -8.410  1.00  0.00     0.041 C 
ATOM     15  O   UNL     1      -4.836  -3.444  -8.827  1.00  0.00    -0.550 OA
ATOM     16  O   UNL     1      -6.706  -3.787  -7.549  1.00  0.00    -0.550 OA
ENDBRANCH  13  14
ENDBRANCH  12  13
ENDBRANCH  11  12
ENDBRANCH  10  11
ENDBRANCH   9  10
ENDBRANCH   8   9
ENDBRANCH   7   8
ENDBRANCH   6   7
ENDBRANCH   5   6
ENDBRANCH   4   5
ENDBRANCH   3   4
ENDBRANCH   2   3
ENDBRANCH   1   2
BRANCH   1  17
ATOM     17  C   UNL     1      -2.148   1.755  -9.825  1.00  0.00     0.000 C 
BRANCH  17  18
ATOM     18  C   UNL     1      -3.674   1.898  -9.707  1.00  0.00     0.000 C 
BRANCH  18  19
ATOM     19  C   UNL     1      -4.143   3.363  -9.731  1.00  0.00     0.000 C 
BRANCH  19  20
ATOM     20  C   UNL     1      -5.677   3.523  -9.774  1.00  0.00     0.000 C 
BRANCH  20  21
ATOM     21  C   UNL     1      -6.197   4.474  -8.685  1.00  0.00     0.000 C 
BRANCH  21  22
ATOM     22  C   UNL     1      -5.850   5.931  -9.013  1.00  0.00    -0.000 C 
BRANCH  22  23
ATOM     23  C   UNL     1      -4.633   6.401  -8.201  1.00  0.00    -0.000 C 
BRANCH  23  24
ATOM     24  C   UNL     1      -5.032   7.125  -6.906  1.00  0.00    -0.000 C 
BRANCH  24  25
ATOM     25  C   UNL     1      -6.182   8.125  -7.118  1.00  0.00    -0.000 C 
BRANCH  25  26
ATOM     26  C   UNL     1      -7.327   7.943  -6.105  1.00  0.00    -0.000 C 
BRANCH  26  27
ATOM     27  C   UNL     1      -7.844   6.500  -5.962  1.00  0.00    -0.000 C 
BRANCH  27  28
ATOM     28  C   UNL     1      -7.733   5.965  -4.524  1.00  0.00    -0.000 C 
BRANCH  28  29
ATOM     29  C   UNL     1      -7.747   7.091  -3.476  1.00  0.00    -0.003 C 
ATOM     30  C   UNL     1      -6.533   7.051  -2.549  1.00  0.00     0.004 C 
ENDBRANCH  28  29
ENDBRANCH  27  28
ENDBRANCH  26  27
ENDBRANCH  25  26
ENDBRANCH  24  25
ENDBRANCH  23  24
ENDBRANCH  22  23
ENDBRANCH  21  22
ENDBRANCH  20  21
ENDBRANCH  19  20
ENDBRANCH  18  19
ENDBRANCH  17  18
ENDBRANCH   1  17
TORSDOF 26
ENDMDL
MODEL 5
REMARK VINA RESULT:    -3.208      9.461     13.550
REMARK INTER + INTRA:         -11.849
REMARK INTER:                 -11.300
REMARK INTRA:                  -0.549
REMARK UNBOUND:                -3.766
REMARK SMILES CCCCCCCCCCCCCCCCCCCCCCCCCCCC(=O)[O-]
REMARK SMILES IDX 15 1 16 2 17 3 18 4 19 5 20 6 21 7 22 8 23 9 24 10 25 11
REMARK SMILES IDX 26 12 27 13 28 14 29 15 30 16 14 17 13 18 12 19 11 20 10 21
REMARK SMILES IDX 9 22 8 23 7 24 6 25 5 26 4 27 3 28 2 29 1 30
REMARK H PARENT
REMARK Flexibility Score: inf
ROOT
ATOM      1  C   UNL     1      -7.552   1.125   2.415  1.00  0.00     0.000 C 
ENDROOT
BRANCH   1   2
ATOM      2  C   UNL     1      -7.978   2.531   2.870  1.00  0.00     0.000 C 
BRANCH   2   3
ATOM      3  C   UNL     1      -8.125   3.513   1.696  1.00  0.00     0.000 C 
BRANCH   3   4
ATOM      4  C   UNL     1      -7.648   2.911   0.363  1.00  0.00     0.000 C 
BRANCH   4   5
ATOM      5  C   UNL     1      -6.935   3.939  -0.529  1.00  0.00     0.000 C 
BRANCH   5   6
ATOM      6  C   UNL     1      -6.946   5.357   0.068  1.00  0.00     0.000 C 
BRANCH   6   7
ATOM      7  C   UNL     1      -6.285   6.390  -0.859  1.00  0.00     0.000 C 
BRANCH   7   8
ATOM      8  C   UNL     1      -7.096   6.639  -2.143  1.00  0.00     0.000 C 
BRANCH   8   9
ATOM      9  C   UNL     1      -6.486   7.740  -3.023  1.00  0.00     0.000 C 
BRANCH   9  10
ATOM     10  C   UNL     1      -5.068   7.395  -3.500  1.00  0.00     0.000 C 
BRANCH  10  11
ATOM     11  C   UNL     1      -4.884   7.739  -4.984  1.00  0.00     0.000 C 
BRANCH  11  12
ATOM     12  C   UNL     1      -3.451   7.436  -5.445  1.00  0.00     0.006 C 
BRANCH  12  13
ATOM     13  C   UNL     1      -3.380   7.100  -6.940  1.00  0.00     0.053 C 
BRANCH  13  14
ATOM     14  C   UNL     1      -4.741   7.067  -7.565  1.00  0.00     0.041 C 
ATOM     15  O   UNL     1      -4.891   7.378  -8.776  1.00  0.00    -0.550 OA
ATOM     16  O   UNL     1      -5.848   6.716  -6.802  1.00  0.00    -0.550 OA
ENDBRANCH  13  14
ENDBRANCH  12  13
ENDBRANCH  11  12
ENDBRANCH  10  11
ENDBRANCH   9  10
ENDBRANCH   8   9
ENDBRANCH   7   8
ENDBRANCH   6   7
ENDBRANCH   5   6
ENDBRANCH   4   5
ENDBRANCH   3   4
ENDBRANCH   2   3
ENDBRANCH   1   2
BRANCH   1  17
ATOM     17  C   UNL     1      -7.031   0.261   3.574  1.00  0.00     0.000 C 
BRANCH  17  18
ATOM     18  C   UNL     1      -7.277   0.907   4.947  1.00  0.00     0.000 C 
BRANCH  18  19
ATOM     19  C   UNL     1      -7.165  -0.094   6.110  1.00  0.00     0.000 C 
BRANCH  19  20
ATOM     20  C   UNL     1      -6.580  -1.461   5.699  1.00  0.00     0.000 C 
BRANCH  20  21
ATOM     21  C   UNL     1      -6.656  -2.494   6.834  1.00  0.00     0.000 C 
BRANCH  21  22
ATOM     22  C   UNL     1      -5.421  -3.404   6.837  1.00  0.00    -0.000 C 
BRANCH  22  23
ATOM     23  C   UNL     1      -4.134  -2.579   6.987  1.00  0.00    -0.000 C 
BRANCH  23  24
ATOM     24  C   UNL     1      -3.768  -2.319   8.457  1.00  0.00    -0.000 C 
BRANCH  24  25
ATOM     25  C   UNL     1      -3.726  -0.819   8.798  1.00  0.00    -0.000 C 
BRANCH  25  26
ATOM     26  C   UNL     1      -3.698   0.078   7.547  1.00  0.00    -0.000 C 
BRANCH  26  27
ATOM     27  C   UNL     1      -2.569   1.125   7.524  1.00  0.00    -0.000 C 
BRANCH  27  28
ATOM     28  C   UNL     1      -2.580   2.043   8.759  1.00  0.00    -0.000 C 
BRANCH  28  29
ATOM     29  C   UNL     1      -3.492   3.266   8.574  1.00  0.00    -0.003 C 
ATOM     30  C   UNL     1      -3.202   4.378   9.582  1.00  0.00     0.004 C 
ENDBRANCH  28  29
ENDBRANCH  27  28
ENDBRANCH  26  27
ENDBRANCH  25  26
ENDBRANCH  24  25
ENDBRANCH  23  24
ENDBRANCH  22  23
ENDBRANCH  21  22
ENDBRANCH  20  21
ENDBRANCH  19  20
ENDBRANCH  18  19
ENDBRANCH  17  18
ENDBRANCH   1  17
TORSDOF 26
ENDMDL
MODEL 6
REMARK VINA RESULT:    -3.031      6.130      9.061
REMARK INTER + INTRA:         -11.405
REMARK INTER:                 -10.221
REMARK INTRA:                  -1.184
REMARK UNBOUND:                -3.766
REMARK SMILES CCCCCCCCCCCCCCCCCCCCCCCCCCCC(=O)[O-]
REMARK SMILES IDX 15 1 16 2 17 3 18 4 19 5 20 6 21 7 22 8 23 9 24 10 25 11
REMARK SMILES IDX 26 12 27 13 28 14 29 15 30 16 14 17 13 18 12 19 11 20 10 21
REMARK SMILES IDX 9 22 8 23 7 24 6 25 5 26 4 27 3 28 2 29 1 30
REMARK H PARENT
REMARK Flexibility Score: inf
ROOT
ATOM      1  C   UNL     1      -6.245   6.773  -3.347  1.00  0.00     0.000 C 
ENDROOT
BRANCH   1   2
ATOM      2  C   UNL     1      -7.560   6.879  -2.555  1.00  0.00     0.000 C 
BRANCH   2   3
ATOM      3  C   UNL     1      -7.955   5.552  -1.886  1.00  0.00     0.000 C 
BRANCH   3   4
ATOM      4  C   UNL     1      -6.942   5.109  -0.815  1.00  0.00     0.000 C 
BRANCH   4   5
ATOM      5  C   UNL     1      -7.181   3.670  -0.333  1.00  0.00     0.000 C 
BRANCH   5   6
ATOM      6  C   UNL     1      -7.678   3.604   1.123  1.00  0.00     0.000 C 
BRANCH   6   7
ATOM      7  C   UNL     1      -7.953   2.163   1.584  1.00  0.00     0.000 C 
BRANCH   7   8
ATOM      8  C   UNL     1      -6.993   1.705   2.696  1.00  0.00     0.000 C 
BRANCH   8   9
ATOM      9  C   UNL     1      -7.412   0.366   3.324  1.00  0.00     0.000 C 
BRANCH   9  10
ATOM     10  C   UNL     1      -7.825  -0.673   2.271  1.00  0.00     0.000 C 
BRANCH  10  11
ATOM     11  C   UNL     1      -7.741  -2.097   2.837  1.00  0.00     0.000 C 
BRANCH  11  12
ATOM     12  C   UNL     1      -6.884  -2.130   4.112  1.00  0.00     0.006 C 
BRANCH  12  13
ATOM     13  C   UNL     1      -6.421  -3.550   4.463  1.00  0.00     0.053 C 
BRANCH  13  14
ATOM     14  C   UNL     1      -6.322  -3.751   5.944  1.00  0.00     0.041 C 
ATOM     15  O   UNL     1      -6.675  -4.843   6.462  1.00  0.00    -0.550 OA
ATOM     16  O   UNL     1      -5.862  -2.721   6.756  1.00  0.00    -0.550 OA
ENDBRANCH  13  14
ENDBRANCH  12  13
ENDBRANCH  11  12
ENDBRANCH  10  11
ENDBRANCH   9  10
ENDBRANCH   8   9
ENDBRANCH   7   8
ENDBRANCH   6   7
ENDBRANCH   5   6
ENDBRANCH   4   5
ENDBRANCH   3   4
ENDBRANCH   2   3
ENDBRANCH   1   2
BRANCH   1  17
ATOM     17  C   UNL     1      -5.905   8.068  -4.101  1.00  0.00     0.000 C 
BRANCH  17  18
ATOM     18  C   UNL     1      -5.449   7.806  -5.545  1.00  0.00     0.000 C 
BRANCH  18  19
ATOM     19  C   UNL     1      -3.982   7.352  -5.639  1.00  0.00     0.000 C 
BRANCH  19  20
ATOM     20  C   UNL     1      -3.255   7.853  -6.905  1.00  0.00     0.000 C 
BRANCH  20  21
ATOM     21  C   UNL     1      -2.802   6.700  -7.814  1.00  0.00     0.000 C 
BRANCH  21  22
ATOM     22  C   UNL     1      -3.989   5.820  -8.223  1.00  0.00    -0.000 C 
BRANCH  22  23
ATOM     23  C   UNL     1      -3.754   5.190  -9.604  1.00  0.00    -0.000 C 
BRANCH  23  24
ATOM     24  C   UNL     1      -4.084   3.690  -9.631  1.00  0.00    -0.000 C 
BRANCH  24  25
ATOM     25  C   UNL     1      -2.855   2.810  -9.343  1.00  0.00    -0.000 C 
BRANCH  25  26
ATOM     26  C   UNL     1      -3.171   1.304  -9.400  1.00  0.00    -0.000 C 
BRANCH  26  27
ATOM     27  C   UNL     1      -4.511   0.897  -8.758  1.00  0.00    -0.000 C 
BRANCH  27  28
ATOM     28  C   UNL     1      -4.330   0.067  -7.475  1.00  0.00    -0.000 C 
BRANCH  28  29
ATOM     29  C   UNL     1      -5.531   0.192  -6.522  1.00  0.00    -0.003 C 
ATOM     30  C   UNL     1      -5.121   0.168  -5.049  1.00  0.00     0.004 C 
ENDBRANCH  28  29
ENDBRANCH  27  28
ENDBRANCH  26  27
ENDBRANCH  25  26
ENDBRANCH  24  25
ENDBRANCH  23  24
ENDBRANCH  22  23
ENDBRANCH  21  22
ENDBRANCH  20  21
ENDBRANCH  19  20
ENDBRANCH  18  19
ENDBRANCH  17  18
ENDBRANCH   1  17
TORSDOF 26
ENDMDL
MODEL 7
REMARK VINA RESULT:    -2.986      3.741      9.779
REMARK INTER + INTRA:         -11.291
REMARK INTER:                  -8.549
REMARK INTRA:                  -2.742
REMARK UNBOUND:                -3.766
REMARK SMILES CCCCCCCCCCCCCCCCCCCCCCCCCCCC(=O)[O-]
REMARK SMILES IDX 15 1 16 2 17 3 18 4 19 5 20 6 21 7 22 8 23 9 24 10 25 11
REMARK SMILES IDX 26 12 27 13 28 14 29 15 30 16 14 17 13 18 12 19 11 20 10 21
REMARK SMILES IDX 9 22 8 23 7 24 6 25 5 26 4 27 3 28 2 29 1 30
REMARK H PARENT
REMARK Flexibility Score: inf
ROOT
ATOM      1  C   UNL     1      -7.546   0.164  -7.118  1.00  0.00     0.000 C 
ENDROOT
BRANCH   1   2
ATOM      2  C   UNL     1      -7.985   1.636  -7.193  1.00  0.00     0.000 C 
BRANCH   2   3
ATOM      3  C   UNL     1      -6.945   2.528  -7.890  1.00  0.00     0.000 C 
BRANCH   3   4
ATOM      4  C   UNL     1      -7.578   3.462  -8.936  1.00  0.00     0.000 C 
BRANCH   4   5
ATOM      5  C   UNL     1      -7.437   4.947  -8.567  1.00  0.00     0.000 C 
BRANCH   5   6
ATOM      6  C   UNL     1      -7.478   5.190  -7.047  1.00  0.00     0.000 C 
BRANCH   6   7
ATOM      7  C   UNL     1      -7.534   6.686  -6.693  1.00  0.00     0.000 C 
BRANCH   7   8
ATOM      8  C   UNL     1      -7.236   6.954  -5.208  1.00  0.00     0.000 C 
BRANCH   8   9
ATOM      9  C   UNL     1      -6.126   7.997  -5.007  1.00  0.00     0.000 C 
BRANCH   9  10
ATOM     10  C   UNL     1      -5.040   7.519  -4.032  1.00  0.00     0.000 C 
BRANCH  10  11
ATOM     11  C   UNL     1      -3.641   7.902  -4.532  1.00  0.00     0.000 C 
BRANCH  11  12
ATOM     12  C   UNL     1      -3.643   8.122  -6.053  1.00  0.00     0.006 C 
BRANCH  12  13
ATOM     13  C   UNL     1      -3.268   6.850  -6.824  1.00  0.00     0.053 C 
BRANCH  13  14
ATOM     14  C   UNL     1      -4.027   6.738  -8.111  1.00  0.00     0.041 C 
ATOM     15  O   UNL     1      -4.751   7.689  -8.506  1.00  0.00    -0.550 OA
ATOM     16  O   UNL     1      -3.954   5.571  -8.861  1.00  0.00    -0.550 OA
ENDBRANCH  13  14
ENDBRANCH  12  13
ENDBRANCH  11  12
ENDBRANCH  10  11
ENDBRANCH   9  10
ENDBRANCH   8   9
ENDBRANCH   7   8
ENDBRANCH   6   7
ENDBRANCH   5   6
ENDBRANCH   4   5
ENDBRANCH   3   4
ENDBRANCH   2   3
ENDBRANCH   1   2
BRANCH   1  17
ATOM     17  C   UNL     1      -7.342  -0.319  -5.673  1.00  0.00     0.000 C 
BRANCH  17  18
ATOM     18  C   UNL     1      -6.343   0.554  -4.896  1.00  0.00     0.000 C 
BRANCH  18  19
ATOM     19  C   UNL     1      -4.954  -0.095  -4.764  1.00  0.00     0.000 C 
BRANCH  19  20
ATOM     20  C   UNL     1      -4.712  -1.252  -5.757  1.00  0.00     0.000 C 
BRANCH  20  21
ATOM     21  C   UNL     1      -3.609  -0.926  -6.775  1.00  0.00     0.000 C 
BRANCH  21  22
ATOM     22  C   UNL     1      -3.995   0.279  -7.642  1.00  0.00    -0.000 C 
BRANCH  22  23
ATOM     23  C   UNL     1      -3.201   0.285  -8.957  1.00  0.00    -0.000 C 
BRANCH  23  24
ATOM     24  C   UNL     1      -3.945  -0.424 -10.099  1.00  0.00    -0.000 C 
BRANCH  24  25
ATOM     25  C   UNL     1      -5.133  -1.264  -9.598  1.00  0.00    -0.000 C 
BRANCH  25  26
ATOM     26  C   UNL     1      -4.873  -2.780  -9.686  1.00  0.00    -0.000 C 
BRANCH  26  27
ATOM     27  C   UNL     1      -5.883  -3.658  -8.926  1.00  0.00    -0.000 C 
BRANCH  27  28
ATOM     28  C   UNL     1      -5.442  -5.129  -8.829  1.00  0.00    -0.000 C 
BRANCH  28  29
ATOM     29  C   UNL     1      -5.804  -5.763  -7.476  1.00  0.00    -0.003 C 
ATOM     30  C   UNL     1      -5.128  -7.116  -7.257  1.00  0.00     0.004 C 
ENDBRANCH  28  29
ENDBRANCH  27  28
ENDBRANCH  26  27
ENDBRANCH  25  26
ENDBRANCH  24  25
ENDBRANCH  23  24
ENDBRANCH  22  23
ENDBRANCH  21  22
ENDBRANCH  20  21
ENDBRANCH  19  20
ENDBRANCH  18  19
ENDBRANCH  17  18
ENDBRANCH   1  17
TORSDOF 26
ENDMDL
MODEL 8
REMARK VINA RESULT:    -2.974     10.390     13.036
REMARK INTER + INTRA:         -11.261
REMARK INTER:                  -9.513
REMARK INTRA:                  -1.748
REMARK UNBOUND:                -3.766
REMARK SMILES CCCCCCCCCCCCCCCCCCCCCCCCCCCC(=O)[O-]
REMARK SMILES IDX 15 1 16 2 17 3 18 4 19 5 20 6 21 7 22 8 23 9 24 10 25 11
REMARK SMILES IDX 26 12 27 13 28 14 29 15 30 16 14 17 13 18 12 19 11 20 10 21
REMARK SMILES IDX 9 22 8 23 7 24 6 25 5 26 4 27 3 28 2 29 1 30
REMARK H PARENT
REMARK Flexibility Score: inf
ROOT
ATOM      1  C   UNL     1      -7.774  -2.377   3.766  1.00  0.00     0.000 C 
ENDROOT
BRANCH   1   2
ATOM      2  C   UNL     1      -7.973  -2.791   5.235  1.00  0.00     0.000 C 
BRANCH   2   3
ATOM      3  C   UNL     1      -7.250  -4.103   5.582  1.00  0.00     0.000 C 
BRANCH   3   4
ATOM      4  C   UNL     1      -8.119  -5.047   6.431  1.00  0.00     0.000 C 
BRANCH   4   5
ATOM      5  C   UNL     1      -7.368  -5.608   7.648  1.00  0.00     0.000 C 
BRANCH   5   6
ATOM      6  C   UNL     1      -7.915  -5.074   8.984  1.00  0.00     0.000 C 
BRANCH   6   7
ATOM      7  C   UNL     1      -7.183  -3.806   9.454  1.00  0.00     0.000 C 
BRANCH   7   8
ATOM      8  C   UNL     1      -5.653  -3.956   9.411  1.00  0.00     0.000 C 
BRANCH   8   9
ATOM      9  C   UNL     1      -4.922  -2.628   9.661  1.00  0.00     0.000 C 
BRANCH   9  10
ATOM     10  C   UNL     1      -3.690  -2.454   8.761  1.00  0.00     0.000 C 
BRANCH  10  11
ATOM     11  C   UNL     1      -4.096  -2.032   7.343  1.00  0.00     0.000 C 
BRANCH  11  12
ATOM     12  C   UNL     1      -3.807  -0.541   7.110  1.00  0.00     0.006 C 
BRANCH  12  13
ATOM     13  C   UNL     1      -5.036   0.337   7.373  1.00  0.00     0.053 C 
BRANCH  13  14
ATOM     14  C   UNL     1      -4.662   1.778   7.545  1.00  0.00     0.041 C 
ATOM     15  O   UNL     1      -3.849   2.322   6.753  1.00  0.00    -0.550 OA
ATOM     16  O   UNL     1      -5.194   2.513   8.598  1.00  0.00    -0.550 OA
ENDBRANCH  13  14
ENDBRANCH  12  13
ENDBRANCH  11  12
ENDBRANCH  10  11
ENDBRANCH   9  10
ENDBRANCH   8   9
ENDBRANCH   7   8
ENDBRANCH   6   7
ENDBRANCH   5   6
ENDBRANCH   4   5
ENDBRANCH   3   4
ENDBRANCH   2   3
ENDBRANCH   1   2
BRANCH   1  17
ATOM     17  C   UNL     1      -6.780  -1.216   3.609  1.00  0.00     0.000 C 
BRANCH  17  18
ATOM     18  C   UNL     1      -7.260  -0.162   2.598  1.00  0.00     0.000 C 
BRANCH  18  19
ATOM     19  C   UNL     1      -7.105   1.279   3.113  1.00  0.00     0.000 C 
BRANCH  19  20
ATOM     20  C   UNL     1      -8.125   2.268   2.509  1.00  0.00     0.000 C 
BRANCH  20  21
ATOM     21  C   UNL     1      -7.452   3.345   1.644  1.00  0.00     0.000 C 
BRANCH  21  22
ATOM     22  C   UNL     1      -7.541   2.992   0.154  1.00  0.00    -0.000 C 
BRANCH  22  23
ATOM     23  C   UNL     1      -8.099   4.171  -0.656  1.00  0.00    -0.000 C 
BRANCH  23  24
ATOM     24  C   UNL     1      -7.060   4.773  -1.615  1.00  0.00    -0.000 C 
BRANCH  24  25
ATOM     25  C   UNL     1      -7.031   6.310  -1.566  1.00  0.00    -0.000 C 
BRANCH  25  26
ATOM     26  C   UNL     1      -7.259   6.957  -2.945  1.00  0.00    -0.000 C 
BRANCH  26  27
ATOM     27  C   UNL     1      -6.030   7.667  -3.540  1.00  0.00    -0.000 C 
BRANCH  27  28
ATOM     28  C   UNL     1      -6.092   7.785  -5.073  1.00  0.00    -0.000 C 
BRANCH  28  29
ATOM     29  C   UNL     1      -4.725   7.554  -5.736  1.00  0.00    -0.003 C 
ATOM     30  C   UNL     1      -3.564   7.655  -4.747  1.00  0.00     0.004 C 
ENDBRANCH  28  29
ENDBRANCH  27  28
ENDBRANCH  26  27
ENDBRANCH  25  26
ENDBRANCH  24  25
ENDBRANCH  23  24
ENDBRANCH  22  23
ENDBRANCH  21  22
ENDBRANCH  20  21
ENDBRANCH  19  20
ENDBRANCH  18  19
ENDBRANCH  17  18
ENDBRANCH   1  17
TORSDOF 26
ENDMDL
MODEL 9
REMARK VINA RESULT:    -2.973     11.335     14.362
REMARK INTER + INTRA:         -11.257
REMARK INTER:                  -8.736
REMARK INTRA:                  -2.521
REMARK UNBOUND:                -3.766
REMARK SMILES CCCCCCCCCCCCCCCCCCCCCCCCCCCC(=O)[O-]
REMARK SMILES IDX 15 1 16 2 17 3 18 4 19 5 20 6 21 7 22 8 23 9 24 10 25 11
REMARK SMILES IDX 26 12 27 13 28 14 29 15 30 16 14 17 13 18 12 19 11 20 10 21
REMARK SMILES IDX 9 22 8 23 7 24 6 25 5 26 4 27 3 28 2 29 1 30
REMARK H PARENT
REMARK Flexibility Score: inf
ROOT
ATOM      1  C   UNL     1      -7.407  -5.331   6.990  1.00  0.00     0.000 C 
ENDROOT
BRANCH   1   2
ATOM      2  C   UNL     1      -7.494  -4.506   8.286  1.00  0.00     0.000 C 
BRANCH   2   3
ATOM      3  C   UNL     1      -6.141  -4.396   9.008  1.00  0.00     0.000 C 
BRANCH   3   4
ATOM      4  C   UNL     1      -6.128  -3.280  10.068  1.00  0.00     0.000 C 
BRANCH   4   5
ATOM      5  C   UNL     1      -5.660  -1.931   9.502  1.00  0.00     0.000 C 
BRANCH   5   6
ATOM      6  C   UNL     1      -6.454  -0.739  10.067  1.00  0.00     0.000 C 
BRANCH   6   7
ATOM      7  C   UNL     1      -7.228   0.021   8.977  1.00  0.00     0.000 C 
BRANCH   7   8
ATOM      8  C   UNL     1      -7.074  -0.619   7.587  1.00  0.00     0.000 C 
BRANCH   8   9
ATOM      9  C   UNL     1      -6.903   0.425   6.472  1.00  0.00     0.000 C 
BRANCH   9  10
ATOM     10  C   UNL     1      -5.458   0.509   5.960  1.00  0.00     0.000 C 
BRANCH  10  11
ATOM     11  C   UNL     1      -4.597   1.388   6.877  1.00  0.00     0.000 C 
BRANCH  11  12
ATOM     12  C   UNL     1      -3.228   0.739   7.132  1.00  0.00     0.006 C 
BRANCH  12  13
ATOM     13  C   UNL     1      -2.415   1.495   8.191  1.00  0.00     0.053 C 
BRANCH  13  14
ATOM     14  C   UNL     1      -3.284   2.389   9.023  1.00  0.00     0.041 C 
ATOM     15  O   UNL     1      -3.886   1.931  10.029  1.00  0.00    -0.550 OA
ATOM     16  O   UNL     1      -3.447   3.723   8.671  1.00  0.00    -0.550 OA
ENDBRANCH  13  14
ENDBRANCH  12  13
ENDBRANCH  11  12
ENDBRANCH  10  11
ENDBRANCH   9  10
ENDBRANCH   8   9
ENDBRANCH   7   8
ENDBRANCH   6   7
ENDBRANCH   5   6
ENDBRANCH   4   5
ENDBRANCH   3   4
ENDBRANCH   2   3
ENDBRANCH   1   2
BRANCH   1  17
ATOM     17  C   UNL     1      -6.666  -4.590   5.867  1.00  0.00     0.000 C 
BRANCH  17  18
ATOM     18  C   UNL     1      -7.625  -3.914   4.874  1.00  0.00     0.000 C 
BRANCH  18  19
ATOM     19  C   UNL     1      -7.057  -2.612   4.282  1.00  0.00     0.000 C 
BRANCH  19  20
ATOM     20  C   UNL     1      -8.125  -1.709   3.628  1.00  0.00     0.000 C 
BRANCH  20  21
ATOM     21  C   UNL     1      -7.621  -1.050   2.335  1.00  0.00     0.000 C 
BRANCH  21  22
ATOM     22  C   UNL     1      -7.056   0.348   2.612  1.00  0.00    -0.000 C 
BRANCH  22  23
ATOM     23  C   UNL     1      -7.898   1.428   1.916  1.00  0.00    -0.000 C 
BRANCH  23  24
ATOM     24  C   UNL     1      -7.224   2.808   1.940  1.00  0.00    -0.000 C 
BRANCH  24  25
ATOM     25  C   UNL     1      -7.891   3.808   0.979  1.00  0.00    -0.000 C 
BRANCH  25  26
ATOM     26  C   UNL     1      -6.942   4.939   0.540  1.00  0.00    -0.000 C 
BRANCH  26  27
ATOM     27  C   UNL     1      -7.504   6.362   0.714  1.00  0.00    -0.000 C 
BRANCH  27  28
ATOM     28  C   UNL     1      -6.921   7.362  -0.300  1.00  0.00    -0.000 C 
BRANCH  28  29
ATOM     29  C   UNL     1      -5.919   6.705  -1.263  1.00  0.00    -0.003 C 
ATOM     30  C   UNL     1      -6.207   7.030  -2.728  1.00  0.00     0.004 C 
ENDBRANCH  28  29
ENDBRANCH  27  28
ENDBRANCH  26  27
ENDBRANCH  25  26
ENDBRANCH  24  25
ENDBRANCH  23  24
ENDBRANCH  22  23
ENDBRANCH  21  22
ENDBRANCH  20  21
ENDBRANCH  19  20
ENDBRANCH  18  19
ENDBRANCH  17  18
ENDBRANCH   1  17
TORSDOF 26
ENDMDL
