MODEL 1
REMARK VINA RESULT:    -3.712      0.000      0.000
REMARK INTER + INTRA:          -7.077
REMARK INTER:                  -5.990
REMARK INTRA:                  -1.087
REMARK UNBOUND:                -1.087
REMARK SMILES CCCCCCCCCCCCO
REMARK SMILES IDX 7 1 6 2 5 3 4 4 3 5 2 6 1 7 8 8 9 9 10 10 11 11 12 12 13 13
REMARK H PARENT 13 14
REMARK Flexibility Score: inf
ROOT
ATOM      1  C   UNL     1     129.416 145.069 108.312  1.00  0.00     0.000 C 
ENDROOT
BRANCH   1   2
ATOM      2  C   UNL     1     128.155 145.952 108.279  1.00  0.00    -0.000 C 
BRANCH   2   3
ATOM      3  C   UNL     1     127.055 145.387 107.364  1.00  0.00    -0.000 C 
BRANCH   3   4
ATOM      4  C   UNL     1     127.065 146.027 105.966  1.00  0.00    -0.000 C 
BRANCH   4   5
ATOM      5  C   UNL     1     127.450 145.030 104.861  1.00  0.00    -0.000 C 
BRANCH   5   6
ATOM      6  C   UNL     1     127.560 143.607 105.421  1.00  0.00    -0.003 C 
ATOM      7  C   UNL     1     128.961 143.039 105.213  1.00  0.00     0.004 C 
ENDBRANCH   5   6
ENDBRANCH   4   5
ENDBRANCH   3   4
ENDBRANCH   2   3
ENDBRANCH   1   2
BRANCH   1   8
ATOM      8  C   UNL     1     130.715 145.766 107.857  1.00  0.00     0.000 C 
BRANCH   8   9
ATOM      9  C   UNL     1     130.845 145.984 106.336  1.00  0.00     0.000 C 
BRANCH   9  10
ATOM     10  C   UNL     1     132.209 146.526 105.872  1.00  0.00     0.002 C 
BRANCH  10  11
ATOM     11  C   UNL     1     133.257 145.419 105.683  1.00  0.00     0.028 C 
BRANCH  11  12
ATOM     12  C   UNL     1     134.583 145.978 105.163  1.00  0.00     0.156 C 
BRANCH  12  13
ATOM     13  O   UNL     1     134.374 146.684 103.971  1.00  0.00    -0.396 OA
ATOM     14  H   UNL     1     133.407 146.591 103.763  1.00  0.00     0.210 HD
ENDBRANCH  12  13
ENDBRANCH  11  12
ENDBRANCH  10  11
ENDBRANCH   9  10
ENDBRANCH   8   9
ENDBRANCH   1   8
TORSDOF 11
ENDMDL
MODEL 2
REMARK VINA RESULT:    -3.653      1.220      2.840
REMARK INTER + INTRA:          -6.982
REMARK INTER:                  -5.582
REMARK INTRA:                  -1.401
REMARK UNBOUND:                -1.087
REMARK SMILES CCCCCCCCCCCCO
REMARK SMILES IDX 7 1 6 2 5 3 4 4 3 5 2 6 1 7 8 8 9 9 10 10 11 11 12 12 13 13
REMARK H PARENT 13 14
REMARK Flexibility Score: inf
ROOT
ATOM      1  C   UNL     1     129.690 143.337 105.430  1.00  0.00     0.000 C 
ENDROOT
BRANCH   1   2
ATOM      2  C   UNL     1     128.151 143.314 105.466  1.00  0.00    -0.000 C 
BRANCH   2   3
ATOM      3  C   UNL     1     127.520 144.537 104.779  1.00  0.00    -0.000 C 
BRANCH   3   4
ATOM      4  C   UNL     1     127.047 145.599 105.785  1.00  0.00    -0.000 C 
BRANCH   4   5
ATOM      5  C   UNL     1     127.027 145.079 107.231  1.00  0.00    -0.000 C 
BRANCH   5   6
ATOM      6  C   UNL     1     127.554 146.143 108.202  1.00  0.00    -0.003 C 
ATOM      7  C   UNL     1     128.133 145.503 109.461  1.00  0.00     0.004 C 
ENDBRANCH   5   6
ENDBRANCH   4   5
ENDBRANCH   3   4
ENDBRANCH   2   3
ENDBRANCH   1   2
BRANCH   1   8
ATOM      8  C   UNL     1     130.375 143.430 106.809  1.00  0.00     0.000 C 
BRANCH   8   9
ATOM      9  C   UNL     1     130.956 144.815 107.160  1.00  0.00     0.000 C 
BRANCH   9  10
ATOM     10  C   UNL     1     130.776 145.889 106.073  1.00  0.00     0.002 C 
BRANCH  10  11
ATOM     11  C   UNL     1     131.968 146.856 105.988  1.00  0.00     0.028 C 
BRANCH  11  12
ATOM     12  C   UNL     1     133.299 146.106 105.912  1.00  0.00     0.156 C 
BRANCH  12  13
ATOM     13  O   UNL     1     134.165 146.557 106.917  1.00  0.00    -0.396 OA
ATOM     14  H   UNL     1     133.720 147.343 107.329  1.00  0.00     0.210 HD
ENDBRANCH  12  13
ENDBRANCH  11  12
ENDBRANCH  10  11
ENDBRANCH   9  10
ENDBRANCH   8   9
ENDBRANCH   1   8
TORSDOF 11
ENDMDL
MODEL 3
REMARK VINA RESULT:    -3.647      3.265      5.572
REMARK INTER + INTRA:          -6.973
REMARK INTER:                  -5.703
REMARK INTRA:                  -1.269
REMARK UNBOUND:                -1.087
REMARK SMILES CCCCCCCCCCCCO
REMARK SMILES IDX 7 1 6 2 5 3 4 4 3 5 2 6 1 7 8 8 9 9 10 10 11 11 12 12 13 13
REMARK H PARENT 13 14
REMARK Flexibility Score: inf
ROOT
ATOM      1  C   UNL     1     127.598 145.212 105.244  1.00  0.00     0.000 C 
ENDROOT
BRANCH   1   2
ATOM      2  C   UNL     1     127.610 143.700 104.954  1.00  0.00    -0.000 C 
BRANCH   2   3
ATOM      3  C   UNL     1     128.688 142.949 105.753  1.00  0.00    -0.000 C 
BRANCH   3   4
ATOM      4  C   UNL     1     130.101 143.503 105.503  1.00  0.00    -0.000 C 
BRANCH   4   5
ATOM      5  C   UNL     1     130.792 143.969 106.794  1.00  0.00    -0.000 C 
BRANCH   5   6
ATOM      6  C   UNL     1     131.916 144.965 106.483  1.00  0.00    -0.003 C 
ATOM      7  C   UNL     1     131.352 146.336 106.119  1.00  0.00     0.004 C 
ENDBRANCH   5   6
ENDBRANCH   4   5
ENDBRANCH   3   4
ENDBRANCH   2   3
ENDBRANCH   1   2
BRANCH   1   8
ATOM      8  C   UNL     1     126.876 145.624 106.543  1.00  0.00     0.000 C 
BRANCH   8   9
ATOM      9  C   UNL     1     127.800 145.918 107.743  1.00  0.00     0.000 C 
BRANCH   9  10
ATOM     10  C   UNL     1     127.350 145.293 109.076  1.00  0.00     0.002 C 
BRANCH  10  11
ATOM     11  C   UNL     1     128.345 144.251 109.610  1.00  0.00     0.028 C 
BRANCH  11  12
ATOM     12  C   UNL     1     127.828 142.824 109.416  1.00  0.00     0.156 C 
BRANCH  12  13
ATOM     13  O   UNL     1     127.093 142.421 110.539  1.00  0.00    -0.396 OA
ATOM     14  H   UNL     1     126.157 142.306 110.227  1.00  0.00     0.210 HD
ENDBRANCH  12  13
ENDBRANCH  11  12
ENDBRANCH  10  11
ENDBRANCH   9  10
ENDBRANCH   8   9
ENDBRANCH   1   8
TORSDOF 11
ENDMDL
MODEL 4
REMARK VINA RESULT:    -3.591      3.360      5.501
REMARK INTER + INTRA:          -6.882
REMARK INTER:                  -5.375
REMARK INTRA:                  -1.507
REMARK UNBOUND:                -1.087
REMARK SMILES CCCCCCCCCCCCO
REMARK SMILES IDX 7 1 6 2 5 3 4 4 3 5 2 6 1 7 8 8 9 9 10 10 11 11 12 12 13 13
REMARK H PARENT 13 14
REMARK Flexibility Score: inf
ROOT
ATOM      1  C   UNL     1     127.186 145.755 106.296  1.00  0.00     0.000 C 
ENDROOT
BRANCH   1   2
ATOM      2  C   UNL     1     126.991 145.346 107.767  1.00  0.00    -0.000 C 
BRANCH   2   3
ATOM      3  C   UNL     1     128.020 145.996 108.708  1.00  0.00    -0.000 C 
BRANCH   3   4
ATOM      4  C   UNL     1     129.201 145.065 109.024  1.00  0.00    -0.000 C 
BRANCH   4   5
ATOM      5  C   UNL     1     130.540 145.604 108.496  1.00  0.00    -0.000 C 
BRANCH   5   6
ATOM      6  C   UNL     1     130.861 145.015 107.117  1.00  0.00    -0.003 C 
ATOM      7  C   UNL     1     130.937 146.108 106.055  1.00  0.00     0.004 C 
ENDBRANCH   5   6
ENDBRANCH   4   5
ENDBRANCH   3   4
ENDBRANCH   2   3
ENDBRANCH   1   2
BRANCH   1   8
ATOM      8  C   UNL     1     127.591 144.609 105.346  1.00  0.00     0.000 C 
BRANCH   8   9
ATOM      9  C   UNL     1     127.214 143.193 105.826  1.00  0.00     0.000 C 
BRANCH   9  10
ATOM     10  C   UNL     1     128.402 142.314 106.254  1.00  0.00     0.002 C 
BRANCH  10  11
ATOM     11  C   UNL     1     128.226 141.717 107.658  1.00  0.00     0.028 C 
BRANCH  11  12
ATOM     12  C   UNL     1     128.342 140.191 107.642  1.00  0.00     0.156 C 
BRANCH  12  13
ATOM     13  O   UNL     1     127.096 139.610 107.907  1.00  0.00    -0.396 OA
ATOM     14  H   UNL     1     126.999 138.862 107.262  1.00  0.00     0.210 HD
ENDBRANCH  12  13
ENDBRANCH  11  12
ENDBRANCH  10  11
ENDBRANCH   9  10
ENDBRANCH   8   9
ENDBRANCH   1   8
TORSDOF 11
ENDMDL
MODEL 5
REMARK VINA RESULT:    -3.562      3.388      5.065
REMARK INTER + INTRA:          -6.835
REMARK INTER:                  -5.383
REMARK INTRA:                  -1.452
REMARK UNBOUND:                -1.087
REMARK SMILES CCCCCCCCCCCCO
REMARK SMILES IDX 7 1 6 2 5 3 4 4 3 5 2 6 1 7 8 8 9 9 10 10 11 11 12 12 13 13
REMARK H PARENT 13 14
REMARK Flexibility Score: inf
ROOT
ATOM      1  C   UNL     1     131.269 144.463 106.788  1.00  0.00     0.000 C 
ENDROOT
BRANCH   1   2
ATOM      2  C   UNL     1     130.611 143.071 106.822  1.00  0.00    -0.000 C 
BRANCH   2   3
ATOM      3  C   UNL     1     129.764 142.782 105.571  1.00  0.00    -0.000 C 
BRANCH   3   4
ATOM      4  C   UNL     1     128.374 142.222 105.915  1.00  0.00    -0.000 C 
BRANCH   4   5
ATOM      5  C   UNL     1     127.258 143.265 105.750  1.00  0.00    -0.000 C 
BRANCH   5   6
ATOM      6  C   UNL     1     127.729 144.438 104.882  1.00  0.00    -0.003 C 
ATOM      7  C   UNL     1     126.911 145.695 105.163  1.00  0.00     0.004 C 
ENDBRANCH   5   6
ENDBRANCH   4   5
ENDBRANCH   3   4
ENDBRANCH   2   3
ENDBRANCH   1   2
BRANCH   1   8
ATOM      8  C   UNL     1     130.305 145.647 107.009  1.00  0.00     0.000 C 
BRANCH   8   9
ATOM      9  C   UNL     1     129.771 145.799 108.448  1.00  0.00     0.000 C 
BRANCH   9  10
ATOM     10  C   UNL     1     128.302 145.383 108.642  1.00  0.00     0.002 C 
BRANCH  10  11
ATOM     11  C   UNL     1     128.092 144.501 109.882  1.00  0.00     0.028 C 
BRANCH  11  12
ATOM     12  C   UNL     1     127.905 143.030 109.505  1.00  0.00     0.156 C 
BRANCH  12  13
ATOM     13  O   UNL     1     127.182 142.364 110.502  1.00  0.00    -0.396 OA
ATOM     14  H   UNL     1     127.727 141.574 110.755  1.00  0.00     0.210 HD
ENDBRANCH  12  13
ENDBRANCH  11  12
ENDBRANCH  10  11
ENDBRANCH   9  10
ENDBRANCH   8   9
ENDBRANCH   1   8
TORSDOF 11
ENDMDL
MODEL 6
REMARK VINA RESULT:    -3.551      4.156      5.725
REMARK INTER + INTRA:          -6.818
REMARK INTER:                  -5.617
REMARK INTRA:                  -1.201
REMARK UNBOUND:                -1.087
REMARK SMILES CCCCCCCCCCCCO
REMARK SMILES IDX 7 1 6 2 5 3 4 4 3 5 2 6 1 7 8 8 9 9 10 10 11 11 12 12 13 13
REMARK H PARENT 13 14
REMARK Flexibility Score: inf
ROOT
ATOM      1  C   UNL     1     128.090 145.433 105.711  1.00  0.00     0.000 C 
ENDROOT
BRANCH   1   2
ATOM      2  C   UNL     1     126.931 146.125 106.452  1.00  0.00    -0.000 C 
BRANCH   2   3
ATOM      3  C   UNL     1     126.875 145.761 107.945  1.00  0.00    -0.000 C 
BRANCH   3   4
ATOM      4  C   UNL     1     128.069 146.324 108.734  1.00  0.00    -0.000 C 
BRANCH   4   5
ATOM      5  C   UNL     1     128.599 145.340 109.789  1.00  0.00    -0.000 C 
BRANCH   5   6
ATOM      6  C   UNL     1     127.461 144.826 110.679  1.00  0.00    -0.003 C 
ATOM      7  C   UNL     1     127.986 143.881 111.756  1.00  0.00     0.004 C 
ENDBRANCH   5   6
ENDBRANCH   4   5
ENDBRANCH   3   4
ENDBRANCH   2   3
ENDBRANCH   1   2
BRANCH   1   8
ATOM      8  C   UNL     1     127.688 144.205 104.868  1.00  0.00     0.000 C 
BRANCH   8   9
ATOM      9  C   UNL     1     127.346 142.937 105.676  1.00  0.00     0.000 C 
BRANCH   9  10
ATOM     10  C   UNL     1     128.370 142.564 106.762  1.00  0.00     0.002 C 
BRANCH  10  11
ATOM     11  C   UNL     1     127.710 142.130 108.080  1.00  0.00     0.028 C 
BRANCH  11  12
ATOM     12  C   UNL     1     128.689 141.372 108.980  1.00  0.00     0.156 C 
BRANCH  12  13
ATOM     13  O   UNL     1     128.002 140.782 110.048  1.00  0.00    -0.396 OA
ATOM     14  H   UNL     1     127.529 139.995 109.669  1.00  0.00     0.210 HD
ENDBRANCH  12  13
ENDBRANCH  11  12
ENDBRANCH  10  11
ENDBRANCH   9  10
ENDBRANCH   8   9
ENDBRANCH   1   8
TORSDOF 11
ENDMDL
MODEL 7
REMARK VINA RESULT:    -3.548      3.750      5.278
REMARK INTER + INTRA:          -6.813
REMARK INTER:                  -5.301
REMARK INTRA:                  -1.512
REMARK UNBOUND:                -1.087
REMARK SMILES CCCCCCCCCCCCO
REMARK SMILES IDX 7 1 6 2 5 3 4 4 3 5 2 6 1 7 8 8 9 9 10 10 11 11 12 12 13 13
REMARK H PARENT 13 14
REMARK Flexibility Score: inf
ROOT
ATOM      1  C   UNL     1     129.167 145.387 106.059  1.00  0.00     0.000 C 
ENDROOT
BRANCH   1   2
ATOM      2  C   UNL     1     127.818 145.006 105.422  1.00  0.00    -0.000 C 
BRANCH   2   3
ATOM      3  C   UNL     1     127.668 143.490 105.207  1.00  0.00    -0.000 C 
BRANCH   3   4
ATOM      4  C   UNL     1     127.113 142.770 106.448  1.00  0.00    -0.000 C 
BRANCH   4   5
ATOM      5  C   UNL     1     127.924 141.520 106.820  1.00  0.00    -0.000 C 
BRANCH   5   6
ATOM      6  C   UNL     1     129.383 141.661 106.371  1.00  0.00    -0.003 C 
ATOM      7  C   UNL     1     130.288 142.036 107.541  1.00  0.00     0.004 C 
ENDBRANCH   5   6
ENDBRANCH   4   5
ENDBRANCH   3   4
ENDBRANCH   2   3
ENDBRANCH   1   2
BRANCH   1   8
ATOM      8  C   UNL     1     129.127 145.630 107.582  1.00  0.00     0.000 C 
BRANCH   8   9
ATOM      9  C   UNL     1     127.754 146.054 108.143  1.00  0.00     0.000 C 
BRANCH   9  10
ATOM     10  C   UNL     1     127.318 145.314 109.420  1.00  0.00     0.002 C 
BRANCH  10  11
ATOM     11  C   UNL     1     128.329 144.245 109.863  1.00  0.00     0.028 C 
BRANCH  11  12
ATOM     12  C   UNL     1     127.742 143.322 110.933  1.00  0.00     0.156 C 
BRANCH  12  13
ATOM     13  O   UNL     1     127.233 142.159 110.341  1.00  0.00    -0.396 OA
ATOM     14  H   UNL     1     127.522 141.407 110.921  1.00  0.00     0.210 HD
ENDBRANCH  12  13
ENDBRANCH  11  12
ENDBRANCH  10  11
ENDBRANCH   9  10
ENDBRANCH   8   9
ENDBRANCH   1   8
TORSDOF 11
ENDMDL
MODEL 8
REMARK VINA RESULT:    -3.532      1.368      2.301
REMARK INTER + INTRA:          -6.787
REMARK INTER:                  -5.389
REMARK INTRA:                  -1.398
REMARK UNBOUND:                -1.087
REMARK SMILES CCCCCCCCCCCCO
REMARK SMILES IDX 7 1 6 2 5 3 4 4 3 5 2 6 1 7 8 8 9 9 10 10 11 11 12 12 13 13
REMARK H PARENT 13 14
REMARK Flexibility Score: inf
ROOT
ATOM      1  C   UNL     1     127.435 146.306 108.165  1.00  0.00     0.000 C 
ENDROOT
BRANCH   1   2
ATOM      2  C   UNL     1     127.009 145.099 107.309  1.00  0.00    -0.000 C 
BRANCH   2   3
ATOM      3  C   UNL     1     127.171 145.351 105.801  1.00  0.00    -0.000 C 
BRANCH   3   4
ATOM      4  C   UNL     1     127.685 144.113 105.047  1.00  0.00    -0.000 C 
BRANCH   4   5
ATOM      5  C   UNL     1     127.478 142.810 105.836  1.00  0.00    -0.000 C 
BRANCH   5   6
ATOM      6  C   UNL     1     128.816 142.107 106.092  1.00  0.00    -0.003 C 
ATOM      7  C   UNL     1     129.937 142.741 105.274  1.00  0.00     0.004 C 
ENDBRANCH   5   6
ENDBRANCH   4   5
ENDBRANCH   3   4
ENDBRANCH   2   3
ENDBRANCH   1   2
BRANCH   1   8
ATOM      8  C   UNL     1     128.776 146.142 108.908  1.00  0.00     0.000 C 
BRANCH   8   9
ATOM      9  C   UNL     1     129.646 144.958 108.439  1.00  0.00     0.000 C 
BRANCH   9  10
ATOM     10  C   UNL     1     130.969 145.354 107.759  1.00  0.00     0.002 C 
BRANCH  10  11
ATOM     11  C   UNL     1     130.757 146.032 106.396  1.00  0.00     0.028 C 
BRANCH  11  12
ATOM     12  C   UNL     1     131.968 146.875 105.991  1.00  0.00     0.156 C 
BRANCH  12  13
ATOM     13  O   UNL     1     133.146 146.296 106.481  1.00  0.00    -0.396 OA
ATOM     14  H   UNL     1     133.189 145.387 106.083  1.00  0.00     0.210 HD
ENDBRANCH  12  13
ENDBRANCH  11  12
ENDBRANCH  10  11
ENDBRANCH   9  10
ENDBRANCH   8   9
ENDBRANCH   1   8
TORSDOF 11
ENDMDL
MODEL 9
REMARK VINA RESULT:    -3.434      3.403      5.423
REMARK INTER + INTRA:          -6.629
REMARK INTER:                  -5.276
REMARK INTRA:                  -1.353
REMARK UNBOUND:                -1.087
REMARK SMILES CCCCCCCCCCCCO
REMARK SMILES IDX 7 1 6 2 5 3 4 4 3 5 2 6 1 7 8 8 9 9 10 10 11 11 12 12 13 13
REMARK H PARENT 13 14
REMARK Flexibility Score: inf
ROOT
ATOM      1  C   UNL     1     127.640 144.055 104.891  1.00  0.00     0.000 C 
ENDROOT
BRANCH   1   2
ATOM      2  C   UNL     1     127.970 145.421 105.518  1.00  0.00    -0.000 C 
BRANCH   2   3
ATOM      3  C   UNL     1     128.222 145.336 107.033  1.00  0.00    -0.000 C 
BRANCH   3   4
ATOM      4  C   UNL     1     129.707 145.504 107.395  1.00  0.00    -0.000 C 
BRANCH   4   5
ATOM      5  C   UNL     1     130.571 145.897 106.186  1.00  0.00    -0.000 C 
BRANCH   5   6
ATOM      6  C   UNL     1     131.804 144.991 106.078  1.00  0.00    -0.003 C 
ATOM      7  C   UNL     1     131.413 143.572 105.676  1.00  0.00     0.004 C 
ENDBRANCH   5   6
ENDBRANCH   4   5
ENDBRANCH   3   4
ENDBRANCH   2   3
ENDBRANCH   1   2
BRANCH   1   8
ATOM      8  C   UNL     1     127.241 142.953 105.894  1.00  0.00     0.000 C 
BRANCH   8   9
ATOM      9  C   UNL     1     128.290 141.841 106.100  1.00  0.00     0.000 C 
BRANCH   9  10
ATOM     10  C   UNL     1     128.277 141.186 107.492  1.00  0.00     0.002 C 
BRANCH  10  11
ATOM     11  C   UNL     1     129.182 141.912 108.500  1.00  0.00     0.028 C 
BRANCH  11  12
ATOM     12  C   UNL     1     128.516 142.031 109.873  1.00  0.00     0.156 C 
BRANCH  12  13
ATOM     13  O   UNL     1     127.182 142.432 109.729  1.00  0.00    -0.396 OA
ATOM     14  H   UNL     1     127.008 143.075 110.464  1.00  0.00     0.210 HD
ENDBRANCH  12  13
ENDBRANCH  11  12
ENDBRANCH  10  11
ENDBRANCH   9  10
ENDBRANCH   8   9
ENDBRANCH   1   8
TORSDOF 11
ENDMDL
