MODEL 1
REMARK VINA RESULT:    -3.933      0.000      0.000
REMARK INTER + INTRA:          -3.933
REMARK INTER:                  -3.933
REMARK INTRA:                   0.000
REMARK UNBOUND:                 0.000
REMARK SMILES c1cc[nH]c1
REMARK SMILES IDX 1 1 5 2 4 3 3 4 2 5
REMARK H PARENT 4 6
REMARK Flexibility Score: inf
ROOT
ATOM      1  C   UNL     1       3.842  -8.142   2.250  1.00  0.00     0.019 A 
ATOM      2  C   UNL     1       2.904  -8.509   3.192  1.00  0.00     0.082 A 
ATOM      3  N   UNL     1       3.312  -9.614   3.841  1.00  0.00    -0.368 N 
ATOM      4  C   UNL     1       4.503  -9.959   3.322  1.00  0.00     0.082 A 
ATOM      5  C   UNL     1       4.863  -9.067   2.332  1.00  0.00     0.019 A 
ATOM      6  H   UNL     1       2.800 -10.110   4.603  1.00  0.00     0.165 HD
ENDROOT
TORSDOF 0
ENDMDL
MODEL 2
REMARK VINA RESULT:    -3.915      0.063      1.623
REMARK INTER + INTRA:          -3.915
REMARK INTER:                  -3.915
REMARK INTRA:                   0.000
REMARK UNBOUND:                 0.000
REMARK SMILES c1cc[nH]c1
REMARK SMILES IDX 1 1 5 2 4 3 3 4 2 5
REMARK H PARENT 4 6
REMARK Flexibility Score: inf
ROOT
ATOM      1  C   UNL     1       4.844  -9.138   2.336  1.00  0.00     0.019 A 
ATOM      2  C   UNL     1       4.442  -9.981   3.350  1.00  0.00     0.082 A 
ATOM      3  N   UNL     1       3.266  -9.566   3.854  1.00  0.00    -0.368 N 
ATOM      4  C   UNL     1       2.911  -8.463   3.171  1.00  0.00     0.082 A 
ATOM      5  C   UNL     1       3.868  -8.169   2.221  1.00  0.00     0.019 A 
ATOM      6  H   UNL     1       2.730 -10.014   4.629  1.00  0.00     0.165 HD
ENDROOT
TORSDOF 0
ENDMDL
MODEL 3
REMARK VINA RESULT:    -3.795     10.019     10.464
REMARK INTER + INTRA:          -3.795
REMARK INTER:                  -3.795
REMARK INTRA:                   0.000
REMARK UNBOUND:                 0.000
REMARK SMILES c1cc[nH]c1
REMARK SMILES IDX 1 1 5 2 4 3 3 4 2 5
REMARK H PARENT 4 6
REMARK Flexibility Score: inf
ROOT
ATOM      1  C   UNL     1      -2.885 -14.849   9.508  1.00  0.00     0.019 A 
ATOM      2  C   UNL     1      -3.117 -13.826   8.612  1.00  0.00     0.082 A 
ATOM      3  N   UNL     1      -2.510 -12.701   9.032  1.00  0.00    -0.368 N 
ATOM      4  C   UNL     1      -1.892 -12.994  10.189  1.00  0.00     0.082 A 
ATOM      5  C   UNL     1      -2.103 -14.319  10.514  1.00  0.00     0.019 A 
ATOM      6  H   UNL     1      -2.518 -11.776   8.550  1.00  0.00     0.165 HD
ENDROOT
TORSDOF 0
ENDMDL
MODEL 4
REMARK VINA RESULT:    -3.790     10.032     10.502
REMARK INTER + INTRA:          -3.790
REMARK INTER:                  -3.790
REMARK INTRA:                   0.000
REMARK UNBOUND:                 0.000
REMARK SMILES c1cc[nH]c1
REMARK SMILES IDX 1 1 5 2 4 3 3 4 2 5
REMARK H PARENT 4 6
REMARK Flexibility Score: inf
ROOT
ATOM      1  C   UNL     1      -2.071 -14.374  10.475  1.00  0.00     0.019 A 
ATOM      2  C   UNL     1      -1.898 -13.040  10.168  1.00  0.00     0.082 A 
ATOM      3  N   UNL     1      -2.553 -12.742   9.031  1.00  0.00    -0.368 N 
ATOM      4  C   UNL     1      -3.143 -13.873   8.607  1.00  0.00     0.082 A 
ATOM      5  C   UNL     1      -2.865 -14.906   9.480  1.00  0.00     0.019 A 
ATOM      6  H   UNL     1      -2.595 -11.809   8.566  1.00  0.00     0.165 HD
ENDROOT
TORSDOF 0
ENDMDL
MODEL 5
REMARK VINA RESULT:    -3.393     10.373     10.773
REMARK INTER + INTRA:          -3.393
REMARK INTER:                  -3.393
REMARK INTRA:                   0.000
REMARK UNBOUND:                 0.000
REMARK SMILES c1cc[nH]c1
REMARK SMILES IDX 1 1 5 2 4 3 3 4 2 5
REMARK H PARENT 4 6
REMARK Flexibility Score: inf
ROOT
ATOM      1  C   UNL     1      -5.144 -15.157   6.194  1.00  0.00     0.019 A 
ATOM      2  C   UNL     1      -4.930 -13.993   6.902  1.00  0.00     0.082 A 
ATOM      3  N   UNL     1      -3.748 -14.056   7.542  1.00  0.00    -0.368 N 
ATOM      4  C   UNL     1      -3.204 -15.250   7.250  1.00  0.00     0.082 A 
ATOM      5  C   UNL     1      -4.044 -15.959   6.415  1.00  0.00     0.019 A 
ATOM      6  H   UNL     1      -3.332 -13.317   8.150  1.00  0.00     0.165 HD
ENDROOT
TORSDOF 0
ENDMDL
MODEL 6
REMARK VINA RESULT:    -3.351     11.774     12.244
REMARK INTER + INTRA:          -3.351
REMARK INTER:                  -3.351
REMARK INTRA:                   0.000
REMARK UNBOUND:                 0.000
REMARK SMILES c1cc[nH]c1
REMARK SMILES IDX 1 1 5 2 4 3 3 4 2 5
REMARK H PARENT 4 6
REMARK Flexibility Score: inf
ROOT
ATOM      1  C   UNL     1      -3.993 -15.673   7.191  1.00  0.00     0.019 A 
ATOM      2  C   UNL     1      -5.335 -15.984   7.266  1.00  0.00     0.082 A 
ATOM      3  N   UNL     1      -5.510 -17.083   8.022  1.00  0.00    -0.368 N 
ATOM      4  C   UNL     1      -4.292 -17.479   8.431  1.00  0.00     0.082 A 
ATOM      5  C   UNL     1      -3.327 -16.627   7.934  1.00  0.00     0.019 A 
ATOM      6  H   UNL     1      -6.420 -17.542   8.248  1.00  0.00     0.165 HD
ENDROOT
TORSDOF 0
ENDMDL
MODEL 7
REMARK VINA RESULT:    -3.335     15.228     15.785
REMARK INTER + INTRA:          -3.335
REMARK INTER:                  -3.335
REMARK INTRA:                   0.000
REMARK UNBOUND:                 0.000
REMARK SMILES c1cc[nH]c1
REMARK SMILES IDX 1 1 5 2 4 3 3 4 2 5
REMARK H PARENT 4 6
REMARK Flexibility Score: inf
ROOT
ATOM      1  C   UNL     1       5.004 -16.485  16.768  1.00  0.00     0.019 A 
ATOM      2  C   UNL     1       5.393 -17.212  15.662  1.00  0.00     0.082 A 
ATOM      3  N   UNL     1       4.471 -18.150  15.382  1.00  0.00    -0.368 N 
ATOM      4  C   UNL     1       3.495 -18.032  16.299  1.00  0.00     0.082 A 
ATOM      5  C   UNL     1       3.794 -17.008  17.176  1.00  0.00     0.019 A 
ATOM      6  H   UNL     1       4.507 -18.840  14.600  1.00  0.00     0.165 HD
ENDROOT
TORSDOF 0
ENDMDL
MODEL 8
REMARK VINA RESULT:    -3.326     10.977     11.450
REMARK INTER + INTRA:          -3.326
REMARK INTER:                  -3.326
REMARK INTRA:                   0.000
REMARK UNBOUND:                 0.000
REMARK SMILES c1cc[nH]c1
REMARK SMILES IDX 1 1 5 2 4 3 3 4 2 5
REMARK H PARENT 4 6
REMARK Flexibility Score: inf
ROOT
ATOM      1  C   UNL     1      -2.022   0.909  -0.206  1.00  0.00     0.019 A 
ATOM      2  C   UNL     1      -0.990   0.389  -0.958  1.00  0.00     0.082 A 
ATOM      3  N   UNL     1      -1.315  -0.840  -1.397  1.00  0.00    -0.368 N 
ATOM      4  C   UNL     1      -2.546  -1.112  -0.932  1.00  0.00     0.082 A 
ATOM      5  C   UNL     1      -3.016  -0.048  -0.188  1.00  0.00     0.019 A 
ATOM      6  H   UNL     1      -0.722  -1.464  -1.987  1.00  0.00     0.165 HD
ENDROOT
TORSDOF 0
ENDMDL
MODEL 9
REMARK VINA RESULT:    -3.300     10.461     10.756
REMARK INTER + INTRA:          -3.300
REMARK INTER:                  -3.300
REMARK INTRA:                   0.000
REMARK UNBOUND:                 0.000
REMARK SMILES c1cc[nH]c1
REMARK SMILES IDX 1 1 5 2 4 3 3 4 2 5
REMARK H PARENT 4 6
REMARK Flexibility Score: inf
ROOT
ATOM      1  C   UNL     1      -4.984 -14.050   7.113  1.00  0.00     0.019 A 
ATOM      2  C   UNL     1      -5.012 -14.981   6.096  1.00  0.00     0.082 A 
ATOM      3  N   UNL     1      -3.902 -15.740   6.137  1.00  0.00    -0.368 N 
ATOM      4  C   UNL     1      -3.164 -15.304   7.172  1.00  0.00     0.082 A 
ATOM      5  C   UNL     1      -3.805 -14.255   7.800  1.00  0.00     0.019 A 
ATOM      6  H   UNL     1      -3.661 -16.521   5.488  1.00  0.00     0.165 HD
ENDROOT
TORSDOF 0
ENDMDL
