MODEL 1
REMARK VINA RESULT:    -4.719      0.000      0.000
REMARK INTER + INTRA:          -5.151
REMARK INTER:                  -5.133
REMARK INTRA:                  -0.018
REMARK UNBOUND:                -0.018
REMARK SMILES OCc1ccccc1
REMARK SMILES IDX 2 1 3 2 6 3 5 4 7 5 4 6 8 7 1 8
REMARK H PARENT 1 9
REMARK Flexibility Score: inf
ROOT
ATOM      1  C   UNL     1     139.942 142.522 116.456  1.00  0.00     0.191 C 
ENDROOT
BRANCH   1   2
ATOM      2  C   UNL     1     140.954 142.361 115.359  1.00  0.00    -0.023 A 
ATOM      3  C   UNL     1     142.865 142.140 113.316  1.00  0.00     0.000 A 
ATOM      4  C   UNL     1     141.548 142.489 113.006  1.00  0.00     0.000 A 
ATOM      5  C   UNL     1     143.233 141.911 114.646  1.00  0.00     0.000 A 
ATOM      6  C   UNL     1     140.595 142.606 114.023  1.00  0.00     0.006 A 
ATOM      7  C   UNL     1     142.283 142.027 115.666  1.00  0.00     0.006 A 
ENDBRANCH   1   2
BRANCH   1   8
ATOM      8  O   UNL     1     140.591 142.919 117.631  1.00  0.00    -0.392 OA
ATOM      9  H   UNL     1     141.040 142.107 117.986  1.00  0.00     0.211 HD
ENDBRANCH   1   8
TORSDOF 2
ENDMDL
MODEL 2
REMARK VINA RESULT:    -4.717      0.064      1.714
REMARK INTER + INTRA:          -5.149
REMARK INTER:                  -5.131
REMARK INTRA:                  -0.017
REMARK UNBOUND:                -0.018
REMARK SMILES OCc1ccccc1
REMARK SMILES IDX 2 1 3 2 6 3 5 4 7 5 4 6 8 7 1 8
REMARK H PARENT 1 9
REMARK Flexibility Score: inf
ROOT
ATOM      1  C   UNL     1     139.975 142.481 116.505  1.00  0.00     0.191 C 
ENDROOT
BRANCH   1   2
ATOM      2  C   UNL     1     140.972 142.404 115.386  1.00  0.00    -0.023 A 
ATOM      3  C   UNL     1     142.821 142.180 113.287  1.00  0.00     0.000 A 
ATOM      4  C   UNL     1     143.235 141.979 114.607  1.00  0.00     0.000 A 
ATOM      5  C   UNL     1     141.484 142.482 113.012  1.00  0.00     0.000 A 
ATOM      6  C   UNL     1     142.314 142.084 115.654  1.00  0.00     0.006 A 
ATOM      7  C   UNL     1     140.560 142.588 114.056  1.00  0.00     0.006 A 
ENDBRANCH   1   2
BRANCH   1   8
ATOM      8  O   UNL     1     140.620 142.906 117.672  1.00  0.00    -0.392 OA
ATOM      9  H   UNL     1     139.901 143.106 118.327  1.00  0.00     0.211 HD
ENDBRANCH   1   8
TORSDOF 2
ENDMDL
MODEL 3
REMARK VINA RESULT:    -4.676     10.064     10.744
REMARK INTER + INTRA:          -5.104
REMARK INTER:                  -5.089
REMARK INTRA:                  -0.015
REMARK UNBOUND:                -0.018
REMARK SMILES OCc1ccccc1
REMARK SMILES IDX 2 1 3 2 6 3 5 4 7 5 4 6 8 7 1 8
REMARK H PARENT 1 9
REMARK Flexibility Score: inf
ROOT
ATOM      1  C   UNL     1     136.436 134.292 116.793  1.00  0.00     0.191 C 
ENDROOT
BRANCH   1   2
ATOM      2  C   UNL     1     135.522 134.248 115.603  1.00  0.00    -0.023 A 
ATOM      3  C   UNL     1     133.796 134.086 113.396  1.00  0.00     0.000 A 
ATOM      4  C   UNL     1     135.149 133.767 113.249  1.00  0.00     0.000 A 
ATOM      5  C   UNL     1     133.301 134.476 114.644  1.00  0.00     0.000 A 
ATOM      6  C   UNL     1     136.010 133.841 114.349  1.00  0.00     0.006 A 
ATOM      7  C   UNL     1     134.158 134.551 115.746  1.00  0.00     0.006 A 
ENDBRANCH   1   2
BRANCH   1   8
ATOM      8  O   UNL     1     135.865 133.564 117.843  1.00  0.00    -0.392 OA
ATOM      9  H   UNL     1     136.024 132.607 117.633  1.00  0.00     0.211 HD
ENDBRANCH   1   8
TORSDOF 2
ENDMDL
MODEL 4
REMARK VINA RESULT:    -4.660     10.075     10.730
REMARK INTER + INTRA:          -5.087
REMARK INTER:                  -5.073
REMARK INTRA:                  -0.014
REMARK UNBOUND:                -0.018
REMARK SMILES OCc1ccccc1
REMARK SMILES IDX 2 1 3 2 6 3 5 4 7 5 4 6 8 7 1 8
REMARK H PARENT 1 9
REMARK Flexibility Score: inf
ROOT
ATOM      1  C   UNL     1     136.405 134.211 116.852  1.00  0.00     0.191 C 
ENDROOT
BRANCH   1   2
ATOM      2  C   UNL     1     135.496 134.167 115.658  1.00  0.00    -0.023 A 
ATOM      3  C   UNL     1     133.810 134.166 113.415  1.00  0.00     0.000 A 
ATOM      4  C   UNL     1     133.288 134.447 114.681  1.00  0.00     0.000 A 
ATOM      5  C   UNL     1     135.173 133.895 113.265  1.00  0.00     0.000 A 
ATOM      6  C   UNL     1     134.127 134.455 115.799  1.00  0.00     0.006 A 
ATOM      7  C   UNL     1     136.016 133.902 114.381  1.00  0.00     0.006 A 
ENDBRANCH   1   2
BRANCH   1   8
ATOM      8  O   UNL     1     135.819 133.502 117.906  1.00  0.00    -0.392 OA
ATOM      9  H   UNL     1     135.045 133.018 117.517  1.00  0.00     0.211 HD
ENDBRANCH   1   8
TORSDOF 2
ENDMDL
MODEL 5
REMARK VINA RESULT:    -4.578      9.688     10.369
REMARK INTER + INTRA:          -4.997
REMARK INTER:                  -4.979
REMARK INTRA:                  -0.018
REMARK UNBOUND:                -0.018
REMARK SMILES OCc1ccccc1
REMARK SMILES IDX 2 1 3 2 6 3 5 4 7 5 4 6 8 7 1 8
REMARK H PARENT 1 9
REMARK Flexibility Score: inf
ROOT
ATOM      1  C   UNL     1     136.362 134.953 117.788  1.00  0.00     0.191 C 
ENDROOT
BRANCH   1   2
ATOM      2  C   UNL     1     135.756 134.324 116.567  1.00  0.00    -0.023 A 
ATOM      3  C   UNL     1     134.639 133.218 114.242  1.00  0.00     0.000 A 
ATOM      4  C   UNL     1     133.837 133.952 115.121  1.00  0.00     0.000 A 
ATOM      5  C   UNL     1     135.999 133.044 114.516  1.00  0.00     0.000 A 
ATOM      6  C   UNL     1     134.393 134.510 116.277  1.00  0.00     0.006 A 
ATOM      7  C   UNL     1     136.558 133.600 115.671  1.00  0.00     0.006 A 
ENDBRANCH   1   2
BRANCH   1   8
ATOM      8  O   UNL     1     137.687 135.311 117.515  1.00  0.00    -0.392 OA
ATOM      9  H   UNL     1     137.646 135.993 116.795  1.00  0.00     0.211 HD
ENDBRANCH   1   8
TORSDOF 2
ENDMDL
MODEL 6
REMARK VINA RESULT:    -4.461     10.441     11.019
REMARK INTER + INTRA:          -4.871
REMARK INTER:                  -4.859
REMARK INTRA:                  -0.011
REMARK UNBOUND:                -0.018
REMARK SMILES OCc1ccccc1
REMARK SMILES IDX 2 1 3 2 6 3 5 4 7 5 4 6 8 7 1 8
REMARK H PARENT 1 9
REMARK Flexibility Score: inf
ROOT
ATOM      1  C   UNL     1     136.618 133.509 115.810  1.00  0.00     0.191 C 
ENDROOT
BRANCH   1   2
ATOM      2  C   UNL     1     135.494 133.916 114.901  1.00  0.00    -0.023 A 
ATOM      3  C   UNL     1     133.372 134.598 113.196  1.00  0.00     0.000 A 
ATOM      4  C   UNL     1     134.620 134.265 112.660  1.00  0.00     0.000 A 
ATOM      5  C   UNL     1     133.179 134.581 114.581  1.00  0.00     0.000 A 
ATOM      6  C   UNL     1     135.677 133.919 113.507  1.00  0.00     0.006 A 
ATOM      7  C   UNL     1     134.234 134.236 115.431  1.00  0.00     0.006 A 
ENDBRANCH   1   2
BRANCH   1   8
ATOM      8  O   UNL     1     136.831 132.131 115.694  1.00  0.00    -0.392 OA
ATOM      9  H   UNL     1     135.959 131.699 115.890  1.00  0.00     0.211 HD
ENDBRANCH   1   8
TORSDOF 2
ENDMDL
MODEL 7
REMARK VINA RESULT:    -4.382      2.154      3.297
REMARK INTER + INTRA:          -4.785
REMARK INTER:                  -4.764
REMARK INTRA:                  -0.020
REMARK UNBOUND:                -0.018
REMARK SMILES OCc1ccccc1
REMARK SMILES IDX 2 1 3 2 6 3 5 4 7 5 4 6 8 7 1 8
REMARK H PARENT 1 9
REMARK Flexibility Score: inf
ROOT
ATOM      1  C   UNL     1     143.401 141.769 114.279  1.00  0.00     0.191 C 
ENDROOT
BRANCH   1   2
ATOM      2  C   UNL     1     142.119 142.271 114.878  1.00  0.00    -0.023 A 
ATOM      3  C   UNL     1     139.683 143.151 115.958  1.00  0.00     0.000 A 
ATOM      4  C   UNL     1     140.119 143.646 114.725  1.00  0.00     0.000 A 
ATOM      5  C   UNL     1     140.454 142.210 116.647  1.00  0.00     0.000 A 
ATOM      6  C   UNL     1     141.330 143.204 114.182  1.00  0.00     0.006 A 
ATOM      7  C   UNL     1     141.665 141.766 116.107  1.00  0.00     0.006 A 
ENDBRANCH   1   2
BRANCH   1   8
ATOM      8  O   UNL     1     143.659 142.461 113.090  1.00  0.00    -0.392 OA
ATOM      9  H   UNL     1     144.648 142.518 113.014  1.00  0.00     0.211 HD
ENDBRANCH   1   8
TORSDOF 2
ENDMDL
MODEL 8
REMARK VINA RESULT:    -4.358      9.217      9.988
REMARK INTER + INTRA:          -4.758
REMARK INTER:                  -4.748
REMARK INTRA:                  -0.010
REMARK UNBOUND:                -0.018
REMARK SMILES OCc1ccccc1
REMARK SMILES IDX 2 1 3 2 6 3 5 4 7 5 4 6 8 7 1 8
REMARK H PARENT 1 9
REMARK Flexibility Score: inf
ROOT
ATOM      1  C   UNL     1     137.211 136.069 114.760  1.00  0.00     0.191 C 
ENDROOT
BRANCH   1   2
ATOM      2  C   UNL     1     135.919 135.304 114.747  1.00  0.00    -0.023 A 
ATOM      3  C   UNL     1     133.493 133.898 114.645  1.00  0.00     0.000 A 
ATOM      4  C   UNL     1     133.505 135.243 115.025  1.00  0.00     0.000 A 
ATOM      5  C   UNL     1     134.688 133.256 114.305  1.00  0.00     0.000 A 
ATOM      6  C   UNL     1     134.712 135.948 115.070  1.00  0.00     0.006 A 
ATOM      7  C   UNL     1     135.897 133.958 114.350  1.00  0.00     0.006 A 
ENDBRANCH   1   2
BRANCH   1   8
ATOM      8  O   UNL     1     137.653 136.210 116.080  1.00  0.00    -0.392 OA
ATOM      9  H   UNL     1     137.279 137.069 116.406  1.00  0.00     0.211 HD
ENDBRANCH   1   8
TORSDOF 2
ENDMDL
MODEL 9
REMARK VINA RESULT:    -4.346      1.877      1.966
REMARK INTER + INTRA:          -4.746
REMARK INTER:                  -4.733
REMARK INTRA:                  -0.013
REMARK UNBOUND:                -0.018
REMARK SMILES OCc1ccccc1
REMARK SMILES IDX 2 1 3 2 6 3 5 4 7 5 4 6 8 7 1 8
REMARK H PARENT 1 9
REMARK Flexibility Score: inf
ROOT
ATOM      1  C   UNL     1     139.258 140.292 114.953  1.00  0.00     0.191 C 
ENDROOT
BRANCH   1   2
ATOM      2  C   UNL     1     140.469 141.170 114.817  1.00  0.00    -0.023 A 
ATOM      3  C   UNL     1     142.723 142.833 114.642  1.00  0.00     0.000 A 
ATOM      4  C   UNL     1     141.452 143.346 114.364  1.00  0.00     0.000 A 
ATOM      5  C   UNL     1     142.869 141.494 115.017  1.00  0.00     0.000 A 
ATOM      6  C   UNL     1     140.327 142.521 114.457  1.00  0.00     0.006 A 
ATOM      7  C   UNL     1     141.746 140.665 115.111  1.00  0.00     0.006 A 
ENDBRANCH   1   2
BRANCH   1   8
ATOM      8  O   UNL     1     139.144 139.863 116.280  1.00  0.00    -0.392 OA
ATOM      9  H   UNL     1     138.943 140.675 116.816  1.00  0.00     0.211 HD
ENDBRANCH   1   8
TORSDOF 2
ENDMDL
