MODEL 1
REMARK VINA RESULT:    -3.311      0.000      0.000
REMARK INTER + INTRA:         -14.530
REMARK INTER:                  -8.732
REMARK INTRA:                  -5.798
REMARK UNBOUND:                -5.798
REMARK SMILES CCCCCCCCCCCCCCCCCCCCCCCCCCCCCC(=O)[O-]
REMARK SMILES IDX 16 1 17 2 18 3 19 4 20 5 21 6 22 7 23 8 24 9 25 10 26 11
REMARK SMILES IDX 27 12 28 13 29 14 30 15 31 16 32 17 15 18 14 19 13 20 12 21
REMARK SMILES IDX 11 22 10 23 9 24 8 25 7 26 6 27 5 28 4 29 3 30 2 31 1 32
REMARK H PARENT
REMARK Flexibility Score: inf
ROOT
ATOM      1  C   UNL     1      50.125  34.832  86.481  1.00  0.00     0.000 C 
ENDROOT
BRANCH   1   2
ATOM      2  C   UNL     1      48.668  34.722  86.968  1.00  0.00     0.000 C 
BRANCH   2   3
ATOM      3  C   UNL     1      48.285  33.374  87.616  1.00  0.00     0.000 C 
BRANCH   3   4
ATOM      4  C   UNL     1      48.235  32.176  86.644  1.00  0.00     0.000 C 
BRANCH   4   5
ATOM      5  C   UNL     1      49.035  30.950  87.103  1.00  0.00     0.000 C 
BRANCH   5   6
ATOM      6  C   UNL     1      50.565  31.157  87.045  1.00  0.00     0.000 C 
BRANCH   6   7
ATOM      7  C   UNL     1      51.244  30.744  88.359  1.00  0.00     0.000 C 
BRANCH   7   8
ATOM      8  C   UNL     1      51.168  31.844  89.426  1.00  0.00     0.000 C 
BRANCH   8   9
ATOM      9  C   UNL     1      50.303  31.437  90.617  1.00  0.00     0.000 C 
BRANCH   9  10
ATOM     10  C   UNL     1      49.782  29.987  90.510  1.00  0.00     0.000 C 
BRANCH  10  11
ATOM     11  C   UNL     1      48.251  29.902  90.631  1.00  0.00     0.000 C 
BRANCH  11  12
ATOM     12  C   UNL     1      47.566  31.302  90.588  1.00  0.00     0.000 C 
BRANCH  12  13
ATOM     13  C   UNL     1      46.068  31.239  90.205  1.00  0.00     0.006 C 
BRANCH  13  14
ATOM     14  C   UNL     1      45.287  30.174  91.010  1.00  0.00     0.053 C 
BRANCH  14  15
ATOM     15  C   UNL     1      44.558  30.806  92.170  1.00  0.00     0.041 C 
ATOM     16  O   UNL     1      43.737  30.100  92.822  1.00  0.00    -0.550 OA
ATOM     17  O   UNL     1      44.649  32.173  92.398  1.00  0.00    -0.550 OA
ENDBRANCH  14  15
ENDBRANCH  13  14
ENDBRANCH  12  13
ENDBRANCH  11  12
ENDBRANCH  10  11
ENDBRANCH   9  10
ENDBRANCH   8   9
ENDBRANCH   7   8
ENDBRANCH   6   7
ENDBRANCH   5   6
ENDBRANCH   4   5
ENDBRANCH   3   4
ENDBRANCH   2   3
ENDBRANCH   1   2
BRANCH   1  18
ATOM     18  C   UNL     1      51.062  35.512  87.495  1.00  0.00     0.000 C 
BRANCH  18  19
ATOM     19  C   UNL     1      52.470  34.895  87.426  1.00  0.00     0.000 C 
BRANCH  19  20
ATOM     20  C   UNL     1      52.711  34.048  86.161  1.00  0.00     0.000 C 
BRANCH  20  21
ATOM     21  C   UNL     1      53.876  33.043  86.265  1.00  0.00     0.000 C 
BRANCH  21  22
ATOM     22  C   UNL     1      53.736  31.764  85.411  1.00  0.00     0.000 C 
BRANCH  22  23
ATOM     23  C   UNL     1      54.055  31.926  83.908  1.00  0.00     0.000 C 
BRANCH  23  24
ATOM     24  C   UNL     1      52.827  32.139  82.995  1.00  0.00    -0.000 C 
BRANCH  24  25
ATOM     25  C   UNL     1      51.509  31.522  83.512  1.00  0.00    -0.000 C 
BRANCH  25  26
ATOM     26  C   UNL     1      50.357  32.534  83.586  1.00  0.00    -0.000 C 
BRANCH  26  27
ATOM     27  C   UNL     1      50.820  33.909  83.097  1.00  0.00    -0.000 C 
BRANCH  27  28
ATOM     28  C   UNL     1      49.644  34.695  82.508  1.00  0.00    -0.000 C 
BRANCH  28  29
ATOM     29  C   UNL     1      49.833  34.926  81.013  1.00  0.00    -0.000 C 
BRANCH  29  30
ATOM     30  C   UNL     1      51.200  34.421  80.534  1.00  0.00    -0.000 C 
BRANCH  30  31
ATOM     31  C   UNL     1      51.062  33.406  79.393  1.00  0.00    -0.003 C 
ATOM     32  C   UNL     1      50.449  32.084  79.855  1.00  0.00     0.004 C 
ENDBRANCH  30  31
ENDBRANCH  29  30
ENDBRANCH  28  29
ENDBRANCH  27  28
ENDBRANCH  26  27
ENDBRANCH  25  26
ENDBRANCH  24  25
ENDBRANCH  23  24
ENDBRANCH  22  23
ENDBRANCH  21  22
ENDBRANCH  20  21
ENDBRANCH  19  20
ENDBRANCH  18  19
ENDBRANCH   1  18
TORSDOF 28
ENDMDL
MODEL 2
REMARK VINA RESULT:    -3.204      2.358      4.087
REMARK INTER + INTRA:         -14.247
REMARK INTER:                  -8.830
REMARK INTRA:                  -5.417
REMARK UNBOUND:                -5.798
REMARK SMILES CCCCCCCCCCCCCCCCCCCCCCCCCCCCCC(=O)[O-]
REMARK SMILES IDX 16 1 17 2 18 3 19 4 20 5 21 6 22 7 23 8 24 9 25 10 26 11
REMARK SMILES IDX 27 12 28 13 29 14 30 15 31 16 32 17 15 18 14 19 13 20 12 21
REMARK SMILES IDX 11 22 10 23 9 24 8 25 7 26 6 27 5 28 4 29 3 30 2 31 1 32
REMARK H PARENT
REMARK Flexibility Score: inf
ROOT
ATOM      1  C   UNL     1      49.915  35.775  87.404  1.00  0.00     0.000 C 
ENDROOT
BRANCH   1   2
ATOM      2  C   UNL     1      48.767  34.996  86.739  1.00  0.00     0.000 C 
BRANCH   2   3
ATOM      3  C   UNL     1      49.147  33.616  86.159  1.00  0.00     0.000 C 
BRANCH   3   4
ATOM      4  C   UNL     1      48.369  32.424  86.754  1.00  0.00     0.000 C 
BRANCH   4   5
ATOM      5  C   UNL     1      47.860  32.646  88.186  1.00  0.00     0.000 C 
BRANCH   5   6
ATOM      6  C   UNL     1      46.791  31.622  88.624  1.00  0.00     0.000 C 
BRANCH   6   7
ATOM      7  C   UNL     1      46.947  31.236  90.102  1.00  0.00     0.000 C 
BRANCH   7   8
ATOM      8  C   UNL     1      46.489  29.798  90.382  1.00  0.00     0.000 C 
BRANCH   8   9
ATOM      9  C   UNL     1      47.662  28.858  90.647  1.00  0.00     0.000 C 
BRANCH   9  10
ATOM     10  C   UNL     1      48.510  28.587  89.384  1.00  0.00     0.000 C 
BRANCH  10  11
ATOM     11  C   UNL     1      49.999  28.905  89.596  1.00  0.00     0.000 C 
BRANCH  11  12
ATOM     12  C   UNL     1      50.457  30.184  88.829  1.00  0.00     0.000 C 
BRANCH  12  13
ATOM     13  C   UNL     1      50.970  31.307  89.761  1.00  0.00     0.006 C 
BRANCH  13  14
ATOM     14  C   UNL     1      50.366  31.229  91.183  1.00  0.00     0.053 C 
BRANCH  14  15
ATOM     15  C   UNL     1      51.295  31.852  92.195  1.00  0.00     0.041 C 
ATOM     16  O   UNL     1      50.814  32.663  93.036  1.00  0.00    -0.550 OA
ATOM     17  O   UNL     1      52.670  31.683  92.087  1.00  0.00    -0.550 OA
ENDBRANCH  14  15
ENDBRANCH  13  14
ENDBRANCH  12  13
ENDBRANCH  11  12
ENDBRANCH  10  11
ENDBRANCH   9  10
ENDBRANCH   8   9
ENDBRANCH   7   8
ENDBRANCH   6   7
ENDBRANCH   5   6
ENDBRANCH   4   5
ENDBRANCH   3   4
ENDBRANCH   2   3
ENDBRANCH   1   2
BRANCH   1  18
ATOM     18  C   UNL     1      51.161  34.915  87.685  1.00  0.00     0.000 C 
BRANCH  18  19
ATOM     19  C   UNL     1      52.440  35.761  87.554  1.00  0.00     0.000 C 
BRANCH  19  20
ATOM     20  C   UNL     1      53.679  35.109  88.199  1.00  0.00     0.000 C 
BRANCH  20  21
ATOM     21  C   UNL     1      53.384  33.862  89.056  1.00  0.00     0.000 C 
BRANCH  21  22
ATOM     22  C   UNL     1      54.612  33.009  89.445  1.00  0.00     0.000 C 
BRANCH  22  23
ATOM     23  C   UNL     1      55.384  32.376  88.267  1.00  0.00     0.000 C 
BRANCH  23  24
ATOM     24  C   UNL     1      54.847  31.010  87.787  1.00  0.00    -0.000 C 
BRANCH  24  25
ATOM     25  C   UNL     1      54.576  30.906  86.271  1.00  0.00    -0.000 C 
BRANCH  25  26
ATOM     26  C   UNL     1      53.082  30.834  85.927  1.00  0.00    -0.000 C 
BRANCH  26  27
ATOM     27  C   UNL     1      52.482  32.240  85.850  1.00  0.00    -0.000 C 
BRANCH  27  28
ATOM     28  C   UNL     1      53.337  33.143  84.955  1.00  0.00    -0.000 C 
BRANCH  28  29
ATOM     29  C   UNL     1      52.485  34.217  84.287  1.00  0.00    -0.000 C 
BRANCH  29  30
ATOM     30  C   UNL     1      51.576  33.623  83.204  1.00  0.00    -0.000 C 
BRANCH  30  31
ATOM     31  C   UNL     1      51.706  34.378  81.877  1.00  0.00    -0.003 C 
ATOM     32  C   UNL     1      53.156  34.723  81.537  1.00  0.00     0.004 C 
ENDBRANCH  30  31
ENDBRANCH  29  30
ENDBRANCH  28  29
ENDBRANCH  27  28
ENDBRANCH  26  27
ENDBRANCH  25  26
ENDBRANCH  24  25
ENDBRANCH  23  24
ENDBRANCH  22  23
ENDBRANCH  21  22
ENDBRANCH  20  21
ENDBRANCH  19  20
ENDBRANCH  18  19
ENDBRANCH   1  18
TORSDOF 28
ENDMDL
MODEL 3
REMARK VINA RESULT:    -3.186      3.148      7.609
REMARK INTER + INTRA:         -14.198
REMARK INTER:                  -7.991
REMARK INTRA:                  -6.207
REMARK UNBOUND:                -5.798
REMARK SMILES CCCCCCCCCCCCCCCCCCCCCCCCCCCCCC(=O)[O-]
REMARK SMILES IDX 16 1 17 2 18 3 19 4 20 5 21 6 22 7 23 8 24 9 25 10 26 11
REMARK SMILES IDX 27 12 28 13 29 14 30 15 31 16 32 17 15 18 14 19 13 20 12 21
REMARK SMILES IDX 11 22 10 23 9 24 8 25 7 26 6 27 5 28 4 29 3 30 2 31 1 32
REMARK H PARENT
REMARK Flexibility Score: inf
ROOT
ATOM      1  C   UNL     1      48.319  33.296  87.497  1.00  0.00     0.000 C 
ENDROOT
BRANCH   1   2
ATOM      2  C   UNL     1      48.604  34.562  86.668  1.00  0.00     0.000 C 
BRANCH   2   3
ATOM      3  C   UNL     1      49.242  35.734  87.442  1.00  0.00     0.000 C 
BRANCH   3   4
ATOM      4  C   UNL     1      50.785  35.722  87.486  1.00  0.00     0.000 C 
BRANCH   4   5
ATOM      5  C   UNL     1      51.449  35.023  86.291  1.00  0.00     0.000 C 
BRANCH   5   6
ATOM      6  C   UNL     1      52.977  34.854  86.450  1.00  0.00     0.000 C 
BRANCH   6   7
ATOM      7  C   UNL     1      53.533  33.795  85.487  1.00  0.00     0.000 C 
BRANCH   7   8
ATOM      8  C   UNL     1      53.515  34.266  84.027  1.00  0.00     0.000 C 
BRANCH   8   9
ATOM      9  C   UNL     1      53.079  33.162  83.067  1.00  0.00     0.000 C 
BRANCH   9  10
ATOM     10  C   UNL     1      52.545  31.910  83.798  1.00  0.00     0.000 C 
BRANCH  10  11
ATOM     11  C   UNL     1      51.048  31.671  83.536  1.00  0.00     0.000 C 
BRANCH  11  12
ATOM     12  C   UNL     1      50.185  32.948  83.771  1.00  0.00     0.000 C 
BRANCH  12  13
ATOM     13  C   UNL     1      49.369  33.373  82.527  1.00  0.00     0.006 C 
BRANCH  13  14
ATOM     14  C   UNL     1      47.906  33.745  82.867  1.00  0.00     0.053 C 
BRANCH  14  15
ATOM     15  C   UNL     1      46.951  32.709  82.331  1.00  0.00     0.041 C 
ATOM     16  O   UNL     1      47.401  31.560  82.056  1.00  0.00    -0.550 OA
ATOM     17  O   UNL     1      45.655  33.061  81.974  1.00  0.00    -0.550 OA
ENDBRANCH  14  15
ENDBRANCH  13  14
ENDBRANCH  12  13
ENDBRANCH  11  12
ENDBRANCH  10  11
ENDBRANCH   9  10
ENDBRANCH   8   9
ENDBRANCH   7   8
ENDBRANCH   6   7
ENDBRANCH   5   6
ENDBRANCH   4   5
ENDBRANCH   3   4
ENDBRANCH   2   3
ENDBRANCH   1   2
BRANCH   1  18
ATOM     18  C   UNL     1      48.194  32.019  86.647  1.00  0.00     0.000 C 
BRANCH  18  19
ATOM     19  C   UNL     1      49.344  31.047  86.962  1.00  0.00     0.000 C 
BRANCH  19  20
ATOM     20  C   UNL     1      50.685  31.750  87.249  1.00  0.00     0.000 C 
BRANCH  20  21
ATOM     21  C   UNL     1      51.838  30.810  87.653  1.00  0.00     0.000 C 
BRANCH  21  22
ATOM     22  C   UNL     1      52.936  31.437  88.539  1.00  0.00     0.000 C 
BRANCH  22  23
ATOM     23  C   UNL     1      52.500  32.659  89.378  1.00  0.00     0.000 C 
BRANCH  23  24
ATOM     24  C   UNL     1      52.880  32.599  90.874  1.00  0.00    -0.000 C 
BRANCH  24  25
ATOM     25  C   UNL     1      52.670  31.228  91.550  1.00  0.00    -0.000 C 
BRANCH  25  26
ATOM     26  C   UNL     1      51.206  30.956  91.924  1.00  0.00    -0.000 C 
BRANCH  26  27
ATOM     27  C   UNL     1      50.741  29.623  91.331  1.00  0.00    -0.000 C 
BRANCH  27  28
ATOM     28  C   UNL     1      49.519  29.831  90.431  1.00  0.00    -0.000 C 
BRANCH  28  29
ATOM     29  C   UNL     1      48.904  31.209  90.652  1.00  0.00    -0.000 C 
BRANCH  29  30
ATOM     30  C   UNL     1      47.386  31.189  90.434  1.00  0.00    -0.000 C 
BRANCH  30  31
ATOM     31  C   UNL     1      46.882  29.785  90.078  1.00  0.00    -0.003 C 
ATOM     32  C   UNL     1      46.117  29.756  88.755  1.00  0.00     0.004 C 
ENDBRANCH  30  31
ENDBRANCH  29  30
ENDBRANCH  28  29
ENDBRANCH  27  28
ENDBRANCH  26  27
ENDBRANCH  25  26
ENDBRANCH  24  25
ENDBRANCH  23  24
ENDBRANCH  22  23
ENDBRANCH  21  22
ENDBRANCH  20  21
ENDBRANCH  19  20
ENDBRANCH  18  19
ENDBRANCH   1  18
TORSDOF 28
ENDMDL
MODEL 4
REMARK VINA RESULT:    -3.161      2.247      3.814
REMARK INTER + INTRA:         -14.133
REMARK INTER:                  -8.100
REMARK INTRA:                  -6.032
REMARK UNBOUND:                -5.798
REMARK SMILES CCCCCCCCCCCCCCCCCCCCCCCCCCCCCC(=O)[O-]
REMARK SMILES IDX 16 1 17 2 18 3 19 4 20 5 21 6 22 7 23 8 24 9 25 10 26 11
REMARK SMILES IDX 27 12 28 13 29 14 30 15 31 16 32 17 15 18 14 19 13 20 12 21
REMARK SMILES IDX 11 22 10 23 9 24 8 25 7 26 6 27 5 28 4 29 3 30 2 31 1 32
REMARK H PARENT
REMARK Flexibility Score: inf
ROOT
ATOM      1  C   UNL     1      51.382  34.717  87.549  1.00  0.00     0.000 C 
ENDROOT
BRANCH   1   2
ATOM      2  C   UNL     1      50.128  35.513  87.144  1.00  0.00     0.000 C 
BRANCH   2   3
ATOM      3  C   UNL     1      48.908  34.664  86.729  1.00  0.00     0.000 C 
BRANCH   3   4
ATOM      4  C   UNL     1      48.538  33.534  87.712  1.00  0.00     0.000 C 
BRANCH   4   5
ATOM      5  C   UNL     1      48.855  32.120  87.205  1.00  0.00     0.000 C 
BRANCH   5   6
ATOM      6  C   UNL     1      47.713  31.494  86.374  1.00  0.00     0.000 C 
BRANCH   6   7
ATOM      7  C   UNL     1      47.313  30.112  86.909  1.00  0.00     0.000 C 
BRANCH   7   8
ATOM      8  C   UNL     1      46.014  30.156  87.727  1.00  0.00     0.000 C 
BRANCH   8   9
ATOM      9  C   UNL     1      46.260  29.933  89.217  1.00  0.00     0.000 C 
BRANCH   9  10
ATOM     10  C   UNL     1      46.539  31.248  89.980  1.00  0.00     0.000 C 
BRANCH  10  11
ATOM     11  C   UNL     1      47.918  31.251  90.660  1.00  0.00     0.000 C 
BRANCH  11  12
ATOM     12  C   UNL     1      48.743  29.963  90.353  1.00  0.00     0.000 C 
BRANCH  12  13
ATOM     13  C   UNL     1      50.268  30.154  90.538  1.00  0.00     0.006 C 
BRANCH  13  14
ATOM     14  C   UNL     1      50.696  31.640  90.498  1.00  0.00     0.053 C 
BRANCH  14  15
ATOM     15  C   UNL     1      51.459  32.012  91.745  1.00  0.00     0.041 C 
ATOM     16  O   UNL     1      52.710  31.834  91.762  1.00  0.00    -0.550 OA
ATOM     17  O   UNL     1      50.782  32.365  92.906  1.00  0.00    -0.550 OA
ENDBRANCH  14  15
ENDBRANCH  13  14
ENDBRANCH  12  13
ENDBRANCH  11  12
ENDBRANCH  10  11
ENDBRANCH   9  10
ENDBRANCH   8   9
ENDBRANCH   7   8
ENDBRANCH   6   7
ENDBRANCH   5   6
ENDBRANCH   4   5
ENDBRANCH   3   4
ENDBRANCH   2   3
ENDBRANCH   1   2
BRANCH   1  18
ATOM     18  C   UNL     1      52.695  35.499  87.361  1.00  0.00     0.000 C 
BRANCH  18  19
ATOM     19  C   UNL     1      53.906  34.563  87.509  1.00  0.00     0.000 C 
BRANCH  19  20
ATOM     20  C   UNL     1      53.522  33.091  87.757  1.00  0.00     0.000 C 
BRANCH  20  21
ATOM     21  C   UNL     1      54.608  32.064  87.378  1.00  0.00     0.000 C 
BRANCH  21  22
ATOM     22  C   UNL     1      54.098  30.648  87.028  1.00  0.00     0.000 C 
BRANCH  22  23
ATOM     23  C   UNL     1      52.817  30.199  87.766  1.00  0.00     0.000 C 
BRANCH  23  24
ATOM     24  C   UNL     1      51.562  30.059  86.877  1.00  0.00    -0.000 C 
BRANCH  24  25
ATOM     25  C   UNL     1      51.837  29.674  85.408  1.00  0.00    -0.000 C 
BRANCH  25  26
ATOM     26  C   UNL     1      51.262  30.680  84.401  1.00  0.00    -0.000 C 
BRANCH  26  27
ATOM     27  C   UNL     1      51.420  32.110  84.925  1.00  0.00    -0.000 C 
BRANCH  27  28
ATOM     28  C   UNL     1      52.588  32.814  84.227  1.00  0.00    -0.000 C 
BRANCH  28  29
ATOM     29  C   UNL     1      52.236  34.260  83.894  1.00  0.00    -0.000 C 
BRANCH  29  30
ATOM     30  C   UNL     1      50.733  34.427  83.634  1.00  0.00    -0.000 C 
BRANCH  30  31
ATOM     31  C   UNL     1      50.428  34.569  82.138  1.00  0.00    -0.003 C 
ATOM     32  C   UNL     1      49.061  33.997  81.762  1.00  0.00     0.004 C 
ENDBRANCH  30  31
ENDBRANCH  29  30
ENDBRANCH  28  29
ENDBRANCH  27  28
ENDBRANCH  26  27
ENDBRANCH  25  26
ENDBRANCH  24  25
ENDBRANCH  23  24
ENDBRANCH  22  23
ENDBRANCH  21  22
ENDBRANCH  20  21
ENDBRANCH  19  20
ENDBRANCH  18  19
ENDBRANCH   1  18
TORSDOF 28
ENDMDL
MODEL 5
REMARK VINA RESULT:    -3.139      2.881      5.733
REMARK INTER + INTRA:         -14.075
REMARK INTER:                  -8.607
REMARK INTRA:                  -5.468
REMARK UNBOUND:                -5.798
REMARK SMILES CCCCCCCCCCCCCCCCCCCCCCCCCCCCCC(=O)[O-]
REMARK SMILES IDX 16 1 17 2 18 3 19 4 20 5 21 6 22 7 23 8 24 9 25 10 26 11
REMARK SMILES IDX 27 12 28 13 29 14 30 15 31 16 32 17 15 18 14 19 13 20 12 21
REMARK SMILES IDX 11 22 10 23 9 24 8 25 7 26 6 27 5 28 4 29 3 30 2 31 1 32
REMARK H PARENT
REMARK Flexibility Score: inf
ROOT
ATOM      1  C   UNL     1      45.963  29.017  87.293  1.00  0.00     0.000 C 
ENDROOT
BRANCH   1   2
ATOM      2  C   UNL     1      46.740  28.321  88.425  1.00  0.00     0.000 C 
BRANCH   2   3
ATOM      3  C   UNL     1      45.875  27.724  89.555  1.00  0.00     0.000 C 
BRANCH   3   4
ATOM      4  C   UNL     1      46.505  27.794  90.962  1.00  0.00     0.000 C 
BRANCH   4   5
ATOM      5  C   UNL     1      45.686  28.591  91.988  1.00  0.00     0.000 C 
BRANCH   5   6
ATOM      6  C   UNL     1      44.409  29.226  91.394  1.00  0.00     0.000 C 
BRANCH   6   7
ATOM      7  C   UNL     1      44.190  30.653  91.918  1.00  0.00     0.000 C 
BRANCH   7   8
ATOM      8  C   UNL     1      45.351  31.591  91.559  1.00  0.00     0.000 C 
BRANCH   8   9
ATOM      9  C   UNL     1      45.571  31.690  90.052  1.00  0.00     0.000 C 
BRANCH   9  10
ATOM     10  C   UNL     1      47.067  31.691  89.665  1.00  0.00     0.000 C 
BRANCH  10  11
ATOM     11  C   UNL     1      47.958  31.087  90.762  1.00  0.00     0.000 C 
BRANCH  11  12
ATOM     12  C   UNL     1      49.279  30.479  90.198  1.00  0.00     0.000 C 
BRANCH  12  13
ATOM     13  C   UNL     1      50.424  30.428  91.238  1.00  0.00     0.006 C 
BRANCH  13  14
ATOM     14  C   UNL     1      51.101  31.802  91.453  1.00  0.00     0.053 C 
BRANCH  14  15
ATOM     15  C   UNL     1      52.476  31.825  90.833  1.00  0.00     0.041 C 
ATOM     16  O   UNL     1      53.291  32.715  91.207  1.00  0.00    -0.550 OA
ATOM     17  O   UNL     1      52.774  31.007  89.750  1.00  0.00    -0.550 OA
ENDBRANCH  14  15
ENDBRANCH  13  14
ENDBRANCH  12  13
ENDBRANCH  11  12
ENDBRANCH  10  11
ENDBRANCH   9  10
ENDBRANCH   8   9
ENDBRANCH   7   8
ENDBRANCH   6   7
ENDBRANCH   5   6
ENDBRANCH   4   5
ENDBRANCH   3   4
ENDBRANCH   2   3
ENDBRANCH   1   2
BRANCH   1  18
ATOM     18  C   UNL     1      46.769  30.117  86.579  1.00  0.00     0.000 C 
BRANCH  18  19
ATOM     19  C   UNL     1      48.276  29.817  86.656  1.00  0.00     0.000 C 
BRANCH  19  20
ATOM     20  C   UNL     1      49.164  31.012  86.258  1.00  0.00     0.000 C 
BRANCH  20  21
ATOM     21  C   UNL     1      48.437  32.371  86.205  1.00  0.00     0.000 C 
BRANCH  21  22
ATOM     22  C   UNL     1      49.003  33.470  87.130  1.00  0.00     0.000 C 
BRANCH  22  23
ATOM     23  C   UNL     1      50.159  33.033  88.057  1.00  0.00     0.000 C 
BRANCH  23  24
ATOM     24  C   UNL     1      51.430  33.909  87.980  1.00  0.00    -0.000 C 
BRANCH  24  25
ATOM     25  C   UNL     1      51.475  34.899  86.797  1.00  0.00    -0.000 C 
BRANCH  25  26
ATOM     26  C   UNL     1      52.841  34.946  86.100  1.00  0.00    -0.000 C 
BRANCH  26  27
ATOM     27  C   UNL     1      52.696  34.602  84.615  1.00  0.00    -0.000 C 
BRANCH  27  28
ATOM     28  C   UNL     1      51.395  33.833  84.364  1.00  0.00    -0.000 C 
BRANCH  28  29
ATOM     29  C   UNL     1      50.847  34.124  82.971  1.00  0.00    -0.000 C 
BRANCH  29  30
ATOM     30  C   UNL     1      49.448  34.750  83.037  1.00  0.00    -0.000 C 
BRANCH  30  31
ATOM     31  C   UNL     1      48.349  33.712  82.785  1.00  0.00    -0.003 C 
ATOM     32  C   UNL     1      48.880  32.447  82.111  1.00  0.00     0.004 C 
ENDBRANCH  30  31
ENDBRANCH  29  30
ENDBRANCH  28  29
ENDBRANCH  27  28
ENDBRANCH  26  27
ENDBRANCH  25  26
ENDBRANCH  24  25
ENDBRANCH  23  24
ENDBRANCH  22  23
ENDBRANCH  21  22
ENDBRANCH  20  21
ENDBRANCH  19  20
ENDBRANCH  18  19
ENDBRANCH   1  18
TORSDOF 28
ENDMDL
MODEL 6
REMARK VINA RESULT:    -3.126      1.581      3.744
REMARK INTER + INTRA:         -14.039
REMARK INTER:                  -8.600
REMARK INTRA:                  -5.440
REMARK UNBOUND:                -5.798
REMARK SMILES CCCCCCCCCCCCCCCCCCCCCCCCCCCCCC(=O)[O-]
REMARK SMILES IDX 16 1 17 2 18 3 19 4 20 5 21 6 22 7 23 8 24 9 25 10 26 11
REMARK SMILES IDX 27 12 28 13 29 14 30 15 31 16 32 17 15 18 14 19 13 20 12 21
REMARK SMILES IDX 11 22 10 23 9 24 8 25 7 26 6 27 5 28 4 29 3 30 2 31 1 32
REMARK H PARENT
REMARK Flexibility Score: inf
ROOT
ATOM      1  C   UNL     1      53.068  31.085  91.842  1.00  0.00     0.000 C 
ENDROOT
BRANCH   1   2
ATOM      2  C   UNL     1      51.862  32.030  91.986  1.00  0.00     0.000 C 
BRANCH   2   3
ATOM      3  C   UNL     1      50.487  31.408  91.658  1.00  0.00     0.000 C 
BRANCH   3   4
ATOM      4  C   UNL     1      50.488  30.416  90.475  1.00  0.00     0.000 C 
BRANCH   4   5
ATOM      5  C   UNL     1      50.913  31.028  89.133  1.00  0.00     0.000 C 
BRANCH   5   6
ATOM      6  C   UNL     1      51.626  30.025  88.199  1.00  0.00     0.000 C 
BRANCH   6   7
ATOM      7  C   UNL     1      50.785  29.714  86.952  1.00  0.00     0.000 C 
BRANCH   7   8
ATOM      8  C   UNL     1      49.626  30.703  86.768  1.00  0.00     0.000 C 
BRANCH   8   9
ATOM      9  C   UNL     1      48.263  30.028  86.896  1.00  0.00     0.000 C 
BRANCH   9  10
ATOM     10  C   UNL     1      47.128  31.026  87.219  1.00  0.00     0.000 C 
BRANCH  10  11
ATOM     11  C   UNL     1      47.372  31.787  88.533  1.00  0.00     0.000 C 
BRANCH  11  12
ATOM     12  C   UNL     1      46.118  31.802  89.461  1.00  0.00     0.000 C 
BRANCH  12  13
ATOM     13  C   UNL     1      46.381  31.185  90.856  1.00  0.00     0.006 C 
BRANCH  13  14
ATOM     14  C   UNL     1      45.289  30.175  91.280  1.00  0.00     0.053 C 
BRANCH  14  15
ATOM     15  C   UNL     1      44.266  30.835  92.170  1.00  0.00     0.041 C 
ATOM     16  O   UNL     1      43.137  30.282  92.304  1.00  0.00    -0.550 OA
ATOM     17  O   UNL     1      44.491  32.107  92.681  1.00  0.00    -0.550 OA
ENDBRANCH  14  15
ENDBRANCH  13  14
ENDBRANCH  12  13
ENDBRANCH  11  12
ENDBRANCH  10  11
ENDBRANCH   9  10
ENDBRANCH   8   9
ENDBRANCH   7   8
ENDBRANCH   6   7
ENDBRANCH   5   6
ENDBRANCH   4   5
ENDBRANCH   3   4
ENDBRANCH   2   3
ENDBRANCH   1   2
BRANCH   1  18
ATOM     18  C   UNL     1      54.172  31.631  90.918  1.00  0.00     0.000 C 
BRANCH  18  19
ATOM     19  C   UNL     1      53.803  33.037  90.411  1.00  0.00     0.000 C 
BRANCH  19  20
ATOM     20  C   UNL     1      54.707  33.537  89.267  1.00  0.00     0.000 C 
BRANCH  20  21
ATOM     21  C   UNL     1      54.674  32.674  87.990  1.00  0.00     0.000 C 
BRANCH  21  22
ATOM     22  C   UNL     1      53.483  32.928  87.040  1.00  0.00     0.000 C 
BRANCH  22  23
ATOM     23  C   UNL     1      53.365  34.365  86.486  1.00  0.00     0.000 C 
BRANCH  23  24
ATOM     24  C   UNL     1      52.082  35.123  86.891  1.00  0.00    -0.000 C 
BRANCH  24  25
ATOM     25  C   UNL     1      51.153  34.368  87.866  1.00  0.00    -0.000 C 
BRANCH  25  26
ATOM     26  C   UNL     1      49.728  34.187  87.326  1.00  0.00    -0.000 C 
BRANCH  26  27
ATOM     27  C   UNL     1      49.523  35.030  86.064  1.00  0.00    -0.000 C 
BRANCH  27  28
ATOM     28  C   UNL     1      49.106  34.144  84.886  1.00  0.00    -0.000 C 
BRANCH  28  29
ATOM     29  C   UNL     1      49.755  34.615  83.589  1.00  0.00    -0.000 C 
BRANCH  29  30
ATOM     30  C   UNL     1      50.997  33.783  83.247  1.00  0.00    -0.000 C 
BRANCH  30  31
ATOM     31  C   UNL     1      51.135  32.564  84.167  1.00  0.00    -0.003 C 
ATOM     32  C   UNL     1      52.217  31.593  83.696  1.00  0.00     0.004 C 
ENDBRANCH  30  31
ENDBRANCH  29  30
ENDBRANCH  28  29
ENDBRANCH  27  28
ENDBRANCH  26  27
ENDBRANCH  25  26
ENDBRANCH  24  25
ENDBRANCH  23  24
ENDBRANCH  22  23
ENDBRANCH  21  22
ENDBRANCH  20  21
ENDBRANCH  19  20
ENDBRANCH  18  19
ENDBRANCH   1  18
TORSDOF 28
ENDMDL
MODEL 7
REMARK VINA RESULT:    -3.116      1.756      4.259
REMARK INTER + INTRA:         -14.014
REMARK INTER:                  -8.111
REMARK INTRA:                  -5.903
REMARK UNBOUND:                -5.798
REMARK SMILES CCCCCCCCCCCCCCCCCCCCCCCCCCCCCC(=O)[O-]
REMARK SMILES IDX 16 1 17 2 18 3 19 4 20 5 21 6 22 7 23 8 24 9 25 10 26 11
REMARK SMILES IDX 27 12 28 13 29 14 30 15 31 16 32 17 15 18 14 19 13 20 12 21
REMARK SMILES IDX 11 22 10 23 9 24 8 25 7 26 6 27 5 28 4 29 3 30 2 31 1 32
REMARK H PARENT
REMARK Flexibility Score: inf
ROOT
ATOM      1  C   UNL     1      50.358  34.169  87.690  1.00  0.00     0.000 C 
ENDROOT
BRANCH   1   2
ATOM      2  C   UNL     1      51.221  35.354  87.222  1.00  0.00     0.000 C 
BRANCH   2   3
ATOM      3  C   UNL     1      52.451  34.984  86.365  1.00  0.00     0.000 C 
BRANCH   3   4
ATOM      4  C   UNL     1      53.746  34.729  87.164  1.00  0.00     0.000 C 
BRANCH   4   5
ATOM      5  C   UNL     1      54.254  33.281  87.109  1.00  0.00     0.000 C 
BRANCH   5   6
ATOM      6  C   UNL     1      54.775  32.760  88.467  1.00  0.00     0.000 C 
BRANCH   6   7
ATOM      7  C   UNL     1      54.466  33.741  89.607  1.00  0.00     0.000 C 
BRANCH   7   8
ATOM      8  C   UNL     1      53.607  33.105  90.709  1.00  0.00     0.000 C 
BRANCH   8   9
ATOM      9  C   UNL     1      52.425  32.324  90.142  1.00  0.00     0.000 C 
BRANCH   9  10
ATOM     10  C   UNL     1      51.759  31.403  91.190  1.00  0.00     0.000 C 
BRANCH  10  11
ATOM     11  C   UNL     1      50.251  31.230  90.946  1.00  0.00     0.000 C 
BRANCH  11  12
ATOM     12  C   UNL     1      49.930  30.690  89.518  1.00  0.00     0.000 C 
BRANCH  12  13
ATOM     13  C   UNL     1      48.501  30.111  89.389  1.00  0.00     0.006 C 
BRANCH  13  14
ATOM     14  C   UNL     1      47.622  30.399  90.629  1.00  0.00     0.053 C 
BRANCH  14  15
ATOM     15  C   UNL     1      46.621  31.488  90.335  1.00  0.00     0.041 C 
ATOM     16  O   UNL     1      45.571  31.545  91.035  1.00  0.00    -0.550 OA
ATOM     17  O   UNL     1      46.762  32.289  89.209  1.00  0.00    -0.550 OA
ENDBRANCH  14  15
ENDBRANCH  13  14
ENDBRANCH  12  13
ENDBRANCH  11  12
ENDBRANCH  10  11
ENDBRANCH   9  10
ENDBRANCH   8   9
ENDBRANCH   7   8
ENDBRANCH   6   7
ENDBRANCH   5   6
ENDBRANCH   4   5
ENDBRANCH   3   4
ENDBRANCH   2   3
ENDBRANCH   1   2
BRANCH   1  18
ATOM     18  C   UNL     1      48.938  34.168  87.097  1.00  0.00     0.000 C 
BRANCH  18  19
ATOM     19  C   UNL     1      48.887  35.025  85.820  1.00  0.00     0.000 C 
BRANCH  19  20
ATOM     20  C   UNL     1      48.825  34.196  84.522  1.00  0.00     0.000 C 
BRANCH  20  21
ATOM     21  C   UNL     1      49.865  34.585  83.452  1.00  0.00     0.000 C 
BRANCH  21  22
ATOM     22  C   UNL     1      51.097  33.659  83.346  1.00  0.00     0.000 C 
BRANCH  22  23
ATOM     23  C   UNL     1      52.300  34.235  82.567  1.00  0.00     0.000 C 
BRANCH  23  24
ATOM     24  C   UNL     1      53.688  33.805  83.090  1.00  0.00    -0.000 C 
BRANCH  24  25
ATOM     25  C   UNL     1      54.128  32.380  82.690  1.00  0.00    -0.000 C 
BRANCH  25  26
ATOM     26  C   UNL     1      54.449  31.486  83.896  1.00  0.00    -0.000 C 
BRANCH  26  27
ATOM     27  C   UNL     1      53.206  30.702  84.327  1.00  0.00    -0.000 C 
BRANCH  27  28
ATOM     28  C   UNL     1      53.423  30.061  85.701  1.00  0.00    -0.000 C 
BRANCH  28  29
ATOM     29  C   UNL     1      52.202  30.253  86.594  1.00  0.00    -0.000 C 
BRANCH  29  30
ATOM     30  C   UNL     1      51.252  31.315  86.028  1.00  0.00    -0.000 C 
BRANCH  30  31
ATOM     31  C   UNL     1      49.819  30.785  85.899  1.00  0.00    -0.003 C 
ATOM     32  C   UNL     1      49.425  30.504  84.449  1.00  0.00     0.004 C 
ENDBRANCH  30  31
ENDBRANCH  29  30
ENDBRANCH  28  29
ENDBRANCH  27  28
ENDBRANCH  26  27
ENDBRANCH  25  26
ENDBRANCH  24  25
ENDBRANCH  23  24
ENDBRANCH  22  23
ENDBRANCH  21  22
ENDBRANCH  20  21
ENDBRANCH  19  20
ENDBRANCH  18  19
ENDBRANCH   1  18
TORSDOF 28
ENDMDL
MODEL 8
REMARK VINA RESULT:    -3.112      3.158      5.323
REMARK INTER + INTRA:         -14.004
REMARK INTER:                  -8.016
REMARK INTRA:                  -5.989
REMARK UNBOUND:                -5.798
REMARK SMILES CCCCCCCCCCCCCCCCCCCCCCCCCCCCCC(=O)[O-]
REMARK SMILES IDX 16 1 17 2 18 3 19 4 20 5 21 6 22 7 23 8 24 9 25 10 26 11
REMARK SMILES IDX 27 12 28 13 29 14 30 15 31 16 32 17 15 18 14 19 13 20 12 21
REMARK SMILES IDX 11 22 10 23 9 24 8 25 7 26 6 27 5 28 4 29 3 30 2 31 1 32
REMARK H PARENT
REMARK Flexibility Score: inf
ROOT
ATOM      1  C   UNL     1      49.992  30.865  87.843  1.00  0.00     0.000 C 
ENDROOT
BRANCH   1   2
ATOM      2  C   UNL     1      48.797  30.543  86.927  1.00  0.00     0.000 C 
BRANCH   2   3
ATOM      3  C   UNL     1      47.499  31.320  87.232  1.00  0.00     0.000 C 
BRANCH   3   4
ATOM      4  C   UNL     1      47.534  32.163  88.524  1.00  0.00     0.000 C 
BRANCH   4   5
ATOM      5  C   UNL     1      46.545  31.710  89.607  1.00  0.00     0.000 C 
BRANCH   5   6
ATOM      6  C   UNL     1      46.940  30.376  90.279  1.00  0.00     0.000 C 
BRANCH   6   7
ATOM      7  C   UNL     1      48.354  30.437  90.875  1.00  0.00     0.000 C 
BRANCH   7   8
ATOM      8  C   UNL     1      49.111  29.111  90.719  1.00  0.00     0.000 C 
BRANCH   8   9
ATOM      9  C   UNL     1      50.460  29.127  91.433  1.00  0.00     0.000 C 
BRANCH   9  10
ATOM     10  C   UNL     1      51.654  28.991  90.462  1.00  0.00     0.000 C 
BRANCH  10  11
ATOM     11  C   UNL     1      52.717  30.080  90.681  1.00  0.00     0.000 C 
BRANCH  11  12
ATOM     12  C   UNL     1      53.783  30.118  89.543  1.00  0.00     0.000 C 
BRANCH  12  13
ATOM     13  C   UNL     1      54.111  31.550  89.058  1.00  0.00     0.006 C 
BRANCH  13  14
ATOM     14  C   UNL     1      53.522  32.645  89.978  1.00  0.00     0.053 C 
BRANCH  14  15
ATOM     15  C   UNL     1      54.597  33.603  90.427  1.00  0.00     0.041 C 
ATOM     16  O   UNL     1      55.610  33.136  91.021  1.00  0.00    -0.550 OA
ATOM     17  O   UNL     1      54.393  34.975  90.356  1.00  0.00    -0.550 OA
ENDBRANCH  14  15
ENDBRANCH  13  14
ENDBRANCH  12  13
ENDBRANCH  11  12
ENDBRANCH  10  11
ENDBRANCH   9  10
ENDBRANCH   8   9
ENDBRANCH   7   8
ENDBRANCH   6   7
ENDBRANCH   5   6
ENDBRANCH   4   5
ENDBRANCH   3   4
ENDBRANCH   2   3
ENDBRANCH   1   2
BRANCH   1  18
ATOM     18  C   UNL     1      51.209  31.432  87.090  1.00  0.00     0.000 C 
BRANCH  18  19
ATOM     19  C   UNL     1      51.476  30.622  85.809  1.00  0.00     0.000 C 
BRANCH  19  20
ATOM     20  C   UNL     1      52.536  31.257  84.887  1.00  0.00     0.000 C 
BRANCH  20  21
ATOM     21  C   UNL     1      53.308  32.440  85.505  1.00  0.00     0.000 C 
BRANCH  21  22
ATOM     22  C   UNL     1      53.228  33.772  84.726  1.00  0.00     0.000 C 
BRANCH  22  23
ATOM     23  C   UNL     1      52.700  34.982  85.527  1.00  0.00     0.000 C 
BRANCH  23  24
ATOM     24  C   UNL     1      52.770  34.835  87.064  1.00  0.00    -0.000 C 
BRANCH  24  25
ATOM     25  C   UNL     1      51.406  34.711  87.774  1.00  0.00    -0.000 C 
BRANCH  25  26
ATOM     26  C   UNL     1      50.310  35.574  87.134  1.00  0.00    -0.000 C 
BRANCH  26  27
ATOM     27  C   UNL     1      49.151  34.698  86.653  1.00  0.00    -0.000 C 
BRANCH  27  28
ATOM     28  C   UNL     1      49.050  34.726  85.125  1.00  0.00    -0.000 C 
BRANCH  28  29
ATOM     29  C   UNL     1      49.243  33.332  84.537  1.00  0.00    -0.000 C 
BRANCH  29  30
ATOM     30  C   UNL     1      49.934  33.390  83.169  1.00  0.00    -0.000 C 
BRANCH  30  31
ATOM     31  C   UNL     1      49.877  34.797  82.563  1.00  0.00    -0.003 C 
ATOM     32  C   UNL     1      49.888  34.777  81.034  1.00  0.00     0.004 C 
ENDBRANCH  30  31
ENDBRANCH  29  30
ENDBRANCH  28  29
ENDBRANCH  27  28
ENDBRANCH  26  27
ENDBRANCH  25  26
ENDBRANCH  24  25
ENDBRANCH  23  24
ENDBRANCH  22  23
ENDBRANCH  21  22
ENDBRANCH  20  21
ENDBRANCH  19  20
ENDBRANCH  18  19
ENDBRANCH   1  18
TORSDOF 28
ENDMDL
MODEL 9
REMARK VINA RESULT:    -3.067      1.786      4.566
REMARK INTER + INTRA:         -13.885
REMARK INTER:                  -7.303
REMARK INTRA:                  -6.582
REMARK UNBOUND:                -5.798
REMARK SMILES CCCCCCCCCCCCCCCCCCCCCCCCCCCCCC(=O)[O-]
REMARK SMILES IDX 16 1 17 2 18 3 19 4 20 5 21 6 22 7 23 8 24 9 25 10 26 11
REMARK SMILES IDX 27 12 28 13 29 14 30 15 31 16 32 17 15 18 14 19 13 20 12 21
REMARK SMILES IDX 11 22 10 23 9 24 8 25 7 26 6 27 5 28 4 29 3 30 2 31 1 32
REMARK H PARENT
REMARK Flexibility Score: inf
ROOT
ATOM      1  C   UNL     1      49.879  29.418  86.999  1.00  0.00     0.000 C 
ENDROOT
BRANCH   1   2
ATOM      2  C   UNL     1      51.153  28.812  87.616  1.00  0.00     0.000 C 
BRANCH   2   3
ATOM      3  C   UNL     1      52.457  29.596  87.352  1.00  0.00     0.000 C 
BRANCH   3   4
ATOM      4  C   UNL     1      53.719  28.997  88.007  1.00  0.00     0.000 C 
BRANCH   4   5
ATOM      5  C   UNL     1      54.736  30.038  88.497  1.00  0.00     0.000 C 
BRANCH   5   6
ATOM      6  C   UNL     1      54.646  30.317  90.014  1.00  0.00     0.000 C 
BRANCH   6   7
ATOM      7  C   UNL     1      54.817  31.811  90.326  1.00  0.00     0.000 C 
BRANCH   7   8
ATOM      8  C   UNL     1      53.525  32.449  90.853  1.00  0.00     0.000 C 
BRANCH   8   9
ATOM      9  C   UNL     1      52.398  32.410  89.823  1.00  0.00     0.000 C 
BRANCH   9  10
ATOM     10  C   UNL     1      51.046  31.974  90.430  1.00  0.00     0.000 C 
BRANCH  10  11
ATOM     11  C   UNL     1      51.063  30.514  90.912  1.00  0.00     0.000 C 
BRANCH  11  12
ATOM     12  C   UNL     1      49.659  29.839  90.833  1.00  0.00     0.000 C 
BRANCH  12  13
ATOM     13  C   UNL     1      48.541  30.801  90.365  1.00  0.00     0.006 C 
BRANCH  13  14
ATOM     14  C   UNL     1      47.297  30.058  89.824  1.00  0.00     0.053 C 
BRANCH  14  15
ATOM     15  C   UNL     1      46.037  30.591  90.459  1.00  0.00     0.041 C 
ATOM     16  O   UNL     1      45.543  31.664  90.010  1.00  0.00    -0.550 OA
ATOM     17  O   UNL     1      45.538  30.019  91.623  1.00  0.00    -0.550 OA
ENDBRANCH  14  15
ENDBRANCH  13  14
ENDBRANCH  12  13
ENDBRANCH  11  12
ENDBRANCH  10  11
ENDBRANCH   9  10
ENDBRANCH   8   9
ENDBRANCH   7   8
ENDBRANCH   6   7
ENDBRANCH   5   6
ENDBRANCH   4   5
ENDBRANCH   3   4
ENDBRANCH   2   3
ENDBRANCH   1   2
BRANCH   1  18
ATOM     18  C   UNL     1      49.933  30.949  86.854  1.00  0.00     0.000 C 
BRANCH  18  19
ATOM     19  C   UNL     1      48.540  31.508  86.518  1.00  0.00     0.000 C 
BRANCH  19  20
ATOM     20  C   UNL     1      48.179  32.781  87.308  1.00  0.00     0.000 C 
BRANCH  20  21
ATOM     21  C   UNL     1      48.964  34.044  86.899  1.00  0.00     0.000 C 
BRANCH  21  22
ATOM     22  C   UNL     1      50.231  34.344  87.730  1.00  0.00     0.000 C 
BRANCH  22  23
ATOM     23  C   UNL     1      50.913  35.699  87.441  1.00  0.00     0.000 C 
BRANCH  23  24
ATOM     24  C   UNL     1      52.387  35.803  87.893  1.00  0.00    -0.000 C 
BRANCH  24  25
ATOM     25  C   UNL     1      53.429  35.377  86.837  1.00  0.00    -0.000 C 
BRANCH  25  26
ATOM     26  C   UNL     1      54.182  34.094  87.215  1.00  0.00    -0.000 C 
BRANCH  26  27
ATOM     27  C   UNL     1      53.688  32.915  86.373  1.00  0.00    -0.000 C 
BRANCH  27  28
ATOM     28  C   UNL     1      52.770  33.404  85.248  1.00  0.00    -0.000 C 
BRANCH  28  29
ATOM     29  C   UNL     1      52.177  32.230  84.476  1.00  0.00    -0.000 C 
BRANCH  29  30
ATOM     30  C   UNL     1      51.001  32.673  83.596  1.00  0.00    -0.000 C 
BRANCH  30  31
ATOM     31  C   UNL     1      50.784  34.189  83.658  1.00  0.00    -0.003 C 
ATOM     32  C   UNL     1      49.357  34.593  83.291  1.00  0.00     0.004 C 
ENDBRANCH  30  31
ENDBRANCH  29  30
ENDBRANCH  28  29
ENDBRANCH  27  28
ENDBRANCH  26  27
ENDBRANCH  25  26
ENDBRANCH  24  25
ENDBRANCH  23  24
ENDBRANCH  22  23
ENDBRANCH  21  22
ENDBRANCH  20  21
ENDBRANCH  19  20
ENDBRANCH  18  19
ENDBRANCH   1  18
TORSDOF 28
ENDMDL
