MODEL 1
REMARK VINA RESULT:    -4.539      0.000      0.000
REMARK INTER + INTRA:          -4.672
REMARK INTER:                  -4.672
REMARK INTRA:                   0.000
REMARK UNBOUND:                 0.000
REMARK SMILES Cc1cccc(O)c1C
REMARK SMILES IDX 1 1 2 2 8 3 6 4 5 5 4 6 3 7 9 8 7 9
REMARK H PARENT 7 10
REMARK Flexibility Score: inf
ROOT
ATOM      1  C   UNL     1     112.439   8.201 -27.830  1.00  0.00     0.045 C 
ATOM      2  C   UNL     1     112.471   8.399 -26.337  1.00  0.00    -0.045 A 
ATOM      3  C   UNL     1     111.512   7.799 -25.474  1.00  0.00    -0.006 A 
ATOM      4  C   UNL     1     111.603   8.029 -24.078  1.00  0.00     0.118 A 
ATOM      5  C   UNL     1     112.625   8.834 -23.566  1.00  0.00     0.046 A 
ATOM      6  C   UNL     1     113.560   9.418 -24.415  1.00  0.00     0.004 A 
ATOM      7  C   UNL     1     113.486   9.203 -25.790  1.00  0.00     0.004 A 
ATOM      8  C   UNL     1     110.399   6.925 -26.006  1.00  0.00     0.048 C 
ENDROOT
BRANCH   4   9
ATOM      9  O   UNL     1     110.697   7.474 -23.171  1.00  0.00    -0.508 OA
ATOM     10  H   UNL     1     109.772   7.154 -23.430  1.00  0.00     0.293 HD
ENDBRANCH   4   9
TORSDOF 1
ENDMDL
MODEL 2
REMARK VINA RESULT:    -4.400     14.492     16.382
REMARK INTER + INTRA:          -4.528
REMARK INTER:                  -4.528
REMARK INTRA:                   0.000
REMARK UNBOUND:                 0.000
REMARK SMILES Cc1cccc(O)c1C
REMARK SMILES IDX 1 1 2 2 8 3 6 4 5 5 4 6 3 7 9 8 7 9
REMARK H PARENT 7 10
REMARK Flexibility Score: inf
ROOT
ATOM      1  C   UNL     1     109.753   8.967 -38.745  1.00  0.00     0.045 C 
ATOM      2  C   UNL     1     110.219   8.395 -40.059  1.00  0.00    -0.045 A 
ATOM      3  C   UNL     1     111.239   9.014 -40.834  1.00  0.00    -0.006 A 
ATOM      4  C   UNL     1     111.627   8.420 -42.061  1.00  0.00     0.118 A 
ATOM      5  C   UNL     1     111.014   7.241 -42.494  1.00  0.00     0.046 A 
ATOM      6  C   UNL     1     110.017   6.639 -41.730  1.00  0.00     0.004 A 
ATOM      7  C   UNL     1     109.622   7.210 -40.522  1.00  0.00     0.004 A 
ATOM      8  C   UNL     1     111.916  10.289 -40.385  1.00  0.00     0.048 C 
ENDROOT
BRANCH   4   9
ATOM      9  O   UNL     1     112.620   8.972 -42.874  1.00  0.00    -0.508 OA
ATOM     10  H   UNL     1     113.035   8.485 -43.659  1.00  0.00     0.293 HD
ENDBRANCH   4   9
TORSDOF 1
ENDMDL
MODEL 3
REMARK VINA RESULT:    -4.319      0.868      2.605
REMARK INTER + INTRA:          -4.446
REMARK INTER:                  -4.446
REMARK INTRA:                   0.000
REMARK UNBOUND:                 0.000
REMARK SMILES Cc1cccc(O)c1C
REMARK SMILES IDX 1 1 2 2 8 3 6 4 5 5 4 6 3 7 9 8 7 9
REMARK H PARENT 7 10
REMARK Flexibility Score: inf
ROOT
ATOM      1  C   UNL     1     113.736  10.182 -26.285  1.00  0.00     0.045 C 
ATOM      2  C   UNL     1     112.661   9.171 -25.982  1.00  0.00    -0.045 A 
ATOM      3  C   UNL     1     112.280   8.848 -24.649  1.00  0.00    -0.006 A 
ATOM      4  C   UNL     1     111.260   7.887 -24.439  1.00  0.00     0.118 A 
ATOM      5  C   UNL     1     110.641   7.271 -25.530  1.00  0.00     0.046 A 
ATOM      6  C   UNL     1     111.018   7.591 -26.832  1.00  0.00     0.004 A 
ATOM      7  C   UNL     1     112.019   8.534 -27.058  1.00  0.00     0.004 A 
ATOM      8  C   UNL     1     112.935   9.503 -23.454  1.00  0.00     0.048 C 
ENDROOT
BRANCH   4   9
ATOM      9  O   UNL     1     110.835   7.521 -23.160  1.00  0.00    -0.508 OA
ATOM     10  H   UNL     1     109.936   7.094 -22.970  1.00  0.00     0.293 HD
ENDBRANCH   4   9
TORSDOF 1
ENDMDL
MODEL 4
REMARK VINA RESULT:    -4.276     14.942     16.135
REMARK INTER + INTRA:          -4.401
REMARK INTER:                  -4.401
REMARK INTRA:                   0.000
REMARK UNBOUND:                 0.000
REMARK SMILES Cc1cccc(O)c1C
REMARK SMILES IDX 1 1 2 2 8 3 6 4 5 5 4 6 3 7 9 8 7 9
REMARK H PARENT 7 10
REMARK Flexibility Score: inf
ROOT
ATOM      1  C   UNL     1     108.953   6.880 -40.163  1.00  0.00     0.045 C 
ATOM      2  C   UNL     1     110.042   7.895 -40.396  1.00  0.00    -0.045 A 
ATOM      3  C   UNL     1     110.805   7.924 -41.597  1.00  0.00    -0.006 A 
ATOM      4  C   UNL     1     111.815   8.907 -41.748  1.00  0.00     0.118 A 
ATOM      5  C   UNL     1     112.050   9.833 -40.727  1.00  0.00     0.046 A 
ATOM      6  C   UNL     1     111.300   9.800 -39.554  1.00  0.00     0.004 A 
ATOM      7  C   UNL     1     110.304   8.840 -39.389  1.00  0.00     0.004 A 
ATOM      8  C   UNL     1     110.567   6.933 -42.714  1.00  0.00     0.048 C 
ENDROOT
BRANCH   4   9
ATOM      9  O   UNL     1     112.602   8.995 -42.898  1.00  0.00    -0.508 OA
ATOM     10  H   UNL     1     112.233   9.232 -43.811  1.00  0.00     0.293 HD
ENDBRANCH   4   9
TORSDOF 1
ENDMDL
MODEL 5
REMARK VINA RESULT:    -3.862      1.848      2.998
REMARK INTER + INTRA:          -3.975
REMARK INTER:                  -3.975
REMARK INTRA:                   0.000
REMARK UNBOUND:                 0.000
REMARK SMILES Cc1cccc(O)c1C
REMARK SMILES IDX 1 1 2 2 8 3 6 4 5 5 4 6 3 7 9 8 7 9
REMARK H PARENT 7 10
REMARK Flexibility Score: inf
ROOT
ATOM      1  C   UNL     1     114.010  10.217 -23.711  1.00  0.00     0.045 C 
ATOM      2  C   UNL     1     112.906  10.069 -24.725  1.00  0.00    -0.045 A 
ATOM      3  C   UNL     1     112.126   8.883 -24.826  1.00  0.00    -0.006 A 
ATOM      4  C   UNL     1     111.103   8.814 -25.805  1.00  0.00     0.118 A 
ATOM      5  C   UNL     1     110.869   9.900 -26.653  1.00  0.00     0.046 A 
ATOM      6  C   UNL     1     111.635  11.057 -26.549  1.00  0.00     0.004 A 
ATOM      7  C   UNL     1     112.646  11.143 -25.593  1.00  0.00     0.004 A 
ATOM      8  C   UNL     1     112.361   7.697 -23.918  1.00  0.00     0.048 C 
ENDROOT
BRANCH   4   9
ATOM      9  O   UNL     1     110.298   7.683 -25.961  1.00  0.00    -0.508 OA
ATOM     10  H   UNL     1     109.299   7.725 -26.119  1.00  0.00     0.293 HD
ENDBRANCH   4   9
TORSDOF 1
ENDMDL
MODEL 6
REMARK VINA RESULT:    -3.756      1.933      3.620
REMARK INTER + INTRA:          -3.866
REMARK INTER:                  -3.866
REMARK INTRA:                   0.000
REMARK UNBOUND:                 0.000
REMARK SMILES Cc1cccc(O)c1C
REMARK SMILES IDX 1 1 2 2 8 3 6 4 5 5 4 6 3 7 9 8 7 9
REMARK H PARENT 7 10
REMARK Flexibility Score: inf
ROOT
ATOM      1  C   UNL     1     114.187  10.521 -23.439  1.00  0.00     0.045 C 
ATOM      2  C   UNL     1     113.192   9.711 -24.228  1.00  0.00    -0.045 A 
ATOM      3  C   UNL     1     112.855  10.029 -25.574  1.00  0.00    -0.006 A 
ATOM      4  C   UNL     1     111.910   9.222 -26.256  1.00  0.00     0.118 A 
ATOM      5  C   UNL     1     111.323   8.130 -25.609  1.00  0.00     0.046 A 
ATOM      6  C   UNL     1     111.657   7.824 -24.292  1.00  0.00     0.004 A 
ATOM      7  C   UNL     1     112.584   8.606 -23.606  1.00  0.00     0.004 A 
ATOM      8  C   UNL     1     113.478  11.204 -26.293  1.00  0.00     0.048 C 
ENDROOT
BRANCH   4   9
ATOM      9  O   UNL     1     111.532   9.474 -27.577  1.00  0.00    -0.508 OA
ATOM     10  H   UNL     1     111.401  10.405 -27.952  1.00  0.00     0.293 HD
ENDBRANCH   4   9
TORSDOF 1
ENDMDL
MODEL 7
REMARK VINA RESULT:    -3.679     14.797     15.885
REMARK INTER + INTRA:          -3.787
REMARK INTER:                  -3.787
REMARK INTRA:                   0.000
REMARK UNBOUND:                 0.000
REMARK SMILES Cc1cccc(O)c1C
REMARK SMILES IDX 1 1 2 2 8 3 6 4 5 5 4 6 3 7 9 8 7 9
REMARK H PARENT 7 10
REMARK Flexibility Score: inf
ROOT
ATOM      1  C   UNL     1     109.978   6.387 -42.730  1.00  0.00     0.045 C 
ATOM      2  C   UNL     1     110.654   7.446 -41.897  1.00  0.00    -0.045 A 
ATOM      3  C   UNL     1     110.113   7.895 -40.660  1.00  0.00    -0.006 A 
ATOM      4  C   UNL     1     110.803   8.895 -39.929  1.00  0.00     0.118 A 
ATOM      5  C   UNL     1     111.998   9.425 -40.423  1.00  0.00     0.046 A 
ATOM      6  C   UNL     1     112.523   8.980 -41.634  1.00  0.00     0.004 A 
ATOM      7  C   UNL     1     111.858   7.999 -42.366  1.00  0.00     0.004 A 
ATOM      8  C   UNL     1     108.821   7.336 -40.107  1.00  0.00     0.048 C 
ENDROOT
BRANCH   4   9
ATOM      9  O   UNL     1     110.331   9.384 -38.709  1.00  0.00    -0.508 OA
ATOM     10  H   UNL     1     109.828  10.257 -38.614  1.00  0.00     0.293 HD
ENDBRANCH   4   9
TORSDOF 1
ENDMDL
MODEL 8
REMARK VINA RESULT:    -2.973      1.469      2.377
REMARK INTER + INTRA:          -3.059
REMARK INTER:                  -3.059
REMARK INTRA:                   0.000
REMARK UNBOUND:                 0.000
REMARK SMILES Cc1cccc(O)c1C
REMARK SMILES IDX 1 1 2 2 8 3 6 4 5 5 4 6 3 7 9 8 7 9
REMARK H PARENT 7 10
REMARK Flexibility Score: inf
ROOT
ATOM      1  C   UNL     1     115.126  10.174 -26.759  1.00  0.00     0.045 C 
ATOM      2  C   UNL     1     114.448  10.073 -25.417  1.00  0.00    -0.045 A 
ATOM      3  C   UNL     1     113.358   9.188 -25.185  1.00  0.00    -0.006 A 
ATOM      4  C   UNL     1     112.768   9.146 -23.897  1.00  0.00     0.118 A 
ATOM      5  C   UNL     1     113.256   9.965 -22.875  1.00  0.00     0.046 A 
ATOM      6  C   UNL     1     114.323  10.828 -23.108  1.00  0.00     0.004 A 
ATOM      7  C   UNL     1     114.915  10.883 -24.368  1.00  0.00     0.004 A 
ATOM      8  C   UNL     1     112.814   8.293 -26.276  1.00  0.00     0.048 C 
ENDROOT
BRANCH   4   9
ATOM      9  O   UNL     1     111.696   8.302 -23.597  1.00  0.00    -0.508 OA
ATOM     10  H   UNL     1     110.783   8.637 -23.314  1.00  0.00     0.293 HD
ENDBRANCH   4   9
TORSDOF 1
ENDMDL
