MODEL 1
REMARK VINA RESULT:    -4.228      0.000      0.000
REMARK INTER + INTRA:          -5.805
REMARK INTER:                  -5.711
REMARK INTRA:                  -0.094
REMARK UNBOUND:                -0.094
REMARK SMILES C=C1C(=O)O[C@@H]2[C@@H]1CCC(C)=CCC[C@@]1(C)O[C@@H]21
REMARK SMILES IDX 6 1 7 2 2 3 1 4 3 5 4 6 5 7 8 8 9 9 10 10 11 11 12 12 18 14
REMARK SMILES IDX 15 15 17 16 16 17 14 18 13 19
REMARK H PARENT
REMARK Flexibility Score: 70.00
ROOT
ATOM      1  C   UNL     1      20.529  12.995  23.468  1.00  0.00     0.216 C 
ATOM      2  C   UNL     1      21.244  14.215  22.791  1.00  0.00     0.070 C 
ATOM      3  C   UNL     1      22.184  14.682  23.865  1.00  0.00     0.037 C 
ATOM      4  C   UNL     1      22.855  15.833  23.875  1.00  0.00     0.021 C 
ATOM      5  C   UNL     1      22.218  13.676  24.895  1.00  0.00     0.334 C 
ATOM      6  O   UNL     1      22.964  13.684  25.909  1.00  0.00    -0.247 OA
ATOM      7  O   UNL     1      21.308  12.680  24.621  1.00  0.00    -0.455 OA
ENDROOT
BRANCH   2   8
ATOM      8  C   UNL     1      22.054  13.816  21.533  1.00  0.00     0.017 C 
BRANCH   8   9
ATOM      9  C   UNL     1      21.339  14.120  20.202  1.00  0.00     0.031 C 
BRANCH   9  10
ATOM     10  C   UNL     1      20.688  12.892  19.589  1.00  0.00    -0.077 C 
ATOM     11  C   UNL     1      21.535  12.014  18.702  1.00  0.00     0.039 C 
ATOM     12  C   UNL     1      19.397  12.537  19.778  1.00  0.00    -0.028 CG0
ATOM     13  G   UNL     1      18.408  13.215  20.695  1.00  0.00     0.000 G0
ENDBRANCH   9  10
ENDBRANCH   8   9
ENDBRANCH   2   8
BRANCH   1  14
ATOM     14  C   UNL     1      19.122  13.401  23.945  1.00  0.00     0.192 C 
ATOM     15  C   UNL     1      17.897  13.043  23.169  1.00  0.00     0.096 C 
ATOM     16  O   UNL     1      18.343  12.261  24.254  1.00  0.00    -0.362 OA
ATOM     17  C   UNL     1      16.613  13.803  23.499  1.00  0.00     0.045 C 
BRANCH  15  18
ATOM     18  C   UNL     1      17.974  12.282  21.835  1.00  0.00     0.042 C 
BRANCH  18  19
ATOM     19  C   UNL     1      18.390  13.214  20.682  1.00  0.00     0.030 CG0
ATOM     20  G   UNL     1      19.397  12.533  19.788  1.00  0.00     0.000 G0
ENDBRANCH  18  19
ENDBRANCH  15  18
ENDBRANCH   1  14
TORSDOF 0
ENDMDL
MODEL 2
REMARK VINA RESULT:    -3.664      2.726      4.536
REMARK INTER + INTRA:          -5.043
REMARK INTER:                  -4.940
REMARK INTRA:                  -0.102
REMARK UNBOUND:                -0.094
REMARK SMILES C=C1C(=O)O[C@@H]2[C@@H]1CCC(C)=CCC[C@@]1(C)O[C@@H]21
REMARK SMILES IDX 6 1 7 2 2 3 1 4 3 5 4 6 5 7 8 8 9 9 10 10 11 11 12 12 18 14
REMARK SMILES IDX 15 15 17 16 16 17 14 18 13 19
REMARK H PARENT
REMARK Flexibility Score: 70.00
ROOT
ATOM      1  C   UNL     1      19.560  14.612  22.177  1.00  0.00     0.216 C 
ATOM      2  C   UNL     1      20.776  13.845  21.554  1.00  0.00     0.070 C 
ATOM      3  C   UNL     1      20.740  14.285  20.118  1.00  0.00     0.037 C 
ATOM      4  C   UNL     1      21.425  13.740  19.113  1.00  0.00     0.021 C 
ATOM      5  C   UNL     1      19.820  15.387  20.013  1.00  0.00     0.334 C 
ATOM      6  O   UNL     1      19.601  16.069  18.978  1.00  0.00    -0.247 OA
ATOM      7  O   UNL     1      19.196  15.607  21.221  1.00  0.00    -0.455 OA
ENDROOT
BRANCH   2   8
ATOM      8  C   UNL     1      22.131  14.251  22.186  1.00  0.00     0.017 C 
BRANCH   8   9
ATOM      9  C   UNL     1      22.631  13.281  23.274  1.00  0.00     0.031 C 
BRANCH   9  10
ATOM     10  C   UNL     1      22.351  13.779  24.681  1.00  0.00    -0.077 C 
ATOM     11  C   UNL     1      23.336  14.739  25.300  1.00  0.00     0.039 C 
ATOM     12  C   UNL     1      21.278  13.415  25.421  1.00  0.00    -0.028 CG0
ATOM     13  G   UNL     1      20.130  12.548  24.965  1.00  0.00     0.000 G0
ENDBRANCH   9  10
ENDBRANCH   8   9
ENDBRANCH   2   8
BRANCH   1  14
ATOM     14  C   UNL     1      18.361  13.660  22.347  1.00  0.00     0.192 C 
ATOM     15  C   UNL     1      17.998  13.085  23.678  1.00  0.00     0.096 C 
ATOM     16  O   UNL     1      17.366  14.238  23.169  1.00  0.00    -0.362 OA
ATOM     17  C   UNL     1      17.063  11.876  23.685  1.00  0.00     0.045 C 
BRANCH  15  18
ATOM     18  C   UNL     1      18.819  13.383  24.942  1.00  0.00     0.042 C 
BRANCH  18  19
ATOM     19  C   UNL     1      20.117  12.554  24.975  1.00  0.00     0.030 CG0
ATOM     20  G   UNL     1      21.277  13.406  25.429  1.00  0.00     0.000 G0
ENDBRANCH  18  19
ENDBRANCH  15  18
ENDBRANCH   1  14
TORSDOF 0
ENDMDL
MODEL 3
REMARK VINA RESULT:    -3.630      2.213      4.588
REMARK INTER + INTRA:          -4.997
REMARK INTER:                  -4.925
REMARK INTRA:                  -0.072
REMARK UNBOUND:                -0.094
REMARK SMILES C=C1C(=O)O[C@@H]2[C@@H]1CCC(C)=CCC[C@@]1(C)O[C@@H]21
REMARK SMILES IDX 6 1 7 2 2 3 1 4 3 5 4 6 5 7 8 8 9 9 10 10 11 11 12 12 18 14
REMARK SMILES IDX 15 15 17 16 16 17 14 18 13 19
REMARK H PARENT
REMARK Flexibility Score: 70.00
ROOT
ATOM      1  C   UNL     1      21.725  13.465  22.486  1.00  0.00     0.216 C 
ATOM      2  C   UNL     1      20.993  14.095  21.252  1.00  0.00     0.070 C 
ATOM      3  C   UNL     1      21.846  13.646  20.100  1.00  0.00     0.037 C 
ATOM      4  C   UNL     1      21.783  14.106  18.851  1.00  0.00     0.021 C 
ATOM      5  C   UNL     1      22.758  12.643  20.585  1.00  0.00     0.334 C 
ATOM      6  O   UNL     1      23.563  11.977  19.883  1.00  0.00    -0.247 OA
ATOM      7  O   UNL     1      22.633  12.503  21.949  1.00  0.00    -0.455 OA
ENDROOT
BRANCH   2   8
ATOM      8  C   UNL     1      19.552  13.558  21.068  1.00  0.00     0.017 C 
BRANCH   8   9
ATOM      9  C   UNL     1      18.480  14.370  21.821  1.00  0.00     0.031 C 
BRANCH   9  10
ATOM     10  C   UNL     1      18.099  13.749  23.154  1.00  0.00    -0.077 C 
ATOM     11  C   UNL     1      17.137  12.587  23.143  1.00  0.00     0.039 C 
ATOM     12  C   UNL     1      18.560  14.173  24.354  1.00  0.00    -0.028 CG0
ATOM     13  G   UNL     1      19.594  15.247  24.585  1.00  0.00     0.000 G0
ENDBRANCH   9  10
ENDBRANCH   8   9
ENDBRANCH   2   8
BRANCH   1  14
ATOM     14  C   UNL     1      22.553  14.538  23.219  1.00  0.00     0.192 C 
ATOM     15  C   UNL     1      22.142  15.070  24.552  1.00  0.00     0.096 C 
ATOM     16  O   UNL     1      23.085  14.030  24.427  1.00  0.00    -0.362 OA
ATOM     17  C   UNL     1      22.788  16.377  25.012  1.00  0.00     0.045 C 
BRANCH  15  18
ATOM     18  C   UNL     1      20.854  14.605  25.250  1.00  0.00     0.042 C 
BRANCH  18  19
ATOM     19  C   UNL     1      19.607  15.232  24.599  1.00  0.00     0.030 CG0
ATOM     20  G   UNL     1      18.557  14.177  24.344  1.00  0.00     0.000 G0
ENDBRANCH  18  19
ENDBRANCH  15  18
ENDBRANCH   1  14
TORSDOF 0
ENDMDL
MODEL 4
REMARK VINA RESULT:    -3.624      2.740      4.578
REMARK INTER + INTRA:          -4.989
REMARK INTER:                  -4.894
REMARK INTRA:                  -0.095
REMARK UNBOUND:                -0.094
REMARK SMILES C=C1C(=O)O[C@@H]2[C@@H]1CCC(C)=CCC[C@@]1(C)O[C@@H]21
REMARK SMILES IDX 6 1 7 2 2 3 1 4 3 5 4 6 5 7 8 8 9 9 10 10 11 11 12 12 18 14
REMARK SMILES IDX 15 15 17 16 16 17 14 18 13 19
REMARK H PARENT
REMARK Flexibility Score: 70.00
ROOT
ATOM      1  C   UNL     1      20.402  14.172  21.604  1.00  0.00     0.216 C 
ATOM      2  C   UNL     1      21.697  13.410  22.047  1.00  0.00     0.070 C 
ATOM      3  C   UNL     1      22.329  13.047  20.734  1.00  0.00     0.037 C 
ATOM      4  C   UNL     1      23.335  12.190  20.557  1.00  0.00     0.021 C 
ATOM      5  C   UNL     1      21.645  13.772  19.695  1.00  0.00     0.334 C 
ATOM      6  O   UNL     1      21.959  13.785  18.476  1.00  0.00    -0.247 OA
ATOM      7  O   UNL     1      20.578  14.466  20.219  1.00  0.00    -0.455 OA
ENDROOT
BRANCH   2   8
ATOM      8  C   UNL     1      22.670  14.299  22.860  1.00  0.00     0.017 C 
BRANCH   8   9
ATOM      9  C   UNL     1      22.556  14.121  24.387  1.00  0.00     0.031 C 
BRANCH   9  10
ATOM     10  C   UNL     1      21.738  15.217  25.049  1.00  0.00    -0.077 C 
ATOM     11  C   UNL     1      22.441  16.501  25.410  1.00  0.00     0.039 C 
ATOM     12  C   UNL     1      20.421  15.115  25.342  1.00  0.00    -0.028 CG0
ATOM     13  G   UNL     1      19.511  13.966  24.983  1.00  0.00     0.000 G0
ENDBRANCH   9  10
ENDBRANCH   8   9
ENDBRANCH   2   8
BRANCH   1  14
ATOM     14  C   UNL     1      19.172  13.254  21.739  1.00  0.00     0.192 C 
ATOM     15  C   UNL     1      18.214  13.387  22.878  1.00  0.00     0.096 C 
ATOM     16  O   UNL     1      17.972  13.994  21.628  1.00  0.00    -0.362 OA
ATOM     17  C   UNL     1      17.270  12.213  23.138  1.00  0.00     0.045 C 
BRANCH  15  18
ATOM     18  C   UNL     1      18.421  14.422  23.995  1.00  0.00     0.042 C 
BRANCH  18  19
ATOM     19  C   UNL     1      19.503  13.962  24.991  1.00  0.00     0.030 CG0
ATOM     20  G   UNL     1      20.422  15.107  25.339  1.00  0.00     0.000 G0
ENDBRANCH  18  19
ENDBRANCH  15  18
ENDBRANCH   1  14
TORSDOF 0
ENDMDL
MODEL 5
REMARK VINA RESULT:    -3.440      2.280      3.860
REMARK INTER + INTRA:          -4.740
REMARK INTER:                  -4.677
REMARK INTRA:                  -0.063
REMARK UNBOUND:                -0.094
REMARK SMILES C=C1C(=O)O[C@@H]2[C@@H]1CCC(C)=CCC[C@@]1(C)O[C@@H]21
REMARK SMILES IDX 6 1 7 2 2 3 1 4 3 5 4 6 5 7 8 8 9 9 10 10 11 11 12 12 18 14
REMARK SMILES IDX 15 15 17 16 16 17 14 18 13 19
REMARK H PARENT
REMARK Flexibility Score: 70.00
ROOT
ATOM      1  C   UNL     1      19.510  13.997  23.196  1.00  0.00     0.216 C 
ATOM      2  C   UNL     1      20.344  14.967  24.099  1.00  0.00     0.070 C 
ATOM      3  C   UNL     1      19.353  15.365  25.156  1.00  0.00     0.037 C 
ATOM      4  C   UNL     1      19.498  16.357  26.034  1.00  0.00     0.021 C 
ATOM      5  C   UNL     1      18.209  14.499  25.042  1.00  0.00     0.334 C 
ATOM      6  O   UNL     1      17.218  14.479  25.818  1.00  0.00    -0.247 OA
ATOM      7  O   UNL     1      18.342  13.672  23.949  1.00  0.00    -0.455 OA
ENDROOT
BRANCH   2   8
ATOM      8  C   UNL     1      21.559  14.275  24.765  1.00  0.00     0.017 C 
BRANCH   8   9
ATOM      9  C   UNL     1      22.850  14.327  23.924  1.00  0.00     0.031 C 
BRANCH   9  10
ATOM     10  C   UNL     1      23.093  13.051  23.137  1.00  0.00    -0.077 C 
ATOM     11  C   UNL     1      23.693  11.875  23.867  1.00  0.00     0.039 C 
ATOM     12  C   UNL     1      22.813  12.899  21.822  1.00  0.00    -0.028 CG0
ATOM     13  G   UNL     1      22.127  13.907  20.932  1.00  0.00     0.000 G0
ENDBRANCH   9  10
ENDBRANCH   8   9
ENDBRANCH   2   8
BRANCH   1  14
ATOM     14  C   UNL     1      19.059  14.721  21.912  1.00  0.00     0.192 C 
ATOM     15  C   UNL     1      19.653  14.400  20.580  1.00  0.00     0.096 C 
ATOM     16  O   UNL     1      18.442  13.821  21.012  1.00  0.00    -0.362 OA
ATOM     17  C   UNL     1      19.435  15.412  19.456  1.00  0.00     0.045 C 
BRANCH  15  18
ATOM     18  C   UNL     1      20.770  13.357  20.420  1.00  0.00     0.042 C 
BRANCH  18  19
ATOM     19  C   UNL     1      22.122  13.903  20.917  1.00  0.00     0.030 CG0
ATOM     20  G   UNL     1      22.791  12.907  21.833  1.00  0.00     0.000 G0
ENDBRANCH  18  19
ENDBRANCH  15  18
ENDBRANCH   1  14
TORSDOF 0
ENDMDL
MODEL 6
REMARK VINA RESULT:    -3.256      2.042      4.216
REMARK INTER + INTRA:          -4.491
REMARK INTER:                  -5.105
REMARK INTRA:                   0.614
REMARK UNBOUND:                -0.094
REMARK SMILES C=C1C(=O)O[C@@H]2[C@@H]1CCC(C)=CCC[C@@]1(C)O[C@@H]21
REMARK SMILES IDX 6 1 7 2 2 3 1 4 3 5 4 6 5 7 8 8 9 9 10 10 11 11 12 12 18 14
REMARK SMILES IDX 15 15 17 16 16 17 14 18 13 19
REMARK H PARENT
REMARK Flexibility Score: 70.00
ROOT
ATOM      1  C   UNL     1      20.190  14.437  22.397  1.00  0.00     0.216 C 
ATOM      2  C   UNL     1      19.707  12.963  22.173  1.00  0.00     0.070 C 
ATOM      3  C   UNL     1      18.351  12.960  22.819  1.00  0.00     0.037 C 
ATOM      4  C   UNL     1      17.619  11.883  23.102  1.00  0.00     0.021 C 
ATOM      5  C   UNL     1      17.988  14.325  23.097  1.00  0.00     0.334 C 
ATOM      6  O   UNL     1      16.882  14.715  23.556  1.00  0.00    -0.247 OA
ATOM      7  O   UNL     1      19.030  15.170  22.789  1.00  0.00    -0.455 OA
ENDROOT
BRANCH   2   8
ATOM      8  C   UNL     1      19.567  12.597  20.674  1.00  0.00     0.017 C 
BRANCH   8   9
ATOM      9  C   UNL     1      20.370  13.510  19.727  1.00  0.00     0.031 C 
BRANCH   9  10
ATOM     10  C   UNL     1      21.633  12.849  19.202  1.00  0.00    -0.077 C 
ATOM     11  C   UNL     1      21.540  12.076  17.910  1.00  0.00     0.039 C 
ATOM     12  C   UNL     1      22.836  12.901  19.819  1.00  0.00    -0.028 CG0
ATOM     13  G   UNL     1      23.170  13.692  21.060  1.00  0.00     0.000 G0
ENDBRANCH   9  10
ENDBRANCH   8   9
ENDBRANCH   2   8
BRANCH   1  14
ATOM     14  C   UNL     1      21.201  14.495  23.558  1.00  0.00     0.192 C 
ATOM     15  C   UNL     1      22.494  13.749  23.510  1.00  0.00     0.096 C 
ATOM     16  O   UNL     1      22.408  15.109  23.150  1.00  0.00    -0.362 OA
ATOM     17  C   UNL     1      23.236  13.552  24.832  1.00  0.00     0.045 C 
BRANCH  15  18
ATOM     18  C   UNL     1      22.872  12.855  22.319  1.00  0.00     0.042 C 
BRANCH  18  19
ATOM     19  C   UNL     1      23.180  13.694  21.064  1.00  0.00     0.030 CG0
ATOM     20  G   UNL     1      22.849  12.917  19.814  1.00  0.00     0.000 G0
ENDBRANCH  18  19
ENDBRANCH  15  18
ENDBRANCH   1  14
TORSDOF 0
ENDMDL
MODEL 7
REMARK VINA RESULT:    -3.046      1.652      3.698
REMARK INTER + INTRA:          -4.209
REMARK INTER:                  -4.786
REMARK INTRA:                   0.578
REMARK UNBOUND:                -0.094
REMARK SMILES C=C1C(=O)O[C@@H]2[C@@H]1CCC(C)=CCC[C@@]1(C)O[C@@H]21
REMARK SMILES IDX 6 1 7 2 2 3 1 4 3 5 4 6 5 7 8 8 9 9 10 10 11 11 12 12 18 14
REMARK SMILES IDX 15 15 17 16 16 17 14 18 13 19
REMARK H PARENT
REMARK Flexibility Score: 70.00
ROOT
ATOM      1  C   UNL     1      21.514  14.336  22.575  1.00  0.00     0.216 C 
ATOM      2  C   UNL     1      21.147  13.241  23.633  1.00  0.00     0.070 C 
ATOM      3  C   UNL     1      22.146  13.494  24.727  1.00  0.00     0.037 C 
ATOM      4  C   UNL     1      22.407  12.686  25.754  1.00  0.00     0.021 C 
ATOM      5  C   UNL     1      22.788  14.755  24.460  1.00  0.00     0.334 C 
ATOM      6  O   UNL     1      23.617  15.334  25.210  1.00  0.00    -0.247 OA
ATOM      7  O   UNL     1      22.367  15.260  23.250  1.00  0.00    -0.455 OA
ENDROOT
BRANCH   2   8
ATOM      8  C   UNL     1      19.713  13.403  24.196  1.00  0.00     0.017 C 
BRANCH   8   9
ATOM      9  C   UNL     1      18.826  14.366  23.383  1.00  0.00     0.031 C 
BRANCH   9  10
ATOM     10  C   UNL     1      17.795  13.641  22.534  1.00  0.00    -0.077 C 
ATOM     11  C   UNL     1      16.440  13.375  23.142  1.00  0.00     0.039 C 
ATOM     12  C   UNL     1      18.013  13.213  21.269  1.00  0.00    -0.028 CG0
ATOM     13  G   UNL     1      19.252  13.456  20.443  1.00  0.00     0.000 G0
ENDBRANCH   9  10
ENDBRANCH   8   9
ENDBRANCH   2   8
BRANCH   1  14
ATOM     14  C   UNL     1      22.317  13.711  21.418  1.00  0.00     0.192 C 
ATOM     15  C   UNL     1      21.699  12.733  20.473  1.00  0.00     0.096 C 
ATOM     16  O   UNL     1      21.793  14.105  20.165  1.00  0.00    -0.362 OA
ATOM     17  C   UNL     1      22.648  11.888  19.622  1.00  0.00     0.045 C 
BRANCH  15  18
ATOM     18  C   UNL     1      20.241  12.270  20.622  1.00  0.00     0.042 C 
BRANCH  18  19
ATOM     19  C   UNL     1      19.259  13.442  20.435  1.00  0.00     0.030 CG0
ATOM     20  G   UNL     1      18.007  13.216  21.246  1.00  0.00     0.000 G0
ENDBRANCH  18  19
ENDBRANCH  15  18
ENDBRANCH   1  14
TORSDOF 0
ENDMDL
MODEL 8
REMARK VINA RESULT:    -3.035      2.458      4.782
REMARK INTER + INTRA:          -4.194
REMARK INTER:                  -4.068
REMARK INTRA:                  -0.126
REMARK UNBOUND:                -0.094
REMARK SMILES C=C1C(=O)O[C@@H]2[C@@H]1CCC(C)=CCC[C@@]1(C)O[C@@H]21
REMARK SMILES IDX 6 1 7 2 2 3 1 4 3 5 4 6 5 7 8 8 9 9 10 10 11 11 12 12 18 14
REMARK SMILES IDX 15 15 17 16 16 17 14 18 13 19
REMARK H PARENT
REMARK Flexibility Score: 70.00
ROOT
ATOM      1  C   UNL     1      19.449  12.734  22.252  1.00  0.00     0.216 C 
ATOM      2  C   UNL     1      19.683  13.987  23.163  1.00  0.00     0.070 C 
ATOM      3  C   UNL     1      18.284  14.466  23.428  1.00  0.00     0.037 C 
ATOM      4  C   UNL     1      17.945  15.638  23.964  1.00  0.00     0.021 C 
ATOM      5  C   UNL     1      17.372  13.446  22.983  1.00  0.00     0.334 C 
ATOM      6  O   UNL     1      16.121  13.461  23.126  1.00  0.00    -0.247 OA
ATOM      7  O   UNL     1      18.060  12.425  22.366  1.00  0.00    -0.455 OA
ENDROOT
BRANCH   2   8
ATOM      8  C   UNL     1      20.371  13.635  24.506  1.00  0.00     0.017 C 
BRANCH   8   9
ATOM      9  C   UNL     1      21.881  13.943  24.536  1.00  0.00     0.031 C 
BRANCH   9  10
ATOM     10  C   UNL     1      22.739  12.707  24.327  1.00  0.00    -0.077 C 
ATOM     11  C   UNL     1      23.088  11.876  25.537  1.00  0.00     0.039 C 
ATOM     12  C   UNL     1      23.218  12.304  23.128  1.00  0.00    -0.028 CG0
ATOM     13  G   UNL     1      22.914  12.928  21.788  1.00  0.00     0.000 G0
ENDBRANCH   9  10
ENDBRANCH   8   9
ENDBRANCH   2   8
BRANCH   1  14
ATOM     14  C   UNL     1      19.734  13.086  20.780  1.00  0.00     0.192 C 
ATOM     15  C   UNL     1      21.014  12.696  20.114  1.00  0.00     0.096 C 
ATOM     16  O   UNL     1      19.845  11.917  19.991  1.00  0.00    -0.362 OA
ATOM     17  C   UNL     1      21.368  13.409  18.809  1.00  0.00     0.045 C 
BRANCH  15  18
ATOM     18  C   UNL     1      22.129  11.955  20.869  1.00  0.00     0.042 C 
BRANCH  18  19
ATOM     19  C   UNL     1      22.936  12.917  21.762  1.00  0.00     0.030 CG0
ATOM     20  G   UNL     1      23.219  12.282  23.101  1.00  0.00     0.000 G0
ENDBRANCH  18  19
ENDBRANCH  15  18
ENDBRANCH   1  14
TORSDOF 0
ENDMDL
MODEL 9
REMARK VINA RESULT:    -1.988      2.027      2.907
REMARK INTER + INTRA:          -2.780
REMARK INTER:                  -3.732
REMARK INTRA:                   0.952
REMARK UNBOUND:                -0.094
REMARK SMILES C=C1C(=O)O[C@@H]2[C@@H]1CCC(C)=CCC[C@@]1(C)O[C@@H]21
REMARK SMILES IDX 6 1 7 2 2 3 1 4 3 5 4 6 5 7 8 8 9 9 10 10 11 11 12 12 18 14
REMARK SMILES IDX 15 15 17 16 16 17 14 18 13 19
REMARK H PARENT
REMARK Flexibility Score: 70.00
ROOT
ATOM      1  C   UNL     1      20.381  13.399  22.418  1.00  0.00     0.216 C 
ATOM      2  C   UNL     1      21.555  14.257  23.002  1.00  0.00     0.070 C 
ATOM      3  C   UNL     1      21.210  14.335  24.462  1.00  0.00     0.037 C 
ATOM      4  C   UNL     1      21.770  15.146  25.358  1.00  0.00     0.021 C 
ATOM      5  C   UNL     1      20.152  13.393  24.720  1.00  0.00     0.334 C 
ATOM      6  O   UNL     1      19.668  13.119  25.850  1.00  0.00    -0.247 OA
ATOM      7  O   UNL     1      19.729  12.814  23.545  1.00  0.00    -0.455 OA
ENDROOT
BRANCH   2   8
ATOM      8  C   UNL     1      22.937  13.579  22.833  1.00  0.00     0.017 C 
BRANCH   8   9
ATOM      9  C   UNL     1      22.875  12.181  22.187  1.00  0.00     0.031 C 
BRANCH   9  10
ATOM     10  C   UNL     1      23.315  12.184  20.733  1.00  0.00    -0.077 C 
ATOM     11  C   UNL     1      24.763  11.885  20.433  1.00  0.00     0.039 C 
ATOM     12  C   UNL     1      22.496  12.443  19.688  1.00  0.00    -0.028 CG0
ATOM     13  G   UNL     1      21.005  12.670  19.755  1.00  0.00     0.000 G0
ENDBRANCH   9  10
ENDBRANCH   8   9
ENDBRANCH   2   8
BRANCH   1  14
ATOM     14  C   UNL     1      19.362  14.308  21.703  1.00  0.00     0.192 C 
ATOM     15  C   UNL     1      19.494  14.646  20.254  1.00  0.00     0.096 C 
ATOM     16  O   UNL     1      18.664  13.597  20.700  1.00  0.00    -0.362 OA
ATOM     17  C   UNL     1      18.686  15.836  19.737  1.00  0.00     0.045 C 
BRANCH  15  18
ATOM     18  C   UNL     1      20.669  14.135  19.405  1.00  0.00     0.042 C 
BRANCH  18  19
ATOM     19  C   UNL     1      20.990  12.662  19.721  1.00  0.00     0.030 CG0
ATOM     20  G   UNL     1      22.482  12.434  19.719  1.00  0.00     0.000 G0
ENDBRANCH  18  19
ENDBRANCH  15  18
ENDBRANCH   1  14
TORSDOF 0
ENDMDL
