MODEL 1
REMARK VINA RESULT:    -3.824      0.000      0.000
REMARK INTER + INTRA:          -5.481
REMARK INTER:                  -5.165
REMARK INTRA:                  -0.316
REMARK UNBOUND:                -0.316
REMARK SMILES CCCCCCC=CC(=O)[O-]
REMARK SMILES IDX 5 1 6 2 7 3 8 4 9 5 10 6 11 7 4 8 3 9 2 10 1 11
REMARK H PARENT
REMARK Flexibility Score: inf
ROOT
ATOM      1  C   UNL     1      -1.824  35.479  37.403  1.00  0.00     0.004 C 
ENDROOT
BRANCH   1   2
ATOM      2  C   UNL     1      -0.844  36.039  36.358  1.00  0.00     0.027 C 
BRANCH   2   3
ATOM      3  C   UNL     1       0.025  37.136  36.906  1.00  0.00    -0.025 C 
ATOM      4  C   UNL     1       0.410  38.168  36.148  1.00  0.00     0.020 C 
BRANCH   4   5
ATOM      5  C   UNL     1       1.257  39.254  36.666  1.00  0.00     0.064 C 
ATOM      6  O   UNL     1       2.502  39.109  36.785  1.00  0.00    -0.545 OA
ATOM      7  O   UNL     1       0.672  40.461  37.029  1.00  0.00    -0.545 OA
ENDBRANCH   4   5
ENDBRANCH   2   3
ENDBRANCH   1   2
BRANCH   1   8
ATOM      8  C   UNL     1      -1.248  35.386  38.829  1.00  0.00     0.000 C 
BRANCH   8   9
ATOM      9  C   UNL     1      -0.411  34.115  39.050  1.00  0.00    -0.000 C 
BRANCH   9  10
ATOM     10  C   UNL     1      -1.273  32.844  39.098  1.00  0.00    -0.003 C 
ATOM     11  C   UNL     1      -1.801  32.536  40.499  1.00  0.00     0.004 C 
ENDBRANCH   9  10
ENDBRANCH   8   9
ENDBRANCH   1   8
TORSDOF 6
ENDMDL
MODEL 2
REMARK VINA RESULT:    -3.793      2.935      6.253
REMARK INTER + INTRA:          -5.439
REMARK INTER:                  -5.052
REMARK INTRA:                  -0.387
REMARK UNBOUND:                -0.316
REMARK SMILES CCCCCCC=CC(=O)[O-]
REMARK SMILES IDX 5 1 6 2 7 3 8 4 9 5 10 6 11 7 4 8 3 9 2 10 1 11
REMARK H PARENT
REMARK Flexibility Score: inf
ROOT
ATOM      1  C   UNL     1       1.894  38.434  35.799  1.00  0.00     0.004 C 
ENDROOT
BRANCH   1   2
ATOM      2  C   UNL     1       0.422  38.003  35.923  1.00  0.00     0.027 C 
BRANCH   2   3
ATOM      3  C   UNL     1       0.138  37.267  37.202  1.00  0.00    -0.025 C 
ATOM      4  C   UNL     1      -0.711  36.234  37.240  1.00  0.00     0.020 C 
BRANCH   4   5
ATOM      5  C   UNL     1      -1.000  35.496  38.480  1.00  0.00     0.064 C 
ATOM      6  O   UNL     1      -0.250  34.563  38.872  1.00  0.00    -0.545 OA
ATOM      7  O   UNL     1      -2.117  35.836  39.232  1.00  0.00    -0.545 OA
ENDBRANCH   4   5
ENDBRANCH   2   3
ENDBRANCH   1   2
BRANCH   1   8
ATOM      8  C   UNL     1       2.157  39.908  36.159  1.00  0.00     0.000 C 
BRANCH   8   9
ATOM      9  C   UNL     1       1.516  40.887  35.159  1.00  0.00    -0.000 C 
BRANCH   9  10
ATOM     10  C   UNL     1       0.870  42.097  35.852  1.00  0.00    -0.003 C 
ATOM     11  C   UNL     1       0.065  41.710  37.092  1.00  0.00     0.004 C 
ENDBRANCH   9  10
ENDBRANCH   8   9
ENDBRANCH   1   8
TORSDOF 6
ENDMDL
MODEL 3
REMARK VINA RESULT:    -3.746      3.644      6.348
REMARK INTER + INTRA:          -5.376
REMARK INTER:                  -5.141
REMARK INTRA:                  -0.236
REMARK UNBOUND:                -0.316
REMARK SMILES CCCCCCC=CC(=O)[O-]
REMARK SMILES IDX 5 1 6 2 7 3 8 4 9 5 10 6 11 7 4 8 3 9 2 10 1 11
REMARK H PARENT
REMARK Flexibility Score: inf
ROOT
ATOM      1  C   UNL     1      -0.459  36.842  36.086  1.00  0.00     0.004 C 
ENDROOT
BRANCH   1   2
ATOM      2  C   UNL     1      -0.371  36.450  37.572  1.00  0.00     0.027 C 
BRANCH   2   3
ATOM      3  C   UNL     1      -0.773  35.024  37.821  1.00  0.00    -0.025 C 
ATOM      4  C   UNL     1      -0.965  34.558  39.060  1.00  0.00     0.020 C 
BRANCH   4   5
ATOM      5  C   UNL     1      -1.362  33.166  39.325  1.00  0.00     0.064 C 
ATOM      6  O   UNL     1      -1.433  32.721  40.501  1.00  0.00    -0.545 OA
ATOM      7  O   UNL     1      -1.666  32.328  38.260  1.00  0.00    -0.545 OA
ENDBRANCH   4   5
ENDBRANCH   2   3
ENDBRANCH   1   2
BRANCH   1   8
ATOM      8  C   UNL     1       0.117  38.233  35.761  1.00  0.00     0.000 C 
BRANCH   8   9
ATOM      9  C   UNL     1       0.957  38.812  36.913  1.00  0.00    -0.000 C 
BRANCH   9  10
ATOM     10  C   UNL     1       2.385  39.172  36.477  1.00  0.00    -0.003 C 
ATOM     11  C   UNL     1       2.439  40.409  35.580  1.00  0.00     0.004 C 
ENDBRANCH   9  10
ENDBRANCH   8   9
ENDBRANCH   1   8
TORSDOF 6
ENDMDL
MODEL 4
REMARK VINA RESULT:    -3.643      2.982      5.432
REMARK INTER + INTRA:          -5.236
REMARK INTER:                  -4.575
REMARK INTRA:                  -0.662
REMARK UNBOUND:                -0.316
REMARK SMILES CCCCCCC=CC(=O)[O-]
REMARK SMILES IDX 5 1 6 2 7 3 8 4 9 5 10 6 11 7 4 8 3 9 2 10 1 11
REMARK H PARENT
REMARK Flexibility Score: inf
ROOT
ATOM      1  C   UNL     1      -1.471  37.859  34.789  1.00  0.00     0.004 C 
ENDROOT
BRANCH   1   2
ATOM      2  C   UNL     1      -0.893  36.440  34.931  1.00  0.00     0.027 C 
BRANCH   2   3
ATOM      3  C   UNL     1      -1.287  35.779  36.222  1.00  0.00    -0.025 C 
ATOM      4  C   UNL     1      -0.632  36.026  37.362  1.00  0.00     0.020 C 
BRANCH   4   5
ATOM      5  C   UNL     1      -1.004  35.394  38.638  1.00  0.00     0.064 C 
ATOM      6  O   UNL     1      -1.970  35.824  39.321  1.00  0.00    -0.545 OA
ATOM      7  O   UNL     1      -0.278  34.302  39.095  1.00  0.00    -0.545 OA
ENDBRANCH   4   5
ENDBRANCH   2   3
ENDBRANCH   1   2
BRANCH   1   8
ATOM      8  C   UNL     1      -0.419  38.982  34.847  1.00  0.00     0.000 C 
BRANCH   8   9
ATOM      9  C   UNL     1       1.011  38.470  34.601  1.00  0.00    -0.000 C 
BRANCH   9  10
ATOM     10  C   UNL     1       1.990  38.908  35.702  1.00  0.00    -0.003 C 
ATOM     11  C   UNL     1       1.305  39.138  37.049  1.00  0.00     0.004 C 
ENDBRANCH   9  10
ENDBRANCH   8   9
ENDBRANCH   1   8
TORSDOF 6
ENDMDL
MODEL 5
REMARK VINA RESULT:    -3.629      5.333      6.773
REMARK INTER + INTRA:          -5.218
REMARK INTER:                  -4.833
REMARK INTRA:                  -0.385
REMARK UNBOUND:                -0.316
REMARK SMILES CCCCCCC=CC(=O)[O-]
REMARK SMILES IDX 5 1 6 2 7 3 8 4 9 5 10 6 11 7 4 8 3 9 2 10 1 11
REMARK H PARENT
REMARK Flexibility Score: inf
ROOT
ATOM      1  C   UNL     1      -1.929  30.042  36.046  1.00  0.00     0.004 C 
ENDROOT
BRANCH   1   2
ATOM      2  C   UNL     1      -1.717  31.566  36.037  1.00  0.00     0.027 C 
BRANCH   2   3
ATOM      3  C   UNL     1      -2.094  32.212  37.340  1.00  0.00    -0.025 C 
ATOM      4  C   UNL     1      -1.168  32.570  38.237  1.00  0.00     0.020 C 
BRANCH   4   5
ATOM      5  C   UNL     1      -1.515  33.209  39.516  1.00  0.00     0.064 C 
ATOM      6  O   UNL     1      -1.681  34.454  39.599  1.00  0.00    -0.545 OA
ATOM      7  O   UNL     1      -1.664  32.424  40.653  1.00  0.00    -0.545 OA
ENDBRANCH   4   5
ENDBRANCH   2   3
ENDBRANCH   1   2
BRANCH   1   8
ATOM      8  C   UNL     1      -0.822  29.242  35.334  1.00  0.00     0.000 C 
BRANCH   8   9
ATOM      9  C   UNL     1       0.443  30.080  35.075  1.00  0.00    -0.000 C 
BRANCH   9  10
ATOM     10  C   UNL     1       1.010  29.865  33.664  1.00  0.00    -0.003 C 
ATOM     11  C   UNL     1       0.164  28.911  32.821  1.00  0.00     0.004 C 
ENDBRANCH   9  10
ENDBRANCH   8   9
ENDBRANCH   1   8
TORSDOF 6
ENDMDL
MODEL 6
REMARK VINA RESULT:    -3.626      8.634      9.727
REMARK INTER + INTRA:          -5.214
REMARK INTER:                  -4.492
REMARK INTRA:                  -0.722
REMARK UNBOUND:                -0.316
REMARK SMILES CCCCCCC=CC(=O)[O-]
REMARK SMILES IDX 5 1 6 2 7 3 8 4 9 5 10 6 11 7 4 8 3 9 2 10 1 11
REMARK H PARENT
REMARK Flexibility Score: inf
ROOT
ATOM      1  C   UNL     1       0.335  29.888  35.125  1.00  0.00     0.004 C 
ENDROOT
BRANCH   1   2
ATOM      2  C   UNL     1       0.962  29.841  33.720  1.00  0.00     0.027 C 
BRANCH   2   3
ATOM      3  C   UNL     1      -0.037  29.510  32.649  1.00  0.00    -0.025 C 
ATOM      4  C   UNL     1       0.073  28.402  31.908  1.00  0.00     0.020 C 
BRANCH   4   5
ATOM      5  C   UNL     1      -0.898  28.057  30.857  1.00  0.00     0.064 C 
ATOM      6  O   UNL     1      -0.645  27.166  30.004  1.00  0.00    -0.545 OA
ATOM      7  O   UNL     1      -2.114  28.725  30.805  1.00  0.00    -0.545 OA
ENDBRANCH   4   5
ENDBRANCH   2   3
ENDBRANCH   1   2
BRANCH   1   8
ATOM      8  C   UNL     1      -1.178  29.599  35.155  1.00  0.00     0.000 C 
BRANCH   8   9
ATOM      9  C   UNL     1      -1.519  28.295  35.898  1.00  0.00    -0.000 C 
BRANCH   9  10
ATOM     10  C   UNL     1      -1.599  27.085  34.955  1.00  0.00    -0.003 C 
ATOM     11  C   UNL     1      -2.791  27.154  34.000  1.00  0.00     0.004 C 
ENDBRANCH   9  10
ENDBRANCH   8   9
ENDBRANCH   1   8
TORSDOF 6
ENDMDL
MODEL 7
REMARK VINA RESULT:    -3.625      8.646     10.127
REMARK INTER + INTRA:          -5.213
REMARK INTER:                  -4.508
REMARK INTRA:                  -0.706
REMARK UNBOUND:                -0.316
REMARK SMILES CCCCCCC=CC(=O)[O-]
REMARK SMILES IDX 5 1 6 2 7 3 8 4 9 5 10 6 11 7 4 8 3 9 2 10 1 11
REMARK H PARENT
REMARK Flexibility Score: inf
ROOT
ATOM      1  C   UNL     1      -1.392  28.244  35.631  1.00  0.00     0.004 C 
ENDROOT
BRANCH   1   2
ATOM      2  C   UNL     1      -2.204  27.531  34.536  1.00  0.00     0.027 C 
BRANCH   2   3
ATOM      3  C   UNL     1      -1.422  27.335  33.268  1.00  0.00    -0.025 C 
ATOM      4  C   UNL     1      -1.824  27.868  32.109  1.00  0.00     0.020 C 
BRANCH   4   5
ATOM      5  C   UNL     1      -1.071  27.691  30.857  1.00  0.00     0.064 C 
ATOM      6  O   UNL     1       0.185  27.593  30.860  1.00  0.00    -0.545 OA
ATOM      7  O   UNL     1      -1.756  27.630  29.650  1.00  0.00    -0.545 OA
ENDBRANCH   4   5
ENDBRANCH   2   3
ENDBRANCH   1   2
BRANCH   1   8
ATOM      8  C   UNL     1      -1.046  29.711  35.312  1.00  0.00     0.000 C 
BRANCH   8   9
ATOM      9  C   UNL     1       0.466  29.943  35.147  1.00  0.00    -0.000 C 
BRANCH   9  10
ATOM     10  C   UNL     1       0.898  29.980  33.673  1.00  0.00    -0.003 C 
ATOM     11  C   UNL     1       0.088  30.975  32.841  1.00  0.00     0.004 C 
ENDBRANCH   9  10
ENDBRANCH   8   9
ENDBRANCH   1   8
TORSDOF 6
ENDMDL
MODEL 8
REMARK VINA RESULT:    -3.613      7.491      8.681
REMARK INTER + INTRA:          -5.196
REMARK INTER:                  -4.478
REMARK INTRA:                  -0.718
REMARK UNBOUND:                -0.316
REMARK SMILES CCCCCCC=CC(=O)[O-]
REMARK SMILES IDX 5 1 6 2 7 3 8 4 9 5 10 6 11 7 4 8 3 9 2 10 1 11
REMARK H PARENT
REMARK Flexibility Score: inf
ROOT
ATOM      1  C   UNL     1       0.122  29.620  32.547  1.00  0.00     0.004 C 
ENDROOT
BRANCH   1   2
ATOM      2  C   UNL     1       1.022  29.845  33.775  1.00  0.00     0.027 C 
BRANCH   2   3
ATOM      3  C   UNL     1       0.239  30.006  35.047  1.00  0.00    -0.025 C 
ATOM      4  C   UNL     1      -0.932  30.652  35.070  1.00  0.00     0.020 C 
BRANCH   4   5
ATOM      5  C   UNL     1      -1.717  30.818  36.304  1.00  0.00     0.064 C 
ATOM      6  O   UNL     1      -1.688  31.895  36.955  1.00  0.00    -0.545 OA
ATOM      7  O   UNL     1      -2.503  29.767  36.759  1.00  0.00    -0.545 OA
ENDBRANCH   4   5
ENDBRANCH   2   3
ENDBRANCH   1   2
BRANCH   1   8
ATOM      8  C   UNL     1       0.161  28.186  31.985  1.00  0.00     0.000 C 
BRANCH   8   9
ATOM      9  C   UNL     1      -1.240  27.571  31.829  1.00  0.00    -0.000 C 
BRANCH   9  10
ATOM     10  C   UNL     1      -2.104  27.749  33.087  1.00  0.00    -0.003 C 
ATOM     11  C   UNL     1      -1.665  26.850  34.242  1.00  0.00     0.004 C 
ENDBRANCH   9  10
ENDBRANCH   8   9
ENDBRANCH   1   8
TORSDOF 6
ENDMDL
MODEL 9
REMARK VINA RESULT:    -3.550      7.632      8.719
REMARK INTER + INTRA:          -5.111
REMARK INTER:                  -4.320
REMARK INTRA:                  -0.791
REMARK UNBOUND:                -0.316
REMARK SMILES CCCCCCC=CC(=O)[O-]
REMARK SMILES IDX 5 1 6 2 7 3 8 4 9 5 10 6 11 7 4 8 3 9 2 10 1 11
REMARK H PARENT
REMARK Flexibility Score: inf
ROOT
ATOM      1  C   UNL     1      -1.053  28.932  34.819  1.00  0.00     0.004 C 
ENDROOT
BRANCH   1   2
ATOM      2  C   UNL     1       0.178  29.855  34.855  1.00  0.00     0.027 C 
BRANCH   2   3
ATOM      3  C   UNL     1       0.480  30.472  33.519  1.00  0.00    -0.025 C 
ATOM      4  C   UNL     1      -0.366  31.331  32.939  1.00  0.00     0.020 C 
BRANCH   4   5
ATOM      5  C   UNL     1      -0.087  31.951  31.633  1.00  0.00     0.064 C 
ATOM      6  O   UNL     1      -0.517  31.441  30.565  1.00  0.00    -0.545 OA
ATOM      7  O   UNL     1       0.663  33.119  31.578  1.00  0.00    -0.545 OA
ENDBRANCH   4   5
ENDBRANCH   2   3
ENDBRANCH   1   2
BRANCH   1   8
ATOM      8  C   UNL     1      -0.933  27.751  33.838  1.00  0.00     0.000 C 
BRANCH   8   9
ATOM      9  C   UNL     1      -2.087  27.705  32.820  1.00  0.00    -0.000 C 
BRANCH   9  10
ATOM     10  C   UNL     1      -1.650  28.146  31.415  1.00  0.00    -0.003 C 
ATOM     11  C   UNL     1      -0.187  27.817  31.117  1.00  0.00     0.004 C 
ENDBRANCH   9  10
ENDBRANCH   8   9
ENDBRANCH   1   8
TORSDOF 6
ENDMDL
