MODEL 1
REMARK VINA RESULT:    -3.112      0.000      0.000
REMARK INTER + INTRA:          -5.108
REMARK INTER:                  -4.749
REMARK INTRA:                  -0.359
REMARK UNBOUND:                -0.359
REMARK SMILES CC1=CCC[C@@H](C)C(=O)C[C@@H](C(C)C)C(=O)C1
REMARK SMILES IDX 8 1 9 2 6 3 7 4 5 5 4 6 3 7 2 8 1 9 10 11 11 12 15 13 16 14
REMARK SMILES IDX 17 15 12 17 13 18 14 19
REMARK H PARENT
REMARK Flexibility Score: 70.00
ROOT
ATOM      1  C   UNL     1     150.169 151.962 165.856  1.00  0.00     0.136 C 
ATOM      2  O   UNL     1     150.556 150.828 165.611  1.00  0.00    -0.299 OA
ENDROOT
BRANCH   1   3
ATOM      3  C   UNL     1     150.281 152.511 167.262  1.00  0.00     0.053 C 
ATOM      4  C   UNL     1     151.756 152.549 167.676  1.00  0.00     0.016 C 
BRANCH   3   5
ATOM      5  C   UNL     1     149.463 151.685 168.280  1.00  0.00     0.015 C 
BRANCH   5   6
ATOM      6  C   UNL     1     148.121 152.333 168.648  1.00  0.00     0.028 C 
BRANCH   6   7
ATOM      7  C   UNL     1     146.980 151.687 167.900  1.00  0.00    -0.028 C 
ATOM      8  C   UNL     1     146.239 152.258 166.922  1.00  0.00    -0.070 CG0
ATOM      9  C   UNL     1     145.119 151.443 166.323  1.00  0.00     0.039 C 
ATOM     10  G   UNL     1     146.454 153.672 166.411  1.00  0.00     0.000 G0
ENDBRANCH   6   7
ENDBRANCH   5   6
ENDBRANCH   3   5
ENDBRANCH   1   3
BRANCH   1  11
ATOM     11  C   UNL     1     149.692 152.842 164.726  1.00  0.00     0.087 C 
BRANCH  11  12
ATOM     12  C   UNL     1     148.847 154.058 165.184  1.00  0.00     0.066 C 
BRANCH  12  13
ATOM     13  C   UNL     1     147.366 153.681 165.179  1.00  0.00     0.140 C 
ATOM     14  O   UNL     1     146.875 153.334 164.114  1.00  0.00    -0.299 OA
BRANCH  13  15
ATOM     15  C   UNL     1     146.472 153.670 166.403  1.00  0.00     0.106 CG0
ATOM     16  G   UNL     1     146.232 152.257 166.904  1.00  0.00     0.000 G0
ENDBRANCH  13  15
ENDBRANCH  12  13
BRANCH  12  17
ATOM     17  C   UNL     1     149.210 155.410 164.482  1.00  0.00    -0.006 C 
ATOM     18  C   UNL     1     150.346 156.137 165.227  1.00  0.00     0.008 C 
ATOM     19  C   UNL     1     149.662 155.199 163.024  1.00  0.00     0.008 C 
ENDBRANCH  12  17
ENDBRANCH  11  12
ENDBRANCH   1  11
TORSDOF 1
ENDMDL
MODEL 2
REMARK VINA RESULT:    -3.015      2.397      4.759
REMARK INTER + INTRA:          -4.960
REMARK INTER:                  -4.829
REMARK INTRA:                  -0.131
REMARK UNBOUND:                -0.359
REMARK SMILES CC1=CCC[C@@H](C)C(=O)C[C@@H](C(C)C)C(=O)C1
REMARK SMILES IDX 8 1 9 2 6 3 7 4 5 5 4 6 3 7 2 8 1 9 10 11 11 12 15 13 16 14
REMARK SMILES IDX 17 15 12 17 13 18 14 19
REMARK H PARENT
REMARK Flexibility Score: 70.00
ROOT
ATOM      1  C   UNL     1     151.276 150.738 164.408  1.00  0.00     0.136 C 
ATOM      2  O   UNL     1     152.276 150.073 164.181  1.00  0.00    -0.299 OA
ENDROOT
BRANCH   1   3
ATOM      3  C   UNL     1     149.994 150.456 163.655  1.00  0.00     0.053 C 
ATOM      4  C   UNL     1     149.914 148.959 163.333  1.00  0.00     0.016 C 
BRANCH   3   5
ATOM      5  C   UNL     1     149.882 151.287 162.357  1.00  0.00     0.015 C 
BRANCH   5   6
ATOM      6  C   UNL     1     148.765 152.338 162.405  1.00  0.00     0.028 C 
BRANCH   6   7
ATOM      7  C   UNL     1     149.308 153.724 162.149  1.00  0.00    -0.028 C 
ATOM      8  C   UNL     1     149.402 154.726 163.054  1.00  0.00    -0.070 CG0
ATOM      9  C   UNL     1     149.951 156.050 162.581  1.00  0.00     0.039 C 
ATOM     10  G   UNL     1     148.969 154.602 164.505  1.00  0.00     0.000 G0
ENDBRANCH   6   7
ENDBRANCH   5   6
ENDBRANCH   3   5
ENDBRANCH   1   3
BRANCH   1  11
ATOM     11  C   UNL     1     151.302 151.757 165.521  1.00  0.00     0.087 C 
BRANCH  11  12
ATOM     12  C   UNL     1     149.935 152.438 165.788  1.00  0.00     0.066 C 
BRANCH  12  13
ATOM     13  C   UNL     1     150.004 153.905 165.365  1.00  0.00     0.140 C 
ATOM     14  O   UNL     1     150.990 154.544 165.704  1.00  0.00    -0.299 OA
BRANCH  13  15
ATOM     15  C   UNL     1     148.959 154.614 164.528  1.00  0.00     0.106 CG0
ATOM     16  G   UNL     1     149.386 154.715 163.073  1.00  0.00     0.000 G0
ENDBRANCH  13  15
ENDBRANCH  12  13
BRANCH  12  17
ATOM     17  C   UNL     1     149.333 152.164 167.207  1.00  0.00    -0.006 C 
ATOM     18  C   UNL     1     150.444 151.906 168.243  1.00  0.00     0.008 C 
ATOM     19  C   UNL     1     148.483 153.347 167.712  1.00  0.00     0.008 C 
ENDBRANCH  12  17
ENDBRANCH  11  12
ENDBRANCH   1  11
TORSDOF 1
ENDMDL
MODEL 3
REMARK VINA RESULT:    -2.869      1.871      3.878
REMARK INTER + INTRA:          -4.737
REMARK INTER:                  -4.226
REMARK INTRA:                  -0.511
REMARK UNBOUND:                -0.359
REMARK SMILES CC1=CCC[C@@H](C)C(=O)C[C@@H](C(C)C)C(=O)C1
REMARK SMILES IDX 8 1 9 2 6 3 7 4 5 5 4 6 3 7 2 8 1 9 10 11 11 12 15 13 16 14
REMARK SMILES IDX 17 15 12 17 13 18 14 19
REMARK H PARENT
REMARK Flexibility Score: 70.00
ROOT
ATOM      1  C   UNL     1     149.770 154.537 163.858  1.00  0.00     0.136 C 
ATOM      2  O   UNL     1     150.298 155.497 163.316  1.00  0.00    -0.299 OA
ENDROOT
BRANCH   1   3
ATOM      3  C   UNL     1     149.062 153.492 163.022  1.00  0.00     0.053 C 
ATOM      4  C   UNL     1     149.956 153.095 161.842  1.00  0.00     0.016 C 
BRANCH   3   5
ATOM      5  C   UNL     1     147.689 153.983 162.510  1.00  0.00     0.015 C 
BRANCH   5   6
ATOM      6  C   UNL     1     146.742 154.418 163.636  1.00  0.00     0.028 C 
BRANCH   6   7
ATOM      7  C   UNL     1     146.121 153.224 164.320  1.00  0.00    -0.028 C 
ATOM      8  C   UNL     1     146.219 152.915 165.634  1.00  0.00    -0.070 CG0
ATOM      9  C   UNL     1     145.543 151.653 166.110  1.00  0.00     0.039 C 
ATOM     10  G   UNL     1     146.984 153.749 166.647  1.00  0.00     0.000 G0
ENDBRANCH   6   7
ENDBRANCH   5   6
ENDBRANCH   3   5
ENDBRANCH   1   3
BRANCH   1  11
ATOM     11  C   UNL     1     149.932 154.345 165.346  1.00  0.00     0.087 C 
BRANCH  11  12
ATOM     12  C   UNL     1     149.423 152.978 165.868  1.00  0.00     0.066 C 
BRANCH  12  13
ATOM     13  C   UNL     1     148.356 153.205 166.938  1.00  0.00     0.140 C 
ATOM     14  O   UNL     1     148.657 152.960 168.098  1.00  0.00    -0.299 OA
BRANCH  13  15
ATOM     15  C   UNL     1     146.965 153.745 166.671  1.00  0.00     0.106 CG0
ATOM     16  G   UNL     1     146.239 152.919 165.624  1.00  0.00     0.000 G0
ENDBRANCH  13  15
ENDBRANCH  12  13
BRANCH  12  17
ATOM     17  C   UNL     1     150.552 151.956 166.236  1.00  0.00    -0.006 C 
ATOM     18  C   UNL     1     150.793 150.956 165.088  1.00  0.00     0.008 C 
ATOM     19  C   UNL     1     151.890 152.659 166.539  1.00  0.00     0.008 C 
ENDBRANCH  12  17
ENDBRANCH  11  12
ENDBRANCH   1  11
TORSDOF 1
ENDMDL
MODEL 4
REMARK VINA RESULT:    -2.850      2.815      5.417
REMARK INTER + INTRA:          -4.708
REMARK INTER:                  -4.247
REMARK INTRA:                  -0.461
REMARK UNBOUND:                -0.359
REMARK SMILES CC1=CCC[C@@H](C)C(=O)C[C@@H](C(C)C)C(=O)C1
REMARK SMILES IDX 8 1 9 2 6 3 7 4 5 5 4 6 3 7 2 8 1 9 10 11 11 12 15 13 16 14
REMARK SMILES IDX 17 15 12 17 13 18 14 19
REMARK H PARENT
REMARK Flexibility Score: 70.00
ROOT
ATOM      1  C   UNL     1     148.859 154.010 164.168  1.00  0.00     0.136 C 
ATOM      2  O   UNL     1     147.886 154.750 164.166  1.00  0.00    -0.299 OA
ENDROOT
BRANCH   1   3
ATOM      3  C   UNL     1     150.069 154.351 163.325  1.00  0.00     0.053 C 
ATOM      4  C   UNL     1     150.618 155.717 163.754  1.00  0.00     0.016 C 
BRANCH   3   5
ATOM      5  C   UNL     1     149.748 154.356 161.814  1.00  0.00     0.015 C 
BRANCH   5   6
ATOM      6  C   UNL     1     148.979 153.111 161.353  1.00  0.00     0.028 C 
BRANCH   6   7
ATOM      7  C   UNL     1     149.915 151.958 161.081  1.00  0.00    -0.028 C 
ATOM      8  C   UNL     1     150.062 150.849 161.843  1.00  0.00    -0.070 CG0
ATOM      9  C   UNL     1     151.081 149.826 161.405  1.00  0.00     0.039 C 
ATOM     10  G   UNL     1     149.279 150.587 163.118  1.00  0.00     0.000 G0
ENDBRANCH   6   7
ENDBRANCH   5   6
ENDBRANCH   3   5
ENDBRANCH   1   3
BRANCH   1  11
ATOM     11  C   UNL     1     148.886 152.824 165.102  1.00  0.00     0.087 C 
BRANCH  11  12
ATOM     12  C   UNL     1     150.247 152.085 165.147  1.00  0.00     0.066 C 
BRANCH  12  13
ATOM     13  C   UNL     1     150.147 150.781 164.356  1.00  0.00     0.140 C 
ATOM     14  O   UNL     1     150.786 149.822 164.764  1.00  0.00    -0.299 OA
BRANCH  13  15
ATOM     15  C   UNL     1     149.284 150.580 163.126  1.00  0.00     0.106 CG0
ATOM     16  G   UNL     1     150.064 150.850 161.850  1.00  0.00     0.000 G0
ENDBRANCH  13  15
ENDBRANCH  12  13
BRANCH  12  17
ATOM     17  C   UNL     1     150.884 151.970 166.573  1.00  0.00    -0.006 C 
ATOM     18  C   UNL     1     152.014 153.000 166.763  1.00  0.00     0.008 C 
ATOM     19  C   UNL     1     149.844 152.200 167.688  1.00  0.00     0.008 C 
ENDBRANCH  12  17
ENDBRANCH  11  12
ENDBRANCH   1  11
TORSDOF 1
ENDMDL
MODEL 5
REMARK VINA RESULT:    -2.823      2.921      4.895
REMARK INTER + INTRA:          -4.668
REMARK INTER:                  -4.171
REMARK INTRA:                  -0.497
REMARK UNBOUND:                -0.359
REMARK SMILES CC1=CCC[C@@H](C)C(=O)C[C@@H](C(C)C)C(=O)C1
REMARK SMILES IDX 8 1 9 2 6 3 7 4 5 5 4 6 3 7 2 8 1 9 10 11 11 12 15 13 16 14
REMARK SMILES IDX 17 15 12 17 13 18 14 19
REMARK H PARENT
REMARK Flexibility Score: 70.00
ROOT
ATOM      1  C   UNL     1     148.922 152.303 165.168  1.00  0.00     0.136 C 
ATOM      2  O   UNL     1     148.084 152.262 166.057  1.00  0.00    -0.299 OA
ENDROOT
BRANCH   1   3
ATOM      3  C   UNL     1     150.232 153.025 165.397  1.00  0.00     0.053 C 
ATOM      4  C   UNL     1     150.953 152.400 166.597  1.00  0.00     0.016 C 
BRANCH   3   5
ATOM      5  C   UNL     1     150.035 154.540 165.624  1.00  0.00     0.015 C 
BRANCH   5   6
ATOM      6  C   UNL     1     150.339 155.385 164.379  1.00  0.00     0.028 C 
BRANCH   6   7
ATOM      7  C   UNL     1     149.131 155.485 163.478  1.00  0.00    -0.028 C 
ATOM      8  C   UNL     1     148.968 154.864 162.287  1.00  0.00    -0.070 CG0
ATOM      9  C   UNL     1     147.690 155.125 161.529  1.00  0.00     0.039 C 
ATOM     10  G   UNL     1     150.002 153.942 161.662  1.00  0.00     0.000 G0
ENDBRANCH   6   7
ENDBRANCH   5   6
ENDBRANCH   3   5
ENDBRANCH   1   3
BRANCH   1  11
ATOM     11  C   UNL     1     148.685 151.532 163.892  1.00  0.00     0.087 C 
BRANCH  11  12
ATOM     12  C   UNL     1     149.886 151.546 162.912  1.00  0.00     0.066 C 
BRANCH  12  13
ATOM     13  C   UNL     1     149.577 152.476 161.739  1.00  0.00     0.140 C 
ATOM     14  O   UNL     1     148.916 152.020 160.816  1.00  0.00    -0.299 OA
BRANCH  13  15
ATOM     15  C   UNL     1     149.998 153.929 161.653  1.00  0.00     0.106 CG0
ATOM     16  G   UNL     1     148.971 154.844 162.298  1.00  0.00     0.000 G0
ENDBRANCH  13  15
ENDBRANCH  12  13
BRANCH  12  17
ATOM     17  C   UNL     1     150.439 150.131 162.534  1.00  0.00    -0.006 C 
ATOM     18  C   UNL     1     151.836 149.898 163.142  1.00  0.00     0.008 C 
ATOM     19  C   UNL     1     149.515 149.000 163.027  1.00  0.00     0.008 C 
ENDBRANCH  12  17
ENDBRANCH  11  12
ENDBRANCH   1  11
TORSDOF 1
ENDMDL
MODEL 6
REMARK VINA RESULT:    -2.762      2.270      4.327
REMARK INTER + INTRA:          -4.575
REMARK INTER:                  -4.069
REMARK INTRA:                  -0.505
REMARK UNBOUND:                -0.359
REMARK SMILES CC1=CCC[C@@H](C)C(=O)C[C@@H](C(C)C)C(=O)C1
REMARK SMILES IDX 8 1 9 2 6 3 7 4 5 5 4 6 3 7 2 8 1 9 10 11 11 12 15 13 16 14
REMARK SMILES IDX 17 15 12 17 13 18 14 19
REMARK H PARENT
REMARK Flexibility Score: 70.00
ROOT
ATOM      1  C   UNL     1     148.225 153.287 167.255  1.00  0.00     0.136 C 
ATOM      2  O   UNL     1     148.502 154.155 168.070  1.00  0.00    -0.299 OA
ENDROOT
BRANCH   1   3
ATOM      3  C   UNL     1     149.200 152.159 166.993  1.00  0.00     0.053 C 
ATOM      4  C   UNL     1     149.737 151.631 168.328  1.00  0.00     0.016 C 
BRANCH   3   5
ATOM      5  C   UNL     1     150.369 152.594 166.082  1.00  0.00     0.015 C 
BRANCH   5   6
ATOM      6  C   UNL     1     149.949 152.826 164.625  1.00  0.00     0.028 C 
BRANCH   6   7
ATOM      7  C   UNL     1     149.502 151.539 163.974  1.00  0.00    -0.028 C 
ATOM      8  C   UNL     1     148.238 151.226 163.605  1.00  0.00    -0.070 CG0
ATOM      9  C   UNL     1     148.002 149.867 162.994  1.00  0.00     0.039 C 
ATOM     10  G   UNL     1     147.047 152.151 163.790  1.00  0.00     0.000 G0
ENDBRANCH   6   7
ENDBRANCH   5   6
ENDBRANCH   3   5
ENDBRANCH   1   3
BRANCH   1  11
ATOM     11  C   UNL     1     146.863 153.288 166.606  1.00  0.00     0.087 C 
BRANCH  11  12
ATOM     12  C   UNL     1     146.277 151.874 166.360  1.00  0.00     0.066 C 
BRANCH  12  13
ATOM     13  C   UNL     1     146.098 151.650 164.858  1.00  0.00     0.140 C 
ATOM     14  O   UNL     1     145.103 151.041 164.493  1.00  0.00    -0.299 OA
BRANCH  13  15
ATOM     15  C   UNL     1     147.044 152.159 163.789  1.00  0.00     0.106 CG0
ATOM     16  G   UNL     1     148.219 151.218 163.592  1.00  0.00     0.000 G0
ENDBRANCH  13  15
ENDBRANCH  12  13
BRANCH  12  17
ATOM     17  C   UNL     1     145.046 151.510 167.257  1.00  0.00    -0.006 C 
ATOM     18  C   UNL     1     145.489 150.784 168.542  1.00  0.00     0.008 C 
ATOM     19  C   UNL     1     144.246 152.759 167.673  1.00  0.00     0.008 C 
ENDBRANCH  12  17
ENDBRANCH  11  12
ENDBRANCH   1  11
TORSDOF 1
ENDMDL
MODEL 7
REMARK VINA RESULT:    -2.713      1.827      4.280
REMARK INTER + INTRA:          -4.500
REMARK INTER:                  -4.695
REMARK INTRA:                   0.196
REMARK UNBOUND:                -0.359
REMARK SMILES CC1=CCC[C@@H](C)C(=O)C[C@@H](C(C)C)C(=O)C1
REMARK SMILES IDX 8 1 9 2 6 3 7 4 5 5 4 6 3 7 2 8 1 9 10 11 11 12 15 13 16 14
REMARK SMILES IDX 17 15 12 17 13 18 14 19
REMARK H PARENT
REMARK Flexibility Score: 70.00
ROOT
ATOM      1  C   UNL     1     148.880 151.129 168.935  1.00  0.00     0.136 C 
ATOM      2  O   UNL     1     148.536 150.154 169.588  1.00  0.00    -0.299 OA
ENDROOT
BRANCH   1   3
ATOM      3  C   UNL     1     150.196 151.112 168.189  1.00  0.00     0.053 C 
ATOM      4  C   UNL     1     151.074 152.268 168.681  1.00  0.00     0.016 C 
BRANCH   3   5
ATOM      5  C   UNL     1     150.004 151.203 166.658  1.00  0.00     0.015 C 
BRANCH   5   6
ATOM      6  C   UNL     1     150.760 152.376 166.020  1.00  0.00     0.028 C 
BRANCH   6   7
ATOM      7  C   UNL     1     149.952 153.009 164.913  1.00  0.00    -0.028 C 
ATOM      8  C   UNL     1     148.846 153.774 165.066  1.00  0.00    -0.070 CG0
ATOM      9  C   UNL     1     148.169 154.287 163.819  1.00  0.00     0.039 C 
ATOM     10  G   UNL     1     148.239 154.127 166.413  1.00  0.00     0.000 G0
ENDBRANCH   6   7
ENDBRANCH   5   6
ENDBRANCH   3   5
ENDBRANCH   1   3
BRANCH   1  11
ATOM     11  C   UNL     1     147.931 152.294 168.788  1.00  0.00     0.087 C 
BRANCH  11  12
ATOM     12  C   UNL     1     146.900 152.129 167.642  1.00  0.00     0.066 C 
BRANCH  12  13
ATOM     13  C   UNL     1     146.978 153.338 166.708  1.00  0.00     0.140 C 
ATOM     14  O   UNL     1     145.941 153.708 166.177  1.00  0.00    -0.299 OA
BRANCH  13  15
ATOM     15  C   UNL     1     148.238 154.130 166.423  1.00  0.00     0.106 CG0
ATOM     16  G   UNL     1     148.833 153.763 165.074  1.00  0.00     0.000 G0
ENDBRANCH  13  15
ENDBRANCH  12  13
BRANCH  12  17
ATOM     17  C   UNL     1     145.463 151.718 168.107  1.00  0.00    -0.006 C 
ATOM     18  C   UNL     1     145.440 150.268 168.628  1.00  0.00     0.008 C 
ATOM     19  C   UNL     1     144.938 152.631 169.232  1.00  0.00     0.008 C 
ENDBRANCH  12  17
ENDBRANCH  11  12
ENDBRANCH   1  11
TORSDOF 1
ENDMDL
MODEL 8
REMARK VINA RESULT:    -2.663      2.594      3.688
REMARK INTER + INTRA:          -4.424
REMARK INTER:                  -3.882
REMARK INTRA:                  -0.541
REMARK UNBOUND:                -0.359
REMARK SMILES CC1=CCC[C@@H](C)C(=O)C[C@@H](C(C)C)C(=O)C1
REMARK SMILES IDX 8 1 9 2 6 3 7 4 5 5 4 6 3 7 2 8 1 9 10 11 11 12 15 13 16 14
REMARK SMILES IDX 17 15 12 17 13 18 14 19
REMARK H PARENT
REMARK Flexibility Score: 70.00
ROOT
ATOM      1  C   UNL     1     149.258 152.563 165.625  1.00  0.00     0.136 C 
ATOM      2  O   UNL     1     149.747 151.676 166.310  1.00  0.00    -0.299 OA
ENDROOT
BRANCH   1   3
ATOM      3  C   UNL     1     147.927 153.171 166.014  1.00  0.00     0.053 C 
ATOM      4  C   UNL     1     147.918 153.451 167.521  1.00  0.00     0.016 C 
BRANCH   3   5
ATOM      5  C   UNL     1     146.735 152.264 165.633  1.00  0.00     0.015 C 
BRANCH   5   6
ATOM      6  C   UNL     1     146.087 152.645 164.295  1.00  0.00     0.028 C 
BRANCH   6   7
ATOM      7  C   UNL     1     146.625 151.798 163.167  1.00  0.00    -0.028 C 
ATOM      8  C   UNL     1     147.316 152.244 162.092  1.00  0.00    -0.070 CG0
ATOM      9  C   UNL     1     147.740 151.228 161.059  1.00  0.00     0.039 C 
ATOM     10  G   UNL     1     147.670 153.702 161.856  1.00  0.00     0.000 G0
ENDBRANCH   6   7
ENDBRANCH   5   6
ENDBRANCH   3   5
ENDBRANCH   1   3
BRANCH   1  11
ATOM     11  C   UNL     1     150.045 153.122 164.464  1.00  0.00     0.087 C 
BRANCH  11  12
ATOM     12  C   UNL     1     149.400 154.367 163.804  1.00  0.00     0.066 C 
BRANCH  12  13
ATOM     13  C   UNL     1     149.058 154.052 162.347  1.00  0.00     0.140 C 
ATOM     14  O   UNL     1     149.977 154.042 161.541  1.00  0.00    -0.299 OA
BRANCH  13  15
ATOM     15  C   UNL     1     147.671 153.716 161.838  1.00  0.00     0.106 CG0
ATOM     16  G   UNL     1     147.321 152.260 162.096  1.00  0.00     0.000 G0
ENDBRANCH  13  15
ENDBRANCH  12  13
BRANCH  12  17
ATOM     17  C   UNL     1     150.167 155.710 164.050  1.00  0.00    -0.006 C 
ATOM     18  C   UNL     1     149.420 156.901 163.419  1.00  0.00     0.008 C 
ATOM     19  C   UNL     1     150.344 156.006 165.552  1.00  0.00     0.008 C 
ENDBRANCH  12  17
ENDBRANCH  11  12
ENDBRANCH   1  11
TORSDOF 1
ENDMDL
MODEL 9
REMARK VINA RESULT:    -2.562      2.108      3.191
REMARK INTER + INTRA:          -4.269
REMARK INTER:                  -3.949
REMARK INTRA:                  -0.320
REMARK UNBOUND:                -0.359
REMARK SMILES CC1=CCC[C@@H](C)C(=O)C[C@@H](C(C)C)C(=O)C1
REMARK SMILES IDX 8 1 9 2 6 3 7 4 5 5 4 6 3 7 2 8 1 9 10 11 11 12 15 13 16 14
REMARK SMILES IDX 17 15 12 17 13 18 14 19
REMARK H PARENT
REMARK Flexibility Score: 70.00
ROOT
ATOM      1  C   UNL     1     149.076 150.778 163.282  1.00  0.00     0.136 C 
ATOM      2  O   UNL     1     148.644 149.766 162.747  1.00  0.00    -0.299 OA
ENDROOT
BRANCH   1   3
ATOM      3  C   UNL     1     150.532 150.853 163.689  1.00  0.00     0.053 C 
ATOM      4  C   UNL     1     151.346 149.858 162.854  1.00  0.00     0.016 C 
BRANCH   3   5
ATOM      5  C   UNL     1     150.734 150.576 165.196  1.00  0.00     0.015 C 
BRANCH   5   6
ATOM      6  C   UNL     1     151.041 151.840 166.009  1.00  0.00     0.028 C 
BRANCH   6   7
ATOM      7  C   UNL     1     149.933 152.141 166.989  1.00  0.00    -0.028 C 
ATOM      8  C   UNL     1     149.154 153.248 167.001  1.00  0.00    -0.070 CG0
ATOM      9  C   UNL     1     148.118 153.366 168.091  1.00  0.00     0.039 C 
ATOM     10  G   UNL     1     149.277 154.382 165.998  1.00  0.00     0.000 G0
ENDBRANCH   6   7
ENDBRANCH   5   6
ENDBRANCH   3   5
ENDBRANCH   1   3
BRANCH   1  11
ATOM     11  C   UNL     1     148.178 151.982 163.422  1.00  0.00     0.087 C 
BRANCH  11  12
ATOM     12  C   UNL     1     148.938 153.329 163.526  1.00  0.00     0.066 C 
BRANCH  12  13
ATOM     13  C   UNL     1     148.439 154.104 164.746  1.00  0.00     0.140 C 
ATOM     14  O   UNL     1     147.282 154.497 164.731  1.00  0.00    -0.299 OA
BRANCH  13  15
ATOM     15  C   UNL     1     149.263 154.387 165.986  1.00  0.00     0.106 CG0
ATOM     16  G   UNL     1     149.162 153.254 166.992  1.00  0.00     0.000 G0
ENDBRANCH  13  15
ENDBRANCH  12  13
BRANCH  12  17
ATOM     17  C   UNL     1     149.018 154.140 162.188  1.00  0.00    -0.006 C 
ATOM     18  C   UNL     1     149.933 155.371 162.338  1.00  0.00     0.008 C 
ATOM     19  C   UNL     1     149.563 153.285 161.028  1.00  0.00     0.008 C 
ENDBRANCH  12  17
ENDBRANCH  11  12
ENDBRANCH   1  11
TORSDOF 1
ENDMDL
