MODEL 1
REMARK VINA RESULT:    -3.932      0.000      0.000
REMARK INTER + INTRA:          -5.316
REMARK INTER:                  -5.081
REMARK INTRA:                  -0.235
REMARK UNBOUND:                -0.235
REMARK SMILES CCOC(=O)C=Cc1ccc(O)c(O)c1
REMARK SMILES IDX 6 1 7 2 4 3 5 4 3 5 2 6 1 7 8 8 15 9 9 10 13 11 10 12 11 13
REMARK SMILES IDX 14 14 12 16
REMARK H PARENT 14 15 12 17
REMARK Flexibility Score: inf
ROOT
ATOM      1  C   UNL     1      48.241  81.634  42.465  1.00  0.00     0.094 C 
ATOM      2  C   UNL     1      48.463  82.233  43.643  1.00  0.00     0.016 C 
ENDROOT
BRANCH   1   3
ATOM      3  C   UNL     1      48.198  82.389  41.203  1.00  0.00     0.330 C 
ATOM      4  O   UNL     1      48.460  83.622  41.217  1.00  0.00    -0.247 OA
BRANCH   3   5
ATOM      5  O   UNL     1      47.875  81.746  40.000  1.00  0.00    -0.463 OA
BRANCH   5   6
ATOM      6  C   UNL     1      47.990  80.338  39.805  1.00  0.00     0.230 C 
ATOM      7  C   UNL     1      49.453  79.933  39.663  1.00  0.00     0.049 C 
ENDBRANCH   5   6
ENDBRANCH   3   5
ENDBRANCH   1   3
BRANCH   2   8
ATOM      8  C   UNL     1      48.503  81.514  44.940  1.00  0.00    -0.021 A 
ATOM      9  C   UNL     1      49.116  82.057  46.088  1.00  0.00     0.058 A 
ATOM     10  C   UNL     1      47.875  80.263  45.034  1.00  0.00     0.012 A 
ATOM     11  C   UNL     1      49.119  81.345  47.298  1.00  0.00     0.157 A 
ATOM     12  C   UNL     1      47.880  79.552  46.236  1.00  0.00     0.051 A 
ATOM     13  C   UNL     1      48.501  80.085  47.369  1.00  0.00     0.157 A 
BRANCH  11  14
ATOM     14  O   UNL     1      49.730  81.887  48.427  1.00  0.00    -0.504 OA
ATOM     15  H   UNL     1      49.197  82.374  49.138  1.00  0.00     0.293 HD
ENDBRANCH  11  14
BRANCH  13  16
ATOM     16  O   UNL     1      48.492  79.353  48.556  1.00  0.00    -0.504 OA
ATOM     17  H   UNL     1      49.145  78.597  48.726  1.00  0.00     0.293 HD
ENDBRANCH  13  16
ENDBRANCH   2   8
TORSDOF 6
ENDMDL
MODEL 2
REMARK VINA RESULT:    -3.839     12.270     13.840
REMARK INTER + INTRA:          -5.196
REMARK INTER:                  -4.818
REMARK INTRA:                  -0.378
REMARK UNBOUND:                -0.235
REMARK SMILES CCOC(=O)C=Cc1ccc(O)c(O)c1
REMARK SMILES IDX 6 1 7 2 4 3 5 4 3 5 2 6 1 7 8 8 15 9 9 10 13 11 10 12 11 13
REMARK SMILES IDX 14 14 12 16
REMARK H PARENT 14 15 12 17
REMARK Flexibility Score: inf
ROOT
ATOM      1  C   UNL     1      50.387  83.630  32.454  1.00  0.00     0.094 C 
ATOM      2  C   UNL     1      51.260  83.115  31.577  1.00  0.00     0.016 C 
ENDROOT
BRANCH   1   3
ATOM      3  C   UNL     1      48.933  83.490  32.279  1.00  0.00     0.330 C 
ATOM      4  O   UNL     1      48.178  83.640  33.277  1.00  0.00    -0.247 OA
BRANCH   3   5
ATOM      5  O   UNL     1      48.394  83.197  31.019  1.00  0.00    -0.463 OA
BRANCH   5   6
ATOM      6  C   UNL     1      47.875  84.188  30.135  1.00  0.00     0.230 C 
ATOM      7  C   UNL     1      48.798  84.376  28.936  1.00  0.00     0.049 C 
ENDBRANCH   5   6
ENDBRANCH   3   5
ENDBRANCH   1   3
BRANCH   2   8
ATOM      8  C   UNL     1      52.733  83.242  31.707  1.00  0.00    -0.021 A 
ATOM      9  C   UNL     1      53.532  82.236  32.288  1.00  0.00     0.058 A 
ATOM     10  C   UNL     1      53.355  84.393  31.200  1.00  0.00     0.012 A 
ATOM     11  C   UNL     1      54.923  82.395  32.379  1.00  0.00     0.157 A 
ATOM     12  C   UNL     1      54.739  84.554  31.293  1.00  0.00     0.051 A 
ATOM     13  C   UNL     1      55.527  83.562  31.882  1.00  0.00     0.157 A 
BRANCH  11  14
ATOM     14  O   UNL     1      55.705  81.396  32.957  1.00  0.00    -0.504 OA
ATOM     15  H   UNL     1      55.299  80.673  33.538  1.00  0.00     0.293 HD
ENDBRANCH  11  14
BRANCH  13  16
ATOM     16  O   UNL     1      56.907  83.750  31.962  1.00  0.00    -0.504 OA
ATOM     17  H   UNL     1      57.423  83.584  32.818  1.00  0.00     0.293 HD
ENDBRANCH  13  16
ENDBRANCH   2   8
TORSDOF 6
ENDMDL
MODEL 3
REMARK VINA RESULT:    -3.790     11.452     13.491
REMARK INTER + INTRA:          -5.132
REMARK INTER:                  -4.772
REMARK INTRA:                  -0.360
REMARK UNBOUND:                -0.235
REMARK SMILES CCOC(=O)C=Cc1ccc(O)c(O)c1
REMARK SMILES IDX 6 1 7 2 4 3 5 4 3 5 2 6 1 7 8 8 15 9 9 10 13 11 10 12 11 13
REMARK SMILES IDX 14 14 12 16
REMARK H PARENT 14 15 12 17
REMARK Flexibility Score: inf
ROOT
ATOM      1  C   UNL     1      50.385  83.111  31.808  1.00  0.00     0.094 C 
ATOM      2  C   UNL     1      51.291  84.085  31.635  1.00  0.00     0.016 C 
ENDROOT
BRANCH   1   3
ATOM      3  C   UNL     1      48.956  83.320  31.532  1.00  0.00     0.330 C 
ATOM      4  O   UNL     1      48.424  82.717  30.560  1.00  0.00    -0.247 OA
BRANCH   3   5
ATOM      5  O   UNL     1      48.193  84.174  32.340  1.00  0.00    -0.463 OA
BRANCH   5   6
ATOM      6  C   UNL     1      48.080  84.027  33.753  1.00  0.00     0.230 C 
ATOM      7  C   UNL     1      48.857  85.124  34.471  1.00  0.00     0.049 C 
ENDBRANCH   5   6
ENDBRANCH   3   5
ENDBRANCH   1   3
BRANCH   2   8
ATOM      8  C   UNL     1      52.739  83.923  31.911  1.00  0.00    -0.021 A 
ATOM      9  C   UNL     1      53.331  82.664  32.141  1.00  0.00     0.058 A 
ATOM     10  C   UNL     1      53.556  85.064  31.908  1.00  0.00     0.012 A 
ATOM     11  C   UNL     1      54.708  82.558  32.387  1.00  0.00     0.157 A 
ATOM     12  C   UNL     1      54.926  84.960  32.154  1.00  0.00     0.051 A 
ATOM     13  C   UNL     1      55.507  83.713  32.397  1.00  0.00     0.157 A 
BRANCH  11  14
ATOM     14  O   UNL     1      55.284  81.309  32.617  1.00  0.00    -0.504 OA
ATOM     15  H   UNL     1      55.593  81.028  33.540  1.00  0.00     0.293 HD
ENDBRANCH  11  14
BRANCH  13  16
ATOM     16  O   UNL     1      56.878  83.639  32.643  1.00  0.00    -0.504 OA
ATOM     17  H   UNL     1      57.552  84.155  32.090  1.00  0.00     0.293 HD
ENDBRANCH  13  16
ENDBRANCH   2   8
TORSDOF 6
ENDMDL
MODEL 4
REMARK VINA RESULT:    -3.678      1.691      6.347
REMARK INTER + INTRA:          -4.988
REMARK INTER:                  -4.698
REMARK INTRA:                  -0.290
REMARK UNBOUND:                -0.235
REMARK SMILES CCOC(=O)C=Cc1ccc(O)c(O)c1
REMARK SMILES IDX 6 1 7 2 4 3 5 4 3 5 2 6 1 7 8 8 15 9 9 10 13 11 10 12 11 13
REMARK SMILES IDX 14 14 12 16
REMARK H PARENT 14 15 12 17
REMARK Flexibility Score: inf
ROOT
ATOM      1  C   UNL     1      48.756  82.545  46.039  1.00  0.00     0.094 C 
ATOM      2  C   UNL     1      48.352  83.242  44.969  1.00  0.00     0.016 C 
ENDROOT
BRANCH   1   3
ATOM      3  C   UNL     1      48.668  83.090  47.403  1.00  0.00     0.330 C 
ATOM      4  O   UNL     1      48.854  84.324  47.583  1.00  0.00    -0.247 OA
BRANCH   3   5
ATOM      5  O   UNL     1      48.376  82.251  48.486  1.00  0.00    -0.463 OA
BRANCH   5   6
ATOM      6  C   UNL     1      47.948  80.899  48.342  1.00  0.00     0.230 C 
ATOM      7  C   UNL     1      49.025  79.939  48.834  1.00  0.00     0.049 C 
ENDBRANCH   5   6
ENDBRANCH   3   5
ENDBRANCH   1   3
BRANCH   2   8
ATOM      8  C   UNL     1      48.433  82.737  43.576  1.00  0.00    -0.021 A 
ATOM      9  C   UNL     1      49.072  83.456  42.545  1.00  0.00     0.058 A 
ATOM     10  C   UNL     1      47.882  81.480  43.284  1.00  0.00     0.012 A 
ATOM     11  C   UNL     1      49.134  82.933  41.245  1.00  0.00     0.157 A 
ATOM     12  C   UNL     1      47.942  80.960  41.990  1.00  0.00     0.051 A 
ATOM     13  C   UNL     1      48.563  81.681  40.966  1.00  0.00     0.157 A 
BRANCH  11  14
ATOM     14  O   UNL     1      49.765  83.653  40.231  1.00  0.00    -0.504 OA
ATOM     15  H   UNL     1      49.806  84.665  40.244  1.00  0.00     0.293 HD
ENDBRANCH  11  14
BRANCH  13  16
ATOM     16  O   UNL     1      48.605  81.138  39.683  1.00  0.00    -0.504 OA
ATOM     17  H   UNL     1      49.423  80.653  39.331  1.00  0.00     0.293 HD
ENDBRANCH  13  16
ENDBRANCH   2   8
TORSDOF 6
ENDMDL
MODEL 5
REMARK VINA RESULT:    -3.657     12.586     14.630
REMARK INTER + INTRA:          -4.961
REMARK INTER:                  -4.705
REMARK INTRA:                  -0.256
REMARK UNBOUND:                -0.235
REMARK SMILES CCOC(=O)C=Cc1ccc(O)c(O)c1
REMARK SMILES IDX 6 1 7 2 4 3 5 4 3 5 2 6 1 7 8 8 15 9 9 10 13 11 10 12 11 13
REMARK SMILES IDX 14 14 12 16
REMARK H PARENT 14 15 12 17
REMARK Flexibility Score: inf
ROOT
ATOM      1  C   UNL     1      54.809  83.113  31.753  1.00  0.00     0.094 C 
ATOM      2  C   UNL     1      53.720  83.895  31.763  1.00  0.00     0.016 C 
ENDROOT
BRANCH   1   3
ATOM      3  C   UNL     1      56.148  83.638  32.061  1.00  0.00     0.330 C 
ATOM      4  O   UNL     1      56.556  83.615  33.254  1.00  0.00    -0.247 OA
BRANCH   3   5
ATOM      5  O   UNL     1      56.961  84.154  31.043  1.00  0.00    -0.463 OA
BRANCH   5   6
ATOM      6  C   UNL     1      56.895  83.719  29.687  1.00  0.00     0.230 C 
ATOM      7  C   UNL     1      58.140  84.153  28.923  1.00  0.00     0.049 C 
ENDBRANCH   5   6
ENDBRANCH   3   5
ENDBRANCH   1   3
BRANCH   2   8
ATOM      8  C   UNL     1      52.354  83.411  31.447  1.00  0.00    -0.021 A 
ATOM      9  C   UNL     1      51.258  83.619  32.310  1.00  0.00     0.058 A 
ATOM     10  C   UNL     1      52.139  82.754  30.226  1.00  0.00     0.012 A 
ATOM     11  C   UNL     1      49.980  83.153  31.964  1.00  0.00     0.157 A 
ATOM     12  C   UNL     1      50.869  82.288  29.882  1.00  0.00     0.051 A 
ATOM     13  C   UNL     1      49.787  82.482  30.746  1.00  0.00     0.157 A 
BRANCH  11  14
ATOM     14  O   UNL     1      48.903  83.360  32.825  1.00  0.00    -0.504 OA
ATOM     15  H   UNL     1      49.040  83.613  33.796  1.00  0.00     0.293 HD
ENDBRANCH  11  14
BRANCH  13  16
ATOM     16  O   UNL     1      48.530  82.004  30.377  1.00  0.00    -0.504 OA
ATOM     17  H   UNL     1      48.083  82.279  29.510  1.00  0.00     0.293 HD
ENDBRANCH  13  16
ENDBRANCH   2   8
TORSDOF 6
ENDMDL
MODEL 6
REMARK VINA RESULT:    -3.555     12.721     14.311
REMARK INTER + INTRA:          -4.828
REMARK INTER:                  -4.464
REMARK INTRA:                  -0.365
REMARK UNBOUND:                -0.235
REMARK SMILES CCOC(=O)C=Cc1ccc(O)c(O)c1
REMARK SMILES IDX 6 1 7 2 4 3 5 4 3 5 2 6 1 7 8 8 15 9 9 10 13 11 10 12 11 13
REMARK SMILES IDX 14 14 12 16
REMARK H PARENT 14 15 12 17
REMARK Flexibility Score: inf
ROOT
ATOM      1  C   UNL     1      54.536  84.154  31.882  1.00  0.00     0.094 C 
ATOM      2  C   UNL     1      53.636  83.168  32.001  1.00  0.00     0.016 C 
ENDROOT
BRANCH   1   3
ATOM      3  C   UNL     1      55.982  83.903  31.969  1.00  0.00     0.330 C 
ATOM      4  O   UNL     1      56.484  83.588  33.082  1.00  0.00    -0.247 OA
BRANCH   3   5
ATOM      5  O   UNL     1      56.792  84.006  30.830  1.00  0.00    -0.463 OA
BRANCH   5   6
ATOM      6  C   UNL     1      56.318  83.782  29.504  1.00  0.00     0.230 C 
ATOM      7  C   UNL     1      56.132  82.291  29.245  1.00  0.00     0.049 C 
ENDBRANCH   5   6
ENDBRANCH   3   5
ENDBRANCH   1   3
BRANCH   2   8
ATOM      8  C   UNL     1      52.169  83.376  31.932  1.00  0.00    -0.021 A 
ATOM      9  C   UNL     1      51.318  82.536  31.184  1.00  0.00     0.058 A 
ATOM     10  C   UNL     1      51.604  84.429  32.668  1.00  0.00     0.012 A 
ATOM     11  C   UNL     1      49.934  82.765  31.157  1.00  0.00     0.157 A 
ATOM     12  C   UNL     1      50.227  84.659  32.640  1.00  0.00     0.051 A 
ATOM     13  C   UNL     1      49.388  83.835  31.886  1.00  0.00     0.157 A 
BRANCH  11  14
ATOM     14  O   UNL     1      49.102  81.931  30.412  1.00  0.00    -0.504 OA
ATOM     15  H   UNL     1      48.143  82.184  30.205  1.00  0.00     0.293 HD
ENDBRANCH  11  14
BRANCH  13  16
ATOM     16  O   UNL     1      48.017  84.089  31.875  1.00  0.00    -0.504 OA
ATOM     17  H   UNL     1      47.575  84.622  31.135  1.00  0.00     0.293 HD
ENDBRANCH  13  16
ENDBRANCH   2   8
TORSDOF 6
ENDMDL
MODEL 7
REMARK VINA RESULT:    -3.442     13.965     15.435
REMARK INTER + INTRA:          -4.682
REMARK INTER:                  -4.353
REMARK INTRA:                  -0.329
REMARK UNBOUND:                -0.235
REMARK SMILES CCOC(=O)C=Cc1ccc(O)c(O)c1
REMARK SMILES IDX 6 1 7 2 4 3 5 4 3 5 2 6 1 7 8 8 15 9 9 10 13 11 10 12 11 13
REMARK SMILES IDX 14 14 12 16
REMARK H PARENT 14 15 12 17
REMARK Flexibility Score: inf
ROOT
ATOM      1  C   UNL     1      54.256  83.626  31.562  1.00  0.00     0.094 C 
ATOM      2  C   UNL     1      53.507  82.750  30.878  1.00  0.00     0.016 C 
ENDROOT
BRANCH   1   3
ATOM      3  C   UNL     1      55.597  83.283  32.059  1.00  0.00     0.330 C 
ATOM      4  O   UNL     1      55.712  82.405  32.956  1.00  0.00    -0.247 OA
BRANCH   3   5
ATOM      5  O   UNL     1      56.732  83.919  31.539  1.00  0.00    -0.463 OA
BRANCH   5   6
ATOM      6  C   UNL     1      56.732  84.658  30.320  1.00  0.00     0.230 C 
ATOM      7  C   UNL     1      57.518  83.919  29.243  1.00  0.00     0.049 C 
ENDBRANCH   5   6
ENDBRANCH   3   5
ENDBRANCH   1   3
BRANCH   2   8
ATOM      8  C   UNL     1      52.146  83.049  30.368  1.00  0.00    -0.021 A 
ATOM      9  C   UNL     1      51.038  82.219  30.636  1.00  0.00     0.058 A 
ATOM     10  C   UNL     1      51.950  84.221  29.622  1.00  0.00     0.012 A 
ATOM     11  C   UNL     1      49.766  82.548  30.142  1.00  0.00     0.157 A 
ATOM     12  C   UNL     1      50.686  84.548  29.129  1.00  0.00     0.051 A 
ATOM     13  C   UNL     1      49.591  83.716  29.382  1.00  0.00     0.157 A 
BRANCH  11  14
ATOM     14  O   UNL     1      48.676  81.720  30.408  1.00  0.00    -0.504 OA
ATOM     15  H   UNL     1      48.552  81.278  31.311  1.00  0.00     0.293 HD
ENDBRANCH  11  14
BRANCH  13  16
ATOM     16  O   UNL     1      48.341  84.067  28.875  1.00  0.00    -0.504 OA
ATOM     17  H   UNL     1      47.764  84.777  29.310  1.00  0.00     0.293 HD
ENDBRANCH  13  16
ENDBRANCH   2   8
TORSDOF 6
ENDMDL
MODEL 8
REMARK VINA RESULT:    -3.406     11.584     14.539
REMARK INTER + INTRA:          -4.636
REMARK INTER:                  -4.331
REMARK INTRA:                  -0.305
REMARK UNBOUND:                -0.235
REMARK SMILES CCOC(=O)C=Cc1ccc(O)c(O)c1
REMARK SMILES IDX 6 1 7 2 4 3 5 4 3 5 2 6 1 7 8 8 15 9 9 10 13 11 10 12 11 13
REMARK SMILES IDX 14 14 12 16
REMARK H PARENT 14 15 12 17
REMARK Flexibility Score: inf
ROOT
ATOM      1  C   UNL     1      51.399  83.718  31.498  1.00  0.00     0.094 C 
ATOM      2  C   UNL     1      52.217  84.687  31.067  1.00  0.00     0.016 C 
ENDROOT
BRANCH   1   3
ATOM      3  C   UNL     1      49.939  83.893  31.542  1.00  0.00     0.330 C 
ATOM      4  O   UNL     1      49.382  84.617  30.673  1.00  0.00    -0.247 OA
BRANCH   3   5
ATOM      5  O   UNL     1      49.176  83.259  32.532  1.00  0.00    -0.463 OA
BRANCH   5   6
ATOM      6  C   UNL     1      48.358  83.961  33.464  1.00  0.00     0.230 C 
ATOM      7  C   UNL     1      49.131  85.112  34.098  1.00  0.00     0.049 C 
ENDBRANCH   5   6
ENDBRANCH   3   5
ENDBRANCH   1   3
BRANCH   2   8
ATOM      8  C   UNL     1      53.695  84.559  31.017  1.00  0.00    -0.021 A 
ATOM      9  C   UNL     1      54.440  83.973  32.060  1.00  0.00     0.058 A 
ATOM     10  C   UNL     1      54.370  85.007  29.871  1.00  0.00     0.012 A 
ATOM     11  C   UNL     1      55.836  83.863  31.964  1.00  0.00     0.157 A 
ATOM     12  C   UNL     1      55.758  84.900  29.775  1.00  0.00     0.051 A 
ATOM     13  C   UNL     1      56.497  84.332  30.818  1.00  0.00     0.157 A 
BRANCH  11  14
ATOM     14  O   UNL     1      56.565  83.285  33.003  1.00  0.00    -0.504 OA
ATOM     15  H   UNL     1      57.534  83.015  32.886  1.00  0.00     0.293 HD
ENDBRANCH  11  14
BRANCH  13  16
ATOM     16  O   UNL     1      57.883  84.240  30.695  1.00  0.00    -0.504 OA
ATOM     17  H   UNL     1      58.504  84.404  31.479  1.00  0.00     0.293 HD
ENDBRANCH  13  16
ENDBRANCH   2   8
TORSDOF 6
ENDMDL
MODEL 9
REMARK VINA RESULT:    -3.391     12.240     14.432
REMARK INTER + INTRA:          -4.617
REMARK INTER:                  -4.325
REMARK INTRA:                  -0.293
REMARK UNBOUND:                -0.235
REMARK SMILES CCOC(=O)C=Cc1ccc(O)c(O)c1
REMARK SMILES IDX 6 1 7 2 4 3 5 4 3 5 2 6 1 7 8 8 15 9 9 10 13 11 10 12 11 13
REMARK SMILES IDX 14 14 12 16
REMARK H PARENT 14 15 12 17
REMARK Flexibility Score: inf
ROOT
ATOM      1  C   UNL     1      51.432  84.404  32.513  1.00  0.00     0.094 C 
ATOM      2  C   UNL     1      52.129  84.926  31.494  1.00  0.00     0.016 C 
ENDROOT
BRANCH   1   3
ATOM      3  C   UNL     1      49.992  84.652  32.679  1.00  0.00     0.330 C 
ATOM      4  O   UNL     1      49.546  84.935  33.824  1.00  0.00    -0.247 OA
BRANCH   3   5
ATOM      5  O   UNL     1      49.126  84.578  31.579  1.00  0.00    -0.463 OA
BRANCH   5   6
ATOM      6  C   UNL     1      48.455  83.384  31.184  1.00  0.00     0.230 C 
ATOM      7  C   UNL     1      49.399  82.467  30.415  1.00  0.00     0.049 C 
ENDBRANCH   5   6
ENDBRANCH   3   5
ENDBRANCH   1   3
BRANCH   2   8
ATOM      8  C   UNL     1      53.583  84.713  31.294  1.00  0.00    -0.021 A 
ATOM      9  C   UNL     1      54.403  84.113  32.272  1.00  0.00     0.058 A 
ATOM     10  C   UNL     1      54.155  85.090  30.069  1.00  0.00     0.012 A 
ATOM     11  C   UNL     1      55.772  83.921  32.033  1.00  0.00     0.157 A 
ATOM     12  C   UNL     1      55.518  84.901  29.831  1.00  0.00     0.051 A 
ATOM     13  C   UNL     1      56.332  84.320  30.808  1.00  0.00     0.157 A 
BRANCH  11  14
ATOM     14  O   UNL     1      56.576  83.330  33.007  1.00  0.00    -0.504 OA
ATOM     15  H   UNL     1      56.393  82.396  33.353  1.00  0.00     0.293 HD
ENDBRANCH  11  14
BRANCH  13  16
ATOM     16  O   UNL     1      57.690  84.146  30.544  1.00  0.00    -0.504 OA
ATOM     17  H   UNL     1      58.067  84.205  29.606  1.00  0.00     0.293 HD
ENDBRANCH  13  16
ENDBRANCH   2   8
TORSDOF 6
ENDMDL
