MODEL 1
REMARK VINA RESULT:    -4.327      0.000      0.000
REMARK INTER + INTRA:          -5.270
REMARK INTER:                  -6.098
REMARK INTRA:                   0.828
REMARK UNBOUND:                 0.828
REMARK SMILES CC1=CCC(=C(C)C)C(=O)CC(C)=CCC1
REMARK SMILES IDX 12 1 14 2 13 3 15 4 16 5 2 6 1 7 3 8 11 10 9 11 10 12 5 13
REMARK SMILES IDX 6 14 7 15 8 16 4 17
REMARK H PARENT
REMARK Flexibility Score: 60.00
ROOT
ATOM      1  C   UNL     1      85.194   3.000  28.248  1.00  0.00    -0.070 C 
ATOM      2  C   UNL     1      84.503   2.570  29.329  1.00  0.00    -0.027 C 
ATOM      3  C   UNL     1      86.691   3.132  28.396  1.00  0.00     0.039 C 
ENDROOT
BRANCH   2   4
ATOM      4  C   UNL     1      83.018   2.321  29.403  1.00  0.00     0.032 C 
BRANCH   4   5
ATOM      5  C   UNL     1      82.134   3.591  29.348  1.00  0.00     0.034 C 
BRANCH   5   6
ATOM      6  C   UNL     1      82.515   4.699  30.318  1.00  0.00    -0.077 C 
ATOM      7  C   UNL     1      82.017   4.585  31.738  1.00  0.00     0.039 C 
ATOM      8  C   UNL     1      83.222   5.818  29.996  1.00  0.00    -0.023 CG0
ATOM      9  G   UNL     1      83.974   6.162  28.719  1.00  0.00     0.000 G0
ENDBRANCH   5   6
ENDBRANCH   4   5
ENDBRANCH   2   4
BRANCH   1  10
ATOM     10  C   UNL     1      84.582   3.310  26.886  1.00  0.00     0.111 C 
BRANCH  10  11
ATOM     11  C   UNL     1      84.344   4.768  26.568  1.00  0.00     0.163 C 
ATOM     12  O   UNL     1      84.915   5.216  25.537  1.00  0.00    -0.294 OA
BRANCH  11  13
ATOM     13  C   UNL     1      83.468   5.677  27.394  1.00  0.00    -0.002 C 
ATOM     14  C   UNL     1      82.196   6.010  27.008  1.00  0.00    -0.069 C 
ATOM     15  C   UNL     1      81.287   6.822  27.907  1.00  0.00     0.039 C 
ATOM     16  C   UNL     1      81.635   5.624  25.659  1.00  0.00     0.039 C 
BRANCH  13  17
ATOM     17  C   UNL     1      84.009   6.179  28.724  1.00  0.00     0.066 CG0
ATOM     18  G   UNL     1      83.215   5.814  29.970  1.00  0.00     0.000 G0
ENDBRANCH  13  17
ENDBRANCH  11  13
ENDBRANCH  10  11
ENDBRANCH   1  10
TORSDOF 0
ENDMDL
MODEL 2
REMARK VINA RESULT:    -4.057     11.172     12.861
REMARK INTER + INTRA:          -4.890
REMARK INTER:                  -4.630
REMARK INTRA:                  -0.260
REMARK UNBOUND:                 0.828
REMARK SMILES CC1=CCC(=C(C)C)C(=O)CC(C)=CCC1
REMARK SMILES IDX 12 1 14 2 13 3 15 4 16 5 2 6 1 7 3 8 11 10 9 11 10 12 5 13
REMARK SMILES IDX 6 14 7 15 8 16 4 17
REMARK H PARENT
REMARK Flexibility Score: 60.00
ROOT
ATOM      1  C   UNL     1      82.049  -7.771  27.156  1.00  0.00    -0.070 C 
ATOM      2  C   UNL     1      82.181  -6.487  26.750  1.00  0.00    -0.027 C 
ATOM      3  C   UNL     1      82.794  -8.822  26.369  1.00  0.00     0.039 C 
ENDROOT
BRANCH   2   4
ATOM      4  C   UNL     1      81.571  -5.273  27.403  1.00  0.00     0.032 C 
BRANCH   4   5
ATOM      5  C   UNL     1      80.030  -5.170  27.294  1.00  0.00     0.034 C 
BRANCH   5   6
ATOM      6  C   UNL     1      79.281  -5.106  28.617  1.00  0.00    -0.077 C 
ATOM      7  C   UNL     1      79.564  -3.933  29.523  1.00  0.00     0.039 C 
ATOM      8  C   UNL     1      78.417  -6.052  29.078  1.00  0.00    -0.023 CG0
ATOM      9  G   UNL     1      77.818  -7.256  28.365  1.00  0.00     0.000 G0
ENDBRANCH   5   6
ENDBRANCH   4   5
ENDBRANCH   2   4
BRANCH   1  10
ATOM     10  C   UNL     1      81.249  -8.225  28.372  1.00  0.00     0.111 C 
BRANCH  10  11
ATOM     11  C   UNL     1      79.886  -8.819  28.102  1.00  0.00     0.163 C 
ATOM     12  O   UNL     1      79.718 -10.018  28.457  1.00  0.00    -0.294 OA
BRANCH  11  13
ATOM     13  C   UNL     1      78.750  -8.061  27.461  1.00  0.00    -0.002 C 
ATOM     14  C   UNL     1      78.503  -8.123  26.114  1.00  0.00    -0.069 C 
ATOM     15  C   UNL     1      77.287  -7.456  25.505  1.00  0.00     0.039 C 
ATOM     16  C   UNL     1      79.437  -8.824  25.153  1.00  0.00     0.039 C 
BRANCH  13  17
ATOM     17  C   UNL     1      77.825  -7.258  28.362  1.00  0.00     0.066 CG0
ATOM     18  G   UNL     1      78.435  -6.062  29.080  1.00  0.00     0.000 G0
ENDBRANCH  13  17
ENDBRANCH  11  13
ENDBRANCH  10  11
ENDBRANCH   1  10
TORSDOF 0
ENDMDL
MODEL 3
REMARK VINA RESULT:    -4.039     10.833     12.852
REMARK INTER + INTRA:          -4.864
REMARK INTER:                  -5.403
REMARK INTRA:                   0.539
REMARK UNBOUND:                 0.828
REMARK SMILES CC1=CCC(=C(C)C)C(=O)CC(C)=CCC1
REMARK SMILES IDX 12 1 14 2 13 3 15 4 16 5 2 6 1 7 3 8 11 10 9 11 10 12 5 13
REMARK SMILES IDX 6 14 7 15 8 16 4 17
REMARK H PARENT
REMARK Flexibility Score: 60.00
ROOT
ATOM      1  C   UNL     1      80.883  -4.396  28.669  1.00  0.00    -0.070 C 
ATOM      2  C   UNL     1      81.649  -4.564  27.566  1.00  0.00    -0.027 C 
ATOM      3  C   UNL     1      80.912  -3.036  29.326  1.00  0.00     0.039 C 
ENDROOT
BRANCH   2   4
ATOM      4  C   UNL     1      81.746  -5.811  26.724  1.00  0.00     0.032 C 
BRANCH   4   5
ATOM      5  C   UNL     1      81.594  -7.143  27.499  1.00  0.00     0.034 C 
BRANCH   5   6
ATOM      6  C   UNL     1      80.867  -8.254  26.757  1.00  0.00    -0.077 C 
ATOM      7  C   UNL     1      81.636  -9.519  26.465  1.00  0.00     0.039 C 
ATOM      8  C   UNL     1      79.593  -8.179  26.281  1.00  0.00    -0.023 CG0
ATOM      9  G   UNL     1      78.522  -7.125  26.523  1.00  0.00     0.000 G0
ENDBRANCH   5   6
ENDBRANCH   4   5
ENDBRANCH   2   4
BRANCH   1  10
ATOM     10  C   UNL     1      79.962  -5.455  29.263  1.00  0.00     0.111 C 
BRANCH  10  11
ATOM     11  C   UNL     1      78.599  -5.601  28.627  1.00  0.00     0.163 C 
ATOM     12  O   UNL     1      77.858  -4.581  28.652  1.00  0.00    -0.294 OA
BRANCH  11  13
ATOM     13  C   UNL     1      78.109  -6.869  27.972  1.00  0.00    -0.002 C 
ATOM     14  C   UNL     1      77.285  -7.751  28.620  1.00  0.00    -0.069 C 
ATOM     15  C   UNL     1      76.703  -8.954  27.908  1.00  0.00     0.039 C 
ATOM     16  C   UNL     1      76.935  -7.603  30.084  1.00  0.00     0.039 C 
BRANCH  13  17
ATOM     17  C   UNL     1      78.502  -7.126  26.525  1.00  0.00     0.066 CG0
ATOM     18  G   UNL     1      79.590  -8.162  26.284  1.00  0.00     0.000 G0
ENDBRANCH  13  17
ENDBRANCH  11  13
ENDBRANCH  10  11
ENDBRANCH   1  10
TORSDOF 0
ENDMDL
MODEL 4
REMARK VINA RESULT:    -4.008     11.450     13.257
REMARK INTER + INTRA:          -4.820
REMARK INTER:                  -4.652
REMARK INTRA:                  -0.169
REMARK UNBOUND:                 0.828
REMARK SMILES CC1=CCC(=C(C)C)C(=O)CC(C)=CCC1
REMARK SMILES IDX 12 1 14 2 13 3 15 4 16 5 2 6 1 7 3 8 11 10 9 11 10 12 5 13
REMARK SMILES IDX 6 14 7 15 8 16 4 17
REMARK H PARENT
REMARK Flexibility Score: 60.00
ROOT
ATOM      1  C   UNL     1      81.118  -5.943  27.696  1.00  0.00    -0.070 C 
ATOM      2  C   UNL     1      81.758  -7.068  27.301  1.00  0.00    -0.027 C 
ATOM      3  C   UNL     1      81.233  -4.735  26.797  1.00  0.00     0.039 C 
ENDROOT
BRANCH   2   4
ATOM      4  C   UNL     1      81.749  -8.399  28.009  1.00  0.00     0.032 C 
BRANCH   4   5
ATOM      5  C   UNL     1      80.372  -9.104  28.070  1.00  0.00     0.034 C 
BRANCH   5   6
ATOM      6  C   UNL     1      79.791  -9.289  29.464  1.00  0.00    -0.077 C 
ATOM      7  C   UNL     1      80.645  -9.994  30.489  1.00  0.00     0.039 C 
ATOM      8  C   UNL     1      78.537  -8.921  29.848  1.00  0.00    -0.023 CG0
ATOM      9  G   UNL     1      77.500  -8.080  29.118  1.00  0.00     0.000 G0
ENDBRANCH   5   6
ENDBRANCH   4   5
ENDBRANCH   2   4
BRANCH   1  10
ATOM     10  C   UNL     1      80.254  -5.821  28.947  1.00  0.00     0.111 C 
BRANCH  10  11
ATOM     11  C   UNL     1      78.758  -5.828  28.739  1.00  0.00     0.163 C 
ATOM     12  O   UNL     1      78.143  -4.778  29.072  1.00  0.00    -0.294 OA
BRANCH  11  13
ATOM     13  C   UNL     1      77.995  -6.992  28.157  1.00  0.00    -0.002 C 
ATOM     14  C   UNL     1      77.802  -7.134  26.808  1.00  0.00    -0.069 C 
ATOM     15  C   UNL     1      77.142  -8.369  26.233  1.00  0.00     0.039 C 
ATOM     16  C   UNL     1      78.199  -6.062  25.819  1.00  0.00     0.039 C 
BRANCH  13  17
ATOM     17  C   UNL     1      77.485  -8.062  29.110  1.00  0.00     0.066 CG0
ATOM     18  G   UNL     1      78.534  -8.909  29.816  1.00  0.00     0.000 G0
ENDBRANCH  13  17
ENDBRANCH  11  13
ENDBRANCH  10  11
ENDBRANCH   1  10
TORSDOF 0
ENDMDL
MODEL 5
REMARK VINA RESULT:    -3.964      2.098      4.786
REMARK INTER + INTRA:          -4.758
REMARK INTER:                  -5.593
REMARK INTRA:                   0.835
REMARK UNBOUND:                 0.828
REMARK SMILES CC1=CCC(=C(C)C)C(=O)CC(C)=CCC1
REMARK SMILES IDX 12 1 14 2 13 3 15 4 16 5 2 6 1 7 3 8 11 10 9 11 10 12 5 13
REMARK SMILES IDX 6 14 7 15 8 16 4 17
REMARK H PARENT
REMARK Flexibility Score: 60.00
ROOT
ATOM      1  C   UNL     1      82.694   5.773  27.754  1.00  0.00    -0.070 C 
ATOM      2  C   UNL     1      83.275   5.437  26.580  1.00  0.00    -0.027 C 
ATOM      3  C   UNL     1      81.241   6.183  27.710  1.00  0.00     0.039 C 
ENDROOT
BRANCH   2   4
ATOM      4  C   UNL     1      84.691   4.957  26.386  1.00  0.00     0.032 C 
BRANCH   4   5
ATOM      5  C   UNL     1      84.908   3.439  26.602  1.00  0.00     0.034 C 
BRANCH   5   6
ATOM      6  C   UNL     1      85.363   3.033  27.996  1.00  0.00    -0.077 C 
ATOM      7  C   UNL     1      86.848   3.017  28.269  1.00  0.00     0.039 C 
ATOM      8  C   UNL     1      84.542   2.626  29.004  1.00  0.00    -0.023 CG0
ATOM      9  G   UNL     1      83.024   2.663  29.100  1.00  0.00     0.000 G0
ENDBRANCH   5   6
ENDBRANCH   4   5
ENDBRANCH   2   4
BRANCH   1  10
ATOM     10  C   UNL     1      83.378   5.720  29.116  1.00  0.00     0.111 C 
BRANCH  10  11
ATOM     11  C   UNL     1      82.643   4.989  30.215  1.00  0.00     0.163 C 
ATOM     12  O   UNL     1      82.157   5.703  31.134  1.00  0.00    -0.294 OA
BRANCH  11  13
ATOM     13  C   UNL     1      82.458   3.492  30.252  1.00  0.00    -0.002 C 
ATOM     14  C   UNL     1      81.750   2.871  31.247  1.00  0.00    -0.069 C 
ATOM     15  C   UNL     1      81.470   1.383  31.203  1.00  0.00     0.039 C 
ATOM     16  C   UNL     1      81.238   3.615  32.459  1.00  0.00     0.039 C 
BRANCH  13  17
ATOM     17  C   UNL     1      83.031   2.671  29.107  1.00  0.00     0.066 CG0
ATOM     18  G   UNL     1      84.548   2.623  28.989  1.00  0.00     0.000 G0
ENDBRANCH  13  17
ENDBRANCH  11  13
ENDBRANCH  10  11
ENDBRANCH   1  10
TORSDOF 0
ENDMDL
MODEL 6
REMARK VINA RESULT:    -3.951      1.766      3.706
REMARK INTER + INTRA:          -4.740
REMARK INTER:                  -6.709
REMARK INTRA:                   1.968
REMARK UNBOUND:                 0.828
REMARK SMILES CC1=CCC(=C(C)C)C(=O)CC(C)=CCC1
REMARK SMILES IDX 12 1 14 2 13 3 15 4 16 5 2 6 1 7 3 8 11 10 9 11 10 12 5 13
REMARK SMILES IDX 6 14 7 15 8 16 4 17
REMARK H PARENT
REMARK Flexibility Score: 60.00
ROOT
ATOM      1  C   UNL     1      84.836   3.454  27.472  1.00  0.00    -0.070 C 
ATOM      2  C   UNL     1      85.092   4.636  26.865  1.00  0.00    -0.027 C 
ATOM      3  C   UNL     1      85.976   2.803  28.218  1.00  0.00     0.039 C 
ENDROOT
BRANCH   2   4
ATOM      4  C   UNL     1      84.105   5.486  26.106  1.00  0.00     0.032 C 
BRANCH   4   5
ATOM      5  C   UNL     1      82.614   5.169  26.381  1.00  0.00     0.034 C 
BRANCH   5   6
ATOM      6  C   UNL     1      81.956   6.004  27.469  1.00  0.00    -0.077 C 
ATOM      7  C   UNL     1      80.885   6.981  27.049  1.00  0.00     0.039 C 
ATOM      8  C   UNL     1      82.295   5.984  28.788  1.00  0.00    -0.023 CG0
ATOM      9  G   UNL     1      83.212   5.034  29.545  1.00  0.00     0.000 G0
ENDBRANCH   5   6
ENDBRANCH   4   5
ENDBRANCH   2   4
BRANCH   1  10
ATOM     10  C   UNL     1      83.478   2.762  27.500  1.00  0.00     0.111 C 
BRANCH  10  11
ATOM     11  C   UNL     1      82.852   2.554  28.859  1.00  0.00     0.163 C 
ATOM     12  O   UNL     1      82.470   1.382  29.126  1.00  0.00    -0.294 OA
BRANCH  11  13
ATOM     13  C   UNL     1      82.683   3.649  29.883  1.00  0.00    -0.002 C 
ATOM     14  C   UNL     1      82.109   3.420  31.106  1.00  0.00    -0.069 C 
ATOM     15  C   UNL     1      82.058   4.499  32.167  1.00  0.00     0.039 C 
ATOM     16  C   UNL     1      81.462   2.099  31.459  1.00  0.00     0.039 C 
BRANCH  13  17
ATOM     17  C   UNL     1      83.229   5.030  29.552  1.00  0.00     0.066 CG0
ATOM     18  G   UNL     1      82.302   5.970  28.795  1.00  0.00     0.000 G0
ENDBRANCH  13  17
ENDBRANCH  11  13
ENDBRANCH  10  11
ENDBRANCH   1  10
TORSDOF 0
ENDMDL
MODEL 7
REMARK VINA RESULT:    -3.842     11.144     13.048
REMARK INTER + INTRA:          -4.587
REMARK INTER:                  -4.688
REMARK INTRA:                   0.101
REMARK UNBOUND:                 0.828
REMARK SMILES CC1=CCC(=C(C)C)C(=O)CC(C)=CCC1
REMARK SMILES IDX 12 1 14 2 13 3 15 4 16 5 2 6 1 7 3 8 11 10 9 11 10 12 5 13
REMARK SMILES IDX 6 14 7 15 8 16 4 17
REMARK H PARENT
REMARK Flexibility Score: 60.00
ROOT
ATOM      1  C   UNL     1      80.174  -5.107  28.997  1.00  0.00    -0.070 C 
ATOM      2  C   UNL     1      79.977  -6.063  29.934  1.00  0.00    -0.027 C 
ATOM      3  C   UNL     1      79.700  -3.712  29.327  1.00  0.00     0.039 C 
ENDROOT
BRANCH   2   4
ATOM      4  C   UNL     1      80.404  -7.506  29.845  1.00  0.00     0.032 C 
BRANCH   4   5
ATOM      5  C   UNL     1      79.249  -8.527  29.696  1.00  0.00     0.034 C 
BRANCH   5   6
ATOM      6  C   UNL     1      78.047  -8.047  28.896  1.00  0.00    -0.077 C 
ATOM      7  C   UNL     1      76.867  -7.505  29.665  1.00  0.00     0.039 C 
ATOM      8  C   UNL     1      77.925  -8.119  27.541  1.00  0.00    -0.023 CG0
ATOM      9  G   UNL     1      78.963  -8.472  26.486  1.00  0.00     0.000 G0
ENDBRANCH   5   6
ENDBRANCH   4   5
ENDBRANCH   2   4
BRANCH   1  10
ATOM     10  C   UNL     1      80.880  -5.323  27.662  1.00  0.00     0.111 C 
BRANCH  10  11
ATOM     11  C   UNL     1      80.138  -6.136  26.628  1.00  0.00     0.163 C 
ATOM     12  O   UNL     1      79.397  -5.492  25.837  1.00  0.00    -0.294 OA
BRANCH  11  13
ATOM     13  C   UNL     1      80.255  -7.635  26.495  1.00  0.00    -0.002 C 
ATOM     14  C   UNL     1      81.468  -8.269  26.449  1.00  0.00    -0.069 C 
ATOM     15  C   UNL     1      81.567  -9.780  26.440  1.00  0.00     0.039 C 
ATOM     16  C   UNL     1      82.773  -7.510  26.368  1.00  0.00     0.039 C 
BRANCH  13  17
ATOM     17  C   UNL     1      78.973  -8.454  26.475  1.00  0.00     0.066 CG0
ATOM     18  G   UNL     1      77.928  -8.118  27.528  1.00  0.00     0.000 G0
ENDBRANCH  13  17
ENDBRANCH  11  13
ENDBRANCH  10  11
ENDBRANCH   1  10
TORSDOF 0
ENDMDL
MODEL 8
REMARK VINA RESULT:    -3.818     11.493     13.247
REMARK INTER + INTRA:          -4.552
REMARK INTER:                  -4.251
REMARK INTRA:                  -0.301
REMARK UNBOUND:                 0.828
REMARK SMILES CC1=CCC(=C(C)C)C(=O)CC(C)=CCC1
REMARK SMILES IDX 12 1 14 2 13 3 15 4 16 5 2 6 1 7 3 8 11 10 9 11 10 12 5 13
REMARK SMILES IDX 6 14 7 15 8 16 4 17
REMARK H PARENT
REMARK Flexibility Score: 60.00
ROOT
ATOM      1  C   UNL     1      78.816  -7.848  26.141  1.00  0.00    -0.070 C 
ATOM      2  C   UNL     1      77.962  -8.719  26.726  1.00  0.00    -0.027 C 
ATOM      3  C   UNL     1      78.243  -6.530  25.678  1.00  0.00     0.039 C 
ENDROOT
BRANCH   2   4
ATOM      4  C   UNL     1      78.312 -10.067  27.303  1.00  0.00     0.032 C 
BRANCH   4   5
ATOM      5  C   UNL     1      78.575 -10.084  28.828  1.00  0.00     0.034 C 
BRANCH   5   6
ATOM      6  C   UNL     1      78.109  -8.851  29.588  1.00  0.00    -0.077 C 
ATOM      7  C   UNL     1      76.679  -8.825  30.069  1.00  0.00     0.039 C 
ATOM      8  C   UNL     1      78.862  -7.740  29.820  1.00  0.00    -0.023 CG0
ATOM      9  G   UNL     1      80.349  -7.506  29.599  1.00  0.00     0.000 G0
ENDBRANCH   5   6
ENDBRANCH   4   5
ENDBRANCH   2   4
BRANCH   1  10
ATOM     10  C   UNL     1      80.313  -8.077  25.962  1.00  0.00     0.111 C 
BRANCH  10  11
ATOM     11  C   UNL     1      81.199  -7.698  27.125  1.00  0.00     0.163 C 
ATOM     12  O   UNL     1      82.380  -8.139  27.095  1.00  0.00    -0.294 OA
BRANCH  11  13
ATOM     13  C   UNL     1      80.752  -6.829  28.275  1.00  0.00    -0.002 C 
ATOM     14  C   UNL     1      80.640  -5.468  28.159  1.00  0.00    -0.069 C 
ATOM     15  C   UNL     1      80.073  -4.626  29.282  1.00  0.00     0.039 C 
ATOM     16  C   UNL     1      81.105  -4.723  26.928  1.00  0.00     0.039 C 
BRANCH  13  17
ATOM     17  C   UNL     1      80.359  -7.511  29.577  1.00  0.00     0.066 CG0
ATOM     18  G   UNL     1      78.872  -7.731  29.814  1.00  0.00     0.000 G0
ENDBRANCH  13  17
ENDBRANCH  11  13
ENDBRANCH  10  11
ENDBRANCH   1  10
TORSDOF 0
ENDMDL
MODEL 9
REMARK VINA RESULT:    -3.674     11.949     13.869
REMARK INTER + INTRA:          -4.349
REMARK INTER:                  -4.374
REMARK INTRA:                   0.025
REMARK UNBOUND:                 0.828
REMARK SMILES CC1=CCC(=C(C)C)C(=O)CC(C)=CCC1
REMARK SMILES IDX 12 1 14 2 13 3 15 4 16 5 2 6 1 7 3 8 11 10 9 11 10 12 5 13
REMARK SMILES IDX 6 14 7 15 8 16 4 17
REMARK H PARENT
REMARK Flexibility Score: 60.00
ROOT
ATOM      1  C   UNL     1      79.889  -5.707  27.949  1.00  0.00    -0.070 C 
ATOM      2  C   UNL     1      78.815  -5.651  27.127  1.00  0.00    -0.027 C 
ATOM      3  C   UNL     1      79.698  -5.215  29.364  1.00  0.00     0.039 C 
ENDROOT
BRANCH   2   4
ATOM      4  C   UNL     1      78.757  -6.123  25.697  1.00  0.00     0.032 C 
BRANCH   4   5
ATOM      5  C   UNL     1      77.780  -7.294  25.430  1.00  0.00     0.034 C 
BRANCH   5   6
ATOM      6  C   UNL     1      77.926  -8.495  26.353  1.00  0.00    -0.077 C 
ATOM      7  C   UNL     1      76.739  -8.868  27.207  1.00  0.00     0.039 C 
ATOM      8  C   UNL     1      79.062  -9.228  26.514  1.00  0.00    -0.023 CG0
ATOM      9  G   UNL     1      80.359  -9.205  25.719  1.00  0.00     0.000 G0
ENDBRANCH   5   6
ENDBRANCH   4   5
ENDBRANCH   2   4
BRANCH   1  10
ATOM     10  C   UNL     1      81.252  -6.274  27.570  1.00  0.00     0.111 C 
BRANCH  10  11
ATOM     11  C   UNL     1      81.400  -7.777  27.624  1.00  0.00     0.163 C 
ATOM     12  O   UNL     1      81.341  -8.304  28.768  1.00  0.00    -0.294 OA
BRANCH  11  13
ATOM     13  C   UNL     1      81.594  -8.647  26.407  1.00  0.00    -0.002 C 
ATOM     14  C   UNL     1      82.839  -8.982  25.943  1.00  0.00    -0.069 C 
ATOM     15  C   UNL     1      83.016  -9.955  24.796  1.00  0.00     0.039 C 
ATOM     16  C   UNL     1      84.102  -8.380  26.515  1.00  0.00     0.039 C 
BRANCH  13  17
ATOM     17  C   UNL     1      80.357  -9.211  25.725  1.00  0.00     0.066 CG0
ATOM     18  G   UNL     1      79.068  -9.212  26.534  1.00  0.00     0.000 G0
ENDBRANCH  13  17
ENDBRANCH  11  13
ENDBRANCH  10  11
ENDBRANCH   1  10
TORSDOF 0
ENDMDL
