MODEL 1
REMARK VINA RESULT:    -0.651      0.000      0.000
REMARK INTER + INTRA:          -1.249
REMARK INTER:                  -0.918
REMARK INTRA:                  -0.331
REMARK UNBOUND:                -0.331
REMARK SMILES C=CCCCCCCC(=O)[O-]
REMARK SMILES IDX 6 1 7 2 8 3 9 4 10 5 11 6 5 7 4 8 3 9 2 10 1 11
REMARK H PARENT
REMARK Flexibility Score: inf
ROOT
ATOM      1  C   UNL     1      94.629   7.226  61.923  1.00  0.00     0.000 C 
ENDROOT
BRANCH   1   2
ATOM      2  C   UNL     1      95.991   7.943  61.993  1.00  0.00     0.006 C 
BRANCH   2   3
ATOM      3  C   UNL     1      95.919   9.391  62.507  1.00  0.00     0.053 C 
BRANCH   3   4
ATOM      4  C   UNL     1      96.690   9.575  63.778  1.00  0.00     0.041 C 
ATOM      5  O   UNL     1      97.090   8.572  64.427  1.00  0.00    -0.550 OA
ATOM      6  O   UNL     1      96.992  10.853  64.231  1.00  0.00    -0.550 OA
ENDBRANCH   3   4
ENDBRANCH   2   3
ENDBRANCH   1   2
BRANCH   1   7
ATOM      7  C   UNL     1      93.552   7.918  62.775  1.00  0.00     0.000 C 
BRANCH   7   8
ATOM      8  C   UNL     1      92.458   8.594  61.927  1.00  0.00     0.004 C 
BRANCH   8   9
ATOM      9  C   UNL     1      92.485  10.133  61.981  1.00  0.00     0.027 C 
BRANCH   9  10
ATOM     10  C   UNL     1      91.112  10.746  61.902  1.00  0.00    -0.035 C 
ATOM     11  C   UNL     1      90.003  10.002  61.946  1.00  0.00     0.004 C 
ENDBRANCH   9  10
ENDBRANCH   8   9
ENDBRANCH   7   8
ENDBRANCH   1   7
TORSDOF 7
ENDMDL
MODEL 2
REMARK VINA RESULT:    -0.289      0.797      1.345
REMARK INTER + INTRA:          -0.738
REMARK INTER:                  -0.500
REMARK INTRA:                  -0.238
REMARK UNBOUND:                -0.331
REMARK SMILES C=CCCCCCCC(=O)[O-]
REMARK SMILES IDX 6 1 7 2 8 3 9 4 10 5 11 6 5 7 4 8 3 9 2 10 1 11
REMARK H PARENT
REMARK Flexibility Score: inf
ROOT
ATOM      1  C   UNL     1      94.585   7.020  61.884  1.00  0.00     0.000 C 
ENDROOT
BRANCH   1   2
ATOM      2  C   UNL     1      95.965   7.700  61.964  1.00  0.00     0.006 C 
BRANCH   2   3
ATOM      3  C   UNL     1      95.919   9.236  61.900  1.00  0.00     0.053 C 
BRANCH   3   4
ATOM      4  C   UNL     1      96.447   9.867  63.152  1.00  0.00     0.041 C 
ATOM      5  O   UNL     1      96.880  11.049  63.132  1.00  0.00    -0.550 OA
ATOM      6  O   UNL     1      96.432   9.160  64.348  1.00  0.00    -0.550 OA
ENDBRANCH   3   4
ENDBRANCH   2   3
ENDBRANCH   1   2
BRANCH   1   7
ATOM      7  C   UNL     1      93.771   7.177  63.179  1.00  0.00     0.000 C 
BRANCH   7   8
ATOM      8  C   UNL     1      92.979   8.497  63.233  1.00  0.00     0.004 C 
BRANCH   8   9
ATOM      9  C   UNL     1      92.400   8.937  61.875  1.00  0.00     0.027 C 
BRANCH   9  10
ATOM     10  C   UNL     1      91.146   9.759  62.011  1.00  0.00    -0.035 C 
ATOM     11  C   UNL     1      91.186  11.083  62.185  1.00  0.00     0.004 C 
ENDBRANCH   9  10
ENDBRANCH   8   9
ENDBRANCH   7   8
ENDBRANCH   1   7
TORSDOF 7
ENDMDL
MODEL 3
REMARK VINA RESULT:     0.071      3.185      5.196
REMARK INTER + INTRA:          -0.231
REMARK INTER:                  -0.113
REMARK INTRA:                  -0.118
REMARK UNBOUND:                -0.331
REMARK SMILES C=CCCCCCCC(=O)[O-]
REMARK SMILES IDX 6 1 7 2 8 3 9 4 10 5 11 6 5 7 4 8 3 9 2 10 1 11
REMARK H PARENT
REMARK Flexibility Score: inf
ROOT
ATOM      1  C   UNL     1      92.566   7.756  63.937  1.00  0.00     0.000 C 
ENDROOT
BRANCH   1   2
ATOM      2  C   UNL     1      92.517   7.870  62.401  1.00  0.00     0.006 C 
BRANCH   2   3
ATOM      3  C   UNL     1      92.473   9.315  61.875  1.00  0.00     0.053 C 
BRANCH   3   4
ATOM      4  C   UNL     1      91.084   9.877  61.891  1.00  0.00     0.041 C 
ATOM      5  O   UNL     1      90.904  11.123  61.884  1.00  0.00    -0.550 OA
ATOM      6  O   UNL     1      89.988   9.024  61.882  1.00  0.00    -0.550 OA
ENDBRANCH   3   4
ENDBRANCH   2   3
ENDBRANCH   1   2
BRANCH   1   7
ATOM      7  C   UNL     1      94.004   7.747  64.484  1.00  0.00     0.000 C 
BRANCH   7   8
ATOM      8  C   UNL     1      95.059   7.484  63.394  1.00  0.00     0.004 C 
BRANCH   8   9
ATOM      9  C   UNL     1      95.752   8.757  62.872  1.00  0.00     0.027 C 
BRANCH   9  10
ATOM     10  C   UNL     1      96.821   9.265  63.801  1.00  0.00    -0.035 C 
ATOM     11  C   UNL     1      97.100  10.568  63.910  1.00  0.00     0.004 C 
ENDBRANCH   9  10
ENDBRANCH   8   9
ENDBRANCH   7   8
ENDBRANCH   1   7
TORSDOF 7
ENDMDL
MODEL 4
REMARK VINA RESULT:     0.598      2.599      4.584
REMARK INTER + INTRA:           0.511
REMARK INTER:                   0.761
REMARK INTRA:                  -0.250
REMARK UNBOUND:                -0.331
REMARK SMILES C=CCCCCCCC(=O)[O-]
REMARK SMILES IDX 6 1 7 2 8 3 9 4 10 5 11 6 5 7 4 8 3 9 2 10 1 11
REMARK H PARENT
REMARK Flexibility Score: inf
ROOT
ATOM      1  C   UNL     1      93.615   7.914  64.392  1.00  0.00     0.000 C 
ENDROOT
BRANCH   1   2
ATOM      2  C   UNL     1      93.958   6.905  63.280  1.00  0.00     0.006 C 
BRANCH   2   3
ATOM      3  C   UNL     1      93.495   7.329  61.875  1.00  0.00     0.053 C 
BRANCH   3   4
ATOM      4  C   UNL     1      92.718   8.610  61.903  1.00  0.00     0.041 C 
ATOM      5  O   UNL     1      91.459   8.587  61.901  1.00  0.00    -0.550 OA
ATOM      6  O   UNL     1      93.385   9.827  61.961  1.00  0.00    -0.550 OA
ENDBRANCH   3   4
ENDBRANCH   2   3
ENDBRANCH   1   2
BRANCH   1   7
ATOM      7  C   UNL     1      94.859   8.629  64.947  1.00  0.00     0.000 C 
BRANCH   7   8
ATOM      8  C   UNL     1      96.106   8.436  64.065  1.00  0.00     0.004 C 
BRANCH   8   9
ATOM      9  C   UNL     1      97.125   9.587  64.161  1.00  0.00     0.027 C 
BRANCH   9  10
ATOM     10  C   UNL     1      96.734  10.787  63.339  1.00  0.00    -0.035 C 
ATOM     11  C   UNL     1      96.566  10.711  62.015  1.00  0.00     0.004 C 
ENDBRANCH   9  10
ENDBRANCH   8   9
ENDBRANCH   7   8
ENDBRANCH   1   7
TORSDOF 7
ENDMDL
MODEL 5
REMARK VINA RESULT:     1.307     17.704     18.459
REMARK INTER + INTRA:           1.511
REMARK INTER:                   1.418
REMARK INTRA:                   0.093
REMARK UNBOUND:                -0.331
REMARK SMILES C=CCCCCCCC(=O)[O-]
REMARK SMILES IDX 6 1 7 2 8 3 9 4 10 5 11 6 5 7 4 8 3 9 2 10 1 11
REMARK H PARENT
REMARK Flexibility Score: inf
ROOT
ATOM      1  C   UNL     1      79.279   0.350  64.699  1.00  0.00     0.000 C 
ENDROOT
BRANCH   1   2
ATOM      2  C   UNL     1      79.074  -0.853  65.638  1.00  0.00     0.006 C 
BRANCH   2   3
ATOM      3  C   UNL     1      80.061  -0.913  66.816  1.00  0.00     0.053 C 
BRANCH   3   4
ATOM      4  C   UNL     1      79.668  -1.945  67.828  1.00  0.00     0.041 C 
ATOM      5  O   UNL     1      78.525  -2.472  67.784  1.00  0.00    -0.550 OA
ATOM      6  O   UNL     1      80.574  -2.348  68.800  1.00  0.00    -0.550 OA
ENDBRANCH   3   4
ENDBRANCH   2   3
ENDBRANCH   1   2
BRANCH   1   7
ATOM      7  C   UNL     1      77.970   0.819  64.042  1.00  0.00     0.000 C 
BRANCH   7   8
ATOM      8  C   UNL     1      78.100   1.022  62.522  1.00  0.00     0.004 C 
BRANCH   8   9
ATOM      9  C   UNL     1      76.885   1.714  61.875  1.00  0.00     0.027 C 
BRANCH   9  10
ATOM     10  C   UNL     1      76.875   3.204  62.091  1.00  0.00    -0.035 C 
ATOM     11  C   UNL     1      77.711   3.798  62.948  1.00  0.00     0.004 C 
ENDBRANCH   9  10
ENDBRANCH   8   9
ENDBRANCH   7   8
ENDBRANCH   1   7
TORSDOF 7
ENDMDL
MODEL 6
REMARK VINA RESULT:     1.931     17.799     18.902
REMARK INTER + INTRA:           2.390
REMARK INTER:                   2.279
REMARK INTRA:                   0.111
REMARK UNBOUND:                -0.331
REMARK SMILES C=CCCCCCCC(=O)[O-]
REMARK SMILES IDX 6 1 7 2 8 3 9 4 10 5 11 6 5 7 4 8 3 9 2 10 1 11
REMARK H PARENT
REMARK Flexibility Score: inf
ROOT
ATOM      1  C   UNL     1      78.439   0.826  64.178  1.00  0.00     0.000 C 
ENDROOT
BRANCH   1   2
ATOM      2  C   UNL     1      77.191   0.443  63.361  1.00  0.00     0.006 C 
BRANCH   2   3
ATOM      3  C   UNL     1      76.906   1.370  62.167  1.00  0.00     0.053 C 
BRANCH   3   4
ATOM      4  C   UNL     1      77.710   2.632  62.232  1.00  0.00     0.041 C 
ATOM      5  O   UNL     1      78.918   2.634  61.875  1.00  0.00    -0.550 OA
ATOM      6  O   UNL     1      77.117   3.815  62.657  1.00  0.00    -0.550 OA
ENDBRANCH   3   4
ENDBRANCH   2   3
ENDBRANCH   1   2
BRANCH   1   7
ATOM      7  C   UNL     1      79.060  -0.375  64.910  1.00  0.00     0.000 C 
BRANCH   7   8
ATOM      8  C   UNL     1      79.132  -0.178  66.435  1.00  0.00     0.004 C 
BRANCH   8   9
ATOM      9  C   UNL     1      79.972  -1.243  67.166  1.00  0.00     0.027 C 
BRANCH   9  10
ATOM     10  C   UNL     1      79.129  -2.294  67.838  1.00  0.00    -0.035 C 
ATOM     11  C   UNL     1      77.840  -2.465  67.533  1.00  0.00     0.004 C 
ENDBRANCH   9  10
ENDBRANCH   8   9
ENDBRANCH   7   8
ENDBRANCH   1   7
TORSDOF 7
ENDMDL
MODEL 7
REMARK VINA RESULT:     2.064     17.651     18.818
REMARK INTER + INTRA:           2.577
REMARK INTER:                   2.564
REMARK INTRA:                   0.013
REMARK UNBOUND:                -0.331
REMARK SMILES C=CCCCCCCC(=O)[O-]
REMARK SMILES IDX 6 1 7 2 8 3 9 4 10 5 11 6 5 7 4 8 3 9 2 10 1 11
REMARK H PARENT
REMARK Flexibility Score: inf
ROOT
ATOM      1  C   UNL     1      77.933   1.096  64.284  1.00  0.00     0.000 C 
ENDROOT
BRANCH   1   2
ATOM      2  C   UNL     1      76.926   0.536  63.261  1.00  0.00     0.006 C 
BRANCH   2   3
ATOM      3  C   UNL     1      76.958   1.237  61.892  1.00  0.00     0.053 C 
BRANCH   3   4
ATOM      4  C   UNL     1      77.729   2.520  61.936  1.00  0.00     0.041 C 
ATOM      5  O   UNL     1      77.125   3.619  62.055  1.00  0.00    -0.550 OA
ATOM      6  O   UNL     1      79.117   2.501  61.877  1.00  0.00    -0.550 OA
ENDBRANCH   3   4
ENDBRANCH   2   3
ENDBRANCH   1   2
BRANCH   1   7
ATOM      7  C   UNL     1      79.127   0.155  64.514  1.00  0.00     0.000 C 
BRANCH   7   8
ATOM      8  C   UNL     1      78.919  -0.800  65.704  1.00  0.00     0.004 C 
BRANCH   8   9
ATOM      9  C   UNL     1      80.105  -0.845  66.687  1.00  0.00     0.027 C 
BRANCH   9  10
ATOM     10  C   UNL     1      79.857  -1.752  67.862  1.00  0.00    -0.035 C 
ATOM     11  C   UNL     1      78.824  -2.599  67.895  1.00  0.00     0.004 C 
ENDBRANCH   9  10
ENDBRANCH   8   9
ENDBRANCH   7   8
ENDBRANCH   1   7
TORSDOF 7
ENDMDL
