MODEL 1
REMARK VINA RESULT:    -5.137      0.000      0.000
REMARK INTER + INTRA:          -5.137
REMARK INTER:                  -5.137
REMARK INTRA:                   0.000
REMARK UNBOUND:                 0.000
REMARK SMILES CC1=CC[C@H]2C[C@@H]1C2(C)C
REMARK SMILES IDX 1 1 2 2 3 3 4 4 5 5 6 6 7 7 8 8 9 9 10 10
REMARK H PARENT
REMARK Flexibility Score: inf
ROOT
ATOM      1  C   UNL     1     143.875 143.126 132.243  1.00  0.00     0.039 C 
ATOM      2  C   UNL     1     145.077 143.951 132.591  1.00  0.00    -0.074 C 
ATOM      3  C   UNL     1     145.660 143.876 133.823  1.00  0.00    -0.027 C 
ATOM      4  C   UNL     1     146.876 144.772 134.125  1.00  0.00     0.031 C 
ATOM      5  C   UNL     1     147.250 145.616 132.857  1.00  0.00    -0.000 C 
ATOM      6  C   UNL     1     147.237 144.625 131.676  1.00  0.00     0.013 C 
ATOM      7  C   UNL     1     145.725 144.906 131.578  1.00  0.00     0.021 C 
ATOM      8  C   UNL     1     145.978 146.279 132.256  1.00  0.00    -0.026 C 
ATOM      9  C   UNL     1     144.898 146.835 133.226  1.00  0.00     0.012 C 
ATOM     10  C   UNL     1     146.325 147.386 131.229  1.00  0.00     0.012 C 
ENDROOT
TORSDOF 0
ENDMDL
MODEL 2
REMARK VINA RESULT:    -5.135      1.339      3.527
REMARK INTER + INTRA:          -5.135
REMARK INTER:                  -5.135
REMARK INTRA:                   0.000
REMARK UNBOUND:                 0.000
REMARK SMILES CC1=CC[C@H]2C[C@@H]1C2(C)C
REMARK SMILES IDX 1 1 2 2 3 3 4 4 5 5 6 6 7 7 8 8 9 9 10 10
REMARK H PARENT
REMARK Flexibility Score: inf
ROOT
ATOM      1  C   UNL     1     146.873 147.625 132.250  1.00  0.00     0.039 C 
ATOM      2  C   UNL     1     145.655 146.822 132.593  1.00  0.00    -0.074 C 
ATOM      3  C   UNL     1     145.075 146.901 133.827  1.00  0.00    -0.027 C 
ATOM      4  C   UNL     1     143.841 146.027 134.124  1.00  0.00     0.031 C 
ATOM      5  C   UNL     1     143.450 145.198 132.851  1.00  0.00    -0.000 C 
ATOM      6  C   UNL     1     143.481 146.196 131.676  1.00  0.00     0.013 C 
ATOM      7  C   UNL     1     144.988 145.886 131.575  1.00  0.00     0.021 C 
ATOM      8  C   UNL     1     144.708 144.514 132.245  1.00  0.00    -0.026 C 
ATOM      9  C   UNL     1     145.778 143.932 133.211  1.00  0.00     0.012 C 
ATOM     10  C   UNL     1     144.339 143.420 131.212  1.00  0.00     0.012 C 
ENDROOT
TORSDOF 0
ENDMDL
MODEL 3
REMARK VINA RESULT:    -5.103      1.358      2.495
REMARK INTER + INTRA:          -5.103
REMARK INTER:                  -5.103
REMARK INTRA:                   0.000
REMARK UNBOUND:                 0.000
REMARK SMILES CC1=CC[C@H]2C[C@@H]1C2(C)C
REMARK SMILES IDX 1 1 2 2 3 3 4 4 5 5 6 6 7 7 8 8 9 9 10 10
REMARK H PARENT
REMARK Flexibility Score: inf
ROOT
ATOM      1  C   UNL     1     145.365 143.124 133.370  1.00  0.00     0.039 C 
ATOM      2  C   UNL     1     144.918 144.547 133.220  1.00  0.00    -0.074 C 
ATOM      3  C   UNL     1     143.594 144.880 133.216  1.00  0.00    -0.027 C 
ATOM      4  C   UNL     1     143.201 146.359 133.030  1.00  0.00     0.031 C 
ATOM      5  C   UNL     1     144.489 147.247 132.917  1.00  0.00    -0.000 C 
ATOM      6  C   UNL     1     145.418 146.785 134.058  1.00  0.00     0.013 C 
ATOM      7  C   UNL     1     145.921 145.702 133.083  1.00  0.00     0.021 C 
ATOM      8  C   UNL     1     145.491 146.619 131.908  1.00  0.00    -0.026 C 
ATOM      9  C   UNL     1     144.931 145.954 130.618  1.00  0.00     0.012 C 
ATOM     10  C   UNL     1     146.608 147.611 131.497  1.00  0.00     0.012 C 
ENDROOT
TORSDOF 0
ENDMDL
MODEL 4
REMARK VINA RESULT:    -5.096      1.406      2.480
REMARK INTER + INTRA:          -5.096
REMARK INTER:                  -5.096
REMARK INTRA:                   0.000
REMARK UNBOUND:                 0.000
REMARK SMILES CC1=CC[C@H]2C[C@@H]1C2(C)C
REMARK SMILES IDX 1 1 2 2 3 3 4 4 5 5 6 6 7 7 8 8 9 9 10 10
REMARK H PARENT
REMARK Flexibility Score: inf
ROOT
ATOM      1  C   UNL     1     147.311 143.870 132.652  1.00  0.00     0.039 C 
ATOM      2  C   UNL     1     146.549 145.149 132.823  1.00  0.00    -0.074 C 
ATOM      3  C   UNL     1     146.554 145.827 134.008  1.00  0.00    -0.027 C 
ATOM      4  C   UNL     1     145.726 147.122 134.125  1.00  0.00     0.031 C 
ATOM      5  C   UNL     1     145.033 147.443 132.756  1.00  0.00    -0.000 C 
ATOM      6  C   UNL     1     146.125 147.265 131.682  1.00  0.00     0.013 C 
ATOM      7  C   UNL     1     145.742 145.772 131.674  1.00  0.00     0.021 C 
ATOM      8  C   UNL     1     144.336 146.173 132.192  1.00  0.00    -0.026 C 
ATOM      9  C   UNL     1     143.614 145.217 133.184  1.00  0.00     0.012 C 
ATOM     10  C   UNL     1     143.357 146.505 131.038  1.00  0.00     0.012 C 
ENDROOT
TORSDOF 0
ENDMDL
MODEL 5
REMARK VINA RESULT:    -5.088      1.122      3.154
REMARK INTER + INTRA:          -5.088
REMARK INTER:                  -5.088
REMARK INTRA:                   0.000
REMARK UNBOUND:                 0.000
REMARK SMILES CC1=CC[C@H]2C[C@@H]1C2(C)C
REMARK SMILES IDX 1 1 2 2 3 3 4 4 5 5 6 6 7 7 8 8 9 9 10 10
REMARK H PARENT
REMARK Flexibility Score: inf
ROOT
ATOM      1  C   UNL     1     145.437 147.624 133.328  1.00  0.00     0.039 C 
ATOM      2  C   UNL     1     145.833 146.188 133.165  1.00  0.00    -0.074 C 
ATOM      3  C   UNL     1     147.138 145.824 133.000  1.00  0.00    -0.027 C 
ATOM      4  C   UNL     1     147.474 144.332 132.809  1.00  0.00     0.031 C 
ATOM      5  C   UNL     1     146.165 143.472 132.888  1.00  0.00    -0.000 C 
ATOM      6  C   UNL     1     145.401 143.985 134.125  1.00  0.00     0.013 C 
ATOM      7  C   UNL     1     144.797 145.054 133.191  1.00  0.00     0.021 C 
ATOM      8  C   UNL     1     145.054 144.096 131.998  1.00  0.00    -0.026 C 
ATOM      9  C   UNL     1     145.455 144.712 130.629  1.00  0.00     0.012 C 
ATOM     10  C   UNL     1     143.873 143.119 131.764  1.00  0.00     0.012 C 
ENDROOT
TORSDOF 0
ENDMDL
MODEL 6
REMARK VINA RESULT:    -5.035      1.279      2.464
REMARK INTER + INTRA:          -5.035
REMARK INTER:                  -5.035
REMARK INTRA:                   0.000
REMARK UNBOUND:                 0.000
REMARK SMILES CC1=CC[C@H]2C[C@@H]1C2(C)C
REMARK SMILES IDX 1 1 2 2 3 3 4 4 5 5 6 6 7 7 8 8 9 9 10 10
REMARK H PARENT
REMARK Flexibility Score: inf
ROOT
ATOM      1  C   UNL     1     143.196 146.819 132.602  1.00  0.00     0.039 C 
ATOM      2  C   UNL     1     144.048 145.600 132.787  1.00  0.00    -0.074 C 
ATOM      3  C   UNL     1     144.137 144.972 133.996  1.00  0.00    -0.027 C 
ATOM      4  C   UNL     1     145.054 143.739 134.125  1.00  0.00     0.031 C 
ATOM      5  C   UNL     1     145.710 143.409 132.740  1.00  0.00    -0.000 C 
ATOM      6  C   UNL     1     144.565 143.472 131.709  1.00  0.00     0.013 C 
ATOM      7  C   UNL     1     144.847 144.986 131.628  1.00  0.00     0.021 C 
ATOM      8  C   UNL     1     146.297 144.699 132.099  1.00  0.00    -0.026 C 
ATOM      9  C   UNL     1     146.994 145.738 133.022  1.00  0.00     0.012 C 
ATOM     10  C   UNL     1     147.248 144.385 130.917  1.00  0.00     0.012 C 
ENDROOT
TORSDOF 0
ENDMDL
MODEL 7
REMARK VINA RESULT:    -4.965      1.430      3.041
REMARK INTER + INTRA:          -4.965
REMARK INTER:                  -4.965
REMARK INTRA:                   0.000
REMARK UNBOUND:                 0.000
REMARK SMILES CC1=CC[C@H]2C[C@@H]1C2(C)C
REMARK SMILES IDX 1 1 2 2 3 3 4 4 5 5 6 6 7 7 8 8 9 9 10 10
REMARK H PARENT
REMARK Flexibility Score: inf
ROOT
ATOM      1  C   UNL     1     147.645 145.121 133.447  1.00  0.00     0.039 C 
ATOM      2  C   UNL     1     146.220 144.743 133.175  1.00  0.00    -0.074 C 
ATOM      3  C   UNL     1     145.839 143.437 133.062  1.00  0.00    -0.027 C 
ATOM      4  C   UNL     1     144.362 143.119 132.753  1.00  0.00     0.031 C 
ATOM      5  C   UNL     1     143.533 144.447 132.668  1.00  0.00    -0.000 C 
ATOM      6  C   UNL     1     143.950 145.281 133.896  1.00  0.00     0.013 C 
ATOM      7  C   UNL     1     145.115 145.800 133.029  1.00  0.00     0.021 C 
ATOM      8  C   UNL     1     144.265 145.484 131.771  1.00  0.00    -0.026 C 
ATOM      9  C   UNL     1     144.994 144.981 130.493  1.00  0.00     0.012 C 
ATOM     10  C   UNL     1     143.345 146.665 131.371  1.00  0.00     0.012 C 
ENDROOT
TORSDOF 0
ENDMDL
MODEL 8
REMARK VINA RESULT:    -4.950      1.311      2.630
REMARK INTER + INTRA:          -4.950
REMARK INTER:                  -4.950
REMARK INTRA:                   0.000
REMARK UNBOUND:                 0.000
REMARK SMILES CC1=CC[C@H]2C[C@@H]1C2(C)C
REMARK SMILES IDX 1 1 2 2 3 3 4 4 5 5 6 6 7 7 8 8 9 9 10 10
REMARK H PARENT
REMARK Flexibility Score: inf
ROOT
ATOM      1  C   UNL     1     143.110 145.745 133.455  1.00  0.00     0.039 C 
ATOM      2  C   UNL     1     144.544 146.087 133.186  1.00  0.00    -0.074 C 
ATOM      3  C   UNL     1     144.957 147.383 133.068  1.00  0.00    -0.027 C 
ATOM      4  C   UNL     1     146.441 147.664 132.763  1.00  0.00     0.031 C 
ATOM      5  C   UNL     1     147.239 146.316 132.684  1.00  0.00    -0.000 C 
ATOM      6  C   UNL     1     146.798 145.497 133.914  1.00  0.00     0.013 C 
ATOM      7  C   UNL     1     145.623 145.003 133.047  1.00  0.00     0.021 C 
ATOM      8  C   UNL     1     146.484 145.293 131.789  1.00  0.00    -0.026 C 
ATOM      9  C   UNL     1     145.771 145.809 130.508  1.00  0.00     0.012 C 
ATOM     10  C   UNL     1     147.376 144.088 131.397  1.00  0.00     0.012 C 
ENDROOT
TORSDOF 0
ENDMDL
MODEL 9
REMARK VINA RESULT:    -4.879      1.047      3.362
REMARK INTER + INTRA:          -4.879
REMARK INTER:                  -4.879
REMARK INTRA:                   0.000
REMARK UNBOUND:                 0.000
REMARK SMILES CC1=CC[C@H]2C[C@@H]1C2(C)C
REMARK SMILES IDX 1 1 2 2 3 3 4 4 5 5 6 6 7 7 8 8 9 9 10 10
REMARK H PARENT
REMARK Flexibility Score: inf
ROOT
ATOM      1  C   UNL     1     145.767 147.960 133.388  1.00  0.00     0.039 C 
ATOM      2  C   UNL     1     145.834 146.712 132.561  1.00  0.00    -0.074 C 
ATOM      3  C   UNL     1     145.618 146.739 131.213  1.00  0.00    -0.027 C 
ATOM      4  C   UNL     1     145.673 145.415 130.426  1.00  0.00     0.031 C 
ATOM      5  C   UNL     1     146.030 144.231 131.390  1.00  0.00    -0.000 C 
ATOM      6  C   UNL     1     147.218 144.727 132.240  1.00  0.00     0.013 C 
ATOM      7  C   UNL     1     146.165 145.346 133.180  1.00  0.00     0.021 C 
ATOM      8  C   UNL     1     145.149 144.291 132.669  1.00  0.00    -0.026 C 
ATOM      9  C   UNL     1     143.658 144.708 132.527  1.00  0.00     0.012 C 
ATOM     10  C   UNL     1     145.209 142.974 133.485  1.00  0.00     0.012 C 
ENDROOT
TORSDOF 0
ENDMDL
