MODEL 1
REMARK VINA RESULT:    25.381      0.000      0.000
REMARK INTER + INTRA:          30.260
REMARK INTER:                  30.574
REMARK INTRA:                  -0.314
REMARK UNBOUND:                -0.314
REMARK SMILES Oc1cc(O)c2cc(O)c(-c3ccc(O)c(O)c3)[o+]c2c1
REMARK SMILES IDX 10 1 19 2 20 3 21 4 2 5 3 6 4 7 6 8 7 9 8 10 11 11 12 12
REMARK SMILES IDX 13 13 14 14 18 15 16 16 15 17 17 19 9 21 1 23 5 25
REMARK H PARENT 15 18 17 20 9 22 1 24 5 26
REMARK Flexibility Score: inf
ROOT
ATOM      1  C   UNL     1      20.072 -12.699 -16.317  1.00  0.00     0.402 A 
ATOM      2  O   UNL     1      21.251 -12.269 -15.875  1.00  0.00    -0.202 OA
ATOM      3  C   UNL     1      22.227 -11.859 -16.679  1.00  0.00     0.368 A 
ATOM      4  C   UNL     1      23.429 -11.421 -16.120  1.00  0.00     0.162 A 
ATOM      5  C   UNL     1      24.471 -10.982 -16.939  1.00  0.00     0.128 A 
ATOM      6  C   UNL     1      24.309 -10.981 -18.329  1.00  0.00     0.093 A 
ATOM      7  C   UNL     1      23.113 -11.414 -18.915  1.00  0.00     0.136 A 
ATOM      8  C   UNL     1      22.053 -11.864 -18.084  1.00  0.00     0.125 A 
ATOM      9  C   UNL     1      20.826 -12.328 -18.582  1.00  0.00     0.078 A 
ATOM     10  C   UNL     1      19.829 -12.760 -17.702  1.00  0.00     0.223 A 
ENDROOT
BRANCH   1  11
ATOM     11  C   UNL     1      19.061 -13.119 -15.320  1.00  0.00     0.087 A 
ATOM     12  C   UNL     1      18.278 -12.147 -14.679  1.00  0.00     0.022 A 
ATOM     13  C   UNL     1      17.304 -12.523 -13.750  1.00  0.00     0.051 A 
ATOM     14  C   UNL     1      17.089 -13.877 -13.460  1.00  0.00     0.157 A 
ATOM     15  C   UNL     1      18.828 -14.479 -15.041  1.00  0.00     0.068 A 
ATOM     16  C   UNL     1      17.850 -14.856 -14.110  1.00  0.00     0.158 A 
BRANCH  14  17
ATOM     17  O   UNL     1      16.119 -14.256 -12.533  1.00  0.00    -0.504 OA
ATOM     18  H   UNL     1      16.281 -15.010 -11.876  1.00  0.00     0.293 HD
ENDBRANCH  14  17
BRANCH  16  19
ATOM     19  O   UNL     1      17.624 -16.203 -13.831  1.00  0.00    -0.504 OA
ATOM     20  H   UNL     1      17.866 -16.930 -14.494  1.00  0.00     0.293 HD
ENDBRANCH  16  19
ENDBRANCH   1  11
BRANCH  10  21
ATOM     21  O   UNL     1      18.628 -13.268 -18.198  1.00  0.00    -0.500 OA
ATOM     22  H   UNL     1      18.553 -14.217 -18.540  1.00  0.00     0.294 HD
ENDBRANCH  10  21
BRANCH   5  23
ATOM     23  O   UNL     1      25.662 -10.549 -16.363  1.00  0.00    -0.507 OA
ATOM     24  H   UNL     1      26.303 -11.198 -15.920  1.00  0.00     0.293 HD
ENDBRANCH   5  23
BRANCH   7  25
ATOM     25  O   UNL     1      23.029 -11.379 -20.309  1.00  0.00    -0.507 OA
ATOM     26  H   UNL     1      22.818 -10.551 -20.847  1.00  0.00     0.293 HD
ENDBRANCH   7  25
TORSDOF 6
ENDMDL
MODEL 2
REMARK VINA RESULT:    25.788      1.112      2.629
REMARK INTER + INTRA:          30.751
REMARK INTER:                  31.042
REMARK INTRA:                  -0.291
REMARK UNBOUND:                -0.314
REMARK SMILES Oc1cc(O)c2cc(O)c(-c3ccc(O)c(O)c3)[o+]c2c1
REMARK SMILES IDX 10 1 19 2 20 3 21 4 2 5 3 6 4 7 6 8 7 9 8 10 11 11 12 12
REMARK SMILES IDX 13 13 14 14 18 15 16 16 15 17 17 19 9 21 1 23 5 25
REMARK H PARENT 15 18 17 20 9 22 1 24 5 26
REMARK Flexibility Score: inf
ROOT
ATOM      1  C   UNL     1      20.136 -12.658 -15.455  1.00  0.00     0.402 A 
ATOM      2  O   UNL     1      20.165 -12.731 -16.783  1.00  0.00    -0.202 OA
ATOM      3  C   UNL     1      21.210 -12.357 -17.513  1.00  0.00     0.368 A 
ATOM      4  C   UNL     1      21.147 -12.475 -18.903  1.00  0.00     0.162 A 
ATOM      5  C   UNL     1      22.232 -12.093 -19.694  1.00  0.00     0.128 A 
ATOM      6  C   UNL     1      23.389 -11.588 -19.092  1.00  0.00     0.093 A 
ATOM      7  C   UNL     1      23.479 -11.461 -17.700  1.00  0.00     0.136 A 
ATOM      8  C   UNL     1      22.377 -11.846 -16.892  1.00  0.00     0.125 A 
ATOM      9  C   UNL     1      22.371 -11.740 -15.493  1.00  0.00     0.078 A 
ATOM     10  C   UNL     1      21.246 -12.136 -14.764  1.00  0.00     0.223 A 
ENDROOT
BRANCH   1  11
ATOM     11  C   UNL     1      18.915 -13.115 -14.754  1.00  0.00     0.087 A 
ATOM     12  C   UNL     1      18.003 -12.166 -14.266  1.00  0.00     0.022 A 
ATOM     13  C   UNL     1      16.834 -12.575 -13.620  1.00  0.00     0.051 A 
ATOM     14  C   UNL     1      16.552 -13.939 -13.466  1.00  0.00     0.157 A 
ATOM     15  C   UNL     1      18.618 -14.483 -14.615  1.00  0.00     0.068 A 
ATOM     16  C   UNL     1      17.444 -14.894 -13.969  1.00  0.00     0.158 A 
BRANCH  14  17
ATOM     17  O   UNL     1      15.387 -14.351 -12.821  1.00  0.00    -0.504 OA
ATOM     18  H   UNL     1      15.061 -13.897 -11.976  1.00  0.00     0.293 HD
ENDBRANCH  14  17
BRANCH  16  19
ATOM     19  O   UNL     1      17.154 -16.250 -13.826  1.00  0.00    -0.504 OA
ATOM     20  H   UNL     1      16.880 -16.819 -14.619  1.00  0.00     0.293 HD
ENDBRANCH  16  19
ENDBRANCH   1  11
BRANCH  10  21
ATOM     21  O   UNL     1      21.222 -11.985 -13.377  1.00  0.00    -0.500 OA
ATOM     22  H   UNL     1      20.440 -11.551 -12.902  1.00  0.00     0.294 HD
ENDBRANCH  10  21
BRANCH   5  23
ATOM     23  O   UNL     1      22.148 -12.218 -21.079  1.00  0.00    -0.507 OA
ATOM     24  H   UNL     1      22.010 -13.119 -21.522  1.00  0.00     0.293 HD
ENDBRANCH   5  23
BRANCH   7  25
ATOM     25  O   UNL     1      24.670 -10.952 -17.176  1.00  0.00    -0.507 OA
ATOM     26  H   UNL     1      25.321 -10.377 -17.691  1.00  0.00     0.293 HD
ENDBRANCH   7  25
TORSDOF 6
ENDMDL
MODEL 3
REMARK VINA RESULT:    28.032      4.549      8.073
REMARK INTER + INTRA:          33.454
REMARK INTER:                  33.778
REMARK INTRA:                  -0.324
REMARK UNBOUND:                -0.314
REMARK SMILES Oc1cc(O)c2cc(O)c(-c3ccc(O)c(O)c3)[o+]c2c1
REMARK SMILES IDX 10 1 19 2 20 3 21 4 2 5 3 6 4 7 6 8 7 9 8 10 11 11 12 12
REMARK SMILES IDX 13 13 14 14 18 15 16 16 15 17 17 19 9 21 1 23 5 25
REMARK H PARENT 15 18 17 20 9 22 1 24 5 26
REMARK Flexibility Score: inf
ROOT
ATOM      1  C   UNL     1      22.520  -8.135 -18.387  1.00  0.00     0.402 A 
ATOM      2  O   UNL     1      22.193  -9.130 -19.207  1.00  0.00    -0.202 OA
ATOM      3  C   UNL     1      22.391 -10.411 -18.917  1.00  0.00     0.368 A 
ATOM      4  C   UNL     1      22.011 -11.386 -19.842  1.00  0.00     0.162 A 
ATOM      5  C   UNL     1      22.204 -12.739 -19.563  1.00  0.00     0.128 A 
ATOM      6  C   UNL     1      22.783 -13.123 -18.349  1.00  0.00     0.093 A 
ATOM      7  C   UNL     1      23.173 -12.166 -17.403  1.00  0.00     0.136 A 
ATOM      8  C   UNL     1      22.980 -10.789 -17.685  1.00  0.00     0.125 A 
ATOM      9  C   UNL     1      23.352  -9.761 -16.805  1.00  0.00     0.078 A 
ATOM     10  C   UNL     1      23.134  -8.425 -17.154  1.00  0.00     0.223 A 
ENDROOT
BRANCH   1  11
ATOM     11  C   UNL     1      22.239  -6.748 -18.821  1.00  0.00     0.087 A 
ATOM     12  C   UNL     1      20.960  -6.207 -18.617  1.00  0.00     0.022 A 
ATOM     13  C   UNL     1      20.678  -4.893 -18.999  1.00  0.00     0.051 A 
ATOM     14  C   UNL     1      21.675  -4.096 -19.578  1.00  0.00     0.157 A 
ATOM     15  C   UNL     1      23.242  -5.938 -19.382  1.00  0.00     0.068 A 
ATOM     16  C   UNL     1      22.961  -4.619 -19.765  1.00  0.00     0.158 A 
BRANCH  14  17
ATOM     17  O   UNL     1      21.398  -2.785 -19.962  1.00  0.00    -0.504 OA
ATOM     18  H   UNL     1      21.365  -2.515 -20.939  1.00  0.00     0.293 HD
ENDBRANCH  14  17
BRANCH  16  19
ATOM     19  O   UNL     1      23.955  -3.819 -20.327  1.00  0.00    -0.504 OA
ATOM     20  H   UNL     1      23.773  -2.859 -20.598  1.00  0.00     0.293 HD
ENDBRANCH  16  19
ENDBRANCH   1  11
BRANCH  10  21
ATOM     21  O   UNL     1      23.549  -7.402 -16.301  1.00  0.00    -0.500 OA
ATOM     22  H   UNL     1      23.302  -6.435 -16.470  1.00  0.00     0.294 HD
ENDBRANCH  10  21
BRANCH   5  23
ATOM     23  O   UNL     1      21.818 -13.695 -20.499  1.00  0.00    -0.507 OA
ATOM     24  H   UNL     1      21.726 -13.467 -21.483  1.00  0.00     0.293 HD
ENDBRANCH   5  23
BRANCH   7  25
ATOM     25  O   UNL     1      23.740 -12.631 -16.214  1.00  0.00    -0.507 OA
ATOM     26  H   UNL     1      23.782 -12.099 -15.356  1.00  0.00     0.293 HD
ENDBRANCH   7  25
TORSDOF 6
ENDMDL
