MODEL 1
REMARK VINA RESULT:    -4.253      0.000      0.000
REMARK INTER + INTRA:         -13.089
REMARK INTER:                  -9.226
REMARK INTRA:                  -3.863
REMARK UNBOUND:                -3.863
REMARK SMILES CCCCCCCCCCCCCCCCCCCCCC(=O)[O-]
REMARK SMILES IDX 12 1 11 2 10 3 9 4 8 5 7 6 6 7 5 8 4 9 3 10 2 11 1 12 13 13
REMARK SMILES IDX 14 14 15 15 16 16 17 17 18 18 19 19 20 20 21 21 22 22 23 23
REMARK SMILES IDX 24 24
REMARK H PARENT
REMARK Flexibility Score: inf
ROOT
ATOM      1  C   UNL     1      22.429  -3.911  47.840  1.00  0.00     0.000 C 
ENDROOT
BRANCH   1   2
ATOM      2  C   UNL     1      23.521  -4.769  47.185  1.00  0.00     0.000 C 
BRANCH   2   3
ATOM      3  C   UNL     1      22.899  -5.913  46.369  1.00  0.00     0.000 C 
BRANCH   3   4
ATOM      4  C   UNL     1      22.924  -7.256  47.116  1.00  0.00    -0.000 C 
BRANCH   4   5
ATOM      5  C   UNL     1      21.530  -7.890  47.235  1.00  0.00    -0.000 C 
BRANCH   5   6
ATOM      6  C   UNL     1      20.435  -6.815  47.218  1.00  0.00    -0.000 C 
BRANCH   6   7
ATOM      7  C   UNL     1      19.860  -6.537  48.624  1.00  0.00    -0.000 C 
BRANCH   7   8
ATOM      8  C   UNL     1      20.264  -7.585  49.678  1.00  0.00    -0.000 C 
BRANCH   8   9
ATOM      9  C   UNL     1      21.100  -7.042  50.852  1.00  0.00    -0.000 C 
BRANCH   9  10
ATOM     10  C   UNL     1      22.577  -7.475  50.852  1.00  0.00    -0.000 C 
BRANCH  10  11
ATOM     11  C   UNL     1      23.546  -6.294  50.690  1.00  0.00    -0.003 C 
ATOM     12  C   UNL     1      22.947  -5.010  51.256  1.00  0.00     0.004 C 
ENDBRANCH  10  11
ENDBRANCH   9  10
ENDBRANCH   8   9
ENDBRANCH   7   8
ENDBRANCH   6   7
ENDBRANCH   5   6
ENDBRANCH   4   5
ENDBRANCH   3   4
ENDBRANCH   2   3
ENDBRANCH   1   2
BRANCH   1  13
ATOM     13  C   UNL     1      22.720  -2.401  47.748  1.00  0.00     0.000 C 
BRANCH  13  14
ATOM     14  C   UNL     1      23.412  -1.949  46.447  1.00  0.00     0.000 C 
BRANCH  14  15
ATOM     15  C   UNL     1      22.529  -1.123  45.490  1.00  0.00     0.000 C 
BRANCH  15  16
ATOM     16  C   UNL     1      22.224  -1.799  44.138  1.00  0.00     0.000 C 
BRANCH  16  17
ATOM     17  C   UNL     1      21.711  -3.250  44.237  1.00  0.00     0.000 C 
BRANCH  17  18
ATOM     18  C   UNL     1      20.280  -3.396  44.790  1.00  0.00     0.000 C 
BRANCH  18  19
ATOM     19  C   UNL     1      19.522  -4.652  44.316  1.00  0.00     0.000 C 
BRANCH  19  20
ATOM     20  C   UNL     1      20.417  -5.824  43.864  1.00  0.00     0.006 C 
BRANCH  20  21
ATOM     21  C   UNL     1      19.663  -7.142  43.624  1.00  0.00     0.053 C 
BRANCH  21  22
ATOM     22  C   UNL     1      20.597  -8.298  43.445  1.00  0.00     0.041 C 
ATOM     23  O   UNL     1      20.141  -9.465  43.308  1.00  0.00    -0.550 OA
ATOM     24  O   UNL     1      21.971  -8.093  43.455  1.00  0.00    -0.550 OA
ENDBRANCH  21  22
ENDBRANCH  20  21
ENDBRANCH  19  20
ENDBRANCH  18  19
ENDBRANCH  17  18
ENDBRANCH  16  17
ENDBRANCH  15  16
ENDBRANCH  14  15
ENDBRANCH  13  14
ENDBRANCH   1  13
TORSDOF 20
ENDMDL
MODEL 2
REMARK VINA RESULT:    -4.232      2.756      6.593
REMARK INTER + INTRA:         -13.042
REMARK INTER:                  -9.593
REMARK INTRA:                  -3.449
REMARK UNBOUND:                -3.863
REMARK SMILES CCCCCCCCCCCCCCCCCCCCCC(=O)[O-]
REMARK SMILES IDX 12 1 11 2 10 3 9 4 8 5 7 6 6 7 5 8 4 9 3 10 2 11 1 12 13 13
REMARK SMILES IDX 14 14 15 15 16 16 17 17 18 18 19 19 20 20 21 21 22 22 23 23
REMARK SMILES IDX 24 24
REMARK H PARENT
REMARK Flexibility Score: inf
ROOT
ATOM      1  C   UNL     1      20.535  -7.450  48.603  1.00  0.00     0.000 C 
ENDROOT
BRANCH   1   2
ATOM      2  C   UNL     1      19.836  -6.370  47.765  1.00  0.00     0.000 C 
BRANCH   2   3
ATOM      3  C   UNL     1      20.866  -5.461  47.076  1.00  0.00     0.000 C 
BRANCH   3   4
ATOM      4  C   UNL     1      22.231  -6.145  46.893  1.00  0.00    -0.000 C 
BRANCH   4   5
ATOM      5  C   UNL     1      22.469  -6.608  45.449  1.00  0.00    -0.000 C 
BRANCH   5   6
ATOM      6  C   UNL     1      22.118  -8.093  45.283  1.00  0.00    -0.000 C 
BRANCH   6   7
ATOM      7  C   UNL     1      21.799  -8.463  43.818  1.00  0.00    -0.000 C 
BRANCH   7   8
ATOM      8  C   UNL     1      20.482  -7.856  43.297  1.00  0.00    -0.000 C 
BRANCH   8   9
ATOM      9  C   UNL     1      19.305  -7.900  44.290  1.00  0.00    -0.000 C 
BRANCH   9  10
ATOM     10  C   UNL     1      18.414  -6.644  44.297  1.00  0.00    -0.000 C 
BRANCH  10  11
ATOM     11  C   UNL     1      18.881  -5.575  43.298  1.00  0.00    -0.003 C 
ATOM     12  C   UNL     1      19.363  -4.320  44.020  1.00  0.00     0.004 C 
ENDBRANCH  10  11
ENDBRANCH   9  10
ENDBRANCH   8   9
ENDBRANCH   7   8
ENDBRANCH   6   7
ENDBRANCH   5   6
ENDBRANCH   4   5
ENDBRANCH   3   4
ENDBRANCH   2   3
ENDBRANCH   1   2
BRANCH   1  13
ATOM     13  C   UNL     1      20.256  -7.311  50.111  1.00  0.00     0.000 C 
BRANCH  13  14
ATOM     14  C   UNL     1      21.478  -7.539  51.023  1.00  0.00     0.000 C 
BRANCH  14  15
ATOM     15  C   UNL     1      22.837  -7.579  50.298  1.00  0.00     0.000 C 
BRANCH  15  16
ATOM     16  C   UNL     1      23.618  -6.249  50.302  1.00  0.00     0.000 C 
BRANCH  16  17
ATOM     17  C   UNL     1      23.108  -5.200  51.310  1.00  0.00     0.000 C 
BRANCH  17  18
ATOM     18  C   UNL     1      23.099  -3.749  50.789  1.00  0.00     0.000 C 
BRANCH  18  19
ATOM     19  C   UNL     1      23.319  -3.600  49.271  1.00  0.00     0.000 C 
BRANCH  19  20
ATOM     20  C   UNL     1      22.860  -2.254  48.672  1.00  0.00     0.006 C 
BRANCH  20  21
ATOM     21  C   UNL     1      22.680  -2.267  47.146  1.00  0.00     0.053 C 
BRANCH  21  22
ATOM     22  C   UNL     1      23.680  -1.393  46.455  1.00  0.00     0.041 C 
ATOM     23  O   UNL     1      23.459  -0.979  45.286  1.00  0.00    -0.550 OA
ATOM     24  O   UNL     1      24.868  -1.056  47.091  1.00  0.00    -0.550 OA
ENDBRANCH  21  22
ENDBRANCH  20  21
ENDBRANCH  19  20
ENDBRANCH  18  19
ENDBRANCH  17  18
ENDBRANCH  16  17
ENDBRANCH  15  16
ENDBRANCH  14  15
ENDBRANCH  13  14
ENDBRANCH   1  13
TORSDOF 20
ENDMDL
MODEL 3
REMARK VINA RESULT:    -4.204      2.340      5.575
REMARK INTER + INTRA:         -12.983
REMARK INTER:                  -9.815
REMARK INTRA:                  -3.168
REMARK UNBOUND:                -3.863
REMARK SMILES CCCCCCCCCCCCCCCCCCCCCC(=O)[O-]
REMARK SMILES IDX 12 1 11 2 10 3 9 4 8 5 7 6 6 7 5 8 4 9 3 10 2 11 1 12 13 13
REMARK SMILES IDX 14 14 15 15 16 16 17 17 18 18 19 19 20 20 21 21 22 22 23 23
REMARK SMILES IDX 24 24
REMARK H PARENT
REMARK Flexibility Score: inf
ROOT
ATOM      1  C   UNL     1      22.616  -6.122  50.265  1.00  0.00     0.000 C 
ENDROOT
BRANCH   1   2
ATOM      2  C   UNL     1      21.352  -6.798  50.815  1.00  0.00     0.000 C 
BRANCH   2   3
ATOM      3  C   UNL     1      20.549  -7.457  49.683  1.00  0.00     0.000 C 
BRANCH   3   4
ATOM      4  C   UNL     1      20.965  -6.956  48.291  1.00  0.00    -0.000 C 
BRANCH   4   5
ATOM      5  C   UNL     1      19.854  -6.156  47.596  1.00  0.00    -0.000 C 
BRANCH   5   6
ATOM      6  C   UNL     1      19.499  -6.776  46.237  1.00  0.00    -0.000 C 
BRANCH   6   7
ATOM      7  C   UNL     1      20.697  -7.508  45.592  1.00  0.00    -0.000 C 
BRANCH   7   8
ATOM      8  C   UNL     1      20.543  -7.736  44.077  1.00  0.00    -0.000 C 
BRANCH   8   9
ATOM      9  C   UNL     1      21.219  -6.676  43.186  1.00  0.00    -0.000 C 
BRANCH   9  10
ATOM     10  C   UNL     1      20.258  -5.660  42.542  1.00  0.00    -0.000 C 
BRANCH  10  11
ATOM     11  C   UNL     1      19.953  -4.464  43.456  1.00  0.00    -0.003 C 
ATOM     12  C   UNL     1      18.542  -3.937  43.220  1.00  0.00     0.004 C 
ENDBRANCH  10  11
ENDBRANCH   9  10
ENDBRANCH   8   9
ENDBRANCH   7   8
ENDBRANCH   6   7
ENDBRANCH   5   6
ENDBRANCH   4   5
ENDBRANCH   3   4
ENDBRANCH   2   3
ENDBRANCH   1   2
BRANCH   1  13
ATOM     13  C   UNL     1      23.051  -4.901  51.097  1.00  0.00     0.000 C 
BRANCH  13  14
ATOM     14  C   UNL     1      24.370  -4.242  50.645  1.00  0.00     0.000 C 
BRANCH  14  15
ATOM     15  C   UNL     1      24.279  -2.732  50.350  1.00  0.00     0.000 C 
BRANCH  15  16
ATOM     16  C   UNL     1      22.902  -2.095  50.627  1.00  0.00     0.000 C 
BRANCH  16  17
ATOM     17  C   UNL     1      22.221  -1.460  49.398  1.00  0.00     0.000 C 
BRANCH  17  18
ATOM     18  C   UNL     1      22.736  -1.966  48.036  1.00  0.00     0.000 C 
BRANCH  18  19
ATOM     19  C   UNL     1      22.156  -3.321  47.582  1.00  0.00     0.000 C 
BRANCH  19  20
ATOM     20  C   UNL     1      23.191  -4.325  47.033  1.00  0.00     0.006 C 
BRANCH  20  21
ATOM     21  C   UNL     1      23.104  -4.560  45.517  1.00  0.00     0.053 C 
BRANCH  21  22
ATOM     22  C   UNL     1      24.008  -3.643  44.753  1.00  0.00     0.041 C 
ATOM     23  O   UNL     1      23.616  -2.489  44.435  1.00  0.00    -0.550 OA
ATOM     24  O   UNL     1      25.272  -4.070  44.369  1.00  0.00    -0.550 OA
ENDBRANCH  21  22
ENDBRANCH  20  21
ENDBRANCH  19  20
ENDBRANCH  18  19
ENDBRANCH  17  18
ENDBRANCH  16  17
ENDBRANCH  15  16
ENDBRANCH  14  15
ENDBRANCH  13  14
ENDBRANCH   1  13
TORSDOF 20
ENDMDL
MODEL 4
REMARK VINA RESULT:    -4.192      2.744      6.773
REMARK INTER + INTRA:         -12.955
REMARK INTER:                  -9.803
REMARK INTRA:                  -3.152
REMARK UNBOUND:                -3.863
REMARK SMILES CCCCCCCCCCCCCCCCCCCCCC(=O)[O-]
REMARK SMILES IDX 12 1 11 2 10 3 9 4 8 5 7 6 6 7 5 8 4 9 3 10 2 11 1 12 13 13
REMARK SMILES IDX 14 14 15 15 16 16 17 17 18 18 19 19 20 20 21 21 22 22 23 23
REMARK SMILES IDX 24 24
REMARK H PARENT
REMARK Flexibility Score: inf
ROOT
ATOM      1  C   UNL     1      19.534  -6.574  47.200  1.00  0.00     0.000 C 
ENDROOT
BRANCH   1   2
ATOM      2  C   UNL     1      19.572  -7.230  45.812  1.00  0.00     0.000 C 
BRANCH   2   3
ATOM      3  C   UNL     1      18.203  -7.130  45.124  1.00  0.00     0.000 C 
BRANCH   3   4
ATOM      4  C   UNL     1      18.305  -6.649  43.667  1.00  0.00    -0.000 C 
BRANCH   4   5
ATOM      5  C   UNL     1      19.753  -6.375  43.237  1.00  0.00    -0.000 C 
BRANCH   5   6
ATOM      6  C   UNL     1      19.921  -4.922  42.770  1.00  0.00    -0.000 C 
BRANCH   6   7
ATOM      7  C   UNL     1      19.361  -3.906  43.789  1.00  0.00    -0.000 C 
BRANCH   7   8
ATOM      8  C   UNL     1      20.278  -3.678  45.006  1.00  0.00    -0.000 C 
BRANCH   8   9
ATOM      9  C   UNL     1      21.788  -3.712  44.701  1.00  0.00    -0.000 C 
BRANCH   9  10
ATOM     10  C   UNL     1      22.544  -4.912  45.298  1.00  0.00    -0.000 C 
BRANCH  10  11
ATOM     11  C   UNL     1      22.790  -4.773  46.807  1.00  0.00    -0.003 C 
ATOM     12  C   UNL     1      23.927  -5.681  47.265  1.00  0.00     0.004 C 
ENDBRANCH  10  11
ENDBRANCH   9  10
ENDBRANCH   8   9
ENDBRANCH   7   8
ENDBRANCH   6   7
ENDBRANCH   5   6
ENDBRANCH   4   5
ENDBRANCH   3   4
ENDBRANCH   2   3
ENDBRANCH   1   2
BRANCH   1  13
ATOM     13  C   UNL     1      20.570  -7.170  48.172  1.00  0.00     0.000 C 
BRANCH  13  14
ATOM     14  C   UNL     1      20.029  -7.503  49.577  1.00  0.00     0.000 C 
BRANCH  14  15
ATOM     15  C   UNL     1      20.963  -7.125  50.744  1.00  0.00     0.000 C 
BRANCH  15  16
ATOM     16  C   UNL     1      22.467  -7.141  50.406  1.00  0.00     0.000 C 
BRANCH  16  17
ATOM     17  C   UNL     1      23.312  -6.090  51.154  1.00  0.00     0.000 C 
BRANCH  17  18
ATOM     18  C   UNL     1      22.874  -4.628  50.934  1.00  0.00     0.000 C 
BRANCH  18  19
ATOM     19  C   UNL     1      23.984  -3.682  50.435  1.00  0.00     0.000 C 
BRANCH  19  20
ATOM     20  C   UNL     1      23.590  -2.193  50.358  1.00  0.00     0.006 C 
BRANCH  20  21
ATOM     21  C   UNL     1      22.948  -1.775  49.026  1.00  0.00     0.053 C 
BRANCH  21  22
ATOM     22  C   UNL     1      23.975  -1.419  47.995  1.00  0.00     0.041 C 
ATOM     23  O   UNL     1      25.109  -1.002  48.349  1.00  0.00    -0.550 OA
ATOM     24  O   UNL     1      23.671  -1.523  46.644  1.00  0.00    -0.550 OA
ENDBRANCH  21  22
ENDBRANCH  20  21
ENDBRANCH  19  20
ENDBRANCH  18  19
ENDBRANCH  17  18
ENDBRANCH  16  17
ENDBRANCH  15  16
ENDBRANCH  14  15
ENDBRANCH  13  14
ENDBRANCH   1  13
TORSDOF 20
ENDMDL
MODEL 5
REMARK VINA RESULT:    -4.149      1.339      5.390
REMARK INTER + INTRA:         -12.862
REMARK INTER:                  -9.681
REMARK INTRA:                  -3.181
REMARK UNBOUND:                -3.863
REMARK SMILES CCCCCCCCCCCCCCCCCCCCCC(=O)[O-]
REMARK SMILES IDX 12 1 11 2 10 3 9 4 8 5 7 6 6 7 5 8 4 9 3 10 2 11 1 12 13 13
REMARK SMILES IDX 14 14 15 15 16 16 17 17 18 18 19 19 20 20 21 21 22 22 23 23
REMARK SMILES IDX 24 24
REMARK H PARENT
REMARK Flexibility Score: inf
ROOT
ATOM      1  C   UNL     1      22.861  -5.730  51.073  1.00  0.00     0.000 C 
ENDROOT
BRANCH   1   2
ATOM      2  C   UNL     1      24.121  -5.199  50.374  1.00  0.00     0.000 C 
BRANCH   2   3
ATOM      3  C   UNL     1      23.783  -3.993  49.484  1.00  0.00     0.000 C 
BRANCH   3   4
ATOM      4  C   UNL     1      22.885  -4.366  48.293  1.00  0.00    -0.000 C 
BRANCH   4   5
ATOM      5  C   UNL     1      23.381  -5.614  47.550  1.00  0.00    -0.000 C 
BRANCH   5   6
ATOM      6  C   UNL     1      23.633  -5.306  46.067  1.00  0.00    -0.000 C 
BRANCH   6   7
ATOM      7  C   UNL     1      23.743  -3.791  45.791  1.00  0.00    -0.000 C 
BRANCH   7   8
ATOM      8  C   UNL     1      22.745  -3.279  44.735  1.00  0.00    -0.000 C 
BRANCH   8   9
ATOM      9  C   UNL     1      21.408  -2.762  45.298  1.00  0.00    -0.000 C 
BRANCH   9  10
ATOM     10  C   UNL     1      20.160  -3.516  44.804  1.00  0.00    -0.000 C 
BRANCH  10  11
ATOM     11  C   UNL     1      20.380  -4.215  43.454  1.00  0.00    -0.003 C 
ATOM     12  C   UNL     1      19.135  -4.121  42.577  1.00  0.00     0.004 C 
ENDBRANCH  10  11
ENDBRANCH   9  10
ENDBRANCH   8   9
ENDBRANCH   7   8
ENDBRANCH   6   7
ENDBRANCH   5   6
ENDBRANCH   4   5
ENDBRANCH   3   4
ENDBRANCH   2   3
ENDBRANCH   1   2
BRANCH   1  13
ATOM     13  C   UNL     1      22.808  -7.268  51.122  1.00  0.00     0.000 C 
BRANCH  13  14
ATOM     14  C   UNL     1      21.388  -7.871  51.140  1.00  0.00     0.000 C 
BRANCH  14  15
ATOM     15  C   UNL     1      20.335  -7.088  50.332  1.00  0.00     0.000 C 
BRANCH  15  16
ATOM     16  C   UNL     1      20.273  -7.437  48.831  1.00  0.00     0.000 C 
BRANCH  16  17
ATOM     17  C   UNL     1      19.750  -6.306  47.922  1.00  0.00     0.000 C 
BRANCH  17  18
ATOM     18  C   UNL     1      20.089  -6.466  46.427  1.00  0.00     0.000 C 
BRANCH  18  19
ATOM     19  C   UNL     1      18.947  -7.027  45.556  1.00  0.00     0.000 C 
BRANCH  19  20
ATOM     20  C   UNL     1      19.382  -8.056  44.492  1.00  0.00     0.006 C 
BRANCH  20  21
ATOM     21  C   UNL     1      20.738  -8.723  44.770  1.00  0.00     0.053 C 
BRANCH  21  22
ATOM     22  C   UNL     1      21.702  -8.527  43.642  1.00  0.00     0.041 C 
ATOM     23  O   UNL     1      22.140  -9.520  43.004  1.00  0.00    -0.550 OA
ATOM     24  O   UNL     1      22.138  -7.250  43.312  1.00  0.00    -0.550 OA
ENDBRANCH  21  22
ENDBRANCH  20  21
ENDBRANCH  19  20
ENDBRANCH  18  19
ENDBRANCH  17  18
ENDBRANCH  16  17
ENDBRANCH  15  16
ENDBRANCH  14  15
ENDBRANCH  13  14
ENDBRANCH   1  13
TORSDOF 20
ENDMDL
MODEL 6
REMARK VINA RESULT:    -4.149      1.898      5.030
REMARK INTER + INTRA:         -12.862
REMARK INTER:                  -9.604
REMARK INTRA:                  -3.258
REMARK UNBOUND:                -3.863
REMARK SMILES CCCCCCCCCCCCCCCCCCCCCC(=O)[O-]
REMARK SMILES IDX 12 1 11 2 10 3 9 4 8 5 7 6 6 7 5 8 4 9 3 10 2 11 1 12 13 13
REMARK SMILES IDX 14 14 15 15 16 16 17 17 18 18 19 19 20 20 21 21 22 22 23 23
REMARK SMILES IDX 24 24
REMARK H PARENT
REMARK Flexibility Score: inf
ROOT
ATOM      1  C   UNL     1      20.454  -7.134  50.256  1.00  0.00     0.000 C 
ENDROOT
BRANCH   1   2
ATOM      2  C   UNL     1      21.506  -7.901  51.070  1.00  0.00     0.000 C 
BRANCH   2   3
ATOM      3  C   UNL     1      22.796  -7.078  51.206  1.00  0.00     0.000 C 
BRANCH   3   4
ATOM      4  C   UNL     1      22.529  -5.569  51.319  1.00  0.00    -0.000 C 
BRANCH   4   5
ATOM      5  C   UNL     1      23.706  -4.722  50.815  1.00  0.00    -0.000 C 
BRANCH   5   6
ATOM      6  C   UNL     1      23.308  -3.245  50.692  1.00  0.00    -0.000 C 
BRANCH   6   7
ATOM      7  C   UNL     1      24.423  -2.384  50.060  1.00  0.00    -0.000 C 
BRANCH   7   8
ATOM      8  C   UNL     1      23.914  -1.396  48.992  1.00  0.00    -0.000 C 
BRANCH   8   9
ATOM      9  C   UNL     1      22.564  -1.767  48.350  1.00  0.00    -0.000 C 
BRANCH   9  10
ATOM     10  C   UNL     1      22.564  -1.797  46.811  1.00  0.00    -0.000 C 
BRANCH  10  11
ATOM     11  C   UNL     1      23.813  -2.474  46.226  1.00  0.00    -0.003 C 
ATOM     12  C   UNL     1      24.518  -1.559  45.229  1.00  0.00     0.004 C 
ENDBRANCH  10  11
ENDBRANCH   9  10
ENDBRANCH   8   9
ENDBRANCH   7   8
ENDBRANCH   6   7
ENDBRANCH   5   6
ENDBRANCH   4   5
ENDBRANCH   3   4
ENDBRANCH   2   3
ENDBRANCH   1   2
BRANCH   1  13
ATOM     13  C   UNL     1      20.507  -7.459  48.752  1.00  0.00     0.000 C 
BRANCH  13  14
ATOM     14  C   UNL     1      20.147  -6.285  47.819  1.00  0.00     0.000 C 
BRANCH  14  15
ATOM     15  C   UNL     1      21.261  -5.237  47.625  1.00  0.00     0.000 C 
BRANCH  15  16
ATOM     16  C   UNL     1      22.677  -5.818  47.439  1.00  0.00     0.000 C 
BRANCH  16  17
ATOM     17  C   UNL     1      22.951  -6.430  46.050  1.00  0.00     0.000 C 
BRANCH  17  18
ATOM     18  C   UNL     1      22.260  -5.709  44.876  1.00  0.00     0.000 C 
BRANCH  18  19
ATOM     19  C   UNL     1      21.527  -6.633  43.883  1.00  0.00     0.000 C 
BRANCH  19  20
ATOM     20  C   UNL     1      20.934  -7.917  44.499  1.00  0.00     0.006 C 
BRANCH  20  21
ATOM     21  C   UNL     1      19.562  -8.317  43.934  1.00  0.00     0.053 C 
BRANCH  21  22
ATOM     22  C   UNL     1      18.501  -7.319  44.279  1.00  0.00     0.041 C 
ATOM     23  O   UNL     1      17.957  -7.340  45.415  1.00  0.00    -0.550 OA
ATOM     24  O   UNL     1      18.092  -6.383  43.337  1.00  0.00    -0.550 OA
ENDBRANCH  21  22
ENDBRANCH  20  21
ENDBRANCH  19  20
ENDBRANCH  18  19
ENDBRANCH  17  18
ENDBRANCH  16  17
ENDBRANCH  15  16
ENDBRANCH  14  15
ENDBRANCH  13  14
ENDBRANCH   1  13
TORSDOF 20
ENDMDL
MODEL 7
REMARK VINA RESULT:    -4.139      1.679      4.792
REMARK INTER + INTRA:         -12.842
REMARK INTER:                  -9.798
REMARK INTRA:                  -3.044
REMARK UNBOUND:                -3.863
REMARK SMILES CCCCCCCCCCCCCCCCCCCCCC(=O)[O-]
REMARK SMILES IDX 12 1 11 2 10 3 9 4 8 5 7 6 6 7 5 8 4 9 3 10 2 11 1 12 13 13
REMARK SMILES IDX 14 14 15 15 16 16 17 17 18 18 19 19 20 20 21 21 22 22 23 23
REMARK SMILES IDX 24 24
REMARK H PARENT
REMARK Flexibility Score: inf
ROOT
ATOM      1  C   UNL     1      23.313  -6.603  51.107  1.00  0.00     0.000 C 
ENDROOT
BRANCH   1   2
ATOM      2  C   UNL     1      22.151  -7.606  51.147  1.00  0.00     0.000 C 
BRANCH   2   3
ATOM      3  C   UNL     1      20.838  -6.938  50.711  1.00  0.00     0.000 C 
BRANCH   3   4
ATOM      4  C   UNL     1      20.249  -7.563  49.436  1.00  0.00    -0.000 C 
BRANCH   4   5
ATOM      5  C   UNL     1      19.859  -6.509  48.390  1.00  0.00    -0.000 C 
BRANCH   5   6
ATOM      6  C   UNL     1      20.605  -6.746  47.069  1.00  0.00    -0.000 C 
BRANCH   6   7
ATOM      7  C   UNL     1      21.676  -7.852  47.186  1.00  0.00    -0.000 C 
BRANCH   7   8
ATOM      8  C   UNL     1      22.535  -8.022  45.919  1.00  0.00    -0.000 C 
BRANCH   8   9
ATOM      9  C   UNL     1      22.178  -7.076  44.757  1.00  0.00    -0.000 C 
BRANCH   9  10
ATOM     10  C   UNL     1      21.715  -7.779  43.468  1.00  0.00    -0.000 C 
BRANCH  10  11
ATOM     11  C   UNL     1      20.323  -8.414  43.600  1.00  0.00    -0.003 C 
ATOM     12  C   UNL     1      20.351  -9.888  43.208  1.00  0.00     0.004 C 
ENDBRANCH  10  11
ENDBRANCH   9  10
ENDBRANCH   8   9
ENDBRANCH   7   8
ENDBRANCH   6   7
ENDBRANCH   5   6
ENDBRANCH   4   5
ENDBRANCH   3   4
ENDBRANCH   2   3
ENDBRANCH   1   2
BRANCH   1  13
ATOM     13  C   UNL     1      22.838  -5.138  51.107  1.00  0.00     0.000 C 
BRANCH  13  14
ATOM     14  C   UNL     1      23.505  -4.238  50.048  1.00  0.00     0.000 C 
BRANCH  14  15
ATOM     15  C   UNL     1      23.098  -4.531  48.590  1.00  0.00     0.000 C 
BRANCH  15  16
ATOM     16  C   UNL     1      22.633  -3.302  47.783  1.00  0.00     0.000 C 
BRANCH  16  17
ATOM     17  C   UNL     1      23.701  -2.693  46.853  1.00  0.00     0.000 C 
BRANCH  17  18
ATOM     18  C   UNL     1      23.205  -2.343  45.436  1.00  0.00     0.000 C 
BRANCH  18  19
ATOM     19  C   UNL     1      21.688  -2.513  45.215  1.00  0.00     0.000 C 
BRANCH  19  20
ATOM     20  C   UNL     1      21.283  -3.730  44.359  1.00  0.00     0.006 C 
BRANCH  20  21
ATOM     21  C   UNL     1      19.823  -4.175  44.539  1.00  0.00     0.053 C 
BRANCH  21  22
ATOM     22  C   UNL     1      19.170  -4.499  43.232  1.00  0.00     0.041 C 
ATOM     23  O   UNL     1      17.914  -4.503  43.135  1.00  0.00    -0.550 OA
ATOM     24  O   UNL     1      19.946  -4.823  42.126  1.00  0.00    -0.550 OA
ENDBRANCH  21  22
ENDBRANCH  20  21
ENDBRANCH  19  20
ENDBRANCH  18  19
ENDBRANCH  17  18
ENDBRANCH  16  17
ENDBRANCH  15  16
ENDBRANCH  14  15
ENDBRANCH  13  14
ENDBRANCH   1  13
TORSDOF 20
ENDMDL
MODEL 8
REMARK VINA RESULT:    -4.128      2.351      5.338
REMARK INTER + INTRA:         -12.816
REMARK INTER:                  -8.771
REMARK INTRA:                  -4.045
REMARK UNBOUND:                -3.863
REMARK SMILES CCCCCCCCCCCCCCCCCCCCCC(=O)[O-]
REMARK SMILES IDX 12 1 11 2 10 3 9 4 8 5 7 6 6 7 5 8 4 9 3 10 2 11 1 12 13 13
REMARK SMILES IDX 14 14 15 15 16 16 17 17 18 18 19 19 20 20 21 21 22 22 23 23
REMARK SMILES IDX 24 24
REMARK H PARENT
REMARK Flexibility Score: inf
ROOT
ATOM      1  C   UNL     1      21.027  -9.756  45.058  1.00  0.00     0.000 C 
ENDROOT
BRANCH   1   2
ATOM      2  C   UNL     1      20.610  -9.167  43.703  1.00  0.00     0.000 C 
BRANCH   2   3
ATOM      3  C   UNL     1      21.651  -8.153  43.204  1.00  0.00     0.000 C 
BRANCH   3   4
ATOM      4  C   UNL     1      21.125  -6.708  43.219  1.00  0.00    -0.000 C 
BRANCH   4   5
ATOM      5  C   UNL     1      21.845  -5.830  44.252  1.00  0.00    -0.000 C 
BRANCH   5   6
ATOM      6  C   UNL     1      20.859  -5.294  45.300  1.00  0.00    -0.000 C 
BRANCH   6   7
ATOM      7  C   UNL     1      19.497  -6.020  45.252  1.00  0.00    -0.000 C 
BRANCH   7   8
ATOM      8  C   UNL     1      19.194  -6.855  46.511  1.00  0.00    -0.000 C 
BRANCH   8   9
ATOM      9  C   UNL     1      19.888  -6.371  47.798  1.00  0.00    -0.000 C 
BRANCH   9  10
ATOM     10  C   UNL     1      20.273  -7.487  48.787  1.00  0.00    -0.000 C 
BRANCH  10  11
ATOM     11  C   UNL     1      20.304  -7.007  50.246  1.00  0.00    -0.003 C 
ATOM     12  C   UNL     1      21.569  -7.483  50.953  1.00  0.00     0.004 C 
ENDBRANCH  10  11
ENDBRANCH   9  10
ENDBRANCH   8   9
ENDBRANCH   7   8
ENDBRANCH   6   7
ENDBRANCH   5   6
ENDBRANCH   4   5
ENDBRANCH   3   4
ENDBRANCH   2   3
ENDBRANCH   1   2
BRANCH   1  13
ATOM     13  C   UNL     1      22.499  -9.471  45.406  1.00  0.00     0.000 C 
BRANCH  13  14
ATOM     14  C   UNL     1      22.723  -8.753  46.752  1.00  0.00     0.000 C 
BRANCH  14  15
ATOM     15  C   UNL     1      23.611  -7.495  46.684  1.00  0.00     0.000 C 
BRANCH  15  16
ATOM     16  C   UNL     1      23.690  -6.681  47.991  1.00  0.00     0.000 C 
BRANCH  16  17
ATOM     17  C   UNL     1      23.923  -5.168  47.801  1.00  0.00     0.000 C 
BRANCH  17  18
ATOM     18  C   UNL     1      22.812  -4.264  48.371  1.00  0.00     0.000 C 
BRANCH  18  19
ATOM     19  C   UNL     1      22.534  -2.982  47.560  1.00  0.00     0.000 C 
BRANCH  19  20
ATOM     20  C   UNL     1      23.741  -2.035  47.399  1.00  0.00     0.006 C 
BRANCH  20  21
ATOM     21  C   UNL     1      23.874  -1.409  46.002  1.00  0.00     0.053 C 
BRANCH  21  22
ATOM     22  C   UNL     1      23.469  -2.361  44.919  1.00  0.00     0.041 C 
ATOM     23  O   UNL     1      24.242  -3.293  44.574  1.00  0.00    -0.550 OA
ATOM     24  O   UNL     1      22.249  -2.203  44.274  1.00  0.00    -0.550 OA
ENDBRANCH  21  22
ENDBRANCH  20  21
ENDBRANCH  19  20
ENDBRANCH  18  19
ENDBRANCH  17  18
ENDBRANCH  16  17
ENDBRANCH  15  16
ENDBRANCH  14  15
ENDBRANCH  13  14
ENDBRANCH   1  13
TORSDOF 20
ENDMDL
MODEL 9
REMARK VINA RESULT:    -4.118      2.711      6.591
REMARK INTER + INTRA:         -12.796
REMARK INTER:                  -9.484
REMARK INTRA:                  -3.312
REMARK UNBOUND:                -3.863
REMARK SMILES CCCCCCCCCCCCCCCCCCCCCC(=O)[O-]
REMARK SMILES IDX 12 1 11 2 10 3 9 4 8 5 7 6 6 7 5 8 4 9 3 10 2 11 1 12 13 13
REMARK SMILES IDX 14 14 15 15 16 16 17 17 18 18 19 19 20 20 21 21 22 22 23 23
REMARK SMILES IDX 24 24
REMARK H PARENT
REMARK Flexibility Score: inf
ROOT
ATOM      1  C   UNL     1      21.286  -7.458  47.923  1.00  0.00     0.000 C 
ENDROOT
BRANCH   1   2
ATOM      2  C   UNL     1      21.656  -6.310  46.974  1.00  0.00     0.000 C 
BRANCH   2   3
ATOM      3  C   UNL     1      20.520  -5.279  46.894  1.00  0.00     0.000 C 
BRANCH   3   4
ATOM      4  C   UNL     1      20.843  -4.111  45.948  1.00  0.00    -0.000 C 
BRANCH   4   5
ATOM      5  C   UNL     1      19.942  -4.094  44.705  1.00  0.00    -0.000 C 
BRANCH   5   6
ATOM      6  C   UNL     1      20.612  -4.823  43.531  1.00  0.00    -0.000 C 
BRANCH   6   7
ATOM      7  C   UNL     1      19.699  -5.902  42.910  1.00  0.00    -0.000 C 
BRANCH   7   8
ATOM      8  C   UNL     1      18.654  -6.470  43.888  1.00  0.00    -0.000 C 
BRANCH   8   9
ATOM      9  C   UNL     1      19.097  -7.727  44.660  1.00  0.00    -0.000 C 
BRANCH   9  10
ATOM     10  C   UNL     1      19.880  -8.758  43.826  1.00  0.00    -0.000 C 
BRANCH  10  11
ATOM     11  C   UNL     1      21.340  -8.907  44.277  1.00  0.00    -0.003 C 
ATOM     12  C   UNL     1      22.150  -9.708  43.262  1.00  0.00     0.004 C 
ENDBRANCH  10  11
ENDBRANCH   9  10
ENDBRANCH   8   9
ENDBRANCH   7   8
ENDBRANCH   6   7
ENDBRANCH   5   6
ENDBRANCH   4   5
ENDBRANCH   3   4
ENDBRANCH   2   3
ENDBRANCH   1   2
BRANCH   1  13
ATOM     13  C   UNL     1      20.105  -7.112  48.848  1.00  0.00     0.000 C 
BRANCH  13  14
ATOM     14  C   UNL     1      20.428  -7.144  50.356  1.00  0.00     0.000 C 
BRANCH  14  15
ATOM     15  C   UNL     1      21.927  -7.236  50.702  1.00  0.00     0.000 C 
BRANCH  15  16
ATOM     16  C   UNL     1      22.587  -5.901  51.102  1.00  0.00     0.000 C 
BRANCH  16  17
ATOM     17  C   UNL     1      24.004  -5.681  50.534  1.00  0.00     0.000 C 
BRANCH  17  18
ATOM     18  C   UNL     1      24.198  -4.356  49.770  1.00  0.00     0.000 C 
BRANCH  18  19
ATOM     19  C   UNL     1      22.897  -3.678  49.297  1.00  0.00     0.000 C 
BRANCH  19  20
ATOM     20  C   UNL     1      23.093  -2.408  48.444  1.00  0.00     0.006 C 
BRANCH  20  21
ATOM     21  C   UNL     1      23.969  -2.610  47.197  1.00  0.00     0.053 C 
BRANCH  21  22
ATOM     22  C   UNL     1      23.756  -1.530  46.182  1.00  0.00     0.041 C 
ATOM     23  O   UNL     1      24.737  -1.048  45.556  1.00  0.00    -0.550 OA
ATOM     24  O   UNL     1      22.479  -1.038  45.945  1.00  0.00    -0.550 OA
ENDBRANCH  21  22
ENDBRANCH  20  21
ENDBRANCH  19  20
ENDBRANCH  18  19
ENDBRANCH  17  18
ENDBRANCH  16  17
ENDBRANCH  15  16
ENDBRANCH  14  15
ENDBRANCH  13  14
ENDBRANCH   1  13
TORSDOF 20
ENDMDL
