MODEL 1
REMARK VINA RESULT:    -3.997      0.000      0.000
REMARK INTER + INTRA:          -7.754
REMARK INTER:                  -6.100
REMARK INTRA:                  -1.654
REMARK UNBOUND:                -1.654
REMARK SMILES CCCCCCCCCC=CC(=O)[O-]
REMARK SMILES IDX 7 1 8 2 9 3 10 4 11 5 12 6 13 7 14 8 6 9 5 10 4 11 3 12 2 13
REMARK SMILES IDX 1 14
REMARK H PARENT
REMARK Flexibility Score: inf
ROOT
ATOM      1  C   UNL     1      22.710  25.112  22.062  1.00  0.00     0.000 C 
ENDROOT
BRANCH   1   2
ATOM      2  C   UNL     1      22.629  23.846  22.927  1.00  0.00     0.004 C 
BRANCH   2   3
ATOM      3  C   UNL     1      22.005  24.156  24.294  1.00  0.00     0.027 C 
BRANCH   3   4
ATOM      4  C   UNL     1      20.522  23.900  24.289  1.00  0.00    -0.025 C 
ATOM      5  C   UNL     1      19.560  24.835  24.227  1.00  0.00     0.020 C 
BRANCH   5   6
ATOM      6  C   UNL     1      19.755  26.300  24.194  1.00  0.00     0.064 C 
ATOM      7  O   UNL     1      19.887  26.871  23.081  1.00  0.00    -0.545 OA
ATOM      8  O   UNL     1      19.769  27.073  25.348  1.00  0.00    -0.545 OA
ENDBRANCH   5   6
ENDBRANCH   3   4
ENDBRANCH   2   3
ENDBRANCH   1   2
BRANCH   1   9
ATOM      9  C   UNL     1      22.354  24.849  20.591  1.00  0.00     0.000 C 
BRANCH   9  10
ATOM     10  C   UNL     1      20.838  24.836  20.342  1.00  0.00     0.000 C 
BRANCH  10  11
ATOM     11  C   UNL     1      20.386  23.484  19.777  1.00  0.00    -0.000 C 
BRANCH  11  12
ATOM     12  C   UNL     1      19.639  22.666  20.837  1.00  0.00    -0.000 C 
BRANCH  12  13
ATOM     13  C   UNL     1      20.410  21.392  21.195  1.00  0.00    -0.003 C 
ATOM     14  C   UNL     1      21.620  21.204  20.285  1.00  0.00     0.004 C 
ENDBRANCH  12  13
ENDBRANCH  11  12
ENDBRANCH  10  11
ENDBRANCH   9  10
ENDBRANCH   1   9
TORSDOF 9
ENDMDL
MODEL 2
REMARK VINA RESULT:    -3.865      1.339      3.161
REMARK INTER + INTRA:          -7.553
REMARK INTER:                  -5.864
REMARK INTRA:                  -1.689
REMARK UNBOUND:                -1.654
REMARK SMILES CCCCCCCCCC=CC(=O)[O-]
REMARK SMILES IDX 7 1 8 2 9 3 10 4 11 5 12 6 13 7 14 8 6 9 5 10 4 11 3 12 2 13
REMARK SMILES IDX 1 14
REMARK H PARENT
REMARK Flexibility Score: inf
ROOT
ATOM      1  C   UNL     1      19.293  23.034  20.972  1.00  0.00     0.000 C 
ENDROOT
BRANCH   1   2
ATOM      2  C   UNL     1      19.196  23.019  22.505  1.00  0.00     0.004 C 
BRANCH   2   3
ATOM      3  C   UNL     1      18.387  24.220  23.014  1.00  0.00     0.027 C 
BRANCH   3   4
ATOM      4  C   UNL     1      18.952  25.516  22.498  1.00  0.00    -0.025 C 
ATOM      5  C   UNL     1      19.266  26.591  23.240  1.00  0.00     0.020 C 
BRANCH   5   6
ATOM      6  C   UNL     1      19.088  26.738  24.700  1.00  0.00     0.064 C 
ATOM      7  O   UNL     1      20.065  26.509  25.458  1.00  0.00    -0.545 OA
ATOM      8  O   UNL     1      17.885  27.146  25.263  1.00  0.00    -0.545 OA
ENDBRANCH   5   6
ENDBRANCH   3   4
ENDBRANCH   2   3
ENDBRANCH   1   2
BRANCH   1   9
ATOM      9  C   UNL     1      20.743  22.963  20.469  1.00  0.00     0.000 C 
BRANCH   9  10
ATOM     10  C   UNL     1      21.193  24.257  19.773  1.00  0.00     0.000 C 
BRANCH  10  11
ATOM     11  C   UNL     1      22.292  24.959  20.579  1.00  0.00    -0.000 C 
BRANCH  11  12
ATOM     12  C   UNL     1      22.665  24.148  21.826  1.00  0.00    -0.000 C 
BRANCH  12  13
ATOM     13  C   UNL     1      22.569  25.007  23.091  1.00  0.00    -0.003 C 
ATOM     14  C   UNL     1      22.342  24.145  24.329  1.00  0.00     0.004 C 
ENDBRANCH  12  13
ENDBRANCH  11  12
ENDBRANCH  10  11
ENDBRANCH   9  10
ENDBRANCH   1   9
TORSDOF 9
ENDMDL
MODEL 3
REMARK VINA RESULT:    -3.790      1.412      2.343
REMARK INTER + INTRA:          -7.439
REMARK INTER:                  -5.949
REMARK INTRA:                  -1.489
REMARK UNBOUND:                -1.654
REMARK SMILES CCCCCCCCCC=CC(=O)[O-]
REMARK SMILES IDX 7 1 8 2 9 3 10 4 11 5 12 6 13 7 14 8 6 9 5 10 4 11 3 12 2 13
REMARK SMILES IDX 1 14
REMARK H PARENT
REMARK Flexibility Score: inf
ROOT
ATOM      1  C   UNL     1      22.607  25.298  22.525  1.00  0.00     0.000 C 
ENDROOT
BRANCH   1   2
ATOM      2  C   UNL     1      21.767  25.947  21.415  1.00  0.00     0.004 C 
BRANCH   2   3
ATOM      3  C   UNL     1      20.791  26.977  21.999  1.00  0.00     0.027 C 
BRANCH   3   4
ATOM      4  C   UNL     1      19.477  26.339  22.362  1.00  0.00    -0.025 C 
ATOM      5  C   UNL     1      19.013  26.140  23.606  1.00  0.00     0.020 C 
BRANCH   5   6
ATOM      6  C   UNL     1      19.708  26.467  24.869  1.00  0.00     0.064 C 
ATOM      7  O   UNL     1      20.700  25.774  25.215  1.00  0.00    -0.545 OA
ATOM      8  O   UNL     1      19.322  27.531  25.675  1.00  0.00    -0.545 OA
ENDBRANCH   5   6
ENDBRANCH   3   4
ENDBRANCH   2   3
ENDBRANCH   1   2
BRANCH   1   9
ATOM      9  C   UNL     1      22.297  23.805  22.707  1.00  0.00     0.000 C 
BRANCH   9  10
ATOM     10  C   UNL     1      22.777  22.952  21.522  1.00  0.00     0.000 C 
BRANCH  10  11
ATOM     11  C   UNL     1      21.588  22.375  20.744  1.00  0.00    -0.000 C 
BRANCH  11  12
ATOM     12  C   UNL     1      20.309  22.405  21.589  1.00  0.00    -0.000 C 
BRANCH  12  13
ATOM     13  C   UNL     1      19.147  23.026  20.807  1.00  0.00    -0.003 C 
ATOM     14  C   UNL     1      19.625  23.625  19.488  1.00  0.00     0.004 C 
ENDBRANCH  12  13
ENDBRANCH  11  12
ENDBRANCH  10  11
ENDBRANCH   9  10
ENDBRANCH   1   9
TORSDOF 9
ENDMDL
MODEL 4
REMARK VINA RESULT:    -3.684     10.674     12.377
REMARK INTER + INTRA:          -7.277
REMARK INTER:                  -6.392
REMARK INTRA:                  -0.885
REMARK UNBOUND:                -1.654
REMARK SMILES CCCCCCCCCC=CC(=O)[O-]
REMARK SMILES IDX 7 1 8 2 9 3 10 4 11 5 12 6 13 7 14 8 6 9 5 10 4 11 3 12 2 13
REMARK SMILES IDX 1 14
REMARK H PARENT
REMARK Flexibility Score: inf
ROOT
ATOM      1  C   UNL     1      27.081  34.573  20.623  1.00  0.00     0.000 C 
ENDROOT
BRANCH   1   2
ATOM      2  C   UNL     1      28.370  35.371  20.871  1.00  0.00     0.004 C 
BRANCH   2   3
ATOM      3  C   UNL     1      28.968  35.032  22.243  1.00  0.00     0.027 C 
BRANCH   3   4
ATOM      4  C   UNL     1      30.458  35.239  22.255  1.00  0.00    -0.025 C 
ATOM      5  C   UNL     1      31.385  34.324  21.925  1.00  0.00     0.020 C 
BRANCH   5   6
ATOM      6  C   UNL     1      31.137  32.923  21.524  1.00  0.00     0.064 C 
ATOM      7  O   UNL     1      31.347  32.005  22.358  1.00  0.00    -0.545 OA
ATOM      8  O   UNL     1      30.654  32.586  20.266  1.00  0.00    -0.545 OA
ENDBRANCH   5   6
ENDBRANCH   3   4
ENDBRANCH   2   3
ENDBRANCH   1   2
BRANCH   1   9
ATOM      9  C   UNL     1      27.242  33.077  20.932  1.00  0.00     0.000 C 
BRANCH   9  10
ATOM     10  C   UNL     1      26.564  32.179  19.885  1.00  0.00     0.000 C 
BRANCH  10  11
ATOM     11  C   UNL     1      25.831  33.021  18.833  1.00  0.00    -0.000 C 
BRANCH  11  12
ATOM     12  C   UNL     1      24.345  32.649  18.766  1.00  0.00    -0.000 C 
BRANCH  12  13
ATOM     13  C   UNL     1      23.532  33.442  19.794  1.00  0.00    -0.003 C 
ATOM     14  C   UNL     1      22.468  32.567  20.451  1.00  0.00     0.004 C 
ENDBRANCH  12  13
ENDBRANCH  11  12
ENDBRANCH  10  11
ENDBRANCH   9  10
ENDBRANCH   1   9
TORSDOF 9
ENDMDL
MODEL 5
REMARK VINA RESULT:    -3.575     11.213     12.976
REMARK INTER + INTRA:          -7.110
REMARK INTER:                  -5.971
REMARK INTRA:                  -1.139
REMARK UNBOUND:                -1.654
REMARK SMILES CCCCCCCCCC=CC(=O)[O-]
REMARK SMILES IDX 7 1 8 2 9 3 10 4 11 5 12 6 13 7 14 8 6 9 5 10 4 11 3 12 2 13
REMARK SMILES IDX 1 14
REMARK H PARENT
REMARK Flexibility Score: inf
ROOT
ATOM      1  C   UNL     1      28.370  35.136  22.363  1.00  0.00     0.000 C 
ENDROOT
BRANCH   1   2
ATOM      2  C   UNL     1      29.408  35.946  21.572  1.00  0.00     0.004 C 
BRANCH   2   3
ATOM      3  C   UNL     1      30.834  35.578  22.004  1.00  0.00     0.027 C 
BRANCH   3   4
ATOM      4  C   UNL     1      31.574  34.872  20.901  1.00  0.00    -0.025 C 
ATOM      5  C   UNL     1      31.626  33.543  20.710  1.00  0.00     0.020 C 
BRANCH   5   6
ATOM      6  C   UNL     1      31.005  32.505  21.559  1.00  0.00     0.064 C 
ATOM      7  O   UNL     1      29.815  32.165  21.333  1.00  0.00    -0.545 OA
ATOM      8  O   UNL     1      31.699  31.871  22.582  1.00  0.00    -0.545 OA
ENDBRANCH   5   6
ENDBRANCH   3   4
ENDBRANCH   2   3
ENDBRANCH   1   2
BRANCH   1   9
ATOM      9  C   UNL     1      27.279  34.532  21.465  1.00  0.00     0.000 C 
BRANCH   9  10
ATOM     10  C   UNL     1      27.612  34.650  19.969  1.00  0.00     0.000 C 
BRANCH  10  11
ATOM     11  C   UNL     1      27.216  33.374  19.217  1.00  0.00    -0.000 C 
BRANCH  11  12
ATOM     12  C   UNL     1      26.083  32.636  19.940  1.00  0.00    -0.000 C 
BRANCH  12  13
ATOM     13  C   UNL     1      24.768  32.748  19.162  1.00  0.00    -0.003 C 
ATOM     14  C   UNL     1      23.701  33.469  19.980  1.00  0.00     0.004 C 
ENDBRANCH  12  13
ENDBRANCH  11  12
ENDBRANCH  10  11
ENDBRANCH   9  10
ENDBRANCH   1   9
TORSDOF 9
ENDMDL
MODEL 6
REMARK VINA RESULT:    -3.513      1.836      4.478
REMARK INTER + INTRA:          -7.015
REMARK INTER:                  -5.587
REMARK INTRA:                  -1.429
REMARK UNBOUND:                -1.654
REMARK SMILES CCCCCCCCCC=CC(=O)[O-]
REMARK SMILES IDX 7 1 8 2 9 3 10 4 11 5 12 6 13 7 14 8 6 9 5 10 4 11 3 12 2 13
REMARK SMILES IDX 1 14
REMARK H PARENT
REMARK Flexibility Score: inf
ROOT
ATOM      1  C   UNL     1      22.738  24.572  21.402  1.00  0.00     0.000 C 
ENDROOT
BRANCH   1   2
ATOM      2  C   UNL     1      22.651  23.048  21.570  1.00  0.00     0.004 C 
BRANCH   2   3
ATOM      3  C   UNL     1      21.428  22.485  20.835  1.00  0.00     0.027 C 
BRANCH   3   4
ATOM      4  C   UNL     1      20.177  22.642  21.657  1.00  0.00    -0.025 C 
ATOM      5  C   UNL     1      19.213  23.556  21.461  1.00  0.00     0.020 C 
BRANCH   5   6
ATOM      6  C   UNL     1      19.199  24.616  20.430  1.00  0.00     0.064 C 
ATOM      7  O   UNL     1      19.468  25.797  20.770  1.00  0.00    -0.545 OA
ATOM      8  O   UNL     1      18.927  24.349  19.095  1.00  0.00    -0.545 OA
ENDBRANCH   5   6
ENDBRANCH   3   4
ENDBRANCH   2   3
ENDBRANCH   1   2
BRANCH   1   9
ATOM      9  C   UNL     1      22.752  25.317  22.746  1.00  0.00     0.000 C 
BRANCH   9  10
ATOM     10  C   UNL     1      22.622  24.370  23.949  1.00  0.00     0.000 C 
BRANCH  10  11
ATOM     11  C   UNL     1      21.264  24.546  24.641  1.00  0.00    -0.000 C 
BRANCH  11  12
ATOM     12  C   UNL     1      20.541  25.796  24.126  1.00  0.00    -0.000 C 
BRANCH  12  13
ATOM     13  C   UNL     1      19.135  25.905  24.723  1.00  0.00    -0.003 C 
ATOM     14  C   UNL     1      19.071  26.991  25.794  1.00  0.00     0.004 C 
ENDBRANCH  12  13
ENDBRANCH  11  12
ENDBRANCH  10  11
ENDBRANCH   9  10
ENDBRANCH   1   9
TORSDOF 9
ENDMDL
MODEL 7
REMARK VINA RESULT:    -3.453      1.748      3.866
REMARK INTER + INTRA:          -6.924
REMARK INTER:                  -5.361
REMARK INTRA:                  -1.562
REMARK UNBOUND:                -1.654
REMARK SMILES CCCCCCCCCC=CC(=O)[O-]
REMARK SMILES IDX 7 1 8 2 9 3 10 4 11 5 12 6 13 7 14 8 6 9 5 10 4 11 3 12 2 13
REMARK SMILES IDX 1 14
REMARK H PARENT
REMARK Flexibility Score: inf
ROOT
ATOM      1  C   UNL     1      21.050  22.826  20.961  1.00  0.00     0.000 C 
ENDROOT
BRANCH   1   2
ATOM      2  C   UNL     1      20.903  23.496  19.587  1.00  0.00     0.004 C 
BRANCH   2   3
ATOM      3  C   UNL     1      19.643  24.370  19.536  1.00  0.00     0.027 C 
BRANCH   3   4
ATOM      4  C   UNL     1      19.132  24.672  20.919  1.00  0.00    -0.025 C 
ATOM      5  C   UNL     1      19.104  25.881  21.504  1.00  0.00     0.020 C 
BRANCH   5   6
ATOM      6  C   UNL     1      19.603  27.149  20.932  1.00  0.00     0.064 C 
ATOM      7  O   UNL     1      18.881  27.771  20.111  1.00  0.00    -0.545 OA
ATOM      8  O   UNL     1      20.830  27.692  21.291  1.00  0.00    -0.545 OA
ENDBRANCH   5   6
ENDBRANCH   3   4
ENDBRANCH   2   3
ENDBRANCH   1   2
BRANCH   1   9
ATOM      9  C   UNL     1      22.399  23.134  21.629  1.00  0.00     0.000 C 
BRANCH   9  10
ATOM     10  C   UNL     1      22.753  24.629  21.586  1.00  0.00     0.000 C 
BRANCH  10  11
ATOM     11  C   UNL     1      22.737  25.237  22.994  1.00  0.00    -0.000 C 
BRANCH  11  12
ATOM     12  C   UNL     1      22.181  24.241  24.018  1.00  0.00    -0.000 C 
BRANCH  12  13
ATOM     13  C   UNL     1      20.795  24.671  24.509  1.00  0.00    -0.003 C 
ATOM     14  C   UNL     1      19.793  23.525  24.410  1.00  0.00     0.004 C 
ENDBRANCH  12  13
ENDBRANCH  11  12
ENDBRANCH  10  11
ENDBRANCH   9  10
ENDBRANCH   1   9
TORSDOF 9
ENDMDL
MODEL 8
REMARK VINA RESULT:    -3.450      2.737      4.935
REMARK INTER + INTRA:          -6.920
REMARK INTER:                  -5.124
REMARK INTRA:                  -1.796
REMARK UNBOUND:                -1.654
REMARK SMILES CCCCCCCCCC=CC(=O)[O-]
REMARK SMILES IDX 7 1 8 2 9 3 10 4 11 5 12 6 13 7 14 8 6 9 5 10 4 11 3 12 2 13
REMARK SMILES IDX 1 14
REMARK H PARENT
REMARK Flexibility Score: inf
ROOT
ATOM      1  C   UNL     1      21.959  25.063  20.812  1.00  0.00     0.000 C 
ENDROOT
BRANCH   1   2
ATOM      2  C   UNL     1      20.488  25.472  20.643  1.00  0.00     0.004 C 
BRANCH   2   3
ATOM      3  C   UNL     1      19.633  24.273  20.213  1.00  0.00     0.027 C 
BRANCH   3   4
ATOM      4  C   UNL     1      19.334  23.369  21.378  1.00  0.00    -0.025 C 
ATOM      5  C   UNL     1      19.818  22.129  21.560  1.00  0.00     0.020 C 
BRANCH   5   6
ATOM      6  C   UNL     1      20.704  21.385  20.641  1.00  0.00     0.064 C 
ATOM      7  O   UNL     1      20.187  20.641  19.767  1.00  0.00    -0.545 OA
ATOM      8  O   UNL     1      22.088  21.499  20.689  1.00  0.00    -0.545 OA
ENDBRANCH   5   6
ENDBRANCH   3   4
ENDBRANCH   2   3
ENDBRANCH   1   2
BRANCH   1   9
ATOM      9  C   UNL     1      22.483  25.310  22.235  1.00  0.00     0.000 C 
BRANCH   9  10
ATOM     10  C   UNL     1      22.667  24.009  23.032  1.00  0.00     0.000 C 
BRANCH  10  11
ATOM     11  C   UNL     1      21.756  23.988  24.265  1.00  0.00    -0.000 C 
BRANCH  11  12
ATOM     12  C   UNL     1      21.086  25.351  24.479  1.00  0.00    -0.000 C 
BRANCH  12  13
ATOM     13  C   UNL     1      19.560  25.219  24.494  1.00  0.00    -0.003 C 
ATOM     14  C   UNL     1      18.892  26.467  23.925  1.00  0.00     0.004 C 
ENDBRANCH  12  13
ENDBRANCH  11  12
ENDBRANCH  10  11
ENDBRANCH   9  10
ENDBRANCH   1   9
TORSDOF 9
ENDMDL
MODEL 9
REMARK VINA RESULT:    -3.381      1.531      2.863
REMARK INTER + INTRA:          -6.814
REMARK INTER:                  -5.290
REMARK INTRA:                  -1.524
REMARK UNBOUND:                -1.654
REMARK SMILES CCCCCCCCCC=CC(=O)[O-]
REMARK SMILES IDX 7 1 8 2 9 3 10 4 11 5 12 6 13 7 14 8 6 9 5 10 4 11 3 12 2 13
REMARK SMILES IDX 1 14
REMARK H PARENT
REMARK Flexibility Score: inf
ROOT
ATOM      1  C   UNL     1      21.632  21.392  20.861  1.00  0.00     0.000 C 
ENDROOT
BRANCH   1   2
ATOM      2  C   UNL     1      22.749  22.374  21.247  1.00  0.00     0.004 C 
BRANCH   2   3
ATOM      3  C   UNL     1      22.227  23.444  22.215  1.00  0.00     0.027 C 
BRANCH   3   4
ATOM      4  C   UNL     1      22.503  24.829  21.698  1.00  0.00    -0.025 C 
ATOM      5  C   UNL     1      21.957  25.967  22.158  1.00  0.00     0.020 C 
BRANCH   5   6
ATOM      6  C   UNL     1      20.947  26.090  23.231  1.00  0.00     0.064 C 
ATOM      7  O   UNL     1      19.790  26.484  22.935  1.00  0.00    -0.545 OA
ATOM      8  O   UNL     1      21.225  25.759  24.551  1.00  0.00    -0.545 OA
ENDBRANCH   5   6
ENDBRANCH   3   4
ENDBRANCH   2   3
ENDBRANCH   1   2
BRANCH   1   9
ATOM      9  C   UNL     1      21.468  21.248  19.341  1.00  0.00     0.000 C 
BRANCH   9  10
ATOM     10  C   UNL     1      20.179  21.903  18.819  1.00  0.00     0.000 C 
BRANCH  10  11
ATOM     11  C   UNL     1      20.399  23.394  18.532  1.00  0.00    -0.000 C 
BRANCH  11  12
ATOM     12  C   UNL     1      19.675  24.266  19.565  1.00  0.00    -0.000 C 
BRANCH  12  13
ATOM     13  C   UNL     1      18.475  23.528  20.166  1.00  0.00    -0.003 C 
ATOM     14  C   UNL     1      18.545  23.509  21.691  1.00  0.00     0.004 C 
ENDBRANCH  12  13
ENDBRANCH  11  12
ENDBRANCH  10  11
ENDBRANCH   9  10
ENDBRANCH   1   9
TORSDOF 9
ENDMDL
