MODEL 1
REMARK VINA RESULT:    -5.467      0.000      0.000
REMARK INTER + INTRA:          -7.241
REMARK INTER:                  -6.586
REMARK INTRA:                  -0.655
REMARK UNBOUND:                -0.655
REMARK SMILES O=c1ccn([C@H]2O[C@H](CO)[C@@H](O)[C@@H]2O)c(=O)[nH]1
REMARK SMILES IDX 6 1 13 2 11 3 8 4 7 5 5 6 3 7 4 8 2 9 17 10 1 11 15 12 16 14
REMARK SMILES IDX 14 15 12 17 9 19 10 20
REMARK H PARENT 17 13 14 16 12 18 10 21
REMARK Flexibility Score: inf
ROOT
ATOM      1  C   UNL     1     102.747 132.216  53.449  1.00  0.00     0.255 C 
ATOM      2  C   UNL     1     102.558 131.215  52.315  1.00  0.00     0.196 C 
ATOM      3  C   UNL     1     101.179 131.548  51.821  1.00  0.00     0.179 C 
ATOM      4  C   UNL     1     101.080 133.043  52.124  1.00  0.00     0.178 C 
ATOM      5  O   UNL     1     101.941 133.351  53.200  1.00  0.00    -0.347 OA
ENDROOT
BRANCH   1   6
ATOM      6  N   UNL     1     104.167 132.602  53.581  1.00  0.00    -0.271 N 
ATOM      7  C   UNL     1     105.997 134.009  52.926  1.00  0.00     0.090 A 
ATOM      8  C   UNL     1     104.656 133.646  52.841  1.00  0.00     0.099 A 
ATOM      9  C   UNL     1     106.833 133.282  53.765  1.00  0.00     0.253 A 
ATOM     10  N   UNL     1     106.334 132.236  54.474  1.00  0.00    -0.274 N 
ATOM     11  O   UNL     1     108.051 133.589  53.862  1.00  0.00    -0.269 OA
ATOM     12  C   UNL     1     105.022 131.886  54.384  1.00  0.00     0.330 A 
ATOM     13  H   UNL     1     106.972 131.687  55.096  1.00  0.00     0.175 HD
ATOM     14  O   UNL     1     104.603 130.895  55.045  1.00  0.00    -0.248 OA
ENDBRANCH   1   6
BRANCH   2  15
ATOM     15  O   UNL     1     102.631 129.897  52.795  1.00  0.00    -0.386 OA
ATOM     16  H   UNL     1     101.954 129.824  53.517  1.00  0.00     0.211 HD
ENDBRANCH   2  15
BRANCH   3  17
ATOM     17  O   UNL     1     101.070 131.291  50.446  1.00  0.00    -0.387 OA
ATOM     18  H   UNL     1     101.315 130.337  50.319  1.00  0.00     0.211 HD
ENDBRANCH   3  17
BRANCH   4  19
ATOM     19  C   UNL     1      99.645 133.463  52.467  1.00  0.00     0.191 C 
BRANCH  19  20
ATOM     20  O   UNL     1      98.794 133.234  51.376  1.00  0.00    -0.394 OA
ATOM     21  H   UNL     1      98.857 132.266  51.166  1.00  0.00     0.210 HD
ENDBRANCH  19  20
ENDBRANCH   4  19
TORSDOF 5
ENDMDL
MODEL 2
REMARK VINA RESULT:    -5.442      1.617      1.883
REMARK INTER + INTRA:          -7.210
REMARK INTER:                  -6.690
REMARK INTRA:                  -0.521
REMARK UNBOUND:                -0.655
REMARK SMILES O=c1ccn([C@H]2O[C@H](CO)[C@@H](O)[C@@H]2O)c(=O)[nH]1
REMARK SMILES IDX 6 1 13 2 11 3 8 4 7 5 5 6 3 7 4 8 2 9 17 10 1 11 15 12 16 14
REMARK SMILES IDX 14 15 12 17 9 19 10 20
REMARK H PARENT 17 13 14 16 12 18 10 21
REMARK Flexibility Score: inf
ROOT
ATOM      1  C   UNL     1     102.043 132.301  54.062  1.00  0.00     0.255 C 
ATOM      2  C   UNL     1     101.277 131.900  52.807  1.00  0.00     0.196 C 
ATOM      3  C   UNL     1      99.849 132.111  53.225  1.00  0.00     0.179 C 
ATOM      4  C   UNL     1      99.973 133.251  54.235  1.00  0.00     0.178 C 
ATOM      5  O   UNL     1     101.267 133.223  54.802  1.00  0.00    -0.347 OA
ENDROOT
BRANCH   1   6
ATOM      6  N   UNL     1     103.356 132.885  53.713  1.00  0.00    -0.271 N 
ATOM      7  C   UNL     1     104.650 134.443  52.426  1.00  0.00     0.090 A 
ATOM      8  C   UNL     1     103.423 133.897  52.792  1.00  0.00     0.099 A 
ATOM      9  C   UNL     1     105.807 133.929  53.002  1.00  0.00     0.253 A 
ATOM     10  N   UNL     1     105.721 132.911  53.897  1.00  0.00    -0.274 N 
ATOM     11  O   UNL     1     106.931 134.405  52.689  1.00  0.00    -0.269 OA
ATOM     12  C   UNL     1     104.517 132.382  54.248  1.00  0.00     0.330 A 
ATOM     13  H   UNL     1     106.597 132.523  54.318  1.00  0.00     0.175 HD
ATOM     14  O   UNL     1     104.483 131.423  55.069  1.00  0.00    -0.248 OA
ENDBRANCH   1   6
BRANCH   2  15
ATOM     15  O   UNL     1     101.526 130.558  52.478  1.00  0.00    -0.386 OA
ATOM     16  H   UNL     1     100.808 130.025  52.911  1.00  0.00     0.211 HD
ENDBRANCH   2  15
BRANCH   3  17
ATOM     17  O   UNL     1      99.061 132.480  52.124  1.00  0.00    -0.387 OA
ATOM     18  H   UNL     1      98.116 132.385  52.413  1.00  0.00     0.211 HD
ENDBRANCH   3  17
BRANCH   4  19
ATOM     19  C   UNL     1      98.917 133.150  55.343  1.00  0.00     0.191 C 
BRANCH  19  20
ATOM     20  O   UNL     1      97.649 133.475  54.841  1.00  0.00    -0.394 OA
ATOM     21  H   UNL     1      96.992 132.954  55.373  1.00  0.00     0.210 HD
ENDBRANCH  19  20
ENDBRANCH   4  19
TORSDOF 5
ENDMDL
MODEL 3
REMARK VINA RESULT:    -5.435      2.911      3.879
REMARK INTER + INTRA:          -7.202
REMARK INTER:                  -6.606
REMARK INTRA:                  -0.597
REMARK UNBOUND:                -0.655
REMARK SMILES O=c1ccn([C@H]2O[C@H](CO)[C@@H](O)[C@@H]2O)c(=O)[nH]1
REMARK SMILES IDX 6 1 13 2 11 3 8 4 7 5 5 6 3 7 4 8 2 9 17 10 1 11 15 12 16 14
REMARK SMILES IDX 14 15 12 17 9 19 10 20
REMARK H PARENT 17 13 14 16 12 18 10 21
REMARK Flexibility Score: inf
ROOT
ATOM      1  C   UNL     1     101.354 133.913  53.580  1.00  0.00     0.255 C 
ATOM      2  C   UNL     1     100.948 132.539  53.061  1.00  0.00     0.196 C 
ATOM      3  C   UNL     1      99.698 132.256  53.847  1.00  0.00     0.179 C 
ATOM      4  C   UNL     1      99.139 133.660  54.077  1.00  0.00     0.178 C 
ATOM      5  O   UNL     1     100.201 134.589  54.043  1.00  0.00    -0.347 OA
ENDROOT
BRANCH   1   6
ATOM      6  N   UNL     1     102.031 134.696  52.526  1.00  0.00    -0.271 N 
ATOM      7  C   UNL     1     101.901 136.189  50.652  1.00  0.00     0.090 A 
ATOM      8  C   UNL     1     101.288 135.465  51.671  1.00  0.00     0.099 A 
ATOM      9  C   UNL     1     103.281 136.101  50.509  1.00  0.00     0.253 A 
ATOM     10  N   UNL     1     103.998 135.315  51.353  1.00  0.00    -0.274 N 
ATOM     11  O   UNL     1     103.862 136.745  49.596  1.00  0.00    -0.269 OA
ATOM     12  C   UNL     1     103.391 134.609  52.346  1.00  0.00     0.330 A 
ATOM     13  H   UNL     1     105.036 135.246  51.233  1.00  0.00     0.175 HD
ATOM     14  O   UNL     1     104.092 133.876  53.096  1.00  0.00    -0.248 OA
ENDBRANCH   1   6
BRANCH   2  15
ATOM     15  O   UNL     1     101.949 131.590  53.324  1.00  0.00    -0.386 OA
ATOM     16  H   UNL     1     102.020 131.524  54.312  1.00  0.00     0.211 HD
ENDBRANCH   2  15
BRANCH   3  17
ATOM     17  O   UNL     1      98.813 131.463  53.101  1.00  0.00    -0.387 OA
ATOM     18  H   UNL     1      99.332 130.672  52.801  1.00  0.00     0.211 HD
ENDBRANCH   3  17
BRANCH   4  19
ATOM     19  C   UNL     1      98.395 133.767  55.415  1.00  0.00     0.191 C 
BRANCH  19  20
ATOM     20  O   UNL     1      97.133 133.163  55.322  1.00  0.00    -0.394 OA
ATOM     21  H   UNL     1      97.280 132.185  55.413  1.00  0.00     0.210 HD
ENDBRANCH  19  20
ENDBRANCH   4  19
TORSDOF 5
ENDMDL
MODEL 4
REMARK VINA RESULT:    -5.421      1.814      2.019
REMARK INTER + INTRA:          -7.186
REMARK INTER:                  -6.600
REMARK INTRA:                  -0.586
REMARK UNBOUND:                -0.655
REMARK SMILES O=c1ccn([C@H]2O[C@H](CO)[C@@H](O)[C@@H]2O)c(=O)[nH]1
REMARK SMILES IDX 6 1 13 2 11 3 8 4 7 5 5 6 3 7 4 8 2 9 17 10 1 11 15 12 16 14
REMARK SMILES IDX 14 15 12 17 9 19 10 20
REMARK H PARENT 17 13 14 16 12 18 10 21
REMARK Flexibility Score: inf
ROOT
ATOM      1  C   UNL     1     103.182 133.360  52.333  1.00  0.00     0.255 C 
ATOM      2  C   UNL     1     102.963 133.562  50.838  1.00  0.00     0.196 C 
ATOM      3  C   UNL     1     101.465 133.612  50.738  1.00  0.00     0.179 C 
ATOM      4  C   UNL     1     101.070 134.198  52.094  1.00  0.00     0.178 C 
ATOM      5  O   UNL     1     102.076 133.892  53.036  1.00  0.00    -0.347 OA
ENDROOT
BRANCH   1   6
ATOM      6  N   UNL     1     104.439 134.000  52.774  1.00  0.00    -0.271 N 
ATOM      7  C   UNL     1     105.951 135.861  52.691  1.00  0.00     0.090 A 
ATOM      8  C   UNL     1     104.759 135.250  52.314  1.00  0.00     0.099 A 
ATOM      9  C   UNL     1     106.817 135.172  53.531  1.00  0.00     0.253 A 
ATOM     10  N   UNL     1     106.492 133.924  53.959  1.00  0.00    -0.274 N 
ATOM     11  O   UNL     1     107.903 135.701  53.889  1.00  0.00    -0.269 OA
ATOM     12  C   UNL     1     105.325 133.332  53.584  1.00  0.00     0.330 A 
ATOM     13  H   UNL     1     107.154 133.407  54.583  1.00  0.00     0.175 HD
ATOM     14  O   UNL     1     105.070 132.164  53.988  1.00  0.00    -0.248 OA
ENDBRANCH   1   6
BRANCH   2  15
ATOM     15  O   UNL     1     103.495 132.489  50.106  1.00  0.00    -0.386 OA
ATOM     16  H   UNL     1     104.262 132.853  49.592  1.00  0.00     0.211 HD
ENDBRANCH   2  15
BRANCH   3  17
ATOM     17  O   UNL     1     101.066 134.443  49.681  1.00  0.00    -0.387 OA
ATOM     18  H   UNL     1     101.896 134.843  49.312  1.00  0.00     0.211 HD
ENDBRANCH   3  17
BRANCH   4  19
ATOM     19  C   UNL     1      99.719 133.658  52.579  1.00  0.00     0.191 C 
BRANCH  19  20
ATOM     20  O   UNL     1      99.078 132.950  51.552  1.00  0.00    -0.394 OA
ATOM     21  H   UNL     1      99.786 132.675  50.913  1.00  0.00     0.210 HD
ENDBRANCH  19  20
ENDBRANCH   4  19
TORSDOF 5
ENDMDL
MODEL 5
REMARK VINA RESULT:    -5.415      2.001      5.545
REMARK INTER + INTRA:          -7.178
REMARK INTER:                  -6.621
REMARK INTRA:                  -0.557
REMARK UNBOUND:                -0.655
REMARK SMILES O=c1ccn([C@H]2O[C@H](CO)[C@@H](O)[C@@H]2O)c(=O)[nH]1
REMARK SMILES IDX 6 1 13 2 11 3 8 4 7 5 5 6 3 7 4 8 2 9 17 10 1 11 15 12 16 14
REMARK SMILES IDX 14 15 12 17 9 19 10 20
REMARK H PARENT 17 13 14 16 12 18 10 21
REMARK Flexibility Score: inf
ROOT
ATOM      1  C   UNL     1     103.578 131.954  52.513  1.00  0.00     0.255 C 
ATOM      2  C   UNL     1     103.213 131.018  53.659  1.00  0.00     0.196 C 
ATOM      3  C   UNL     1     104.430 131.099  54.537  1.00  0.00     0.179 C 
ATOM      4  C   UNL     1     104.930 132.517  54.266  1.00  0.00     0.178 C 
ATOM      5  O   UNL     1     104.502 132.917  52.981  1.00  0.00    -0.347 OA
ENDROOT
BRANCH   1   6
ATOM      6  N   UNL     1     102.373 132.610  51.964  1.00  0.00    -0.271 N 
ATOM      7  C   UNL     1     100.108 133.347  52.251  1.00  0.00     0.090 A 
ATOM      8  C   UNL     1     101.264 132.760  52.754  1.00  0.00     0.099 A 
ATOM      9  C   UNL     1     100.095 133.764  50.924  1.00  0.00     0.253 A 
ATOM     10  N   UNL     1     101.197 133.588  50.150  1.00  0.00    -0.274 N 
ATOM     11  O   UNL     1      99.061 134.300  50.442  1.00  0.00    -0.269 OA
ATOM     12  C   UNL     1     102.324 133.010  50.650  1.00  0.00     0.330 A 
ATOM     13  H   UNL     1     101.176 133.895  49.150  1.00  0.00     0.175 HD
ATOM     14  O   UNL     1     103.319 132.846  49.891  1.00  0.00    -0.248 OA
ENDBRANCH   1   6
BRANCH   2  15
ATOM     15  O   UNL     1     103.001 129.712  53.189  1.00  0.00    -0.386 OA
ATOM     16  H   UNL     1     103.895 129.284  53.137  1.00  0.00     0.211 HD
ENDBRANCH   2  15
BRANCH   3  17
ATOM     17  O   UNL     1     104.082 130.923  55.884  1.00  0.00    -0.387 OA
ATOM     18  H   UNL     1     104.202 131.805  56.322  1.00  0.00     0.211 HD
ENDBRANCH   3  17
BRANCH   4  19
ATOM     19  C   UNL     1     106.459 132.613  54.359  1.00  0.00     0.191 C 
BRANCH  19  20
ATOM     20  O   UNL     1     106.998 131.397  54.803  1.00  0.00    -0.394 OA
ATOM     21  H   UNL     1     106.314 130.701  54.623  1.00  0.00     0.210 HD
ENDBRANCH  19  20
ENDBRANCH   4  19
TORSDOF 5
ENDMDL
MODEL 6
REMARK VINA RESULT:    -5.327      2.429      3.036
REMARK INTER + INTRA:          -7.072
REMARK INTER:                  -6.487
REMARK INTRA:                  -0.585
REMARK UNBOUND:                -0.655
REMARK SMILES O=c1ccn([C@H]2O[C@H](CO)[C@@H](O)[C@@H]2O)c(=O)[nH]1
REMARK SMILES IDX 6 1 13 2 11 3 8 4 7 5 5 6 3 7 4 8 2 9 17 10 1 11 15 12 16 14
REMARK SMILES IDX 14 15 12 17 9 19 10 20
REMARK H PARENT 17 13 14 16 12 18 10 21
REMARK Flexibility Score: inf
ROOT
ATOM      1  C   UNL     1     102.788 135.025  52.443  1.00  0.00     0.255 C 
ATOM      2  C   UNL     1     102.386 133.559  52.344  1.00  0.00     0.196 C 
ATOM      3  C   UNL     1     101.353 133.584  51.253  1.00  0.00     0.179 C 
ATOM      4  C   UNL     1     101.823 134.755  50.390  1.00  0.00     0.178 C 
ATOM      5  O   UNL     1     102.559 135.651  51.195  1.00  0.00    -0.347 OA
ENDROOT
BRANCH   1   6
ATOM      6  N   UNL     1     104.205 135.158  52.842  1.00  0.00    -0.271 N 
ATOM      7  C   UNL     1     106.455 134.328  52.788  1.00  0.00     0.090 A 
ATOM      8  C   UNL     1     105.121 134.241  52.402  1.00  0.00     0.099 A 
ATOM      9  C   UNL     1     106.836 135.355  53.643  1.00  0.00     0.253 A 
ATOM     10  N   UNL     1     105.908 136.243  54.087  1.00  0.00    -0.274 N 
ATOM     11  O   UNL     1     108.037 135.459  54.009  1.00  0.00    -0.269 OA
ATOM     12  C   UNL     1     104.605 136.149  53.706  1.00  0.00     0.330 A 
ATOM     13  H   UNL     1     106.200 137.008  54.739  1.00  0.00     0.175 HD
ATOM     14  O   UNL     1     103.771 136.983  54.157  1.00  0.00    -0.248 OA
ENDBRANCH   1   6
BRANCH   2  15
ATOM     15  O   UNL     1     101.845 133.106  53.558  1.00  0.00    -0.386 OA
ATOM     16  H   UNL     1     100.869 133.280  53.511  1.00  0.00     0.211 HD
ENDBRANCH   2  15
BRANCH   3  17
ATOM     17  O   UNL     1     101.361 132.378  50.535  1.00  0.00    -0.387 OA
ATOM     18  H   UNL     1     100.423 132.054  50.523  1.00  0.00     0.211 HD
ENDBRANCH   3  17
BRANCH   4  19
ATOM     19  C   UNL     1     100.647 135.489  49.734  1.00  0.00     0.191 C 
BRANCH  19  20
ATOM     20  O   UNL     1      99.635 134.582  49.388  1.00  0.00    -0.394 OA
ATOM     21  H   UNL     1      99.880 134.209  48.501  1.00  0.00     0.210 HD
ENDBRANCH  19  20
ENDBRANCH   4  19
TORSDOF 5
ENDMDL
MODEL 7
REMARK VINA RESULT:    -5.324      2.427      5.771
REMARK INTER + INTRA:          -7.069
REMARK INTER:                  -6.387
REMARK INTRA:                  -0.681
REMARK UNBOUND:                -0.655
REMARK SMILES O=c1ccn([C@H]2O[C@H](CO)[C@@H](O)[C@@H]2O)c(=O)[nH]1
REMARK SMILES IDX 6 1 13 2 11 3 8 4 7 5 5 6 3 7 4 8 2 9 17 10 1 11 15 12 16 14
REMARK SMILES IDX 14 15 12 17 9 19 10 20
REMARK H PARENT 17 13 14 16 12 18 10 21
REMARK Flexibility Score: inf
ROOT
ATOM      1  C   UNL     1     102.590 132.162  53.602  1.00  0.00     0.255 C 
ATOM      2  C   UNL     1     103.093 130.844  54.178  1.00  0.00     0.196 C 
ATOM      3  C   UNL     1     104.573 131.083  54.276  1.00  0.00     0.179 C 
ATOM      4  C   UNL     1     104.641 132.592  54.508  1.00  0.00     0.178 C 
ATOM      5  O   UNL     1     103.489 133.194  53.958  1.00  0.00    -0.347 OA
ENDROOT
BRANCH   1   6
ATOM      6  N   UNL     1     101.228 132.465  54.089  1.00  0.00    -0.271 N 
ATOM      7  C   UNL     1      99.794 133.428  55.754  1.00  0.00     0.090 A 
ATOM      8  C   UNL     1     101.066 133.157  55.260  1.00  0.00     0.099 A 
ATOM      9  C   UNL     1      98.690 132.969  55.044  1.00  0.00     0.253 A 
ATOM     10  N   UNL     1      98.871 132.265  53.897  1.00  0.00    -0.274 N 
ATOM     11  O   UNL     1      97.527 133.200  55.468  1.00  0.00    -0.269 OA
ATOM     12  C   UNL     1     100.120 132.002  53.421  1.00  0.00     0.330 A 
ATOM     13  H   UNL     1      98.036 131.913  53.373  1.00  0.00     0.175 HD
ATOM     14  O   UNL     1     100.244 131.328  52.361  1.00  0.00    -0.248 OA
ENDBRANCH   1   6
BRANCH   2  15
ATOM     15  O   UNL     1     102.798 129.776  53.314  1.00  0.00    -0.386 OA
ATOM     16  H   UNL     1     102.459 129.039  53.886  1.00  0.00     0.211 HD
ENDBRANCH   2  15
BRANCH   3  17
ATOM     17  O   UNL     1     105.119 130.369  55.353  1.00  0.00    -0.387 OA
ATOM     18  H   UNL     1     105.949 130.848  55.614  1.00  0.00     0.211 HD
ENDBRANCH   3  17
BRANCH   4  19
ATOM     19  C   UNL     1     105.900 133.210  53.886  1.00  0.00     0.191 C 
BRANCH  19  20
ATOM     20  O   UNL     1     107.032 132.449  54.214  1.00  0.00    -0.394 OA
ATOM     21  H   UNL     1     107.822 132.989  53.949  1.00  0.00     0.210 HD
ENDBRANCH  19  20
ENDBRANCH   4  19
TORSDOF 5
ENDMDL
MODEL 8
REMARK VINA RESULT:    -5.203      1.782      2.244
REMARK INTER + INTRA:          -6.922
REMARK INTER:                  -6.363
REMARK INTRA:                  -0.560
REMARK UNBOUND:                -0.655
REMARK SMILES O=c1ccn([C@H]2O[C@H](CO)[C@@H](O)[C@@H]2O)c(=O)[nH]1
REMARK SMILES IDX 6 1 13 2 11 3 8 4 7 5 5 6 3 7 4 8 2 9 17 10 1 11 15 12 16 14
REMARK SMILES IDX 14 15 12 17 9 19 10 20
REMARK H PARENT 17 13 14 16 12 18 10 21
REMARK Flexibility Score: inf
ROOT
ATOM      1  C   UNL     1     102.604 132.443  52.019  1.00  0.00     0.255 C 
ATOM      2  C   UNL     1     103.039 133.405  50.920  1.00  0.00     0.196 C 
ATOM      3  C   UNL     1     101.742 134.059  50.536  1.00  0.00     0.179 C 
ATOM      4  C   UNL     1     100.960 134.019  51.848  1.00  0.00     0.178 C 
ATOM      5  O   UNL     1     101.431 132.943  52.631  1.00  0.00    -0.347 OA
ENDROOT
BRANCH   1   6
ATOM      6  N   UNL     1     103.678 132.261  53.017  1.00  0.00    -0.271 N 
ATOM      7  C   UNL     1     105.657 133.081  54.098  1.00  0.00     0.090 A 
ATOM      8  C   UNL     1     104.619 133.241  53.185  1.00  0.00     0.099 A 
ATOM      9  C   UNL     1     105.729 131.898  54.825  1.00  0.00     0.253 A 
ATOM     10  N   UNL     1     104.798 130.928  54.629  1.00  0.00    -0.274 N 
ATOM     11  O   UNL     1     106.657 131.726  55.659  1.00  0.00    -0.269 OA
ATOM     12  C   UNL     1     103.787 131.093  53.732  1.00  0.00     0.330 A 
ATOM     13  H   UNL     1     104.864 130.036  55.173  1.00  0.00     0.175 HD
ATOM     14  O   UNL     1     102.954 130.158  53.567  1.00  0.00    -0.248 OA
ENDBRANCH   1   6
BRANCH   2  15
ATOM     15  O   UNL     1     103.606 132.707  49.841  1.00  0.00    -0.386 OA
ATOM     16  H   UNL     1     103.608 133.335  49.072  1.00  0.00     0.211 HD
ENDBRANCH   2  15
BRANCH   3  17
ATOM     17  O   UNL     1     101.961 135.376  50.105  1.00  0.00    -0.387 OA
ATOM     18  H   UNL     1     102.328 135.868  50.884  1.00  0.00     0.211 HD
ENDBRANCH   3  17
BRANCH   4  19
ATOM     19  C   UNL     1      99.452 133.870  51.610  1.00  0.00     0.191 C 
BRANCH  19  20
ATOM     20  O   UNL     1      99.157 133.995  50.245  1.00  0.00    -0.394 OA
ATOM     21  H   UNL     1     100.027 134.016  49.768  1.00  0.00     0.210 HD
ENDBRANCH  19  20
ENDBRANCH   4  19
TORSDOF 5
ENDMDL
MODEL 9
REMARK VINA RESULT:    -5.117      2.143      3.011
REMARK INTER + INTRA:          -6.820
REMARK INTER:                  -6.311
REMARK INTRA:                  -0.508
REMARK UNBOUND:                -0.655
REMARK SMILES O=c1ccn([C@H]2O[C@H](CO)[C@@H](O)[C@@H]2O)c(=O)[nH]1
REMARK SMILES IDX 6 1 13 2 11 3 8 4 7 5 5 6 3 7 4 8 2 9 17 10 1 11 15 12 16 14
REMARK SMILES IDX 14 15 12 17 9 19 10 20
REMARK H PARENT 17 13 14 16 12 18 10 21
REMARK Flexibility Score: inf
ROOT
ATOM      1  C   UNL     1     102.057 134.727  52.550  1.00  0.00     0.255 C 
ATOM      2  C   UNL     1     100.915 133.887  53.109  1.00  0.00     0.196 C 
ATOM      3  C   UNL     1      99.878 133.997  52.026  1.00  0.00     0.179 C 
ATOM      4  C   UNL     1     100.737 134.162  50.773  1.00  0.00     0.178 C 
ATOM      5  O   UNL     1     101.976 134.733  51.138  1.00  0.00    -0.347 OA
ENDROOT
BRANCH   1   6
ATOM      6  N   UNL     1     103.365 134.202  52.996  1.00  0.00    -0.271 N 
ATOM      7  C   UNL     1     104.674 132.401  53.890  1.00  0.00     0.090 A 
ATOM      8  C   UNL     1     103.460 132.909  53.437  1.00  0.00     0.099 A 
ATOM      9  C   UNL     1     105.785 133.238  53.901  1.00  0.00     0.253 A 
ATOM     10  N   UNL     1     105.665 134.523  53.480  1.00  0.00    -0.274 N 
ATOM     11  O   UNL     1     106.896 132.804  54.305  1.00  0.00    -0.269 OA
ATOM     12  C   UNL     1     104.473 135.013  53.040  1.00  0.00     0.330 A 
ATOM     13  H   UNL     1     106.503 135.150  53.500  1.00  0.00     0.175 HD
ATOM     14  O   UNL     1     104.401 136.220  52.676  1.00  0.00    -0.248 OA
ENDBRANCH   1   6
BRANCH   2  15
ATOM     15  O   UNL     1     100.452 134.419  54.323  1.00  0.00    -0.386 OA
ATOM     16  H   UNL     1     101.133 135.078  54.618  1.00  0.00     0.211 HD
ENDBRANCH   2  15
BRANCH   3  17
ATOM     17  O   UNL     1      99.098 132.833  51.968  1.00  0.00    -0.387 OA
ATOM     18  H   UNL     1      99.677 132.092  52.286  1.00  0.00     0.211 HD
ENDBRANCH   3  17
BRANCH   4  19
ATOM     19  C   UNL     1     100.049 135.040  49.720  1.00  0.00     0.191 C 
BRANCH  19  20
ATOM     20  O   UNL     1      98.834 134.465  49.322  1.00  0.00    -0.394 OA
ATOM     21  H   UNL     1      98.332 134.259  50.154  1.00  0.00     0.210 HD
ENDBRANCH  19  20
ENDBRANCH   4  19
TORSDOF 5
ENDMDL
