MODEL 1
REMARK VINA RESULT:    -3.863      0.000      0.000
REMARK INTER + INTRA:         -10.537
REMARK INTER:                  -8.379
REMARK INTRA:                  -2.158
REMARK UNBOUND:                -2.158
REMARK SMILES CCCCCCCCCCCCCCCCCCCCCC(=O)[O-]
REMARK SMILES IDX 12 1 11 2 10 3 9 4 8 5 7 6 6 7 5 8 4 9 3 10 2 11 1 12 13 13
REMARK SMILES IDX 14 14 15 15 16 16 17 17 18 18 19 19 20 20 21 21 22 22 23 23
REMARK SMILES IDX 24 24
REMARK H PARENT
REMARK Flexibility Score: inf
ROOT
ATOM      1  C   UNL     1      60.641  22.748  50.841  1.00  0.00     0.000 C 
ENDROOT
BRANCH   1   2
ATOM      2  C   UNL     1      60.889  21.781  49.671  1.00  0.00     0.000 C 
BRANCH   2   3
ATOM      3  C   UNL     1      60.502  20.330  50.014  1.00  0.00     0.000 C 
BRANCH   3   4
ATOM      4  C   UNL     1      61.608  19.603  50.802  1.00  0.00    -0.000 C 
BRANCH   4   5
ATOM      5  C   UNL     1      61.159  18.251  51.387  1.00  0.00    -0.000 C 
BRANCH   5   6
ATOM      6  C   UNL     1      60.354  17.414  50.375  1.00  0.00    -0.000 C 
BRANCH   6   7
ATOM      7  C   UNL     1      59.018  16.893  50.936  1.00  0.00    -0.000 C 
BRANCH   7   8
ATOM      8  C   UNL     1      57.762  17.480  50.266  1.00  0.00    -0.000 C 
BRANCH   8   9
ATOM      9  C   UNL     1      57.216  18.734  50.976  1.00  0.00    -0.000 C 
BRANCH   9  10
ATOM     10  C   UNL     1      56.984  18.501  52.481  1.00  0.00    -0.000 C 
BRANCH  10  11
ATOM     11  C   UNL     1      57.189  19.765  53.337  1.00  0.00    -0.003 C 
ATOM     12  C   UNL     1      58.434  20.553  52.931  1.00  0.00     0.004 C 
ENDBRANCH  10  11
ENDBRANCH   9  10
ENDBRANCH   8   9
ENDBRANCH   7   8
ENDBRANCH   6   7
ENDBRANCH   5   6
ENDBRANCH   4   5
ENDBRANCH   3   4
ENDBRANCH   2   3
ENDBRANCH   1   2
BRANCH   1  13
ATOM     13  C   UNL     1      61.424  24.065  50.691  1.00  0.00     0.000 C 
BRANCH  13  14
ATOM     14  C   UNL     1      60.514  25.266  50.375  1.00  0.00     0.000 C 
BRANCH  14  15
ATOM     15  C   UNL     1      60.100  26.110  51.596  1.00  0.00     0.000 C 
BRANCH  15  16
ATOM     16  C   UNL     1      60.490  27.601  51.527  1.00  0.00     0.000 C 
BRANCH  16  17
ATOM     17  C   UNL     1      60.514  28.205  50.112  1.00  0.00     0.000 C 
BRANCH  17  18
ATOM     18  C   UNL     1      59.166  28.826  49.709  1.00  0.00     0.000 C 
BRANCH  18  19
ATOM     19  C   UNL     1      58.304  29.228  50.920  1.00  0.00     0.000 C 
BRANCH  19  20
ATOM     20  C   UNL     1      56.825  28.806  50.841  1.00  0.00     0.006 C 
BRANCH  20  21
ATOM     21  C   UNL     1      56.637  27.286  50.761  1.00  0.00     0.053 C 
BRANCH  21  22
ATOM     22  C   UNL     1      55.273  26.951  50.248  1.00  0.00     0.041 C 
ATOM     23  O   UNL     1      54.996  25.772  49.905  1.00  0.00    -0.550 OA
ATOM     24  O   UNL     1      54.295  27.935  50.177  1.00  0.00    -0.550 OA
ENDBRANCH  21  22
ENDBRANCH  20  21
ENDBRANCH  19  20
ENDBRANCH  18  19
ENDBRANCH  17  18
ENDBRANCH  16  17
ENDBRANCH  15  16
ENDBRANCH  14  15
ENDBRANCH  13  14
ENDBRANCH   1  13
TORSDOF 20
ENDMDL
MODEL 2
REMARK VINA RESULT:    -3.843     11.880     13.826
REMARK INTER + INTRA:         -10.495
REMARK INTER:                  -7.312
REMARK INTRA:                  -3.183
REMARK UNBOUND:                -2.158
REMARK SMILES CCCCCCCCCCCCCCCCCCCCCC(=O)[O-]
REMARK SMILES IDX 12 1 11 2 10 3 9 4 8 5 7 6 6 7 5 8 4 9 3 10 2 11 1 12 13 13
REMARK SMILES IDX 14 14 15 15 16 16 17 17 18 18 19 19 20 20 21 21 22 22 23 23
REMARK SMILES IDX 24 24
REMARK H PARENT
REMARK Flexibility Score: inf
ROOT
ATOM      1  C   UNL     1      63.631  33.169  59.083  1.00  0.00     0.000 C 
ENDROOT
BRANCH   1   2
ATOM      2  C   UNL     1      62.307  32.441  58.795  1.00  0.00     0.000 C 
BRANCH   2   3
ATOM      3  C   UNL     1      61.283  32.609  59.934  1.00  0.00     0.000 C 
BRANCH   3   4
ATOM      4  C   UNL     1      60.499  31.312  60.209  1.00  0.00    -0.000 C 
BRANCH   4   5
ATOM      5  C   UNL     1      60.772  30.712  61.601  1.00  0.00    -0.000 C 
BRANCH   5   6
ATOM      6  C   UNL     1      62.008  29.793  61.610  1.00  0.00    -0.000 C 
BRANCH   6   7
ATOM      7  C   UNL     1      62.160  28.957  60.324  1.00  0.00    -0.000 C 
BRANCH   7   8
ATOM      8  C   UNL     1      63.598  28.858  59.783  1.00  0.00    -0.000 C 
BRANCH   8   9
ATOM      9  C   UNL     1      64.652  29.476  60.722  1.00  0.00    -0.000 C 
BRANCH   9  10
ATOM     10  C   UNL     1      66.092  29.185  60.261  1.00  0.00    -0.000 C 
BRANCH  10  11
ATOM     11  C   UNL     1      66.823  28.156  61.142  1.00  0.00    -0.003 C 
ATOM     12  C   UNL     1      68.304  28.488  61.327  1.00  0.00     0.004 C 
ENDBRANCH  10  11
ENDBRANCH   9  10
ENDBRANCH   8   9
ENDBRANCH   7   8
ENDBRANCH   6   7
ENDBRANCH   5   6
ENDBRANCH   4   5
ENDBRANCH   3   4
ENDBRANCH   2   3
ENDBRANCH   1   2
BRANCH   1  13
ATOM     13  C   UNL     1      64.064  33.043  60.554  1.00  0.00     0.000 C 
BRANCH  13  14
ATOM     14  C   UNL     1      64.239  34.407  61.243  1.00  0.00     0.000 C 
BRANCH  14  15
ATOM     15  C   UNL     1      63.611  35.601  60.498  1.00  0.00     0.000 C 
BRANCH  15  16
ATOM     16  C   UNL     1      62.489  36.335  61.260  1.00  0.00     0.000 C 
BRANCH  16  17
ATOM     17  C   UNL     1      61.089  36.219  60.631  1.00  0.00     0.000 C 
BRANCH  17  18
ATOM     18  C   UNL     1      61.125  36.240  59.093  1.00  0.00     0.000 C 
BRANCH  18  19
ATOM     19  C   UNL     1      59.773  35.872  58.455  1.00  0.00     0.000 C 
BRANCH  19  20
ATOM     20  C   UNL     1      59.841  34.813  57.339  1.00  0.00     0.006 C 
BRANCH  20  21
ATOM     21  C   UNL     1      58.638  33.862  57.337  1.00  0.00     0.053 C 
BRANCH  21  22
ATOM     22  C   UNL     1      57.376  34.610  57.045  1.00  0.00     0.041 C 
ATOM     23  O   UNL     1      56.336  34.386  57.718  1.00  0.00    -0.550 OA
ATOM     24  O   UNL     1      57.356  35.578  56.049  1.00  0.00    -0.550 OA
ENDBRANCH  21  22
ENDBRANCH  20  21
ENDBRANCH  19  20
ENDBRANCH  18  19
ENDBRANCH  17  18
ENDBRANCH  16  17
ENDBRANCH  15  16
ENDBRANCH  14  15
ENDBRANCH  13  14
ENDBRANCH   1  13
TORSDOF 20
ENDMDL
MODEL 3
REMARK VINA RESULT:    -3.834      5.391      7.711
REMARK INTER + INTRA:         -10.475
REMARK INTER:                  -6.329
REMARK INTRA:                  -4.147
REMARK UNBOUND:                -2.158
REMARK SMILES CCCCCCCCCCCCCCCCCCCCCC(=O)[O-]
REMARK SMILES IDX 12 1 11 2 10 3 9 4 8 5 7 6 6 7 5 8 4 9 3 10 2 11 1 12 13 13
REMARK SMILES IDX 14 14 15 15 16 16 17 17 18 18 19 19 20 20 21 21 22 22 23 23
REMARK SMILES IDX 24 24
REMARK H PARENT
REMARK Flexibility Score: inf
ROOT
ATOM      1  C   UNL     1      57.081  27.850  52.244  1.00  0.00     0.000 C 
ENDROOT
BRANCH   1   2
ATOM      2  C   UNL     1      57.149  28.831  51.062  1.00  0.00     0.000 C 
BRANCH   2   3
ATOM      3  C   UNL     1      58.577  29.349  50.808  1.00  0.00     0.000 C 
BRANCH   3   4
ATOM      4  C   UNL     1      59.146  28.853  49.465  1.00  0.00    -0.000 C 
BRANCH   4   5
ATOM      5  C   UNL     1      60.318  27.866  49.621  1.00  0.00    -0.000 C 
BRANCH   5   6
ATOM      6  C   UNL     1      59.844  26.451  50.001  1.00  0.00    -0.000 C 
BRANCH   6   7
ATOM      7  C   UNL     1      60.544  25.885  51.251  1.00  0.00    -0.000 C 
BRANCH   7   8
ATOM      8  C   UNL     1      61.863  26.586  51.627  1.00  0.00    -0.000 C 
BRANCH   8   9
ATOM      9  C   UNL     1      61.792  27.354  52.960  1.00  0.00    -0.000 C 
BRANCH   9  10
ATOM     10  C   UNL     1      60.382  27.327  53.578  1.00  0.00    -0.000 C 
BRANCH  10  11
ATOM     11  C   UNL     1      60.001  28.635  54.296  1.00  0.00    -0.003 C 
ATOM     12  C   UNL     1      60.748  29.848  53.742  1.00  0.00     0.004 C 
ENDBRANCH  10  11
ENDBRANCH   9  10
ENDBRANCH   8   9
ENDBRANCH   7   8
ENDBRANCH   6   7
ENDBRANCH   5   6
ENDBRANCH   4   5
ENDBRANCH   3   4
ENDBRANCH   2   3
ENDBRANCH   1   2
BRANCH   1  13
ATOM     13  C   UNL     1      56.394  26.525  51.870  1.00  0.00     0.000 C 
BRANCH  13  14
ATOM     14  C   UNL     1      56.231  26.347  50.349  1.00  0.00     0.000 C 
BRANCH  14  15
ATOM     15  C   UNL     1      54.806  25.988  49.883  1.00  0.00     0.000 C 
BRANCH  15  16
ATOM     16  C   UNL     1      53.670  26.737  50.608  1.00  0.00     0.000 C 
BRANCH  16  17
ATOM     17  C   UNL     1      53.347  28.134  50.049  1.00  0.00     0.000 C 
BRANCH  17  18
ATOM     18  C   UNL     1      53.561  29.251  51.085  1.00  0.00     0.000 C 
BRANCH  18  19
ATOM     19  C   UNL     1      53.340  28.778  52.534  1.00  0.00     0.000 C 
BRANCH  19  20
ATOM     20  C   UNL     1      54.168  29.520  53.599  1.00  0.00     0.006 C 
BRANCH  20  21
ATOM     21  C   UNL     1      54.825  30.800  53.067  1.00  0.00     0.053 C 
BRANCH  21  22
ATOM     22  C   UNL     1      55.858  31.299  54.027  1.00  0.00     0.041 C 
ATOM     23  O   UNL     1      55.510  31.811  55.123  1.00  0.00    -0.550 OA
ATOM     24  O   UNL     1      57.208  31.173  53.724  1.00  0.00    -0.550 OA
ENDBRANCH  21  22
ENDBRANCH  20  21
ENDBRANCH  19  20
ENDBRANCH  18  19
ENDBRANCH  17  18
ENDBRANCH  16  17
ENDBRANCH  15  16
ENDBRANCH  14  15
ENDBRANCH  13  14
ENDBRANCH   1  13
TORSDOF 20
ENDMDL
MODEL 4
REMARK VINA RESULT:    -3.830      2.526      8.364
REMARK INTER + INTRA:         -10.466
REMARK INTER:                  -8.905
REMARK INTRA:                  -1.561
REMARK UNBOUND:                -2.158
REMARK SMILES CCCCCCCCCCCCCCCCCCCCCC(=O)[O-]
REMARK SMILES IDX 12 1 11 2 10 3 9 4 8 5 7 6 6 7 5 8 4 9 3 10 2 11 1 12 13 13
REMARK SMILES IDX 14 14 15 15 16 16 17 17 18 18 19 19 20 20 21 21 22 22 23 23
REMARK SMILES IDX 24 24
REMARK H PARENT
REMARK Flexibility Score: inf
ROOT
ATOM      1  C   UNL     1      61.097  24.404  51.994  1.00  0.00     0.000 C 
ENDROOT
BRANCH   1   2
ATOM      2  C   UNL     1      60.665  25.850  51.700  1.00  0.00     0.000 C 
BRANCH   2   3
ATOM      3  C   UNL     1      61.048  26.302  50.278  1.00  0.00     0.000 C 
BRANCH   3   4
ATOM      4  C   UNL     1      60.981  27.833  50.115  1.00  0.00    -0.000 C 
BRANCH   4   5
ATOM      5  C   UNL     1      59.668  28.327  49.482  1.00  0.00    -0.000 C 
BRANCH   5   6
ATOM      6  C   UNL     1      58.793  29.106  50.483  1.00  0.00    -0.000 C 
BRANCH   6   7
ATOM      7  C   UNL     1      57.351  28.573  50.580  1.00  0.00    -0.000 C 
BRANCH   7   8
ATOM      8  C   UNL     1      57.219  27.171  51.205  1.00  0.00    -0.000 C 
BRANCH   8   9
ATOM      9  C   UNL     1      55.761  26.755  51.477  1.00  0.00    -0.000 C 
BRANCH   9  10
ATOM     10  C   UNL     1      55.142  25.980  50.299  1.00  0.00    -0.000 C 
BRANCH  10  11
ATOM     11  C   UNL     1      53.866  26.632  49.738  1.00  0.00    -0.003 C 
ATOM     12  C   UNL     1      53.601  28.014  50.335  1.00  0.00     0.004 C 
ENDBRANCH  10  11
ENDBRANCH   9  10
ENDBRANCH   8   9
ENDBRANCH   7   8
ENDBRANCH   6   7
ENDBRANCH   5   6
ENDBRANCH   4   5
ENDBRANCH   3   4
ENDBRANCH   2   3
ENDBRANCH   1   2
BRANCH   1  13
ATOM     13  C   UNL     1      61.744  23.724  50.775  1.00  0.00     0.000 C 
BRANCH  13  14
ATOM     14  C   UNL     1      60.772  22.797  50.023  1.00  0.00     0.000 C 
BRANCH  14  15
ATOM     15  C   UNL     1      61.402  21.508  49.462  1.00  0.00     0.000 C 
BRANCH  15  16
ATOM     16  C   UNL     1      62.083  20.601  50.507  1.00  0.00     0.000 C 
BRANCH  16  17
ATOM     17  C   UNL     1      61.126  19.733  51.342  1.00  0.00     0.000 C 
BRANCH  17  18
ATOM     18  C   UNL     1      60.806  18.386  50.671  1.00  0.00     0.000 C 
BRANCH  18  19
ATOM     19  C   UNL     1      59.449  18.385  49.944  1.00  0.00     0.000 C 
BRANCH  19  20
ATOM     20  C   UNL     1      58.268  18.945  50.758  1.00  0.00     0.006 C 
BRANCH  20  21
ATOM     21  C   UNL     1      57.025  18.048  50.710  1.00  0.00     0.053 C 
BRANCH  21  22
ATOM     22  C   UNL     1      55.846  18.751  51.305  1.00  0.00     0.041 C 
ATOM     23  O   UNL     1      54.992  19.299  50.561  1.00  0.00    -0.550 OA
ATOM     24  O   UNL     1      55.674  18.775  52.684  1.00  0.00    -0.550 OA
ENDBRANCH  21  22
ENDBRANCH  20  21
ENDBRANCH  19  20
ENDBRANCH  18  19
ENDBRANCH  17  18
ENDBRANCH  16  17
ENDBRANCH  15  16
ENDBRANCH  14  15
ENDBRANCH  13  14
ENDBRANCH   1  13
TORSDOF 20
ENDMDL
MODEL 5
REMARK VINA RESULT:    -3.824     11.223     15.064
REMARK INTER + INTRA:         -10.452
REMARK INTER:                  -7.089
REMARK INTRA:                  -3.363
REMARK UNBOUND:                -2.158
REMARK SMILES CCCCCCCCCCCCCCCCCCCCCC(=O)[O-]
REMARK SMILES IDX 12 1 11 2 10 3 9 4 8 5 7 6 6 7 5 8 4 9 3 10 2 11 1 12 13 13
REMARK SMILES IDX 14 14 15 15 16 16 17 17 18 18 19 19 20 20 21 21 22 22 23 23
REMARK SMILES IDX 24 24
REMARK H PARENT
REMARK Flexibility Score: inf
ROOT
ATOM      1  C   UNL     1      62.605  31.273  57.951  1.00  0.00     0.000 C 
ENDROOT
BRANCH   1   2
ATOM      2  C   UNL     1      63.563  32.356  57.428  1.00  0.00     0.000 C 
BRANCH   2   3
ATOM      3  C   UNL     1      63.599  33.600  58.336  1.00  0.00     0.000 C 
BRANCH   3   4
ATOM      4  C   UNL     1      64.564  33.426  59.524  1.00  0.00    -0.000 C 
BRANCH   4   5
ATOM      5  C   UNL     1      63.935  33.779  60.885  1.00  0.00    -0.000 C 
BRANCH   5   6
ATOM      6  C   UNL     1      64.154  35.255  61.265  1.00  0.00    -0.000 C 
BRANCH   6   7
ATOM      7  C   UNL     1      62.868  36.101  61.206  1.00  0.00    -0.000 C 
BRANCH   7   8
ATOM      8  C   UNL     1      61.601  35.324  60.805  1.00  0.00    -0.000 C 
BRANCH   8   9
ATOM      9  C   UNL     1      60.650  36.126  59.896  1.00  0.00    -0.000 C 
BRANCH   9  10
ATOM     10  C   UNL     1      60.355  35.400  58.570  1.00  0.00    -0.000 C 
BRANCH  10  11
ATOM     11  C   UNL     1      58.925  35.629  58.049  1.00  0.00    -0.003 C 
ATOM     12  C   UNL     1      58.322  34.375  57.416  1.00  0.00     0.004 C 
ENDBRANCH  10  11
ENDBRANCH   9  10
ENDBRANCH   8   9
ENDBRANCH   7   8
ENDBRANCH   6   7
ENDBRANCH   5   6
ENDBRANCH   4   5
ENDBRANCH   3   4
ENDBRANCH   2   3
ENDBRANCH   1   2
BRANCH   1  13
ATOM     13  C   UNL     1      61.128  31.620  57.694  1.00  0.00     0.000 C 
BRANCH  13  14
ATOM     14  C   UNL     1      60.298  31.687  58.988  1.00  0.00     0.000 C 
BRANCH  14  15
ATOM     15  C   UNL     1      61.120  31.778  60.288  1.00  0.00     0.000 C 
BRANCH  15  16
ATOM     16  C   UNL     1      60.744  30.750  61.376  1.00  0.00     0.000 C 
BRANCH  16  17
ATOM     17  C   UNL     1      61.817  29.685  61.667  1.00  0.00     0.000 C 
BRANCH  17  18
ATOM     18  C   UNL     1      63.241  30.178  61.359  1.00  0.00     0.000 C 
BRANCH  18  19
ATOM     19  C   UNL     1      64.066  29.160  60.549  1.00  0.00     0.000 C 
BRANCH  19  20
ATOM     20  C   UNL     1      63.268  27.971  59.983  1.00  0.00     0.006 C 
BRANCH  20  21
ATOM     21  C   UNL     1      63.719  26.619  60.550  1.00  0.00     0.053 C 
BRANCH  21  22
ATOM     22  C   UNL     1      62.543  25.837  61.044  1.00  0.00     0.041 C 
ATOM     23  O   UNL     1      61.901  26.228  62.054  1.00  0.00    -0.550 OA
ATOM     24  O   UNL     1      62.137  24.692  60.371  1.00  0.00    -0.550 OA
ENDBRANCH  21  22
ENDBRANCH  20  21
ENDBRANCH  19  20
ENDBRANCH  18  19
ENDBRANCH  17  18
ENDBRANCH  16  17
ENDBRANCH  15  16
ENDBRANCH  14  15
ENDBRANCH  13  14
ENDBRANCH   1  13
TORSDOF 20
ENDMDL
MODEL 6
REMARK VINA RESULT:    -3.773      1.201      2.204
REMARK INTER + INTRA:         -10.343
REMARK INTER:                  -8.639
REMARK INTRA:                  -1.704
REMARK UNBOUND:                -2.158
REMARK SMILES CCCCCCCCCCCCCCCCCCCCCC(=O)[O-]
REMARK SMILES IDX 12 1 11 2 10 3 9 4 8 5 7 6 6 7 5 8 4 9 3 10 2 11 1 12 13 13
REMARK SMILES IDX 14 14 15 15 16 16 17 17 18 18 19 19 20 20 21 21 22 22 23 23
REMARK SMILES IDX 24 24
REMARK H PARENT
REMARK Flexibility Score: inf
ROOT
ATOM      1  C   UNL     1      59.633  24.567  51.115  1.00  0.00     0.000 C 
ENDROOT
BRANCH   1   2
ATOM      2  C   UNL     1      60.257  23.164  51.198  1.00  0.00     0.000 C 
BRANCH   2   3
ATOM      3  C   UNL     1      61.138  22.838  49.978  1.00  0.00     0.000 C 
BRANCH   3   4
ATOM      4  C   UNL     1      61.065  21.350  49.587  1.00  0.00    -0.000 C 
BRANCH   4   5
ATOM      5  C   UNL     1      60.099  20.530  50.463  1.00  0.00    -0.000 C 
BRANCH   5   6
ATOM      6  C   UNL     1      60.407  19.021  50.419  1.00  0.00    -0.000 C 
BRANCH   6   7
ATOM      7  C   UNL     1      59.391  18.212  49.591  1.00  0.00    -0.000 C 
BRANCH   7   8
ATOM      8  C   UNL     1      58.454  17.311  50.417  1.00  0.00    -0.000 C 
BRANCH   8   9
ATOM      9  C   UNL     1      57.123  17.989  50.793  1.00  0.00    -0.000 C 
BRANCH   9  10
ATOM     10  C   UNL     1      57.215  18.768  52.119  1.00  0.00    -0.000 C 
BRANCH  10  11
ATOM     11  C   UNL     1      55.886  19.423  52.539  1.00  0.00    -0.003 C 
ATOM     12  C   UNL     1      55.224  18.706  53.715  1.00  0.00     0.004 C 
ENDBRANCH  10  11
ENDBRANCH   9  10
ENDBRANCH   8   9
ENDBRANCH   7   8
ENDBRANCH   6   7
ENDBRANCH   5   6
ENDBRANCH   4   5
ENDBRANCH   3   4
ENDBRANCH   2   3
ENDBRANCH   1   2
BRANCH   1  13
ATOM     13  C   UNL     1      60.614  25.615  50.563  1.00  0.00     0.000 C 
BRANCH  13  14
ATOM     14  C   UNL     1      59.921  26.686  49.701  1.00  0.00     0.000 C 
BRANCH  14  15
ATOM     15  C   UNL     1      60.141  28.140  50.163  1.00  0.00     0.000 C 
BRANCH  15  16
ATOM     16  C   UNL     1      59.084  29.151  49.674  1.00  0.00     0.000 C 
BRANCH  16  17
ATOM     17  C   UNL     1      57.887  29.353  50.619  1.00  0.00     0.000 C 
BRANCH  17  18
ATOM     18  C   UNL     1      57.942  28.435  51.852  1.00  0.00     0.000 C 
BRANCH  18  19
ATOM     19  C   UNL     1      56.803  27.399  51.880  1.00  0.00     0.000 C 
BRANCH  19  20
ATOM     20  C   UNL     1      55.967  27.308  50.590  1.00  0.00     0.006 C 
BRANCH  20  21
ATOM     21  C   UNL     1      55.715  25.865  50.137  1.00  0.00     0.053 C 
BRANCH  21  22
ATOM     22  C   UNL     1      54.251  25.559  50.143  1.00  0.00     0.041 C 
ATOM     23  O   UNL     1      53.511  25.983  49.217  1.00  0.00    -0.550 OA
ATOM     24  O   UNL     1      53.707  24.780  51.157  1.00  0.00    -0.550 OA
ENDBRANCH  21  22
ENDBRANCH  20  21
ENDBRANCH  19  20
ENDBRANCH  18  19
ENDBRANCH  17  18
ENDBRANCH  16  17
ENDBRANCH  15  16
ENDBRANCH  14  15
ENDBRANCH  13  14
ENDBRANCH   1  13
TORSDOF 20
ENDMDL
MODEL 7
REMARK VINA RESULT:    -3.765      4.043      8.618
REMARK INTER + INTRA:         -10.324
REMARK INTER:                  -7.096
REMARK INTRA:                  -3.228
REMARK UNBOUND:                -2.158
REMARK SMILES CCCCCCCCCCCCCCCCCCCCCC(=O)[O-]
REMARK SMILES IDX 12 1 11 2 10 3 9 4 8 5 7 6 6 7 5 8 4 9 3 10 2 11 1 12 13 13
REMARK SMILES IDX 14 14 15 15 16 16 17 17 18 18 19 19 20 20 21 21 22 22 23 23
REMARK SMILES IDX 24 24
REMARK H PARENT
REMARK Flexibility Score: inf
ROOT
ATOM      1  C   UNL     1      56.168  26.387  51.299  1.00  0.00     0.000 C 
ENDROOT
BRANCH   1   2
ATOM      2  C   UNL     1      55.034  25.873  50.396  1.00  0.00     0.000 C 
BRANCH   2   3
ATOM      3  C   UNL     1      54.066  26.992  49.971  1.00  0.00     0.000 C 
BRANCH   3   4
ATOM      4  C   UNL     1      53.748  27.959  51.128  1.00  0.00    -0.000 C 
BRANCH   4   5
ATOM      5  C   UNL     1      53.958  29.441  50.767  1.00  0.00    -0.000 C 
BRANCH   5   6
ATOM      6  C   UNL     1      54.318  30.297  51.997  1.00  0.00    -0.000 C 
BRANCH   6   7
ATOM      7  C   UNL     1      54.807  29.467  53.199  1.00  0.00    -0.000 C 
BRANCH   7   8
ATOM      8  C   UNL     1      56.112  29.970  53.844  1.00  0.00    -0.000 C 
BRANCH   8   9
ATOM      9  C   UNL     1      57.123  28.846  54.140  1.00  0.00    -0.000 C 
BRANCH   9  10
ATOM     10  C   UNL     1      58.582  29.336  54.072  1.00  0.00    -0.000 C 
BRANCH  10  11
ATOM     11  C   UNL     1      59.604  28.198  53.895  1.00  0.00    -0.003 C 
ATOM     12  C   UNL     1      58.942  26.825  53.783  1.00  0.00     0.004 C 
ENDBRANCH  10  11
ENDBRANCH   9  10
ENDBRANCH   8   9
ENDBRANCH   7   8
ENDBRANCH   6   7
ENDBRANCH   5   6
ENDBRANCH   4   5
ENDBRANCH   3   4
ENDBRANCH   2   3
ENDBRANCH   1   2
BRANCH   1  13
ATOM     13  C   UNL     1      57.341  26.974  50.495  1.00  0.00     0.000 C 
BRANCH  13  14
ATOM     14  C   UNL     1      57.491  28.494  50.682  1.00  0.00     0.000 C 
BRANCH  14  15
ATOM     15  C   UNL     1      58.684  29.129  49.940  1.00  0.00     0.000 C 
BRANCH  15  16
ATOM     16  C   UNL     1      59.827  28.157  49.583  1.00  0.00     0.000 C 
BRANCH  16  17
ATOM     17  C   UNL     1      61.030  28.182  50.542  1.00  0.00     0.000 C 
BRANCH  17  18
ATOM     18  C   UNL     1      61.963  26.974  50.356  1.00  0.00     0.000 C 
BRANCH  18  19
ATOM     19  C   UNL     1      61.706  25.853  51.380  1.00  0.00     0.000 C 
BRANCH  19  20
ATOM     20  C   UNL     1      62.115  24.440  50.922  1.00  0.00     0.006 C 
BRANCH  20  21
ATOM     21  C   UNL     1      60.927  23.594  50.449  1.00  0.00     0.053 C 
BRANCH  21  22
ATOM     22  C   UNL     1      61.374  22.211  50.094  1.00  0.00     0.041 C 
ATOM     23  O   UNL     1      62.484  21.780  50.503  1.00  0.00    -0.550 OA
ATOM     24  O   UNL     1      60.552  21.387  49.336  1.00  0.00    -0.550 OA
ENDBRANCH  21  22
ENDBRANCH  20  21
ENDBRANCH  19  20
ENDBRANCH  18  19
ENDBRANCH  17  18
ENDBRANCH  16  17
ENDBRANCH  15  16
ENDBRANCH  14  15
ENDBRANCH  13  14
ENDBRANCH   1  13
TORSDOF 20
ENDMDL
MODEL 8
REMARK VINA RESULT:    -3.747      3.075      9.020
REMARK INTER + INTRA:         -10.287
REMARK INTER:                  -7.898
REMARK INTRA:                  -2.389
REMARK UNBOUND:                -2.158
REMARK SMILES CCCCCCCCCCCCCCCCCCCCCC(=O)[O-]
REMARK SMILES IDX 12 1 11 2 10 3 9 4 8 5 7 6 6 7 5 8 4 9 3 10 2 11 1 12 13 13
REMARK SMILES IDX 14 14 15 15 16 16 17 17 18 18 19 19 20 20 21 21 22 22 23 23
REMARK SMILES IDX 24 24
REMARK H PARENT
REMARK Flexibility Score: inf
ROOT
ATOM      1  C   UNL     1      56.167  26.469  50.304  1.00  0.00     0.000 C 
ENDROOT
BRANCH   1   2
ATOM      2  C   UNL     1      54.647  26.317  50.482  1.00  0.00     0.000 C 
BRANCH   2   3
ATOM      3  C   UNL     1      53.899  27.654  50.324  1.00  0.00     0.000 C 
BRANCH   3   4
ATOM      4  C   UNL     1      54.724  28.847  50.842  1.00  0.00    -0.000 C 
BRANCH   4   5
ATOM      5  C   UNL     1      54.884  28.866  52.374  1.00  0.00    -0.000 C 
BRANCH   5   6
ATOM      6  C   UNL     1      55.392  30.225  52.892  1.00  0.00    -0.000 C 
BRANCH   6   7
ATOM      7  C   UNL     1      56.827  30.171  53.450  1.00  0.00    -0.000 C 
BRANCH   7   8
ATOM      8  C   UNL     1      57.714  29.067  52.847  1.00  0.00    -0.000 C 
BRANCH   8   9
ATOM      9  C   UNL     1      58.697  29.584  51.779  1.00  0.00    -0.000 C 
BRANCH   9  10
ATOM     10  C   UNL     1      58.271  29.192  50.351  1.00  0.00    -0.000 C 
BRANCH  10  11
ATOM     11  C   UNL     1      59.458  28.962  49.398  1.00  0.00    -0.003 C 
ATOM     12  C   UNL     1      60.501  28.007  49.978  1.00  0.00     0.004 C 
ENDBRANCH  10  11
ENDBRANCH   9  10
ENDBRANCH   8   9
ENDBRANCH   7   8
ENDBRANCH   6   7
ENDBRANCH   5   6
ENDBRANCH   4   5
ENDBRANCH   3   4
ENDBRANCH   2   3
ENDBRANCH   1   2
BRANCH   1  13
ATOM     13  C   UNL     1      56.962  25.776  51.424  1.00  0.00     0.000 C 
BRANCH  13  14
ATOM     14  C   UNL     1      58.414  25.462  51.019  1.00  0.00     0.000 C 
BRANCH  14  15
ATOM     15  C   UNL     1      59.123  24.409  51.892  1.00  0.00     0.000 C 
BRANCH  15  16
ATOM     16  C   UNL     1      60.643  24.611  52.060  1.00  0.00     0.000 C 
BRANCH  16  17
ATOM     17  C   UNL     1      61.486  24.299  50.811  1.00  0.00     0.000 C 
BRANCH  17  18
ATOM     18  C   UNL     1      61.822  22.805  50.679  1.00  0.00     0.000 C 
BRANCH  18  19
ATOM     19  C   UNL     1      61.135  22.138  49.472  1.00  0.00     0.000 C 
BRANCH  19  20
ATOM     20  C   UNL     1      60.470  20.780  49.763  1.00  0.00     0.006 C 
BRANCH  20  21
ATOM     21  C   UNL     1      60.040  20.623  51.227  1.00  0.00     0.053 C 
BRANCH  21  22
ATOM     22  C   UNL     1      59.084  19.482  51.374  1.00  0.00     0.041 C 
ATOM     23  O   UNL     1      58.528  19.259  52.482  1.00  0.00    -0.550 OA
ATOM     24  O   UNL     1      58.784  18.680  50.281  1.00  0.00    -0.550 OA
ENDBRANCH  21  22
ENDBRANCH  20  21
ENDBRANCH  19  20
ENDBRANCH  18  19
ENDBRANCH  17  18
ENDBRANCH  16  17
ENDBRANCH  15  16
ENDBRANCH  14  15
ENDBRANCH  13  14
ENDBRANCH   1  13
TORSDOF 20
ENDMDL
MODEL 9
REMARK VINA RESULT:    -3.688     10.094     14.392
REMARK INTER + INTRA:         -10.159
REMARK INTER:                  -6.251
REMARK INTRA:                  -3.907
REMARK UNBOUND:                -2.158
REMARK SMILES CCCCCCCCCCCCCCCCCCCCCC(=O)[O-]
REMARK SMILES IDX 12 1 11 2 10 3 9 4 8 5 7 6 6 7 5 8 4 9 3 10 2 11 1 12 13 13
REMARK SMILES IDX 14 14 15 15 16 16 17 17 18 18 19 19 20 20 21 21 22 22 23 23
REMARK SMILES IDX 24 24
REMARK H PARENT
REMARK Flexibility Score: inf
ROOT
ATOM      1  C   UNL     1      62.732  30.033  61.580  1.00  0.00     0.000 C 
ENDROOT
BRANCH   1   2
ATOM      2  C   UNL     1      61.228  30.342  61.662  1.00  0.00     0.000 C 
BRANCH   2   3
ATOM      3  C   UNL     1      60.732  31.182  60.470  1.00  0.00     0.000 C 
BRANCH   3   4
ATOM      4  C   UNL     1      61.450  32.542  60.377  1.00  0.00    -0.000 C 
BRANCH   4   5
ATOM      5  C   UNL     1      61.928  32.890  58.955  1.00  0.00    -0.000 C 
BRANCH   5   6
ATOM      6  C   UNL     1      63.461  32.829  58.823  1.00  0.00    -0.000 C 
BRANCH   6   7
ATOM      7  C   UNL     1      64.202  33.093  60.148  1.00  0.00    -0.000 C 
BRANCH   7   8
ATOM      8  C   UNL     1      64.643  34.553  60.362  1.00  0.00    -0.000 C 
BRANCH   8   9
ATOM      9  C   UNL     1      63.747  35.326  61.348  1.00  0.00    -0.000 C 
BRANCH   9  10
ATOM     10  C   UNL     1      62.893  36.400  60.648  1.00  0.00    -0.000 C 
BRANCH  10  11
ATOM     11  C   UNL     1      61.380  36.227  60.875  1.00  0.00    -0.003 C 
ATOM     12  C   UNL     1      60.581  36.279  59.573  1.00  0.00     0.004 C 
ENDBRANCH  10  11
ENDBRANCH   9  10
ENDBRANCH   8   9
ENDBRANCH   7   8
ENDBRANCH   6   7
ENDBRANCH   5   6
ENDBRANCH   4   5
ENDBRANCH   3   4
ENDBRANCH   2   3
ENDBRANCH   1   2
BRANCH   1  13
ATOM     13  C   UNL     1      63.027  28.756  60.775  1.00  0.00     0.000 C 
BRANCH  13  14
ATOM     14  C   UNL     1      63.769  29.039  59.456  1.00  0.00     0.000 C 
BRANCH  14  15
ATOM     15  C   UNL     1      63.070  28.514  58.187  1.00  0.00     0.000 C 
BRANCH  15  16
ATOM     16  C   UNL     1      62.057  29.485  57.546  1.00  0.00     0.000 C 
BRANCH  16  17
ATOM     17  C   UNL     1      60.632  28.927  57.380  1.00  0.00     0.000 C 
BRANCH  17  18
ATOM     18  C   UNL     1      60.341  27.751  58.328  1.00  0.00     0.000 C 
BRANCH  18  19
ATOM     19  C   UNL     1      59.009  27.906  59.085  1.00  0.00     0.000 C 
BRANCH  19  20
ATOM     20  C   UNL     1      59.102  27.751  60.615  1.00  0.00     0.006 C 
BRANCH  20  21
ATOM     21  C   UNL     1      59.942  26.543  61.047  1.00  0.00     0.053 C 
BRANCH  21  22
ATOM     22  C   UNL     1      59.066  25.358  61.302  1.00  0.00     0.041 C 
ATOM     23  O   UNL     1      57.825  25.508  61.456  1.00  0.00    -0.550 OA
ATOM     24  O   UNL     1      59.615  24.083  61.341  1.00  0.00    -0.550 OA
ENDBRANCH  21  22
ENDBRANCH  20  21
ENDBRANCH  19  20
ENDBRANCH  18  19
ENDBRANCH  17  18
ENDBRANCH  16  17
ENDBRANCH  15  16
ENDBRANCH  14  15
ENDBRANCH  13  14
ENDBRANCH   1  13
TORSDOF 20
ENDMDL
