MODEL 1
REMARK VINA RESULT:    -7.087      0.000      0.000
REMARK INTER + INTRA:          -8.854
REMARK INTER:                  -8.537
REMARK INTRA:                  -0.317
REMARK UNBOUND:                -0.317
REMARK SMILES O=c1c(O)c(-c2ccc(O)c(O)c2)oc2cc(O)cc(O)c12
REMARK SMILES IDX 5 1 3 2 2 3 1 4 22 5 20 6 19 7 17 8 16 9 15 10 14 11 6 12
REMARK SMILES IDX 7 13 8 14 9 15 13 16 11 17 10 18 12 20 4 22 21 24 18 26
REMARK H PARENT 10 19 12 21 4 23 21 25 18 27
REMARK Flexibility Score: inf
ROOT
ATOM      1  C   UNL     1     -14.877   7.373  19.516  1.00  0.00     0.180 A 
ATOM      2  C   UNL     1     -13.918   7.077  20.504  1.00  0.00     0.208 A 
ATOM      3  C   UNL     1     -12.641   7.652  20.403  1.00  0.00     0.238 A 
ATOM      4  O   UNL     1     -11.771   7.385  21.276  1.00  0.00    -0.285 OA
ATOM      5  C   UNL     1     -12.352   8.524  19.334  1.00  0.00     0.111 A 
ATOM      6  C   UNL     1     -11.093   9.147  19.162  1.00  0.00     0.134 A 
ATOM      7  C   UNL     1     -10.886  10.011  18.076  1.00  0.00     0.093 A 
ATOM      8  C   UNL     1     -11.911  10.263  17.161  1.00  0.00     0.123 A 
ATOM      9  C   UNL     1     -13.158   9.649  17.326  1.00  0.00     0.094 A 
ATOM     10  C   UNL     1     -13.383   8.784  18.401  1.00  0.00     0.146 A 
ATOM     11  O   UNL     1     -14.573   8.211  18.531  1.00  0.00    -0.452 OA
ENDROOT
BRANCH   1  12
ATOM     12  C   UNL     1     -16.238   6.791  19.543  1.00  0.00     0.025 A 
ATOM     13  C   UNL     1     -17.313   7.465  20.150  1.00  0.00     0.016 A 
ATOM     14  C   UNL     1     -18.583   6.884  20.184  1.00  0.00     0.051 A 
ATOM     15  C   UNL     1     -18.798   5.621  19.628  1.00  0.00     0.157 A 
ATOM     16  C   UNL     1     -16.453   5.511  19.004  1.00  0.00     0.062 A 
ATOM     17  C   UNL     1     -17.728   4.927  19.037  1.00  0.00     0.158 A 
BRANCH  15  18
ATOM     18  O   UNL     1     -20.077   5.067  19.675  1.00  0.00    -0.504 OA
ATOM     19  H   UNL     1     -20.524   4.818  20.550  1.00  0.00     0.293 HD
ENDBRANCH  15  18
BRANCH  17  20
ATOM     20  O   UNL     1     -17.934   3.663  18.486  1.00  0.00    -0.504 OA
ATOM     21  H   UNL     1     -17.296   2.896  18.666  1.00  0.00     0.293 HD
ENDBRANCH  17  20
ENDBRANCH   1  12
BRANCH   2  22
ATOM     22  O   UNL     1     -14.246   6.248  21.581  1.00  0.00    -0.502 OA
ATOM     23  H   UNL     1     -14.996   6.467  22.225  1.00  0.00     0.293 HD
ENDBRANCH   2  22
BRANCH   6  24
ATOM     24  O   UNL     1     -10.049   8.917  20.060  1.00  0.00    -0.507 OA
ATOM     25  H   UNL     1      -9.177   8.491  19.765  1.00  0.00     0.293 HD
ENDBRANCH   6  24
BRANCH   8  26
ATOM     26  O   UNL     1     -11.680  11.125  16.091  1.00  0.00    -0.508 OA
ATOM     27  H   UNL     1     -10.797  11.611  15.984  1.00  0.00     0.293 HD
ENDBRANCH   8  26
TORSDOF 6
ENDMDL
MODEL 2
REMARK VINA RESULT:    -7.004      1.692      2.350
REMARK INTER + INTRA:          -8.754
REMARK INTER:                  -8.423
REMARK INTRA:                  -0.330
REMARK UNBOUND:                -0.317
REMARK SMILES O=c1c(O)c(-c2ccc(O)c(O)c2)oc2cc(O)cc(O)c12
REMARK SMILES IDX 5 1 3 2 2 3 1 4 22 5 20 6 19 7 17 8 16 9 15 10 14 11 6 12
REMARK SMILES IDX 7 13 8 14 9 15 13 16 11 17 10 18 12 20 4 22 21 24 18 26
REMARK H PARENT 10 19 12 21 4 23 21 25 18 27
REMARK Flexibility Score: inf
ROOT
ATOM      1  C   UNL     1     -14.158   8.469  18.879  1.00  0.00     0.180 A 
ATOM      2  C   UNL     1     -13.374   9.084  19.875  1.00  0.00     0.208 A 
ATOM      3  C   UNL     1     -12.184   9.726  19.500  1.00  0.00     0.238 A 
ATOM      4  O   UNL     1     -11.469  10.271  20.384  1.00  0.00    -0.285 OA
ATOM      5  C   UNL     1     -11.809   9.761  18.141  1.00  0.00     0.111 A 
ATOM      6  C   UNL     1     -10.628  10.392  17.680  1.00  0.00     0.134 A 
ATOM      7  C   UNL     1     -10.328  10.392  16.310  1.00  0.00     0.093 A 
ATOM      8  C   UNL     1     -11.184   9.776  15.394  1.00  0.00     0.123 A 
ATOM      9  C   UNL     1     -12.352   9.151  15.843  1.00  0.00     0.094 A 
ATOM     10  C   UNL     1     -12.667   9.139  17.205  1.00  0.00     0.146 A 
ATOM     11  O   UNL     1     -13.779   8.535  17.606  1.00  0.00    -0.452 OA
ENDROOT
BRANCH   1  12
ATOM     12  C   UNL     1     -15.415   7.755  19.197  1.00  0.00     0.025 A 
ATOM     13  C   UNL     1     -15.416   6.396  19.558  1.00  0.00     0.016 A 
ATOM     14  C   UNL     1     -16.617   5.737  19.830  1.00  0.00     0.051 A 
ATOM     15  C   UNL     1     -17.834   6.418  19.734  1.00  0.00     0.157 A 
ATOM     16  C   UNL     1     -16.641   8.430  19.081  1.00  0.00     0.062 A 
ATOM     17  C   UNL     1     -17.849   7.770  19.354  1.00  0.00     0.158 A 
BRANCH  15  18
ATOM     18  O   UNL     1     -19.017   5.734  20.013  1.00  0.00    -0.504 OA
ATOM     19  H   UNL     1     -19.570   5.930  20.839  1.00  0.00     0.293 HD
ENDBRANCH  15  18
BRANCH  17  20
ATOM     20  O   UNL     1     -19.059   8.453  19.250  1.00  0.00    -0.504 OA
ATOM     21  H   UNL     1     -19.459   8.689  18.349  1.00  0.00     0.293 HD
ENDBRANCH  17  20
ENDBRANCH   1  12
BRANCH   2  22
ATOM     22  O   UNL     1     -13.794   9.077  21.208  1.00  0.00    -0.502 OA
ATOM     23  H   UNL     1     -14.553   9.659  21.540  1.00  0.00     0.293 HD
ENDBRANCH   2  22
BRANCH   6  24
ATOM     24  O   UNL     1      -9.752  11.017  18.571  1.00  0.00    -0.507 OA
ATOM     25  H   UNL     1      -8.754  10.844  18.547  1.00  0.00     0.293 HD
ENDBRANCH   6  24
BRANCH   8  26
ATOM     26  O   UNL     1     -10.863   9.791  14.038  1.00  0.00    -0.508 OA
ATOM     27  H   UNL     1     -10.899  10.646  13.494  1.00  0.00     0.293 HD
ENDBRANCH   8  26
TORSDOF 6
ENDMDL
MODEL 3
REMARK VINA RESULT:    -6.923      2.631      4.148
REMARK INTER + INTRA:          -8.657
REMARK INTER:                  -8.406
REMARK INTRA:                  -0.251
REMARK UNBOUND:                -0.317
REMARK SMILES O=c1c(O)c(-c2ccc(O)c(O)c2)oc2cc(O)cc(O)c12
REMARK SMILES IDX 5 1 3 2 2 3 1 4 22 5 20 6 19 7 17 8 16 9 15 10 14 11 6 12
REMARK SMILES IDX 7 13 8 14 9 15 13 16 11 17 10 18 12 20 4 22 21 24 18 26
REMARK H PARENT 10 19 12 21 4 23 21 25 18 27
REMARK Flexibility Score: inf
ROOT
ATOM      1  C   UNL     1     -12.330   9.289  17.373  1.00  0.00     0.180 A 
ATOM      2  C   UNL     1     -11.129   9.028  18.061  1.00  0.00     0.208 A 
ATOM      3  C   UNL     1      -9.910   9.222  17.393  1.00  0.00     0.238 A 
ATOM      4  O   UNL     1      -8.828   8.982  17.995  1.00  0.00    -0.285 OA
ATOM      5  C   UNL     1      -9.910   9.692  16.063  1.00  0.00     0.111 A 
ATOM      6  C   UNL     1      -8.725   9.918  15.322  1.00  0.00     0.134 A 
ATOM      7  C   UNL     1      -8.809  10.396  14.006  1.00  0.00     0.093 A 
ATOM      8  C   UNL     1     -10.049  10.651  13.418  1.00  0.00     0.123 A 
ATOM      9  C   UNL     1     -11.224  10.429  14.145  1.00  0.00     0.094 A 
ATOM     10  C   UNL     1     -11.162   9.952  15.458  1.00  0.00     0.146 A 
ATOM     11  O   UNL     1     -12.291   9.745  16.125  1.00  0.00    -0.452 OA
ENDROOT
BRANCH   1  12
ATOM     12  C   UNL     1     -13.655   9.089  18.002  1.00  0.00     0.025 A 
ATOM     13  C   UNL     1     -14.139   9.968  18.987  1.00  0.00     0.016 A 
ATOM     14  C   UNL     1     -15.382   9.745  19.585  1.00  0.00     0.051 A 
ATOM     15  C   UNL     1     -16.154   8.639  19.219  1.00  0.00     0.157 A 
ATOM     16  C   UNL     1     -14.424   7.967  17.653  1.00  0.00     0.062 A 
ATOM     17  C   UNL     1     -15.673   7.742  18.251  1.00  0.00     0.158 A 
BRANCH  15  18
ATOM     18  O   UNL     1     -17.392   8.443  19.831  1.00  0.00    -0.504 OA
ATOM     19  H   UNL     1     -17.872   9.186  20.325  1.00  0.00     0.293 HD
ENDBRANCH  15  18
BRANCH  17  20
ATOM     20  O   UNL     1     -16.434   6.632  17.887  1.00  0.00    -0.504 OA
ATOM     21  H   UNL     1     -16.425   6.270  16.940  1.00  0.00     0.293 HD
ENDBRANCH  17  20
ENDBRANCH   1  12
BRANCH   2  22
ATOM     22  O   UNL     1     -11.155   8.611  19.394  1.00  0.00    -0.502 OA
ATOM     23  H   UNL     1     -10.553   7.875  19.744  1.00  0.00     0.293 HD
ENDBRANCH   2  22
BRANCH   6  24
ATOM     24  O   UNL     1      -7.470   9.674  15.882  1.00  0.00    -0.507 OA
ATOM     25  H   UNL     1      -6.883  10.427  16.223  1.00  0.00     0.293 HD
ENDBRANCH   6  24
BRANCH   8  26
ATOM     26  O   UNL     1     -10.105  11.125  12.109  1.00  0.00    -0.508 OA
ATOM     27  H   UNL     1      -9.535  11.905  11.804  1.00  0.00     0.293 HD
ENDBRANCH   8  26
TORSDOF 6
ENDMDL
MODEL 4
REMARK VINA RESULT:    -6.903     13.406     14.182
REMARK INTER + INTRA:          -8.632
REMARK INTER:                  -8.380
REMARK INTRA:                  -0.253
REMARK UNBOUND:                -0.317
REMARK SMILES O=c1c(O)c(-c2ccc(O)c(O)c2)oc2cc(O)cc(O)c12
REMARK SMILES IDX 5 1 3 2 2 3 1 4 22 5 20 6 19 7 17 8 16 9 15 10 14 11 6 12
REMARK SMILES IDX 7 13 8 14 9 15 13 16 11 17 10 18 12 20 4 22 21 24 18 26
REMARK H PARENT 10 19 12 21 4 23 21 25 18 27
REMARK Flexibility Score: inf
ROOT
ATOM      1  C   UNL     1     -13.558  -6.242  20.435  1.00  0.00     0.180 A 
ATOM      2  C   UNL     1     -12.576  -6.221  21.444  1.00  0.00     0.208 A 
ATOM      3  C   UNL     1     -11.223  -6.293  21.075  1.00  0.00     0.238 A 
ATOM      4  O   UNL     1     -10.335  -6.286  21.971  1.00  0.00    -0.285 OA
ATOM      5  C   UNL     1     -10.876  -6.363  19.711  1.00  0.00     0.111 A 
ATOM      6  C   UNL     1      -9.537  -6.434  19.256  1.00  0.00     0.134 A 
ATOM      7  C   UNL     1      -9.272  -6.492  17.879  1.00  0.00     0.093 A 
ATOM      8  C   UNL     1     -10.316  -6.480  16.952  1.00  0.00     0.123 A 
ATOM      9  C   UNL     1     -11.641  -6.411  17.396  1.00  0.00     0.094 A 
ATOM     10  C   UNL     1     -11.926  -6.354  18.763  1.00  0.00     0.146 A 
ATOM     11  O   UNL     1     -13.192  -6.294  19.158  1.00  0.00    -0.452 OA
ENDROOT
BRANCH   1  12
ATOM     12  C   UNL     1     -15.005  -6.189  20.745  1.00  0.00     0.025 A 
ATOM     13  C   UNL     1     -15.752  -5.013  20.559  1.00  0.00     0.016 A 
ATOM     14  C   UNL     1     -17.111  -4.980  20.882  1.00  0.00     0.051 A 
ATOM     15  C   UNL     1     -17.741  -6.113  21.406  1.00  0.00     0.157 A 
ATOM     16  C   UNL     1     -15.636  -7.319  21.292  1.00  0.00     0.062 A 
ATOM     17  C   UNL     1     -17.000  -7.288  21.616  1.00  0.00     0.158 A 
BRANCH  15  18
ATOM     18  O   UNL     1     -19.099  -6.051  21.717  1.00  0.00    -0.504 OA
ATOM     19  H   UNL     1     -19.571  -6.794  22.218  1.00  0.00     0.293 HD
ENDBRANCH  15  18
BRANCH  17  20
ATOM     20  O   UNL     1     -17.620  -8.419  22.144  1.00  0.00    -0.504 OA
ATOM     21  H   UNL     1     -18.051  -8.408  23.062  1.00  0.00     0.293 HD
ENDBRANCH  17  20
ENDBRANCH   1  12
BRANCH   2  22
ATOM     22  O   UNL     1     -12.945  -6.101  22.787  1.00  0.00    -0.502 OA
ATOM     23  H   UNL     1     -13.911  -6.145  23.089  1.00  0.00     0.293 HD
ENDBRANCH   2  22
BRANCH   6  24
ATOM     24  O   UNL     1      -8.471  -6.446  20.157  1.00  0.00    -0.507 OA
ATOM     25  H   UNL     1      -7.744  -7.151  20.113  1.00  0.00     0.293 HD
ENDBRANCH   6  24
BRANCH   8  26
ATOM     26  O   UNL     1     -10.026  -6.538  15.590  1.00  0.00    -0.508 OA
ATOM     27  H   UNL     1     -10.250  -5.770  14.968  1.00  0.00     0.293 HD
ENDBRANCH   8  26
TORSDOF 6
ENDMDL
MODEL 5
REMARK VINA RESULT:    -6.865      0.805      1.539
REMARK INTER + INTRA:          -8.586
REMARK INTER:                  -8.350
REMARK INTRA:                  -0.236
REMARK UNBOUND:                -0.317
REMARK SMILES O=c1c(O)c(-c2ccc(O)c(O)c2)oc2cc(O)cc(O)c12
REMARK SMILES IDX 5 1 3 2 2 3 1 4 22 5 20 6 19 7 17 8 16 9 15 10 14 11 6 12
REMARK SMILES IDX 7 13 8 14 9 15 13 16 11 17 10 18 12 20 4 22 21 24 18 26
REMARK H PARENT 10 19 12 21 4 23 21 25 18 27
REMARK Flexibility Score: inf
ROOT
ATOM      1  C   UNL     1     -14.971   7.676  19.587  1.00  0.00     0.180 A 
ATOM      2  C   UNL     1     -14.069   7.462  20.647  1.00  0.00     0.208 A 
ATOM      3  C   UNL     1     -12.785   8.025  20.569  1.00  0.00     0.238 A 
ATOM      4  O   UNL     1     -11.965   7.831  21.507  1.00  0.00    -0.285 OA
ATOM      5  C   UNL     1     -12.433   8.804  19.448  1.00  0.00     0.111 A 
ATOM      6  C   UNL     1     -11.163   9.410  19.294  1.00  0.00     0.134 A 
ATOM      7  C   UNL     1     -10.892  10.179  18.153  1.00  0.00     0.093 A 
ATOM      8  C   UNL     1     -11.864  10.355  17.166  1.00  0.00     0.123 A 
ATOM      9  C   UNL     1     -13.121   9.760  17.312  1.00  0.00     0.094 A 
ATOM     10  C   UNL     1     -13.410   8.988  18.441  1.00  0.00     0.146 A 
ATOM     11  O   UNL     1     -14.609   8.429  18.554  1.00  0.00    -0.452 OA
ENDROOT
BRANCH   1  12
ATOM     12  C   UNL     1     -16.335   7.100  19.588  1.00  0.00     0.025 A 
ATOM     13  C   UNL     1     -16.548   5.718  19.448  1.00  0.00     0.016 A 
ATOM     14  C   UNL     1     -17.845   5.200  19.426  1.00  0.00     0.051 A 
ATOM     15  C   UNL     1     -18.948   6.052  19.531  1.00  0.00     0.157 A 
ATOM     16  C   UNL     1     -17.446   7.956  19.671  1.00  0.00     0.062 A 
ATOM     17  C   UNL     1     -18.750   7.438  19.651  1.00  0.00     0.158 A 
BRANCH  15  18
ATOM     18  O   UNL     1     -20.231   5.507  19.508  1.00  0.00    -0.504 OA
ATOM     19  H   UNL     1     -20.748   5.309  20.357  1.00  0.00     0.293 HD
ENDBRANCH  15  18
BRANCH  17  20
ATOM     20  O   UNL     1     -19.846   8.294  19.748  1.00  0.00    -0.504 OA
ATOM     21  H   UNL     1     -20.792   7.938  19.818  1.00  0.00     0.293 HD
ENDBRANCH  17  20
ENDBRANCH   1  12
BRANCH   2  22
ATOM     22  O   UNL     1     -14.460   6.727  21.770  1.00  0.00    -0.502 OA
ATOM     23  H   UNL     1     -13.895   5.977  22.149  1.00  0.00     0.293 HD
ENDBRANCH   2  22
BRANCH   6  24
ATOM     24  O   UNL     1     -10.170   9.253  20.264  1.00  0.00    -0.507 OA
ATOM     25  H   UNL     1      -9.708  10.050  20.687  1.00  0.00     0.293 HD
ENDBRANCH   6  24
BRANCH   8  26
ATOM     26  O   UNL     1     -11.570  11.125  16.042  1.00  0.00    -0.508 OA
ATOM     27  H   UNL     1     -11.302  12.099  16.122  1.00  0.00     0.293 HD
ENDBRANCH   8  26
TORSDOF 6
ENDMDL
MODEL 6
REMARK VINA RESULT:    -6.844     13.604     15.390
REMARK INTER + INTRA:          -8.561
REMARK INTER:                  -8.232
REMARK INTRA:                  -0.329
REMARK UNBOUND:                -0.317
REMARK SMILES O=c1c(O)c(-c2ccc(O)c(O)c2)oc2cc(O)cc(O)c12
REMARK SMILES IDX 5 1 3 2 2 3 1 4 22 5 20 6 19 7 17 8 16 9 15 10 14 11 6 12
REMARK SMILES IDX 7 13 8 14 9 15 13 16 11 17 10 18 12 20 4 22 21 24 18 26
REMARK H PARENT 10 19 12 21 4 23 21 25 18 27
REMARK Flexibility Score: inf
ROOT
ATOM      1  C   UNL     1      -3.677  -1.036  16.207  1.00  0.00     0.180 A 
ATOM      2  C   UNL     1      -2.928  -0.476  15.154  1.00  0.00     0.208 A 
ATOM      3  C   UNL     1      -2.561  -1.294  14.074  1.00  0.00     0.238 A 
ATOM      4  O   UNL     1      -1.881  -0.806  13.131  1.00  0.00    -0.285 OA
ATOM      5  C   UNL     1      -2.963  -2.645  14.054  1.00  0.00     0.111 A 
ATOM      6  C   UNL     1      -2.639  -3.534  13.002  1.00  0.00     0.134 A 
ATOM      7  C   UNL     1      -3.085  -4.863  13.050  1.00  0.00     0.093 A 
ATOM      8  C   UNL     1      -3.847  -5.319  14.128  1.00  0.00     0.123 A 
ATOM      9  C   UNL     1      -4.171  -4.445  15.171  1.00  0.00     0.094 A 
ATOM     10  C   UNL     1      -3.735  -3.117  15.142  1.00  0.00     0.146 A 
ATOM     11  O   UNL     1      -4.052  -2.310  16.147  1.00  0.00    -0.452 OA
ENDROOT
BRANCH   1  12
ATOM     12  C   UNL     1      -4.086  -0.243  17.389  1.00  0.00     0.025 A 
ATOM     13  C   UNL     1      -3.227  -0.070  18.489  1.00  0.00     0.016 A 
ATOM     14  C   UNL     1      -3.644   0.661  19.603  1.00  0.00     0.051 A 
ATOM     15  C   UNL     1      -4.925   1.219  19.645  1.00  0.00     0.157 A 
ATOM     16  C   UNL     1      -5.380   0.300  17.443  1.00  0.00     0.062 A 
ATOM     17  C   UNL     1      -5.801   1.035  18.561  1.00  0.00     0.158 A 
BRANCH  15  18
ATOM     18  O   UNL     1      -5.313   1.946  20.770  1.00  0.00    -0.504 OA
ATOM     19  H   UNL     1      -4.639   2.385  21.386  1.00  0.00     0.293 HD
ENDBRANCH  15  18
BRANCH  17  20
ATOM     20  O   UNL     1      -7.082   1.582  18.599  1.00  0.00    -0.504 OA
ATOM     21  H   UNL     1      -7.809   1.276  17.962  1.00  0.00     0.293 HD
ENDBRANCH  17  20
ENDBRANCH   1  12
BRANCH   2  22
ATOM     22  O   UNL     1      -2.584   0.879  15.175  1.00  0.00    -0.502 OA
ATOM     23  H   UNL     1      -1.693   1.217  14.832  1.00  0.00     0.293 HD
ENDBRANCH   2  22
BRANCH   6  24
ATOM     24  O   UNL     1      -1.879  -3.108  11.910  1.00  0.00    -0.507 OA
ATOM     25  H   UNL     1      -1.677  -2.128  11.751  1.00  0.00     0.293 HD
ENDBRANCH   6  24
BRANCH   8  26
ATOM     26  O   UNL     1      -4.279  -6.643  14.152  1.00  0.00    -0.508 OA
ATOM     27  H   UNL     1      -4.008  -7.302  13.431  1.00  0.00     0.293 HD
ENDBRANCH   8  26
TORSDOF 6
ENDMDL
MODEL 7
REMARK VINA RESULT:    -6.780      2.008      3.412
REMARK INTER + INTRA:          -8.484
REMARK INTER:                  -8.170
REMARK INTRA:                  -0.314
REMARK UNBOUND:                -0.317
REMARK SMILES O=c1c(O)c(-c2ccc(O)c(O)c2)oc2cc(O)cc(O)c12
REMARK SMILES IDX 5 1 3 2 2 3 1 4 22 5 20 6 19 7 17 8 16 9 15 10 14 11 6 12
REMARK SMILES IDX 7 13 8 14 9 15 13 16 11 17 10 18 12 20 4 22 21 24 18 26
REMARK H PARENT 10 19 12 21 4 23 21 25 18 27
REMARK Flexibility Score: inf
ROOT
ATOM      1  C   UNL     1     -14.020   8.462  19.345  1.00  0.00     0.180 A 
ATOM      2  C   UNL     1     -13.336   8.666  18.131  1.00  0.00     0.208 A 
ATOM      3  C   UNL     1     -12.120   9.367  18.148  1.00  0.00     0.238 A 
ATOM      4  O   UNL     1     -11.504   9.565  17.065  1.00  0.00    -0.285 OA
ATOM      5  C   UNL     1     -11.601   9.833  19.373  1.00  0.00     0.111 A 
ATOM      6  C   UNL     1     -10.381  10.544  19.476  1.00  0.00     0.134 A 
ATOM      7  C   UNL     1      -9.926  10.967  20.734  1.00  0.00     0.093 A 
ATOM      8  C   UNL     1     -10.665  10.693  21.887  1.00  0.00     0.123 A 
ATOM      9  C   UNL     1     -11.872   9.991  21.791  1.00  0.00     0.094 A 
ATOM     10  C   UNL     1     -12.343   9.563  20.547  1.00  0.00     0.146 A 
ATOM     11  O   UNL     1     -13.493   8.903  20.482  1.00  0.00    -0.452 OA
ENDROOT
BRANCH   1  12
ATOM     12  C   UNL     1     -15.317   7.749  19.406  1.00  0.00     0.025 A 
ATOM     13  C   UNL     1     -15.380   6.346  19.457  1.00  0.00     0.016 A 
ATOM     14  C   UNL     1     -16.615   5.694  19.489  1.00  0.00     0.051 A 
ATOM     15  C   UNL     1     -17.804   6.430  19.459  1.00  0.00     0.157 A 
ATOM     16  C   UNL     1     -16.512   8.484  19.354  1.00  0.00     0.062 A 
ATOM     17  C   UNL     1     -17.754   7.832  19.387  1.00  0.00     0.158 A 
BRANCH  15  18
ATOM     18  O   UNL     1     -19.022   5.752  19.494  1.00  0.00    -0.504 OA
ATOM     19  H   UNL     1     -19.456   5.469  20.365  1.00  0.00     0.293 HD
ENDBRANCH  15  18
BRANCH  17  20
ATOM     20  O   UNL     1     -18.935   8.572  19.349  1.00  0.00    -0.504 OA
ATOM     21  H   UNL     1     -18.927   9.577  19.224  1.00  0.00     0.293 HD
ENDBRANCH  17  20
ENDBRANCH   1  12
BRANCH   2  22
ATOM     22  O   UNL     1     -13.848   8.151  16.937  1.00  0.00    -0.502 OA
ATOM     23  H   UNL     1     -13.369   7.432  16.407  1.00  0.00     0.293 HD
ENDBRANCH   2  22
BRANCH   6  24
ATOM     24  O   UNL     1      -9.619  10.832  18.343  1.00  0.00    -0.507 OA
ATOM     25  H   UNL     1      -8.689  11.230  18.413  1.00  0.00     0.293 HD
ENDBRANCH   6  24
BRANCH   8  26
ATOM     26  O   UNL     1     -10.192  11.123  23.125  1.00  0.00    -0.508 OA
ATOM     27  H   UNL     1      -9.720  12.014  23.231  1.00  0.00     0.293 HD
ENDBRANCH   8  26
TORSDOF 6
ENDMDL
MODEL 8
REMARK VINA RESULT:    -6.770      1.531      6.805
REMARK INTER + INTRA:          -8.472
REMARK INTER:                  -8.332
REMARK INTRA:                  -0.140
REMARK UNBOUND:                -0.317
REMARK SMILES O=c1c(O)c(-c2ccc(O)c(O)c2)oc2cc(O)cc(O)c12
REMARK SMILES IDX 5 1 3 2 2 3 1 4 22 5 20 6 19 7 17 8 16 9 15 10 14 11 6 12
REMARK SMILES IDX 7 13 8 14 9 15 13 16 11 17 10 18 12 20 4 22 21 24 18 26
REMARK H PARENT 10 19 12 21 4 23 21 25 18 27
REMARK Flexibility Score: inf
ROOT
ATOM      1  C   UNL     1     -14.261   8.053  19.444  1.00  0.00     0.180 A 
ATOM      2  C   UNL     1     -14.733   8.318  20.744  1.00  0.00     0.208 A 
ATOM      3  C   UNL     1     -15.858   7.621  21.212  1.00  0.00     0.238 A 
ATOM      4  O   UNL     1     -16.296   7.858  22.371  1.00  0.00    -0.285 OA
ATOM      5  C   UNL     1     -16.476   6.660  20.385  1.00  0.00     0.111 A 
ATOM      6  C   UNL     1     -17.610   5.912  20.784  1.00  0.00     0.134 A 
ATOM      7  C   UNL     1     -18.163   4.967  19.907  1.00  0.00     0.093 A 
ATOM      8  C   UNL     1     -17.606   4.756  18.643  1.00  0.00     0.123 A 
ATOM      9  C   UNL     1     -16.486   5.493  18.244  1.00  0.00     0.094 A 
ATOM     10  C   UNL     1     -15.921   6.441  19.103  1.00  0.00     0.146 A 
ATOM     11  O   UNL     1     -14.861   7.130  18.699  1.00  0.00    -0.452 OA
ENDROOT
BRANCH   1  12
ATOM     12  C   UNL     1     -13.094   8.761  18.872  1.00  0.00     0.025 A 
ATOM     13  C   UNL     1     -11.817   8.657  19.451  1.00  0.00     0.016 A 
ATOM     14  C   UNL     1     -10.735   9.354  18.908  1.00  0.00     0.051 A 
ATOM     15  C   UNL     1     -10.911  10.174  17.790  1.00  0.00     0.157 A 
ATOM     16  C   UNL     1     -13.272   9.603  17.761  1.00  0.00     0.062 A 
ATOM     17  C   UNL     1     -12.187  10.303  17.214  1.00  0.00     0.158 A 
BRANCH  15  18
ATOM     18  O   UNL     1      -9.812  10.857  17.269  1.00  0.00    -0.504 OA
ATOM     19  H   UNL     1      -9.717  11.862  17.346  1.00  0.00     0.293 HD
ENDBRANCH  15  18
BRANCH  17  20
ATOM     20  O   UNL     1     -12.371  11.124  16.103  1.00  0.00    -0.504 OA
ATOM     21  H   UNL     1     -12.862  10.799  15.279  1.00  0.00     0.293 HD
ENDBRANCH  17  20
ENDBRANCH   1  12
BRANCH   2  22
ATOM     22  O   UNL     1     -14.072   9.239  21.561  1.00  0.00    -0.502 OA
ATOM     23  H   UNL     1     -13.413   9.914  21.194  1.00  0.00     0.293 HD
ENDBRANCH   2  22
BRANCH   6  24
ATOM     24  O   UNL     1     -18.190   6.098  22.040  1.00  0.00    -0.507 OA
ATOM     25  H   UNL     1     -17.901   5.555  22.846  1.00  0.00     0.293 HD
ENDBRANCH   6  24
BRANCH   8  26
ATOM     26  O   UNL     1     -18.174   3.811  17.791  1.00  0.00    -0.508 OA
ATOM     27  H   UNL     1     -18.378   4.027  16.822  1.00  0.00     0.293 HD
ENDBRANCH   8  26
TORSDOF 6
ENDMDL
MODEL 9
REMARK VINA RESULT:    -6.669     10.166     12.426
REMARK INTER + INTRA:          -8.351
REMARK INTER:                  -8.230
REMARK INTRA:                  -0.120
REMARK UNBOUND:                -0.317
REMARK SMILES O=c1c(O)c(-c2ccc(O)c(O)c2)oc2cc(O)cc(O)c12
REMARK SMILES IDX 5 1 3 2 2 3 1 4 22 5 20 6 19 7 17 8 16 9 15 10 14 11 6 12
REMARK SMILES IDX 7 13 8 14 9 15 13 16 11 17 10 18 12 20 4 22 21 24 18 26
REMARK H PARENT 10 19 12 21 4 23 21 25 18 27
REMARK Flexibility Score: inf
ROOT
ATOM      1  C   UNL     1      -4.842   1.520  18.205  1.00  0.00     0.180 A 
ATOM      2  C   UNL     1      -6.189   1.590  18.610  1.00  0.00     0.208 A 
ATOM      3  C   UNL     1      -6.587   2.632  19.462  1.00  0.00     0.238 A 
ATOM      4  O   UNL     1      -7.789   2.699  19.840  1.00  0.00    -0.285 OA
ATOM      5  C   UNL     1      -5.643   3.594  19.875  1.00  0.00     0.111 A 
ATOM      6  C   UNL     1      -5.964   4.677  20.728  1.00  0.00     0.134 A 
ATOM      7  C   UNL     1      -4.969   5.599  21.088  1.00  0.00     0.093 A 
ATOM      8  C   UNL     1      -3.664   5.459  20.612  1.00  0.00     0.123 A 
ATOM      9  C   UNL     1      -3.340   4.390  19.769  1.00  0.00     0.094 A 
ATOM     10  C   UNL     1      -4.317   3.461  19.400  1.00  0.00     0.146 A 
ATOM     11  O   UNL     1      -3.983   2.453  18.603  1.00  0.00    -0.452 OA
ENDROOT
BRANCH   1  12
ATOM     12  C   UNL     1      -4.341   0.440  17.325  1.00  0.00     0.025 A 
ATOM     13  C   UNL     1      -4.859   0.248  16.032  1.00  0.00     0.016 A 
ATOM     14  C   UNL     1      -4.388  -0.793  15.229  1.00  0.00     0.051 A 
ATOM     15  C   UNL     1      -3.405  -1.665  15.705  1.00  0.00     0.157 A 
ATOM     16  C   UNL     1      -3.368  -0.451  17.809  1.00  0.00     0.062 A 
ATOM     17  C   UNL     1      -2.893  -1.496  17.003  1.00  0.00     0.158 A 
BRANCH  15  18
ATOM     18  O   UNL     1      -2.952  -2.694  14.880  1.00  0.00    -0.504 OA
ATOM     19  H   UNL     1      -2.424  -3.480  15.239  1.00  0.00     0.293 HD
ENDBRANCH  15  18
BRANCH  17  20
ATOM     20  O   UNL     1      -1.917  -2.366  17.487  1.00  0.00    -0.504 OA
ATOM     21  H   UNL     1      -1.311  -2.884  16.862  1.00  0.00     0.293 HD
ENDBRANCH  17  20
ENDBRANCH   1  12
BRANCH   2  22
ATOM     22  O   UNL     1      -7.115   0.652  18.147  1.00  0.00    -0.502 OA
ATOM     23  H   UNL     1      -7.661   0.073  18.773  1.00  0.00     0.293 HD
ENDBRANCH   2  22
BRANCH   6  24
ATOM     24  O   UNL     1      -7.260   4.845  21.220  1.00  0.00    -0.507 OA
ATOM     25  H   UNL     1      -7.621   4.275  21.976  1.00  0.00     0.293 HD
ENDBRANCH   6  24
BRANCH   8  26
ATOM     26  O   UNL     1      -2.694   6.389  20.983  1.00  0.00    -0.508 OA
ATOM     27  H   UNL     1      -1.810   6.100  21.386  1.00  0.00     0.293 HD
ENDBRANCH   8  26
TORSDOF 6
ENDMDL
