MODEL 1
REMARK VINA RESULT:    -5.606      0.000      0.000
REMARK INTER + INTRA:          -8.274
REMARK INTER:                  -7.573
REMARK INTRA:                  -0.702
REMARK UNBOUND:                -0.702
REMARK SMILES COc1ccc(-c2cc(=O)c3c(OC)c(OC)c(OC)c(OC)c3o2)cc1
REMARK SMILES IDX 7 1 8 2 9 3 10 4 11 5 24 6 25 7 21 8 18 9 15 10 12 11 6 12
REMARK SMILES IDX 3 13 4 14 27 15 5 16 26 17 2 18 1 19 22 20 23 21 13 22 14 23
REMARK SMILES IDX 19 24 20 25 16 26 17 27
REMARK H PARENT
REMARK Flexibility Score: inf
ROOT
ATOM      1  C   UNL     1      13.373  38.673  15.501  1.00  0.00     0.138 A 
ATOM      2  C   UNL     1      12.316  39.089  14.680  1.00  0.00     0.100 A 
ATOM      3  C   UNL     1      12.490  39.100  13.296  1.00  0.00     0.197 A 
ATOM      4  O   UNL     1      11.532  39.480  12.569  1.00  0.00    -0.289 OA
ATOM      5  C   UNL     1      13.724  38.700  12.741  1.00  0.00     0.115 A 
ATOM      6  C   UNL     1      14.743  38.301  13.633  1.00  0.00     0.188 A 
ATOM      7  O   UNL     1      14.525  38.307  14.946  1.00  0.00    -0.452 OA
ATOM      8  C   UNL     1      15.993  37.882  13.160  1.00  0.00     0.209 A 
ATOM      9  C   UNL     1      16.258  37.883  11.766  1.00  0.00     0.211 A 
ATOM     10  C   UNL     1      15.252  38.330  10.872  1.00  0.00     0.208 A 
ATOM     11  C   UNL     1      13.970  38.672  11.354  1.00  0.00     0.179 A 
ENDROOT
BRANCH   1  12
ATOM     12  C   UNL     1      13.253  38.640  16.981  1.00  0.00     0.018 A 
ATOM     13  C   UNL     1      13.092  38.580  19.801  1.00  0.00     0.118 A 
ATOM     14  C   UNL     1      12.062  38.028  19.017  1.00  0.00     0.047 A 
ATOM     15  C   UNL     1      14.199  39.149  19.166  1.00  0.00     0.047 A 
ATOM     16  C   UNL     1      12.144  38.054  17.622  1.00  0.00     0.016 A 
ATOM     17  C   UNL     1      14.284  39.176  17.771  1.00  0.00     0.016 A 
BRANCH  13  18
ATOM     18  O   UNL     1      13.054  38.579  21.203  1.00  0.00    -0.497 OA
ATOM     19  C   UNL     1      12.436  37.566  21.991  1.00  0.00     0.278 C 
ENDBRANCH  13  18
ENDBRANCH   1  12
BRANCH   8  20
ATOM     20  O   UNL     1      16.926  37.480  14.138  1.00  0.00    -0.490 OA
ATOM     21  C   UNL     1      17.228  36.149  14.540  1.00  0.00     0.278 C 
ENDBRANCH   8  20
BRANCH  11  22
ATOM     22  O   UNL     1      12.936  38.979  10.460  1.00  0.00    -0.492 OA
ATOM     23  C   UNL     1      12.269  37.982   9.694  1.00  0.00     0.278 C 
ENDBRANCH  11  22
BRANCH   9  24
ATOM     24  O   UNL     1      17.523  37.450  11.326  1.00  0.00    -0.490 OA
ATOM     25  C   UNL     1      17.873  36.155  10.849  1.00  0.00     0.279 C 
ENDBRANCH   9  24
BRANCH  10  26
ATOM     26  O   UNL     1      15.532  38.450   9.507  1.00  0.00    -0.490 OA
ATOM     27  C   UNL     1      16.132  39.615   8.950  1.00  0.00     0.278 C 
ENDBRANCH  10  26
TORSDOF 6
ENDMDL
MODEL 2
REMARK VINA RESULT:    -5.453      3.497      8.088
REMARK INTER + INTRA:          -8.068
REMARK INTER:                  -7.410
REMARK INTRA:                  -0.657
REMARK UNBOUND:                -0.702
REMARK SMILES COc1ccc(-c2cc(=O)c3c(OC)c(OC)c(OC)c(OC)c3o2)cc1
REMARK SMILES IDX 7 1 8 2 9 3 10 4 11 5 24 6 25 7 21 8 18 9 15 10 12 11 6 12
REMARK SMILES IDX 3 13 4 14 27 15 5 16 26 17 2 18 1 19 22 20 23 21 13 22 14 23
REMARK SMILES IDX 19 24 20 25 16 26 17 27
REMARK H PARENT
REMARK Flexibility Score: inf
ROOT
ATOM      1  C   UNL     1      11.850  36.756  14.802  1.00  0.00     0.138 A 
ATOM      2  C   UNL     1      11.961  35.358  14.771  1.00  0.00     0.100 A 
ATOM      3  C   UNL     1      12.446  34.687  15.893  1.00  0.00     0.197 A 
ATOM      4  O   UNL     1      12.544  33.430  15.852  1.00  0.00    -0.289 OA
ATOM      5  C   UNL     1      12.823  35.419  17.040  1.00  0.00     0.115 A 
ATOM      6  C   UNL     1      12.688  36.823  16.993  1.00  0.00     0.188 A 
ATOM      7  O   UNL     1      12.219  37.415  15.896  1.00  0.00    -0.452 OA
ATOM      8  C   UNL     1      13.032  37.619  18.092  1.00  0.00     0.209 A 
ATOM      9  C   UNL     1      13.552  37.015  19.267  1.00  0.00     0.211 A 
ATOM     10  C   UNL     1      13.734  35.609  19.298  1.00  0.00     0.208 A 
ATOM     11  C   UNL     1      13.307  34.810  18.215  1.00  0.00     0.179 A 
ENDROOT
BRANCH   1  12
ATOM     12  C   UNL     1      11.344  37.530  13.640  1.00  0.00     0.018 A 
ATOM     13  C   UNL     1      10.338  38.951  11.415  1.00  0.00     0.118 A 
ATOM     14  C   UNL     1      11.631  39.214  11.903  1.00  0.00     0.047 A 
ATOM     15  C   UNL     1       9.562  37.970  12.040  1.00  0.00     0.047 A 
ATOM     16  C   UNL     1      12.129  38.508  13.002  1.00  0.00     0.016 A 
ATOM     17  C   UNL     1      10.059  37.262  13.138  1.00  0.00     0.016 A 
BRANCH  13  18
ATOM     18  O   UNL     1       9.793  39.634  10.318  1.00  0.00    -0.497 OA
ATOM     19  C   UNL     1       8.417  39.975  10.185  1.00  0.00     0.278 C 
ENDBRANCH  13  18
ENDBRANCH   1  12
BRANCH   8  20
ATOM     20  O   UNL     1      12.833  39.006  17.944  1.00  0.00    -0.490 OA
ATOM     21  C   UNL     1      13.807  39.980  17.586  1.00  0.00     0.278 C 
ENDBRANCH   8  20
BRANCH  11  22
ATOM     22  O   UNL     1      13.357  33.413  18.302  1.00  0.00    -0.492 OA
ATOM     23  C   UNL     1      12.372  32.656  18.997  1.00  0.00     0.278 C 
ENDBRANCH  11  22
BRANCH   9  24
ATOM     24  O   UNL     1      13.882  37.844  20.355  1.00  0.00    -0.490 OA
ATOM     25  C   UNL     1      13.065  38.159  21.477  1.00  0.00     0.279 C 
ENDBRANCH   9  24
BRANCH  10  26
ATOM     26  O   UNL     1      14.353  35.007  20.398  1.00  0.00    -0.490 OA
ATOM     27  C   UNL     1      15.766  34.865  20.496  1.00  0.00     0.278 C 
ENDBRANCH  10  26
TORSDOF 6
ENDMDL
MODEL 3
REMARK VINA RESULT:    -5.438      3.782      7.706
REMARK INTER + INTRA:          -8.048
REMARK INTER:                  -7.336
REMARK INTRA:                  -0.711
REMARK UNBOUND:                -0.702
REMARK SMILES COc1ccc(-c2cc(=O)c3c(OC)c(OC)c(OC)c(OC)c3o2)cc1
REMARK SMILES IDX 7 1 8 2 9 3 10 4 11 5 24 6 25 7 21 8 18 9 15 10 12 11 6 12
REMARK SMILES IDX 3 13 4 14 27 15 5 16 26 17 2 18 1 19 22 20 23 21 13 22 14 23
REMARK SMILES IDX 19 24 20 25 16 26 17 27
REMARK H PARENT
REMARK Flexibility Score: inf
ROOT
ATOM      1  C   UNL     1      11.911  38.099  14.606  1.00  0.00     0.138 A 
ATOM      2  C   UNL     1      12.581  39.103  15.318  1.00  0.00     0.100 A 
ATOM      3  C   UNL     1      13.331  38.758  16.443  1.00  0.00     0.197 A 
ATOM      4  O   UNL     1      13.926  39.671  17.077  1.00  0.00    -0.289 OA
ATOM      5  C   UNL     1      13.401  37.408  16.851  1.00  0.00     0.115 A 
ATOM      6  C   UNL     1      12.695  36.456  16.086  1.00  0.00     0.188 A 
ATOM      7  O   UNL     1      11.994  36.838  15.021  1.00  0.00    -0.452 OA
ATOM      8  C   UNL     1      12.722  35.097  16.422  1.00  0.00     0.209 A 
ATOM      9  C   UNL     1      13.445  34.664  17.563  1.00  0.00     0.211 A 
ATOM     10  C   UNL     1      14.116  35.626  18.361  1.00  0.00     0.208 A 
ATOM     11  C   UNL     1      14.149  36.982  17.967  1.00  0.00     0.179 A 
ENDROOT
BRANCH   1  12
ATOM     12  C   UNL     1      11.095  38.401  13.402  1.00  0.00     0.018 A 
ATOM     13  C   UNL     1       9.507  38.918  11.123  1.00  0.00     0.118 A 
ATOM     14  C   UNL     1      10.802  39.457  11.226  1.00  0.00     0.047 A 
ATOM     15  C   UNL     1       9.021  38.115  12.159  1.00  0.00     0.047 A 
ATOM     16  C   UNL     1      11.589  39.198  12.352  1.00  0.00     0.016 A 
ATOM     17  C   UNL     1       9.806  37.853  13.285  1.00  0.00     0.016 A 
BRANCH  13  18
ATOM     18  O   UNL     1       8.680  39.150  10.015  1.00  0.00    -0.497 OA
ATOM     19  C   UNL     1       8.016  40.383   9.751  1.00  0.00     0.278 C 
ENDBRANCH  13  18
ENDBRANCH   1  12
BRANCH   8  20
ATOM     20  O   UNL     1      12.001  34.231  15.573  1.00  0.00    -0.490 OA
ATOM     21  C   UNL     1      12.529  33.406  14.541  1.00  0.00     0.278 C 
ENDBRANCH   8  20
BRANCH  11  22
ATOM     22  O   UNL     1      14.926  37.907  18.676  1.00  0.00    -0.492 OA
ATOM     23  C   UNL     1      16.348  37.927  18.599  1.00  0.00     0.278 C 
ENDBRANCH  11  22
BRANCH   9  24
ATOM     24  O   UNL     1      13.456  33.290  17.867  1.00  0.00    -0.490 OA
ATOM     25  C   UNL     1      12.493  32.569  18.629  1.00  0.00     0.279 C 
ENDBRANCH   9  24
BRANCH  10  26
ATOM     26  O   UNL     1      14.736  35.238  19.553  1.00  0.00    -0.490 OA
ATOM     27  C   UNL     1      14.078  35.309  20.814  1.00  0.00     0.278 C 
ENDBRANCH  10  26
TORSDOF 6
ENDMDL
MODEL 4
REMARK VINA RESULT:    -5.425     10.042     11.449
REMARK INTER + INTRA:          -8.030
REMARK INTER:                  -7.490
REMARK INTRA:                  -0.540
REMARK UNBOUND:                -0.702
REMARK SMILES COc1ccc(-c2cc(=O)c3c(OC)c(OC)c(OC)c(OC)c3o2)cc1
REMARK SMILES IDX 7 1 8 2 9 3 10 4 11 5 24 6 25 7 21 8 18 9 15 10 12 11 6 12
REMARK SMILES IDX 3 13 4 14 27 15 5 16 26 17 2 18 1 19 22 20 23 21 13 22 14 23
REMARK SMILES IDX 19 24 20 25 16 26 17 27
REMARK H PARENT
REMARK Flexibility Score: inf
ROOT
ATOM      1  C   UNL     1      19.587  39.857  24.348  1.00  0.00     0.138 A 
ATOM      2  C   UNL     1      19.390  38.469  24.388  1.00  0.00     0.100 A 
ATOM      3  C   UNL     1      19.989  37.665  23.418  1.00  0.00     0.197 A 
ATOM      4  O   UNL     1      19.801  36.419  23.464  1.00  0.00    -0.289 OA
ATOM      5  C   UNL     1      20.779  38.256  22.409  1.00  0.00     0.115 A 
ATOM      6  C   UNL     1      20.926  39.660  22.431  1.00  0.00     0.188 A 
ATOM      7  O   UNL     1      20.333  40.381  23.380  1.00  0.00    -0.452 OA
ATOM      8  C   UNL     1      21.701  40.320  21.469  1.00  0.00     0.209 A 
ATOM      9  C   UNL     1      22.328  39.577  20.436  1.00  0.00     0.211 A 
ATOM     10  C   UNL     1      22.142  38.172  20.383  1.00  0.00     0.208 A 
ATOM     11  C   UNL     1      21.426  37.509  21.404  1.00  0.00     0.179 A 
ENDROOT
BRANCH   1  12
ATOM     12  C   UNL     1      18.976  40.767  25.349  1.00  0.00     0.018 A 
ATOM     13  C   UNL     1      17.875  42.517  27.275  1.00  0.00     0.118 A 
ATOM     14  C   UNL     1      17.139  41.410  26.816  1.00  0.00     0.047 A 
ATOM     15  C   UNL     1      19.162  42.733  26.773  1.00  0.00     0.047 A 
ATOM     16  C   UNL     1      17.686  40.542  25.865  1.00  0.00     0.016 A 
ATOM     17  C   UNL     1      19.711  41.867  25.824  1.00  0.00     0.016 A 
BRANCH  13  18
ATOM     18  O   UNL     1      17.370  43.416  28.225  1.00  0.00    -0.497 OA
ATOM     19  C   UNL     1      18.132  44.450  28.839  1.00  0.00     0.278 C 
ENDBRANCH  13  18
ENDBRANCH   1  12
BRANCH   8  20
ATOM     20  O   UNL     1      21.799  41.720  21.602  1.00  0.00    -0.490 OA
ATOM     21  C   UNL     1      22.863  42.452  22.202  1.00  0.00     0.278 C 
ENDBRANCH   8  20
BRANCH  11  22
ATOM     22  O   UNL     1      21.361  36.110  21.430  1.00  0.00    -0.492 OA
ATOM     23  C   UNL     1      22.424  35.305  21.927  1.00  0.00     0.278 C 
ENDBRANCH  11  22
BRANCH   9  24
ATOM     24  O   UNL     1      23.104  40.272  19.489  1.00  0.00    -0.490 OA
ATOM     25  C   UNL     1      22.766  40.548  18.134  1.00  0.00     0.279 C 
ENDBRANCH   9  24
BRANCH  10  26
ATOM     26  O   UNL     1      22.653  37.437  19.309  1.00  0.00    -0.490 OA
ATOM     27  C   UNL     1      24.022  37.054  19.228  1.00  0.00     0.278 C 
ENDBRANCH  10  26
TORSDOF 6
ENDMDL
MODEL 5
REMARK VINA RESULT:    -5.294      3.521      4.210
REMARK INTER + INTRA:          -7.853
REMARK INTER:                  -7.195
REMARK INTRA:                  -0.658
REMARK UNBOUND:                -0.702
REMARK SMILES COc1ccc(-c2cc(=O)c3c(OC)c(OC)c(OC)c(OC)c3o2)cc1
REMARK SMILES IDX 7 1 8 2 9 3 10 4 11 5 24 6 25 7 21 8 18 9 15 10 12 11 6 12
REMARK SMILES IDX 3 13 4 14 27 15 5 16 26 17 2 18 1 19 22 20 23 21 13 22 14 23
REMARK SMILES IDX 19 24 20 25 16 26 17 27
REMARK H PARENT
REMARK Flexibility Score: inf
ROOT
ATOM      1  C   UNL     1      12.088  37.313  15.836  1.00  0.00     0.138 A 
ATOM      2  C   UNL     1      12.014  38.521  15.129  1.00  0.00     0.100 A 
ATOM      3  C   UNL     1      11.678  38.500  13.775  1.00  0.00     0.197 A 
ATOM      4  O   UNL     1      11.618  39.593  13.149  1.00  0.00    -0.289 OA
ATOM      5  C   UNL     1      11.421  37.268  13.135  1.00  0.00     0.115 A 
ATOM      6  C   UNL     1      11.521  36.095  13.913  1.00  0.00     0.188 A 
ATOM      7  O   UNL     1      11.846  36.169  15.202  1.00  0.00    -0.452 OA
ATOM      8  C   UNL     1      11.273  34.835  13.353  1.00  0.00     0.209 A 
ATOM      9  C   UNL     1      10.943  34.725  11.978  1.00  0.00     0.211 A 
ATOM     10  C   UNL     1      10.890  35.899  11.183  1.00  0.00     0.208 A 
ATOM     11  C   UNL     1      11.062  37.169  11.777  1.00  0.00     0.179 A 
ENDROOT
BRANCH   1  12
ATOM     12  C   UNL     1      12.444  37.266  17.277  1.00  0.00     0.018 A 
ATOM     13  C   UNL     1      13.127  37.111  20.014  1.00  0.00     0.118 A 
ATOM     14  C   UNL     1      12.351  38.181  19.534  1.00  0.00     0.047 A 
ATOM     15  C   UNL     1      13.547  36.121  19.121  1.00  0.00     0.047 A 
ATOM     16  C   UNL     1      12.010  38.256  18.180  1.00  0.00     0.016 A 
ATOM     17  C   UNL     1      13.206  36.192  17.767  1.00  0.00     0.016 A 
BRANCH  13  18
ATOM     18  O   UNL     1      13.496  36.993  21.362  1.00  0.00    -0.497 OA
ATOM     19  C   UNL     1      12.754  36.270  22.339  1.00  0.00     0.278 C 
ENDBRANCH  13  18
ENDBRANCH   1  12
BRANCH   8  20
ATOM     20  O   UNL     1      11.376  33.734  14.227  1.00  0.00    -0.490 OA
ATOM     21  C   UNL     1      12.504  32.885  14.408  1.00  0.00     0.278 C 
ENDBRANCH   8  20
BRANCH  11  22
ATOM     22  O   UNL     1      10.871  38.334  11.023  1.00  0.00    -0.492 OA
ATOM     23  C   UNL     1       9.577  38.854  10.735  1.00  0.00     0.278 C 
ENDBRANCH  11  22
BRANCH   9  24
ATOM     24  O   UNL     1      10.695  33.444  11.450  1.00  0.00    -0.490 OA
ATOM     25  C   UNL     1       9.463  32.730  11.463  1.00  0.00     0.279 C 
ENDBRANCH   9  24
BRANCH  10  26
ATOM     26  O   UNL     1      10.683  35.803   9.804  1.00  0.00    -0.490 OA
ATOM     27  C   UNL     1      11.758  35.710   8.875  1.00  0.00     0.278 C 
ENDBRANCH  10  26
TORSDOF 6
ENDMDL
MODEL 6
REMARK VINA RESULT:    -5.284      8.858     11.258
REMARK INTER + INTRA:          -7.839
REMARK INTER:                  -7.286
REMARK INTRA:                  -0.554
REMARK UNBOUND:                -0.702
REMARK SMILES COc1ccc(-c2cc(=O)c3c(OC)c(OC)c(OC)c(OC)c3o2)cc1
REMARK SMILES IDX 7 1 8 2 9 3 10 4 11 5 24 6 25 7 21 8 18 9 15 10 12 11 6 12
REMARK SMILES IDX 3 13 4 14 27 15 5 16 26 17 2 18 1 19 22 20 23 21 13 22 14 23
REMARK SMILES IDX 19 24 20 25 16 26 17 27
REMARK H PARENT
REMARK Flexibility Score: inf
ROOT
ATOM      1  C   UNL     1      18.976  46.669  16.415  1.00  0.00     0.138 A 
ATOM      2  C   UNL     1      19.621  45.528  15.918  1.00  0.00     0.100 A 
ATOM      3  C   UNL     1      19.064  44.271  16.153  1.00  0.00     0.197 A 
ATOM      4  O   UNL     1      19.657  43.252  15.703  1.00  0.00    -0.289 OA
ATOM      5  C   UNL     1      17.866  44.162  16.890  1.00  0.00     0.115 A 
ATOM      6  C   UNL     1      17.278  45.355  17.363  1.00  0.00     0.188 A 
ATOM      7  O   UNL     1      17.851  46.531  17.110  1.00  0.00    -0.452 OA
ATOM      8  C   UNL     1      16.084  45.332  18.094  1.00  0.00     0.209 A 
ATOM      9  C   UNL     1      15.463  44.092  18.394  1.00  0.00     0.211 A 
ATOM     10  C   UNL     1      16.077  42.889  17.961  1.00  0.00     0.208 A 
ATOM     11  C   UNL     1      17.236  42.930  17.156  1.00  0.00     0.179 A 
ENDROOT
BRANCH   1  12
ATOM     12  C   UNL     1      19.518  48.035  16.201  1.00  0.00     0.018 A 
ATOM     13  C   UNL     1      20.613  50.607  15.795  1.00  0.00     0.118 A 
ATOM     14  C   UNL     1      19.350  50.458  16.396  1.00  0.00     0.047 A 
ATOM     15  C   UNL     1      21.322  49.466  15.411  1.00  0.00     0.047 A 
ATOM     16  C   UNL     1      18.810  49.184  16.600  1.00  0.00     0.016 A 
ATOM     17  C   UNL     1      20.786  48.192  15.615  1.00  0.00     0.016 A 
BRANCH  13  18
ATOM     18  O   UNL     1      21.195  51.863  15.568  1.00  0.00    -0.497 OA
ATOM     19  C   UNL     1      22.584  52.075  15.336  1.00  0.00     0.278 C 
ENDBRANCH  13  18
ENDBRANCH   1  12
BRANCH   8  20
ATOM     20  O   UNL     1      15.574  46.583  18.494  1.00  0.00    -0.490 OA
ATOM     21  C   UNL     1      15.814  47.254  19.726  1.00  0.00     0.278 C 
ENDBRANCH   8  20
BRANCH  11  22
ATOM     22  O   UNL     1      17.763  41.751  16.612  1.00  0.00    -0.492 OA
ATOM     23  C   UNL     1      18.458  40.790  17.400  1.00  0.00     0.278 C 
ENDBRANCH  11  22
BRANCH   9  24
ATOM     24  O   UNL     1      14.261  44.106  19.126  1.00  0.00    -0.490 OA
ATOM     25  C   UNL     1      14.114  44.068  20.542  1.00  0.00     0.279 C 
ENDBRANCH   9  24
BRANCH  10  26
ATOM     26  O   UNL     1      15.546  41.654  18.345  1.00  0.00    -0.490 OA
ATOM     27  C   UNL     1      14.467  41.037  17.650  1.00  0.00     0.278 C 
ENDBRANCH  10  26
TORSDOF 6
ENDMDL
MODEL 7
REMARK VINA RESULT:    -5.265      9.916     11.486
REMARK INTER + INTRA:          -7.814
REMARK INTER:                  -7.184
REMARK INTRA:                  -0.630
REMARK UNBOUND:                -0.702
REMARK SMILES COc1ccc(-c2cc(=O)c3c(OC)c(OC)c(OC)c(OC)c3o2)cc1
REMARK SMILES IDX 7 1 8 2 9 3 10 4 11 5 24 6 25 7 21 8 18 9 15 10 12 11 6 12
REMARK SMILES IDX 3 13 4 14 27 15 5 16 26 17 2 18 1 19 22 20 23 21 13 22 14 23
REMARK SMILES IDX 19 24 20 25 16 26 17 27
REMARK H PARENT
REMARK Flexibility Score: inf
ROOT
ATOM      1  C   UNL     1      20.546  41.705  23.728  1.00  0.00     0.138 A 
ATOM      2  C   UNL     1      21.559  42.413  23.067  1.00  0.00     0.100 A 
ATOM      3  C   UNL     1      22.203  41.827  21.977  1.00  0.00     0.197 A 
ATOM      4  O   UNL     1      23.115  42.473  21.393  1.00  0.00    -0.289 OA
ATOM      5  C   UNL     1      21.832  40.531  21.558  1.00  0.00     0.115 A 
ATOM      6  C   UNL     1      20.808  39.879  22.277  1.00  0.00     0.188 A 
ATOM      7  O   UNL     1      20.225  40.484  23.311  1.00  0.00    -0.452 OA
ATOM      8  C   UNL     1      20.377  38.596  21.918  1.00  0.00     0.209 A 
ATOM      9  C   UNL     1      20.994  37.921  20.833  1.00  0.00     0.211 A 
ATOM     10  C   UNL     1      22.056  38.555  20.139  1.00  0.00     0.208 A 
ATOM     11  C   UNL     1      22.426  39.880  20.458  1.00  0.00     0.179 A 
ENDROOT
BRANCH   1  12
ATOM     12  C   UNL     1      19.825  42.271  24.896  1.00  0.00     0.018 A 
ATOM     13  C   UNL     1      18.473  43.297  27.155  1.00  0.00     0.118 A 
ATOM     14  C   UNL     1      18.048  43.633  25.857  1.00  0.00     0.047 A 
ATOM     15  C   UNL     1      19.567  42.441  27.311  1.00  0.00     0.047 A 
ATOM     16  C   UNL     1      18.715  43.123  24.740  1.00  0.00     0.016 A 
ATOM     17  C   UNL     1      20.235  41.928  26.196  1.00  0.00     0.016 A 
BRANCH  13  18
ATOM     18  O   UNL     1      17.838  43.785  28.306  1.00  0.00    -0.497 OA
ATOM     19  C   UNL     1      17.957  45.120  28.786  1.00  0.00     0.278 C 
ENDBRANCH  13  18
ENDBRANCH   1  12
BRANCH   8  20
ATOM     20  O   UNL     1      19.331  38.051  22.690  1.00  0.00    -0.490 OA
ATOM     21  C   UNL     1      19.455  37.237  23.850  1.00  0.00     0.278 C 
ENDBRANCH   8  20
BRANCH  11  22
ATOM     22  O   UNL     1      23.377  40.556  19.683  1.00  0.00    -0.492 OA
ATOM     23  C   UNL     1      23.176  40.840  18.303  1.00  0.00     0.278 C 
ENDBRANCH  11  22
BRANCH   9  24
ATOM     24  O   UNL     1      20.532  36.635  20.496  1.00  0.00    -0.490 OA
ATOM     25  C   UNL     1      21.001  35.391  21.004  1.00  0.00     0.279 C 
ENDBRANCH   9  24
BRANCH  10  26
ATOM     26  O   UNL     1      22.755  37.864  19.144  1.00  0.00    -0.490 OA
ATOM     27  C   UNL     1      23.914  37.086  19.426  1.00  0.00     0.278 C 
ENDBRANCH  10  26
TORSDOF 6
ENDMDL
MODEL 8
REMARK VINA RESULT:    -5.171      3.877      7.707
REMARK INTER + INTRA:          -7.686
REMARK INTER:                  -6.990
REMARK INTRA:                  -0.696
REMARK UNBOUND:                -0.702
REMARK SMILES COc1ccc(-c2cc(=O)c3c(OC)c(OC)c(OC)c(OC)c3o2)cc1
REMARK SMILES IDX 7 1 8 2 9 3 10 4 11 5 24 6 25 7 21 8 18 9 15 10 12 11 6 12
REMARK SMILES IDX 3 13 4 14 27 15 5 16 26 17 2 18 1 19 22 20 23 21 13 22 14 23
REMARK SMILES IDX 19 24 20 25 16 26 17 27
REMARK H PARENT
REMARK Flexibility Score: inf
ROOT
ATOM      1  C   UNL     1      11.575  37.919  14.574  1.00  0.00     0.138 A 
ATOM      2  C   UNL     1      11.770  39.294  14.762  1.00  0.00     0.100 A 
ATOM      3  C   UNL     1      12.425  39.741  15.911  1.00  0.00     0.197 A 
ATOM      4  O   UNL     1      12.590  40.980  16.070  1.00  0.00    -0.289 OA
ATOM      5  C   UNL     1      12.876  38.807  16.868  1.00  0.00     0.115 A 
ATOM      6  C   UNL     1      12.638  37.440  16.611  1.00  0.00     0.188 A 
ATOM      7  O   UNL     1      12.008  37.066  15.498  1.00  0.00    -0.452 OA
ATOM      8  C   UNL     1      13.063  36.451  17.507  1.00  0.00     0.209 A 
ATOM      9  C   UNL     1      13.719  36.822  18.709  1.00  0.00     0.211 A 
ATOM     10  C   UNL     1      13.917  38.198  18.993  1.00  0.00     0.208 A 
ATOM     11  C   UNL     1      13.557  39.180  18.044  1.00  0.00     0.179 A 
ENDROOT
BRANCH   1  12
ATOM     12  C   UNL     1      10.884  37.379  13.375  1.00  0.00     0.018 A 
ATOM     13  C   UNL     1       9.630  36.342  11.066  1.00  0.00     0.118 A 
ATOM     14  C   UNL     1       8.960  37.270  11.884  1.00  0.00     0.047 A 
ATOM     15  C   UNL     1      10.927  35.947  11.407  1.00  0.00     0.047 A 
ATOM     16  C   UNL     1       9.583  37.786  13.024  1.00  0.00     0.016 A 
ATOM     17  C   UNL     1      11.552  36.463  12.546  1.00  0.00     0.016 A 
BRANCH  13  18
ATOM     18  O   UNL     1       9.047  35.794   9.914  1.00  0.00    -0.497 OA
ATOM     19  C   UNL     1       9.573  34.681   9.198  1.00  0.00     0.278 C 
ENDBRANCH  13  18
ENDBRANCH   1  12
BRANCH   8  20
ATOM     20  O   UNL     1      12.795  35.118  17.138  1.00  0.00    -0.490 OA
ATOM     21  C   UNL     1      13.709  34.183  16.576  1.00  0.00     0.278 C 
ENDBRANCH   8  20
BRANCH  11  22
ATOM     22  O   UNL     1      13.878  40.526  18.261  1.00  0.00    -0.492 OA
ATOM     23  C   UNL     1      15.200  41.031  18.104  1.00  0.00     0.278 C 
ENDBRANCH  11  22
BRANCH   9  24
ATOM     24  O   UNL     1      14.138  35.803  19.585  1.00  0.00    -0.490 OA
ATOM     25  C   UNL     1      13.407  35.250  20.674  1.00  0.00     0.279 C 
ENDBRANCH   9  24
BRANCH  10  26
ATOM     26  O   UNL     1      14.454  38.590  20.222  1.00  0.00    -0.490 OA
ATOM     27  C   UNL     1      13.638  38.945  21.334  1.00  0.00     0.278 C 
ENDBRANCH  10  26
TORSDOF 6
ENDMDL
MODEL 9
REMARK VINA RESULT:    -5.132      9.790     13.089
REMARK INTER + INTRA:          -7.634
REMARK INTER:                  -6.892
REMARK INTRA:                  -0.742
REMARK UNBOUND:                -0.702
REMARK SMILES COc1ccc(-c2cc(=O)c3c(OC)c(OC)c(OC)c(OC)c3o2)cc1
REMARK SMILES IDX 7 1 8 2 9 3 10 4 11 5 24 6 25 7 21 8 18 9 15 10 12 11 6 12
REMARK SMILES IDX 3 13 4 14 27 15 5 16 26 17 2 18 1 19 22 20 23 21 13 22 14 23
REMARK SMILES IDX 19 24 20 25 16 26 17 27
REMARK H PARENT
REMARK Flexibility Score: inf
ROOT
ATOM      1  C   UNL     1      15.167  43.195  26.097  1.00  0.00     0.138 A 
ATOM      2  C   UNL     1      14.667  42.656  24.904  1.00  0.00     0.100 A 
ATOM      3  C   UNL     1      15.450  41.757  24.179  1.00  0.00     0.197 A 
ATOM      4  O   UNL     1      14.990  41.283  23.106  1.00  0.00    -0.289 OA
ATOM      5  C   UNL     1      16.732  41.406  24.652  1.00  0.00     0.115 A 
ATOM      6  C   UNL     1      17.168  41.995  25.859  1.00  0.00     0.188 A 
ATOM      7  O   UNL     1      16.381  42.848  26.512  1.00  0.00    -0.452 OA
ATOM      8  C   UNL     1      18.424  41.691  26.398  1.00  0.00     0.209 A 
ATOM      9  C   UNL     1      19.291  40.800  25.713  1.00  0.00     0.211 A 
ATOM     10  C   UNL     1      18.874  40.245  24.476  1.00  0.00     0.208 A 
ATOM     11  C   UNL     1      17.574  40.495  23.984  1.00  0.00     0.179 A 
ENDROOT
BRANCH   1  12
ATOM     12  C   UNL     1      14.384  44.159  26.913  1.00  0.00     0.018 A 
ATOM     13  C   UNL     1      12.857  46.005  28.410  1.00  0.00     0.118 A 
ATOM     14  C   UNL     1      14.186  45.722  28.772  1.00  0.00     0.047 A 
ATOM     15  C   UNL     1      12.306  45.368  27.295  1.00  0.00     0.047 A 
ATOM     16  C   UNL     1      14.943  44.811  28.028  1.00  0.00     0.016 A 
ATOM     17  C   UNL     1      13.060  44.458  26.549  1.00  0.00     0.016 A 
BRANCH  13  18
ATOM     18  O   UNL     1      12.058  46.909  29.125  1.00  0.00    -0.497 OA
ATOM     19  C   UNL     1      10.929  47.588  28.583  1.00  0.00     0.278 C 
ENDBRANCH  13  18
ENDBRANCH   1  12
BRANCH   8  20
ATOM     20  O   UNL     1      18.746  42.316  27.620  1.00  0.00    -0.490 OA
ATOM     21  C   UNL     1      18.636  41.758  28.924  1.00  0.00     0.278 C 
ENDBRANCH   8  20
BRANCH  11  22
ATOM     22  O   UNL     1      17.112  39.837  22.837  1.00  0.00    -0.492 OA
ATOM     23  C   UNL     1      16.736  38.465  22.843  1.00  0.00     0.278 C 
ENDBRANCH  11  22
BRANCH   9  24
ATOM     24  O   UNL     1      20.543  40.512  26.287  1.00  0.00    -0.490 OA
ATOM     25  C   UNL     1      21.751  41.249  26.132  1.00  0.00     0.279 C 
ENDBRANCH   9  24
BRANCH  10  26
ATOM     26  O   UNL     1      19.756  39.459  23.728  1.00  0.00    -0.490 OA
ATOM     27  C   UNL     1      20.608  40.008  22.728  1.00  0.00     0.278 C 
ENDBRANCH  10  26
TORSDOF 6
ENDMDL
