MODEL 1
REMARK VINA RESULT:    -5.442      0.000      0.000
REMARK INTER + INTRA:          -8.944
REMARK INTER:                  -7.669
REMARK INTRA:                  -1.274
REMARK UNBOUND:                -1.274
REMARK SMILES C=CC(=C)CCC=C(C)CCC=C(C)C
REMARK SMILES IDX 8 1 7 2 9 3 10 4 11 5 12 6 14 7 13 8 15 9 6 10 5 11 3 12
REMARK SMILES IDX 4 13 2 14 1 15
REMARK H PARENT
REMARK Flexibility Score: inf
ROOT
ATOM      1  C   UNL     1     -50.175 -49.627  18.865  1.00  0.00    -0.077 C 
ATOM      2  C   UNL     1     -49.499 -50.677  18.347  1.00  0.00    -0.028 C 
ATOM      3  C   UNL     1     -49.494 -48.315  19.175  1.00  0.00     0.039 C 
ENDROOT
BRANCH   1   4
ATOM      4  C   UNL     1     -51.659 -49.766  19.127  1.00  0.00     0.034 C 
BRANCH   4   5
ATOM      5  C   UNL     1     -51.934 -49.920  20.627  1.00  0.00     0.032 C 
BRANCH   5   6
ATOM      6  C   UNL     1     -53.108 -49.071  21.046  1.00  0.00    -0.028 C 
ATOM      7  C   UNL     1     -54.265 -47.121  21.993  1.00  0.00     0.039 C 
ATOM      8  C   UNL     1     -53.002 -47.877  21.670  1.00  0.00    -0.080 C 
ATOM      9  C   UNL     1     -51.664 -47.295  22.063  1.00  0.00     0.039 C 
ENDBRANCH   5   6
ENDBRANCH   4   5
ENDBRANCH   1   4
BRANCH   2  10
ATOM     10  C   UNL     1     -48.014 -50.689  18.085  1.00  0.00     0.032 C 
BRANCH  10  11
ATOM     11  C   UNL     1     -47.726 -51.053  16.623  1.00  0.00     0.039 C 
BRANCH  11  12
ATOM     12  C   UNL     1     -48.087 -49.906  15.705  1.00  0.00    -0.055 C 
ATOM     13  C   UNL     1     -47.464 -48.732  15.857  1.00  0.00     0.012 C 
BRANCH  12  14
ATOM     14  C   UNL     1     -49.145 -50.022  14.668  1.00  0.00    -0.005 C 
ATOM     15  C   UNL     1     -50.071 -50.982  14.653  1.00  0.00     0.009 C 
ENDBRANCH  12  14
ENDBRANCH  11  12
ENDBRANCH  10  11
ENDBRANCH   2  10
TORSDOF 7
ENDMDL
MODEL 2
REMARK VINA RESULT:    -5.394      1.082      1.768
REMARK INTER + INTRA:          -8.876
REMARK INTER:                  -7.825
REMARK INTRA:                  -1.051
REMARK UNBOUND:                -1.274
REMARK SMILES C=CC(=C)CCC=C(C)CCC=C(C)C
REMARK SMILES IDX 8 1 7 2 9 3 10 4 11 5 12 6 14 7 13 8 15 9 6 10 5 11 3 12
REMARK SMILES IDX 4 13 2 14 1 15
REMARK H PARENT
REMARK Flexibility Score: inf
ROOT
ATOM      1  C   UNL     1     -50.822 -49.728  19.582  1.00  0.00    -0.077 C 
ATOM      2  C   UNL     1     -49.527 -50.116  19.633  1.00  0.00    -0.028 C 
ATOM      3  C   UNL     1     -51.789 -50.308  18.576  1.00  0.00     0.039 C 
ENDROOT
BRANCH   1   4
ATOM      4  C   UNL     1     -51.320 -48.697  20.571  1.00  0.00     0.034 C 
BRANCH   4   5
ATOM      5  C   UNL     1     -52.504 -49.243  21.375  1.00  0.00     0.032 C 
BRANCH   5   6
ATOM      6  C   UNL     1     -53.410 -48.122  21.822  1.00  0.00    -0.028 C 
ATOM      7  C   UNL     1     -55.355 -46.622  21.751  1.00  0.00     0.039 C 
ATOM      8  C   UNL     1     -54.524 -47.732  21.163  1.00  0.00    -0.080 C 
ATOM      9  C   UNL     1     -54.942 -48.363  19.855  1.00  0.00     0.039 C 
ENDBRANCH   5   6
ENDBRANCH   4   5
ENDBRANCH   1   4
BRANCH   2  10
ATOM     10  C   UNL     1     -48.892 -51.094  18.678  1.00  0.00     0.032 C 
BRANCH  10  11
ATOM     11  C   UNL     1     -47.744 -50.430  17.909  1.00  0.00     0.039 C 
BRANCH  11  12
ATOM     12  C   UNL     1     -48.095 -50.279  16.445  1.00  0.00    -0.055 C 
ATOM     13  C   UNL     1     -47.697 -49.181  15.792  1.00  0.00     0.012 C 
BRANCH  12  14
ATOM     14  C   UNL     1     -48.907 -51.287  15.716  1.00  0.00    -0.005 C 
ATOM     15  C   UNL     1     -50.063 -51.015  15.109  1.00  0.00     0.009 C 
ENDBRANCH  12  14
ENDBRANCH  11  12
ENDBRANCH  10  11
ENDBRANCH   2  10
TORSDOF 7
ENDMDL
MODEL 3
REMARK VINA RESULT:    -5.343      0.762      1.786
REMARK INTER + INTRA:          -8.804
REMARK INTER:                  -7.786
REMARK INTRA:                  -1.018
REMARK UNBOUND:                -1.274
REMARK SMILES C=CC(=C)CCC=C(C)CCC=C(C)C
REMARK SMILES IDX 8 1 7 2 9 3 10 4 11 5 12 6 14 7 13 8 15 9 6 10 5 11 3 12
REMARK SMILES IDX 4 13 2 14 1 15
REMARK H PARENT
REMARK Flexibility Score: inf
ROOT
ATOM      1  C   UNL     1     -50.439 -49.608  19.145  1.00  0.00    -0.077 C 
ATOM      2  C   UNL     1     -50.000 -50.773  18.619  1.00  0.00    -0.028 C 
ATOM      3  C   UNL     1     -49.502 -48.457  19.426  1.00  0.00     0.039 C 
ENDROOT
BRANCH   1   4
ATOM      4  C   UNL     1     -51.913 -49.447  19.445  1.00  0.00     0.034 C 
BRANCH   4   5
ATOM      5  C   UNL     1     -52.176 -49.554  20.951  1.00  0.00     0.032 C 
BRANCH   5   6
ATOM      6  C   UNL     1     -52.559 -48.212  21.525  1.00  0.00    -0.028 C 
ATOM      7  C   UNL     1     -54.058 -46.461  22.375  1.00  0.00     0.039 C 
ATOM      8  C   UNL     1     -53.829 -47.817  21.760  1.00  0.00    -0.080 C 
ATOM      9  C   UNL     1     -55.016 -48.684  21.407  1.00  0.00     0.039 C 
ENDBRANCH   5   6
ENDBRANCH   4   5
ENDBRANCH   1   4
BRANCH   2  10
ATOM     10  C   UNL     1     -48.554 -51.083  18.320  1.00  0.00     0.032 C 
BRANCH  10  11
ATOM     11  C   UNL     1     -48.385 -51.509  16.857  1.00  0.00     0.039 C 
BRANCH  11  12
ATOM     12  C   UNL     1     -48.284 -50.299  15.954  1.00  0.00    -0.055 C 
ATOM     13  C   UNL     1     -48.998 -50.273  14.822  1.00  0.00     0.012 C 
BRANCH  12  14
ATOM     14  C   UNL     1     -47.385 -49.156  16.256  1.00  0.00    -0.005 C 
ATOM     15  C   UNL     1     -47.506 -47.947  15.707  1.00  0.00     0.009 C 
ENDBRANCH  12  14
ENDBRANCH  11  12
ENDBRANCH  10  11
ENDBRANCH   2  10
TORSDOF 7
ENDMDL
MODEL 4
REMARK VINA RESULT:    -5.298     12.573     14.972
REMARK INTER + INTRA:          -8.740
REMARK INTER:                  -7.655
REMARK INTRA:                  -1.086
REMARK UNBOUND:                -1.274
REMARK SMILES C=CC(=C)CCC=C(C)CCC=C(C)C
REMARK SMILES IDX 8 1 7 2 9 3 10 4 11 5 12 6 14 7 13 8 15 9 6 10 5 11 3 12
REMARK SMILES IDX 4 13 2 14 1 15
REMARK H PARENT
REMARK Flexibility Score: inf
ROOT
ATOM      1  C   UNL     1     -43.586 -49.989  29.800  1.00  0.00    -0.077 C 
ATOM      2  C   UNL     1     -44.701 -49.224  29.775  1.00  0.00    -0.028 C 
ATOM      3  C   UNL     1     -42.991 -50.487  31.096  1.00  0.00     0.039 C 
ENDROOT
BRANCH   1   4
ATOM      4  C   UNL     1     -42.926 -50.369  28.493  1.00  0.00     0.034 C 
BRANCH   4   5
ATOM      5  C   UNL     1     -42.217 -49.162  27.871  1.00  0.00     0.032 C 
BRANCH   5   6
ATOM      6  C   UNL     1     -40.761 -49.135  28.263  1.00  0.00    -0.028 C 
ATOM      7  C   UNL     1     -38.567 -48.140  28.746  1.00  0.00     0.039 C 
ATOM      8  C   UNL     1     -39.999 -48.020  28.294  1.00  0.00    -0.080 C 
ATOM      9  C   UNL     1     -40.536 -46.671  27.873  1.00  0.00     0.039 C 
ENDBRANCH   5   6
ENDBRANCH   4   5
ENDBRANCH   1   4
BRANCH   2  10
ATOM     10  C   UNL     1     -45.426 -48.732  31.002  1.00  0.00     0.032 C 
BRANCH  10  11
ATOM     11  C   UNL     1     -46.673 -49.583  31.269  1.00  0.00     0.039 C 
BRANCH  11  12
ATOM     12  C   UNL     1     -46.670 -50.110  32.687  1.00  0.00    -0.055 C 
ATOM     13  C   UNL     1     -46.994 -49.282  33.687  1.00  0.00     0.012 C 
BRANCH  12  14
ATOM     14  C   UNL     1     -46.274 -51.503  33.015  1.00  0.00    -0.005 C 
ATOM     15  C   UNL     1     -45.991 -52.433  32.101  1.00  0.00     0.009 C 
ENDBRANCH  12  14
ENDBRANCH  11  12
ENDBRANCH  10  11
ENDBRANCH   2  10
TORSDOF 7
ENDMDL
MODEL 5
REMARK VINA RESULT:    -5.296      1.346      1.842
REMARK INTER + INTRA:          -8.737
REMARK INTER:                  -7.885
REMARK INTRA:                  -0.853
REMARK UNBOUND:                -1.274
REMARK SMILES C=CC(=C)CCC=C(C)CCC=C(C)C
REMARK SMILES IDX 8 1 7 2 9 3 10 4 11 5 12 6 14 7 13 8 15 9 6 10 5 11 3 12
REMARK SMILES IDX 4 13 2 14 1 15
REMARK H PARENT
REMARK Flexibility Score: inf
ROOT
ATOM      1  C   UNL     1     -50.474 -48.670  20.125  1.00  0.00    -0.077 C 
ATOM      2  C   UNL     1     -49.584 -48.996  19.160  1.00  0.00    -0.028 C 
ATOM      3  C   UNL     1     -50.264 -47.482  21.034  1.00  0.00     0.039 C 
ENDROOT
BRANCH   1   4
ATOM      4  C   UNL     1     -51.722 -49.508  20.286  1.00  0.00     0.034 C 
BRANCH   4   5
ATOM      5  C   UNL     1     -52.469 -49.130  21.569  1.00  0.00     0.032 C 
BRANCH   5   6
ATOM      6  C   UNL     1     -53.832 -48.569  21.250  1.00  0.00    -0.028 C 
ATOM      7  C   UNL     1     -55.731 -47.016  21.399  1.00  0.00     0.039 C 
ATOM      8  C   UNL     1     -54.373 -47.486  21.852  1.00  0.00    -0.080 C 
ATOM      9  C   UNL     1     -53.665 -46.754  22.968  1.00  0.00     0.039 C 
ENDBRANCH   5   6
ENDBRANCH   4   5
ENDBRANCH   1   4
BRANCH   2  10
ATOM     10  C   UNL     1     -48.279 -48.277  18.925  1.00  0.00     0.032 C 
BRANCH  10  11
ATOM     11  C   UNL     1     -47.249 -49.221  18.293  1.00  0.00     0.039 C 
BRANCH  11  12
ATOM     12  C   UNL     1     -47.424 -49.278  16.792  1.00  0.00    -0.055 C 
ATOM     13  C   UNL     1     -47.340 -48.145  16.085  1.00  0.00     0.012 C 
BRANCH  12  14
ATOM     14  C   UNL     1     -47.734 -50.543  16.077  1.00  0.00    -0.005 C 
ATOM     15  C   UNL     1     -48.455 -51.537  16.598  1.00  0.00     0.009 C 
ENDBRANCH  12  14
ENDBRANCH  11  12
ENDBRANCH  10  11
ENDBRANCH   2  10
TORSDOF 7
ENDMDL
MODEL 6
REMARK VINA RESULT:    -5.295     12.475     15.041
REMARK INTER + INTRA:          -8.737
REMARK INTER:                  -7.353
REMARK INTRA:                  -1.384
REMARK UNBOUND:                -1.274
REMARK SMILES C=CC(=C)CCC=C(C)CCC=C(C)C
REMARK SMILES IDX 8 1 7 2 9 3 10 4 11 5 12 6 14 7 13 8 15 9 6 10 5 11 3 12
REMARK SMILES IDX 4 13 2 14 1 15
REMARK H PARENT
REMARK Flexibility Score: inf
ROOT
ATOM      1  C   UNL     1     -44.015 -49.784  30.325  1.00  0.00    -0.077 C 
ATOM      2  C   UNL     1     -45.098 -50.594  30.333  1.00  0.00    -0.028 C 
ATOM      3  C   UNL     1     -42.703 -50.202  30.946  1.00  0.00     0.039 C 
ENDROOT
BRANCH   1   4
ATOM      4  C   UNL     1     -44.116 -48.429  29.661  1.00  0.00     0.034 C 
BRANCH   4   5
ATOM      5  C   UNL     1     -43.430 -48.443  28.291  1.00  0.00     0.032 C 
BRANCH   5   6
ATOM      6  C   UNL     1     -42.268 -47.481  28.265  1.00  0.00    -0.028 C 
ATOM      7  C   UNL     1     -39.923 -46.771  28.074  1.00  0.00     0.039 C 
ATOM      8  C   UNL     1     -40.975 -47.848  28.124  1.00  0.00    -0.080 C 
ATOM      9  C   UNL     1     -40.561 -49.299  28.034  1.00  0.00     0.039 C 
ENDBRANCH   5   6
ENDBRANCH   4   5
ENDBRANCH   1   4
BRANCH   2  10
ATOM     10  C   UNL     1     -45.148 -51.945  31.003  1.00  0.00     0.032 C 
BRANCH  10  11
ATOM     11  C   UNL     1     -46.228 -51.968  32.091  1.00  0.00     0.039 C 
BRANCH  11  12
ATOM     12  C   UNL     1     -45.789 -51.169  33.299  1.00  0.00    -0.055 C 
ATOM     13  C   UNL     1     -44.686 -51.543  33.958  1.00  0.00     0.012 C 
BRANCH  12  14
ATOM     14  C   UNL     1     -46.566 -50.010  33.808  1.00  0.00    -0.005 C 
ATOM     15  C   UNL     1     -46.856 -48.929  33.082  1.00  0.00     0.009 C 
ENDBRANCH  12  14
ENDBRANCH  11  12
ENDBRANCH  10  11
ENDBRANCH   2  10
TORSDOF 7
ENDMDL
MODEL 7
REMARK VINA RESULT:    -5.155     11.933     14.544
REMARK INTER + INTRA:          -8.539
REMARK INTER:                  -6.996
REMARK INTRA:                  -1.543
REMARK UNBOUND:                -1.274
REMARK SMILES C=CC(=C)CCC=C(C)CCC=C(C)C
REMARK SMILES IDX 8 1 7 2 9 3 10 4 11 5 12 6 14 7 13 8 15 9 6 10 5 11 3 12
REMARK SMILES IDX 4 13 2 14 1 15
REMARK H PARENT
REMARK Flexibility Score: inf
ROOT
ATOM      1  C   UNL     1     -43.866 -49.136  29.318  1.00  0.00    -0.077 C 
ATOM      2  C   UNL     1     -43.274 -49.543  30.464  1.00  0.00    -0.028 C 
ATOM      3  C   UNL     1     -44.718 -50.066  28.488  1.00  0.00     0.039 C 
ENDROOT
BRANCH   1   4
ATOM      4  C   UNL     1     -43.682 -47.705  28.865  1.00  0.00     0.034 C 
BRANCH   4   5
ATOM      5  C   UNL     1     -42.750 -47.635  27.650  1.00  0.00     0.032 C 
BRANCH   5   6
ATOM      6  C   UNL     1     -41.408 -47.065  28.037  1.00  0.00    -0.028 C 
ATOM      7  C   UNL     1     -38.995 -47.076  28.499  1.00  0.00     0.039 C 
ATOM      8  C   UNL     1     -40.273 -47.790  28.143  1.00  0.00    -0.080 C 
ATOM      9  C   UNL     1     -40.256 -49.287  27.933  1.00  0.00     0.039 C 
ENDBRANCH   5   6
ENDBRANCH   4   5
ENDBRANCH   1   4
BRANCH   2  10
ATOM     10  C   UNL     1     -43.334 -50.951  31.002  1.00  0.00     0.032 C 
BRANCH  10  11
ATOM     11  C   UNL     1     -44.211 -51.011  32.258  1.00  0.00     0.039 C 
BRANCH  11  12
ATOM     12  C   UNL     1     -45.614 -51.460  31.912  1.00  0.00    -0.055 C 
ATOM     13  C   UNL     1     -45.801 -52.697  31.437  1.00  0.00     0.012 C 
BRANCH  12  14
ATOM     14  C   UNL     1     -46.789 -50.559  32.036  1.00  0.00    -0.005 C 
ATOM     15  C   UNL     1     -46.827 -49.315  31.557  1.00  0.00     0.009 C 
ENDBRANCH  12  14
ENDBRANCH  11  12
ENDBRANCH  10  11
ENDBRANCH   2  10
TORSDOF 7
ENDMDL
MODEL 8
REMARK VINA RESULT:    -5.127     13.007     14.500
REMARK INTER + INTRA:          -8.500
REMARK INTER:                  -7.500
REMARK INTRA:                  -1.000
REMARK UNBOUND:                -1.274
REMARK SMILES C=CC(=C)CCC=C(C)CCC=C(C)C
REMARK SMILES IDX 8 1 7 2 9 3 10 4 11 5 12 6 14 7 13 8 15 9 6 10 5 11 3 12
REMARK SMILES IDX 4 13 2 14 1 15
REMARK H PARENT
REMARK Flexibility Score: inf
ROOT
ATOM      1  C   UNL     1     -42.920 -49.357  29.480  1.00  0.00    -0.077 C 
ATOM      2  C   UNL     1     -42.636 -48.721  28.321  1.00  0.00    -0.028 C 
ATOM      3  C   UNL     1     -41.832 -49.873  30.392  1.00  0.00     0.039 C 
ENDROOT
BRANCH   1   4
ATOM      4  C   UNL     1     -44.366 -49.543  29.881  1.00  0.00     0.034 C 
BRANCH   4   5
ATOM      5  C   UNL     1     -44.625 -50.986  30.327  1.00  0.00     0.032 C 
BRANCH   5   6
ATOM      6  C   UNL     1     -45.561 -51.021  31.510  1.00  0.00    -0.028 C 
ATOM      7  C   UNL     1     -46.217 -51.234  33.868  1.00  0.00     0.039 C 
ATOM      8  C   UNL     1     -45.175 -51.272  32.781  1.00  0.00    -0.080 C 
ATOM      9  C   UNL     1     -43.744 -51.604  33.132  1.00  0.00     0.039 C 
ENDBRANCH   5   6
ENDBRANCH   4   5
ENDBRANCH   1   4
BRANCH   2  10
ATOM     10  C   UNL     1     -41.243 -48.514  27.780  1.00  0.00     0.032 C 
BRANCH  10  11
ATOM     11  C   UNL     1     -40.756 -47.090  28.074  1.00  0.00     0.039 C 
BRANCH  11  12
ATOM     12  C   UNL     1     -39.418 -47.116  28.780  1.00  0.00    -0.055 C 
ATOM     13  C   UNL     1     -38.923 -45.976  29.274  1.00  0.00     0.012 C 
BRANCH  12  14
ATOM     14  C   UNL     1     -38.610 -48.357  28.903  1.00  0.00    -0.005 C 
ATOM     15  C   UNL     1     -37.282 -48.396  28.778  1.00  0.00     0.009 C 
ENDBRANCH  12  14
ENDBRANCH  11  12
ENDBRANCH  10  11
ENDBRANCH   2  10
TORSDOF 7
ENDMDL
MODEL 9
REMARK VINA RESULT:    -5.120      1.401      7.067
REMARK INTER + INTRA:          -8.489
REMARK INTER:                  -7.495
REMARK INTRA:                  -0.995
REMARK UNBOUND:                -1.274
REMARK SMILES C=CC(=C)CCC=C(C)CCC=C(C)C
REMARK SMILES IDX 8 1 7 2 9 3 10 4 11 5 12 6 14 7 13 8 15 9 6 10 5 11 3 12
REMARK SMILES IDX 4 13 2 14 1 15
REMARK H PARENT
REMARK Flexibility Score: inf
ROOT
ATOM      1  C   UNL     1     -51.259 -48.896  20.279  1.00  0.00    -0.077 C 
ATOM      2  C   UNL     1     -51.460 -48.381  21.513  1.00  0.00    -0.028 C 
ATOM      3  C   UNL     1     -52.328 -49.687  19.561  1.00  0.00     0.039 C 
ENDROOT
BRANCH   1   4
ATOM      4  C   UNL     1     -49.932 -48.660  19.591  1.00  0.00     0.034 C 
BRANCH   4   5
ATOM      5  C   UNL     1     -49.143 -49.968  19.471  1.00  0.00     0.032 C 
BRANCH   5   6
ATOM      6  C   UNL     1     -48.232 -49.935  18.269  1.00  0.00    -0.028 C 
ATOM      7  C   UNL     1     -47.582 -50.208  15.915  1.00  0.00     0.039 C 
ATOM      8  C   UNL     1     -48.588 -50.338  17.029  1.00  0.00    -0.080 C 
ATOM      9  C   UNL     1     -49.949 -50.925  16.739  1.00  0.00     0.039 C 
ENDBRANCH   5   6
ENDBRANCH   4   5
ENDBRANCH   1   4
BRANCH   2  10
ATOM     10  C   UNL     1     -52.713 -48.583  22.328  1.00  0.00     0.032 C 
BRANCH  10  11
ATOM     11  C   UNL     1     -53.478 -47.263  22.478  1.00  0.00     0.039 C 
BRANCH  11  12
ATOM     12  C   UNL     1     -54.783 -47.310  21.715  1.00  0.00    -0.055 C 
ATOM     13  C   UNL     1     -55.380 -46.160  21.378  1.00  0.00     0.012 C 
BRANCH  12  14
ATOM     14  C   UNL     1     -55.454 -48.589  21.367  1.00  0.00    -0.005 C 
ATOM     15  C   UNL     1     -56.677 -48.671  20.842  1.00  0.00     0.009 C 
ENDBRANCH  12  14
ENDBRANCH  11  12
ENDBRANCH  10  11
ENDBRANCH   2  10
TORSDOF 7
ENDMDL
