MODEL 1
REMARK VINA RESULT:    -5.221      0.000      0.000
REMARK INTER + INTRA:          -6.045
REMARK INTER:                  -6.137
REMARK INTRA:                   0.092
REMARK UNBOUND:                 0.092
REMARK SMILES O=C([O-])C=Cc1ccc(O)c(O)c1
REMARK SMILES IDX 6 1 13 2 7 3 11 4 8 5 9 6 5 7 4 8 2 9 1 10 3 11 12 12 10 14
REMARK H PARENT 12 13 10 15
REMARK Flexibility Score: inf
ROOT
ATOM      1  C   UNL     1       6.926   8.195 -12.075  1.00  0.00    -0.022 A 
ATOM      2  C   UNL     1       7.869   7.847 -13.059  1.00  0.00     0.058 A 
ATOM      3  C   UNL     1       6.578   9.543 -11.904  1.00  0.00     0.012 A 
ATOM      4  C   UNL     1       8.495   8.842 -13.824  1.00  0.00     0.157 A 
ATOM      5  C   UNL     1       7.203  10.535 -12.665  1.00  0.00     0.051 A 
ATOM      6  C   UNL     1       8.165  10.188 -13.623  1.00  0.00     0.157 A 
ENDROOT
BRANCH   1   7
ATOM      7  C   UNL     1       6.217   7.160 -11.295  1.00  0.00     0.010 C 
ATOM      8  C   UNL     1       6.169   7.092  -9.955  1.00  0.00     0.025 C 
BRANCH   8   9
ATOM      9  C   UNL     1       6.658   8.125  -9.020  1.00  0.00     0.064 C 
ATOM     10  O   UNL     1       5.875   8.740  -8.251  1.00  0.00    -0.545 OA
ATOM     11  O   UNL     1       8.022   8.373  -8.942  1.00  0.00    -0.545 OA
ENDBRANCH   8   9
ENDBRANCH   1   7
BRANCH   4  12
ATOM     12  O   UNL     1       9.442   8.499 -14.787  1.00  0.00    -0.504 OA
ATOM     13  H   UNL     1       9.564   7.541 -15.093  1.00  0.00     0.293 HD
ENDBRANCH   4  12
BRANCH   6  14
ATOM     14  O   UNL     1       8.791  11.175 -14.383  1.00  0.00    -0.504 OA
ATOM     15  H   UNL     1       9.800  11.273 -14.396  1.00  0.00     0.293 HD
ENDBRANCH   6  14
TORSDOF 4
ENDMDL
MODEL 2
REMARK VINA RESULT:    -5.004      9.261     12.564
REMARK INTER + INTRA:          -5.789
REMARK INTER:                  -5.772
REMARK INTRA:                  -0.017
REMARK UNBOUND:                 0.092
REMARK SMILES O=C([O-])C=Cc1ccc(O)c(O)c1
REMARK SMILES IDX 6 1 13 2 7 3 11 4 8 5 9 6 5 7 4 8 2 9 1 10 3 11 12 12 10 14
REMARK H PARENT 12 13 10 15
REMARK Flexibility Score: inf
ROOT
ATOM      1  C   UNL     1       8.615  15.887 -21.024  1.00  0.00    -0.022 A 
ATOM      2  C   UNL     1       9.376  16.065 -19.854  1.00  0.00     0.058 A 
ATOM      3  C   UNL     1       8.150  14.605 -21.351  1.00  0.00     0.012 A 
ATOM      4  C   UNL     1       9.711  14.964 -19.052  1.00  0.00     0.157 A 
ATOM      5  C   UNL     1       8.485  13.507 -20.553  1.00  0.00     0.051 A 
ATOM      6  C   UNL     1       9.269  13.683 -19.405  1.00  0.00     0.157 A 
ENDROOT
BRANCH   1   7
ATOM      7  C   UNL     1       8.207  17.038 -21.853  1.00  0.00     0.010 C 
ATOM      8  C   UNL     1       8.501  17.205 -23.153  1.00  0.00     0.025 C 
BRANCH   8   9
ATOM      9  C   UNL     1       9.126  16.196 -24.032  1.00  0.00     0.064 C 
ATOM     10  O   UNL     1      10.356  15.938 -23.967  1.00  0.00    -0.545 OA
ATOM     11  O   UNL     1       8.324  15.469 -24.901  1.00  0.00    -0.545 OA
ENDBRANCH   8   9
ENDBRANCH   1   7
BRANCH   4  12
ATOM     12  O   UNL     1      10.479  15.138 -17.902  1.00  0.00    -0.504 OA
ATOM     13  H   UNL     1      10.072  15.066 -16.977  1.00  0.00     0.293 HD
ENDBRANCH   4  12
BRANCH   6  14
ATOM     14  O   UNL     1       9.606  12.591 -18.607  1.00  0.00    -0.504 OA
ATOM     15  H   UNL     1       9.289  12.519 -17.646  1.00  0.00     0.293 HD
ENDBRANCH   6  14
TORSDOF 4
ENDMDL
MODEL 3
REMARK VINA RESULT:    -4.902      7.761     10.424
REMARK INTER + INTRA:          -5.670
REMARK INTER:                  -5.497
REMARK INTRA:                  -0.173
REMARK UNBOUND:                 0.092
REMARK SMILES O=C([O-])C=Cc1ccc(O)c(O)c1
REMARK SMILES IDX 6 1 13 2 7 3 11 4 8 5 9 6 5 7 4 8 2 9 1 10 3 11 12 12 10 14
REMARK H PARENT 12 13 10 15
REMARK Flexibility Score: inf
ROOT
ATOM      1  C   UNL     1       9.695  15.248 -19.056  1.00  0.00    -0.022 A 
ATOM      2  C   UNL     1      10.619  15.776 -18.137  1.00  0.00     0.058 A 
ATOM      3  C   UNL     1       9.119  13.994 -18.806  1.00  0.00     0.012 A 
ATOM      4  C   UNL     1      11.003  15.033 -17.011  1.00  0.00     0.157 A 
ATOM      5  C   UNL     1       9.502  13.252 -17.685  1.00  0.00     0.051 A 
ATOM      6  C   UNL     1      10.447  13.767 -16.788  1.00  0.00     0.157 A 
ENDROOT
BRANCH   1   7
ATOM      7  C   UNL     1       9.238  16.035 -20.219  1.00  0.00     0.010 C 
ATOM      8  C   UNL     1       8.396  17.080 -20.170  1.00  0.00     0.025 C 
BRANCH   8   9
ATOM      9  C   UNL     1       7.916  17.744 -18.941  1.00  0.00     0.064 C 
ATOM     10  O   UNL     1       8.371  18.859 -18.575  1.00  0.00    -0.545 OA
ATOM     11  O   UNL     1       6.891  17.155 -18.212  1.00  0.00    -0.545 OA
ENDBRANCH   8   9
ENDBRANCH   1   7
BRANCH   4  12
ATOM     12  O   UNL     1      11.932  15.549 -16.109  1.00  0.00    -0.504 OA
ATOM     13  H   UNL     1      12.291  14.993 -15.342  1.00  0.00     0.293 HD
ENDBRANCH   4  12
BRANCH   6  14
ATOM     14  O   UNL     1      10.833  13.030 -15.669  1.00  0.00    -0.504 OA
ATOM     15  H   UNL     1      10.961  13.469 -14.764  1.00  0.00     0.293 HD
ENDBRANCH   6  14
TORSDOF 4
ENDMDL
MODEL 4
REMARK VINA RESULT:    -4.891      7.832     10.340
REMARK INTER + INTRA:          -5.656
REMARK INTER:                  -5.425
REMARK INTRA:                  -0.231
REMARK UNBOUND:                 0.092
REMARK SMILES O=C([O-])C=Cc1ccc(O)c(O)c1
REMARK SMILES IDX 6 1 13 2 7 3 11 4 8 5 9 6 5 7 4 8 2 9 1 10 3 11 12 12 10 14
REMARK H PARENT 12 13 10 15
REMARK Flexibility Score: inf
ROOT
ATOM      1  C   UNL     1       9.747  15.392 -18.966  1.00  0.00    -0.022 A 
ATOM      2  C   UNL     1       9.205  14.139 -18.625  1.00  0.00     0.058 A 
ATOM      3  C   UNL     1      10.818  15.903 -18.219  1.00  0.00     0.012 A 
ATOM      4  C   UNL     1       9.696  13.433 -17.518  1.00  0.00     0.157 A 
ATOM      5  C   UNL     1      11.306  15.201 -17.114  1.00  0.00     0.051 A 
ATOM      6  C   UNL     1      10.744  13.967 -16.758  1.00  0.00     0.157 A 
ENDROOT
BRANCH   1   7
ATOM      7  C   UNL     1       9.281  16.127 -20.160  1.00  0.00     0.010 C 
ATOM      8  C   UNL     1       8.416  17.155 -20.153  1.00  0.00     0.025 C 
BRANCH   8   9
ATOM      9  C   UNL     1       7.913  17.850 -18.952  1.00  0.00     0.064 C 
ATOM     10  O   UNL     1       6.994  17.361 -18.244  1.00  0.00    -0.545 OA
ATOM     11  O   UNL     1       8.515  19.037 -18.557  1.00  0.00    -0.545 OA
ENDBRANCH   8   9
ENDBRANCH   1   7
BRANCH   4  12
ATOM     12  O   UNL     1       9.149  12.199 -17.169  1.00  0.00    -0.504 OA
ATOM     13  H   UNL     1       8.450  12.117 -16.440  1.00  0.00     0.293 HD
ENDBRANCH   4  12
BRANCH   6  14
ATOM     14  O   UNL     1      11.227  13.264 -15.656  1.00  0.00    -0.504 OA
ATOM     15  H   UNL     1      11.786  13.717 -14.941  1.00  0.00     0.293 HD
ENDBRANCH   6  14
TORSDOF 4
ENDMDL
MODEL 5
REMARK VINA RESULT:    -4.876      9.780     11.326
REMARK INTER + INTRA:          -5.639
REMARK INTER:                  -5.354
REMARK INTRA:                  -0.285
REMARK UNBOUND:                 0.092
REMARK SMILES O=C([O-])C=Cc1ccc(O)c(O)c1
REMARK SMILES IDX 6 1 13 2 7 3 11 4 8 5 9 6 5 7 4 8 2 9 1 10 3 11 12 12 10 14
REMARK H PARENT 12 13 10 15
REMARK Flexibility Score: inf
ROOT
ATOM      1  C   UNL     1       9.070  17.320 -19.100  1.00  0.00    -0.022 A 
ATOM      2  C   UNL     1       8.525  16.863 -20.313  1.00  0.00     0.058 A 
ATOM      3  C   UNL     1       9.647  16.397 -18.216  1.00  0.00     0.012 A 
ATOM      4  C   UNL     1       8.511  15.492 -20.611  1.00  0.00     0.157 A 
ATOM      5  C   UNL     1       9.631  15.031 -18.511  1.00  0.00     0.051 A 
ATOM      6  C   UNL     1       9.060  14.575 -19.707  1.00  0.00     0.157 A 
ENDROOT
BRANCH   1   7
ATOM      7  C   UNL     1       9.144  18.762 -18.790  1.00  0.00     0.010 C 
ATOM      8  C   UNL     1       8.204  19.468 -18.139  1.00  0.00     0.025 C 
BRANCH   8   9
ATOM      9  C   UNL     1       7.019  18.906 -17.462  1.00  0.00     0.064 C 
ATOM     10  O   UNL     1       5.877  18.950 -17.990  1.00  0.00    -0.545 OA
ATOM     11  O   UNL     1       7.181  18.254 -16.247  1.00  0.00    -0.545 OA
ENDBRANCH   8   9
ENDBRANCH   1   7
BRANCH   4  12
ATOM     12  O   UNL     1       7.955  15.037 -21.806  1.00  0.00    -0.504 OA
ATOM     13  H   UNL     1       7.548  15.677 -22.478  1.00  0.00     0.293 HD
ENDBRANCH   4  12
BRANCH   6  14
ATOM     14  O   UNL     1       9.041  13.214 -20.006  1.00  0.00    -0.504 OA
ATOM     15  H   UNL     1       8.666  12.534 -19.354  1.00  0.00     0.293 HD
ENDBRANCH   6  14
TORSDOF 4
ENDMDL
MODEL 6
REMARK VINA RESULT:    -4.826      2.739      4.006
REMARK INTER + INTRA:          -5.580
REMARK INTER:                  -5.400
REMARK INTRA:                  -0.180
REMARK UNBOUND:                 0.092
REMARK SMILES O=C([O-])C=Cc1ccc(O)c(O)c1
REMARK SMILES IDX 6 1 13 2 7 3 11 4 8 5 9 6 5 7 4 8 2 9 1 10 3 11 12 12 10 14
REMARK H PARENT 12 13 10 15
REMARK Flexibility Score: inf
ROOT
ATOM      1  C   UNL     1       8.509   7.870 -15.247  1.00  0.00    -0.022 A 
ATOM      2  C   UNL     1       8.050   8.554 -16.387  1.00  0.00     0.058 A 
ATOM      3  C   UNL     1       9.838   8.040 -14.834  1.00  0.00     0.012 A 
ATOM      4  C   UNL     1       8.927   9.355 -17.134  1.00  0.00     0.157 A 
ATOM      5  C   UNL     1      10.713   8.836 -15.578  1.00  0.00     0.051 A 
ATOM      6  C   UNL     1      10.261   9.492 -16.732  1.00  0.00     0.157 A 
ENDROOT
BRANCH   1   7
ATOM      7  C   UNL     1       7.590   7.065 -14.417  1.00  0.00     0.010 C 
ATOM      8  C   UNL     1       6.863   7.529 -13.387  1.00  0.00     0.025 C 
BRANCH   8   9
ATOM      9  C   UNL     1       6.710   8.947 -13.009  1.00  0.00     0.064 C 
ATOM     10  O   UNL     1       6.156   9.778 -13.776  1.00  0.00    -0.545 OA
ATOM     11  O   UNL     1       7.125   9.359 -11.749  1.00  0.00    -0.545 OA
ENDBRANCH   8   9
ENDBRANCH   1   7
BRANCH   4  12
ATOM     12  O   UNL     1       8.477  10.019 -18.274  1.00  0.00    -0.504 OA
ATOM     13  H   UNL     1       8.225   9.515 -19.116  1.00  0.00     0.293 HD
ENDBRANCH   4  12
BRANCH   6  14
ATOM     14  O   UNL     1      11.130  10.286 -17.478  1.00  0.00    -0.504 OA
ATOM     15  H   UNL     1      11.602   9.926 -18.300  1.00  0.00     0.293 HD
ENDBRANCH   6  14
TORSDOF 4
ENDMDL
MODEL 7
REMARK VINA RESULT:    -4.813      2.980      4.282
REMARK INTER + INTRA:          -5.565
REMARK INTER:                  -5.351
REMARK INTRA:                  -0.214
REMARK UNBOUND:                 0.092
REMARK SMILES O=C([O-])C=Cc1ccc(O)c(O)c1
REMARK SMILES IDX 6 1 13 2 7 3 11 4 8 5 9 6 5 7 4 8 2 9 1 10 3 11 12 12 10 14
REMARK H PARENT 12 13 10 15
REMARK Flexibility Score: inf
ROOT
ATOM      1  C   UNL     1       6.687   9.602 -13.310  1.00  0.00    -0.022 A 
ATOM      2  C   UNL     1       7.512  10.490 -12.596  1.00  0.00     0.058 A 
ATOM      3  C   UNL     1       5.986  10.067 -14.432  1.00  0.00     0.012 A 
ATOM      4  C   UNL     1       7.591  11.839 -12.970  1.00  0.00     0.157 A 
ATOM      5  C   UNL     1       6.064  11.413 -14.804  1.00  0.00     0.051 A 
ATOM      6  C   UNL     1       6.862  12.302 -14.072  1.00  0.00     0.157 A 
ENDROOT
BRANCH   1   7
ATOM      7  C   UNL     1       6.630   8.167 -12.965  1.00  0.00     0.010 C 
ATOM      8  C   UNL     1       7.198   7.174 -13.669  1.00  0.00     0.025 C 
BRANCH   8   9
ATOM      9  C   UNL     1       8.125   7.343 -14.805  1.00  0.00     0.064 C 
ATOM     10  O   UNL     1       9.359   7.518 -14.627  1.00  0.00    -0.545 OA
ATOM     11  O   UNL     1       7.634   7.239 -16.099  1.00  0.00    -0.545 OA
ENDBRANCH   8   9
ENDBRANCH   1   7
BRANCH   4  12
ATOM     12  O   UNL     1       8.396  12.723 -12.253  1.00  0.00    -0.504 OA
ATOM     13  H   UNL     1       9.324  12.973 -12.573  1.00  0.00     0.293 HD
ENDBRANCH   4  12
BRANCH   6  14
ATOM     14  O   UNL     1       6.942  13.644 -14.440  1.00  0.00    -0.504 OA
ATOM     15  H   UNL     1       6.249  14.070 -15.045  1.00  0.00     0.293 HD
ENDBRANCH   6  14
TORSDOF 4
ENDMDL
MODEL 8
REMARK VINA RESULT:    -4.812      7.939     10.355
REMARK INTER + INTRA:          -5.564
REMARK INTER:                  -5.322
REMARK INTRA:                  -0.242
REMARK UNBOUND:                 0.092
REMARK SMILES O=C([O-])C=Cc1ccc(O)c(O)c1
REMARK SMILES IDX 6 1 13 2 7 3 11 4 8 5 9 6 5 7 4 8 2 9 1 10 3 11 12 12 10 14
REMARK H PARENT 12 13 10 15
REMARK Flexibility Score: inf
ROOT
ATOM      1  C   UNL     1       9.206  16.142 -18.383  1.00  0.00    -0.022 A 
ATOM      2  C   UNL     1       8.157  16.243 -17.452  1.00  0.00     0.058 A 
ATOM      3  C   UNL     1      10.396  15.501 -18.008  1.00  0.00     0.012 A 
ATOM      4  C   UNL     1       8.318  15.757 -16.146  1.00  0.00     0.157 A 
ATOM      5  C   UNL     1      10.558  15.017 -16.707  1.00  0.00     0.051 A 
ATOM      6  C   UNL     1       9.522  15.147 -15.772  1.00  0.00     0.157 A 
ENDROOT
BRANCH   1   7
ATOM      7  C   UNL     1       9.039  16.600 -19.777  1.00  0.00     0.010 C 
ATOM      8  C   UNL     1       8.656  15.830 -20.808  1.00  0.00     0.025 C 
BRANCH   8   9
ATOM      9  C   UNL     1       8.162  14.442 -20.712  1.00  0.00     0.064 C 
ATOM     10  O   UNL     1       8.838  13.472 -21.142  1.00  0.00    -0.545 OA
ATOM     11  O   UNL     1       6.955  14.198 -20.071  1.00  0.00    -0.545 OA
ENDBRANCH   8   9
ENDBRANCH   1   7
BRANCH   4  12
ATOM     12  O   UNL     1       7.284  15.872 -15.218  1.00  0.00    -0.504 OA
ATOM     13  H   UNL     1       6.912  16.776 -14.950  1.00  0.00     0.293 HD
ENDBRANCH   4  12
BRANCH   6  14
ATOM     14  O   UNL     1       9.679  14.667 -14.473  1.00  0.00    -0.504 OA
ATOM     15  H   UNL     1       9.230  15.118 -13.683  1.00  0.00     0.293 HD
ENDBRANCH   6  14
TORSDOF 4
ENDMDL
MODEL 9
REMARK VINA RESULT:    -4.784      9.148     11.403
REMARK INTER + INTRA:          -5.531
REMARK INTER:                  -5.333
REMARK INTRA:                  -0.198
REMARK UNBOUND:                 0.092
REMARK SMILES O=C([O-])C=Cc1ccc(O)c(O)c1
REMARK SMILES IDX 6 1 13 2 7 3 11 4 8 5 9 6 5 7 4 8 2 9 1 10 3 11 12 12 10 14
REMARK H PARENT 12 13 10 15
REMARK Flexibility Score: inf
ROOT
ATOM      1  C   UNL     1       8.428  17.370 -18.828  1.00  0.00    -0.022 A 
ATOM      2  C   UNL     1       9.055  18.630 -18.860  1.00  0.00     0.058 A 
ATOM      3  C   UNL     1       7.137  17.260 -18.294  1.00  0.00     0.012 A 
ATOM      4  C   UNL     1       8.416  19.753 -18.315  1.00  0.00     0.157 A 
ATOM      5  C   UNL     1       6.500  18.379 -17.748  1.00  0.00     0.051 A 
ATOM      6  C   UNL     1       7.139  19.626 -17.754  1.00  0.00     0.157 A 
ENDROOT
BRANCH   1   7
ATOM      7  C   UNL     1       9.060  16.186 -19.444  1.00  0.00     0.010 C 
ATOM      8  C   UNL     1       9.896  15.338 -18.822  1.00  0.00     0.025 C 
BRANCH   8   9
ATOM      9  C   UNL     1      10.195  15.327 -17.376  1.00  0.00     0.064 C 
ATOM     10  O   UNL     1       9.296  15.123 -16.519  1.00  0.00    -0.545 OA
ATOM     11  O   UNL     1      11.510  15.476 -16.958  1.00  0.00    -0.545 OA
ENDBRANCH   8   9
ENDBRANCH   1   7
BRANCH   4  12
ATOM     12  O   UNL     1       9.043  20.998 -18.332  1.00  0.00    -0.504 OA
ATOM     13  H   UNL     1       8.914  21.646 -19.100  1.00  0.00     0.293 HD
ENDBRANCH   4  12
BRANCH   6  14
ATOM     14  O   UNL     1       6.509  20.744 -17.211  1.00  0.00    -0.504 OA
ATOM     15  H   UNL     1       5.547  20.972 -17.436  1.00  0.00     0.293 HD
ENDBRANCH   6  14
TORSDOF 4
ENDMDL
