MODEL 1
REMARK VINA RESULT:    -4.803      0.000      0.000
REMARK INTER + INTRA:          -7.869
REMARK INTER:                  -7.330
REMARK INTRA:                  -0.539
REMARK UNBOUND:                -0.539
REMARK SMILES O=C([O-])CCCCCCCCC(=O)[O-]
REMARK SMILES IDX 7 1 6 2 5 3 4 4 2 5 1 6 3 7 8 8 9 9 10 10 11 11 12 12 13 13
REMARK SMILES IDX 14 14
REMARK H PARENT
REMARK Flexibility Score: inf
ROOT
ATOM      1  C   UNL     1       9.978 -11.856  24.543  1.00  0.00     0.000 C 
ENDROOT
BRANCH   1   2
ATOM      2  C   UNL     1       9.025 -11.756  25.744  1.00  0.00     0.000 C 
BRANCH   2   3
ATOM      3  C   UNL     1       9.522 -12.551  26.962  1.00  0.00     0.006 C 
BRANCH   3   4
ATOM      4  C   UNL     1       8.671 -12.247  28.199  1.00  0.00     0.053 C 
BRANCH   4   5
ATOM      5  C   UNL     1       9.382 -12.676  29.443  1.00  0.00     0.041 C 
ATOM      6  O   UNL     1      10.426 -13.377  29.368  1.00  0.00    -0.550 OA
ATOM      7  O   UNL     1       8.922 -12.259  30.685  1.00  0.00    -0.550 OA
ENDBRANCH   4   5
ENDBRANCH   3   4
ENDBRANCH   2   3
ENDBRANCH   1   2
BRANCH   1   8
ATOM      8  C   UNL     1      11.441 -12.068  24.962  1.00  0.00     0.000 C 
BRANCH   8   9
ATOM      9  C   UNL     1      12.033 -13.307  24.274  1.00  0.00     0.000 C 
BRANCH   9  10
ATOM     10  C   UNL     1      13.403 -13.704  24.845  1.00  0.00     0.006 C 
BRANCH  10  11
ATOM     11  C   UNL     1      13.751 -12.940  26.131  1.00  0.00     0.053 C 
BRANCH  11  12
ATOM     12  C   UNL     1      14.037 -13.897  27.244  1.00  0.00     0.041 C 
ATOM     13  O   UNL     1      13.822 -13.562  28.438  1.00  0.00    -0.550 OA
ATOM     14  O   UNL     1      14.495 -15.178  26.960  1.00  0.00    -0.550 OA
ENDBRANCH  11  12
ENDBRANCH  10  11
ENDBRANCH   9  10
ENDBRANCH   8   9
ENDBRANCH   1   8
TORSDOF 9
ENDMDL
MODEL 2
REMARK VINA RESULT:    -4.797      1.032      5.086
REMARK INTER + INTRA:          -7.860
REMARK INTER:                  -7.383
REMARK INTRA:                  -0.477
REMARK UNBOUND:                -0.539
REMARK SMILES O=C([O-])CCCCCCCCC(=O)[O-]
REMARK SMILES IDX 7 1 6 2 5 3 4 4 2 5 1 6 3 7 8 8 9 9 10 10 11 11 12 12 13 13
REMARK SMILES IDX 14 14
REMARK H PARENT
REMARK Flexibility Score: inf
ROOT
ATOM      1  C   UNL     1      11.067 -12.579  24.675  1.00  0.00     0.000 C 
ENDROOT
BRANCH   1   2
ATOM      2  C   UNL     1      12.391 -11.859  24.972  1.00  0.00     0.000 C 
BRANCH   2   3
ATOM      3  C   UNL     1      13.559 -12.834  25.190  1.00  0.00     0.006 C 
BRANCH   3   4
ATOM      4  C   UNL     1      13.592 -13.333  26.638  1.00  0.00     0.053 C 
BRANCH   4   5
ATOM      5  C   UNL     1      14.575 -14.451  26.785  1.00  0.00     0.041 C 
ATOM      6  O   UNL     1      15.556 -14.333  27.565  1.00  0.00    -0.550 OA
ATOM      7  O   UNL     1      14.380 -15.643  26.100  1.00  0.00    -0.550 OA
ENDBRANCH   4   5
ENDBRANCH   3   4
ENDBRANCH   2   3
ENDBRANCH   1   2
BRANCH   1   8
ATOM      8  C   UNL     1       9.875 -11.614  24.582  1.00  0.00     0.000 C 
BRANCH   8   9
ATOM      9  C   UNL     1       8.987 -11.720  25.831  1.00  0.00     0.000 C 
BRANCH   9  10
ATOM     10  C   UNL     1       8.860 -13.162  26.347  1.00  0.00     0.006 C 
BRANCH  10  11
ATOM     11  C   UNL     1       8.078 -13.252  27.665  1.00  0.00     0.053 C 
BRANCH  11  12
ATOM     12  C   UNL     1       8.807 -12.531  28.754  1.00  0.00     0.041 C 
ATOM     13  O   UNL     1       8.205 -11.691  29.471  1.00  0.00    -0.550 OA
ATOM     14  O   UNL     1      10.142 -12.823  29.008  1.00  0.00    -0.550 OA
ENDBRANCH  11  12
ENDBRANCH  10  11
ENDBRANCH   9  10
ENDBRANCH   8   9
ENDBRANCH   1   8
TORSDOF 9
ENDMDL
MODEL 3
REMARK VINA RESULT:    -4.771      1.195      5.107
REMARK INTER + INTRA:          -7.821
REMARK INTER:                  -7.176
REMARK INTRA:                  -0.645
REMARK UNBOUND:                -0.539
REMARK SMILES O=C([O-])CCCCCCCCC(=O)[O-]
REMARK SMILES IDX 7 1 6 2 5 3 4 4 2 5 1 6 3 7 8 8 9 9 10 10 11 11 12 12 13 13
REMARK SMILES IDX 14 14
REMARK H PARENT
REMARK Flexibility Score: inf
ROOT
ATOM      1  C   UNL     1      10.899 -12.940  24.346  1.00  0.00     0.000 C 
ENDROOT
BRANCH   1   2
ATOM      2  C   UNL     1      12.351 -12.570  24.003  1.00  0.00     0.000 C 
BRANCH   2   3
ATOM      3  C   UNL     1      13.117 -12.003  25.208  1.00  0.00     0.006 C 
BRANCH   3   4
ATOM      4  C   UNL     1      13.555 -13.124  26.155  1.00  0.00     0.053 C 
BRANCH   4   5
ATOM      5  C   UNL     1      14.462 -14.082  25.450  1.00  0.00     0.041 C 
ATOM      6  O   UNL     1      14.139 -15.293  25.336  1.00  0.00    -0.550 OA
ATOM      7  O   UNL     1      15.640 -13.627  24.874  1.00  0.00    -0.550 OA
ENDBRANCH   4   5
ENDBRANCH   3   4
ENDBRANCH   2   3
ENDBRANCH   1   2
BRANCH   1   8
ATOM      8  C   UNL     1      10.006 -11.708  24.557  1.00  0.00     0.000 C 
BRANCH   8   9
ATOM      9  C   UNL     1       8.963 -11.969  25.654  1.00  0.00     0.000 C 
BRANCH   9  10
ATOM     10  C   UNL     1       9.581 -12.560  26.931  1.00  0.00     0.006 C 
BRANCH  10  11
ATOM     11  C   UNL     1       8.722 -12.303  28.177  1.00  0.00     0.053 C 
BRANCH  11  12
ATOM     12  C   UNL     1       9.467 -12.693  29.413  1.00  0.00     0.041 C 
ATOM     13  O   UNL     1       9.046 -12.340  30.545  1.00  0.00    -0.550 OA
ATOM     14  O   UNL     1      10.603 -13.489  29.319  1.00  0.00    -0.550 OA
ENDBRANCH  11  12
ENDBRANCH  10  11
ENDBRANCH   9  10
ENDBRANCH   8   9
ENDBRANCH   1   8
TORSDOF 9
ENDMDL
MODEL 4
REMARK VINA RESULT:    -4.732      2.654      4.071
REMARK INTER + INTRA:          -7.761
REMARK INTER:                  -7.283
REMARK INTRA:                  -0.478
REMARK UNBOUND:                -0.539
REMARK SMILES O=C([O-])CCCCCCCCC(=O)[O-]
REMARK SMILES IDX 7 1 6 2 5 3 4 4 2 5 1 6 3 7 8 8 9 9 10 10 11 11 12 12 13 13
REMARK SMILES IDX 14 14
REMARK H PARENT
REMARK Flexibility Score: inf
ROOT
ATOM      1  C   UNL     1      10.114 -12.889  28.612  1.00  0.00     0.000 C 
ENDROOT
BRANCH   1   2
ATOM      2  C   UNL     1       8.675 -13.262  28.224  1.00  0.00     0.000 C 
BRANCH   2   3
ATOM      3  C   UNL     1       8.400 -13.075  26.723  1.00  0.00     0.006 C 
BRANCH   3   4
ATOM      4  C   UNL     1       9.309 -11.994  26.131  1.00  0.00     0.053 C 
BRANCH   4   5
ATOM      5  C   UNL     1       9.688 -12.339  24.726  1.00  0.00     0.041 C 
ATOM      6  O   UNL     1       9.261 -11.646  23.765  1.00  0.00    -0.550 OA
ATOM      7  O   UNL     1      10.555 -13.396  24.480  1.00  0.00    -0.550 OA
ENDBRANCH   4   5
ENDBRANCH   3   4
ENDBRANCH   2   3
ENDBRANCH   1   2
BRANCH   1   8
ATOM      8  C   UNL     1      10.482 -13.345  30.032  1.00  0.00     0.000 C 
BRANCH   8   9
ATOM      9  C   UNL     1      11.985 -13.645  30.139  1.00  0.00     0.000 C 
BRANCH   9  10
ATOM     10  C   UNL     1      12.671 -13.728  28.766  1.00  0.00     0.006 C 
BRANCH  10  11
ATOM     11  C   UNL     1      14.162 -13.367  28.828  1.00  0.00     0.053 C 
BRANCH  11  12
ATOM     12  C   UNL     1      14.825 -13.664  27.521  1.00  0.00     0.041 C 
ATOM     13  O   UNL     1      14.888 -14.847  27.096  1.00  0.00    -0.550 OA
ATOM     14  O   UNL     1      15.332 -12.627  26.747  1.00  0.00    -0.550 OA
ENDBRANCH  11  12
ENDBRANCH  10  11
ENDBRANCH   9  10
ENDBRANCH   8   9
ENDBRANCH   1   8
TORSDOF 9
ENDMDL
MODEL 5
REMARK VINA RESULT:    -4.699      2.298      5.382
REMARK INTER + INTRA:          -7.711
REMARK INTER:                  -7.174
REMARK INTRA:                  -0.537
REMARK UNBOUND:                -0.539
REMARK SMILES O=C([O-])CCCCCCCCC(=O)[O-]
REMARK SMILES IDX 7 1 6 2 5 3 4 4 2 5 1 6 3 7 8 8 9 9 10 10 11 11 12 12 13 13
REMARK SMILES IDX 14 14
REMARK H PARENT
REMARK Flexibility Score: inf
ROOT
ATOM      1  C   UNL     1      10.746 -13.442  28.978  1.00  0.00     0.000 C 
ENDROOT
BRANCH   1   2
ATOM      2  C   UNL     1      11.759 -13.770  30.086  1.00  0.00     0.000 C 
BRANCH   2   3
ATOM      3  C   UNL     1      13.215 -13.650  29.611  1.00  0.00     0.006 C 
BRANCH   3   4
ATOM      4  C   UNL     1      13.283 -13.489  28.089  1.00  0.00     0.053 C 
BRANCH   4   5
ATOM      5  C   UNL     1      14.539 -14.097  27.553  1.00  0.00     0.041 C 
ATOM      6  O   UNL     1      14.525 -15.261  27.072  1.00  0.00    -0.550 OA
ATOM      7  O   UNL     1      15.716 -13.360  27.537  1.00  0.00    -0.550 OA
ENDBRANCH   4   5
ENDBRANCH   3   4
ENDBRANCH   2   3
ENDBRANCH   1   2
BRANCH   1   8
ATOM      8  C   UNL     1       9.490 -12.737  29.512  1.00  0.00     0.000 C 
BRANCH   8   9
ATOM      9  C   UNL     1       8.673 -12.128  28.363  1.00  0.00     0.000 C 
BRANCH   9  10
ATOM     10  C   UNL     1       8.805 -12.925  27.055  1.00  0.00     0.006 C 
BRANCH  10  11
ATOM     11  C   UNL     1       8.716 -12.034  25.808  1.00  0.00     0.053 C 
BRANCH  11  12
ATOM     12  C   UNL     1       9.954 -12.170  24.981  1.00  0.00     0.041 C 
ATOM     13  O   UNL     1       9.899 -12.037  23.730  1.00  0.00    -0.550 OA
ATOM     14  O   UNL     1      11.180 -12.396  25.596  1.00  0.00    -0.550 OA
ENDBRANCH  11  12
ENDBRANCH  10  11
ENDBRANCH   9  10
ENDBRANCH   8   9
ENDBRANCH   1   8
TORSDOF 9
ENDMDL
MODEL 6
REMARK VINA RESULT:    -4.534      8.841     10.669
REMARK INTER + INTRA:          -7.458
REMARK INTER:                  -6.884
REMARK INTRA:                  -0.574
REMARK UNBOUND:                -0.539
REMARK SMILES O=C([O-])CCCCCCCCC(=O)[O-]
REMARK SMILES IDX 7 1 6 2 5 3 4 4 2 5 1 6 3 7 8 8 9 9 10 10 11 11 12 12 13 13
REMARK SMILES IDX 14 14
REMARK H PARENT
REMARK Flexibility Score: inf
ROOT
ATOM      1  C   UNL     1      18.132 -15.474  24.058  1.00  0.00     0.000 C 
ENDROOT
BRANCH   1   2
ATOM      2  C   UNL     1      18.767 -14.161  24.542  1.00  0.00     0.000 C 
BRANCH   2   3
ATOM      3  C   UNL     1      20.107 -13.862  23.851  1.00  0.00     0.006 C 
BRANCH   3   4
ATOM      4  C   UNL     1      21.115 -13.275  24.844  1.00  0.00     0.053 C 
BRANCH   4   5
ATOM      5  C   UNL     1      22.284 -12.688  24.118  1.00  0.00     0.041 C 
ATOM      6  O   UNL     1      23.370 -12.488  24.723  1.00  0.00    -0.550 OA
ATOM      7  O   UNL     1      22.191 -12.409  22.761  1.00  0.00    -0.550 OA
ENDBRANCH   4   5
ENDBRANCH   3   4
ENDBRANCH   2   3
ENDBRANCH   1   2
BRANCH   1   8
ATOM      8  C   UNL     1      18.981 -16.707  24.406  1.00  0.00     0.000 C 
BRANCH   8   9
ATOM      9  C   UNL     1      19.387 -17.468  23.135  1.00  0.00     0.000 C 
BRANCH   9  10
ATOM     10  C   UNL     1      18.913 -16.772  21.850  1.00  0.00     0.006 C 
BRANCH  10  11
ATOM     11  C   UNL     1      18.428 -17.764  20.785  1.00  0.00     0.053 C 
BRANCH  11  12
ATOM     12  C   UNL     1      17.176 -17.264  20.137  1.00  0.00     0.041 C 
ATOM     13  O   UNL     1      16.395 -16.506  20.770  1.00  0.00    -0.550 OA
ATOM     14  O   UNL     1      16.895 -17.596  18.818  1.00  0.00    -0.550 OA
ENDBRANCH  11  12
ENDBRANCH  10  11
ENDBRANCH   9  10
ENDBRANCH   8   9
ENDBRANCH   1   8
TORSDOF 9
ENDMDL
MODEL 7
REMARK VINA RESULT:    -4.510      4.616      5.557
REMARK INTER + INTRA:          -7.422
REMARK INTER:                  -6.982
REMARK INTRA:                  -0.441
REMARK UNBOUND:                -0.539
REMARK SMILES O=C([O-])CCCCCCCCC(=O)[O-]
REMARK SMILES IDX 7 1 6 2 5 3 4 4 2 5 1 6 3 7 8 8 9 9 10 10 11 11 12 12 13 13
REMARK SMILES IDX 14 14
REMARK H PARENT
REMARK Flexibility Score: inf
ROOT
ATOM      1  C   UNL     1      10.677 -12.146  24.859  1.00  0.00     0.000 C 
ENDROOT
BRANCH   1   2
ATOM      2  C   UNL     1       9.548 -11.153  25.178  1.00  0.00     0.000 C 
BRANCH   2   3
ATOM      3  C   UNL     1       8.674 -11.609  26.356  1.00  0.00     0.006 C 
BRANCH   3   4
ATOM      4  C   UNL     1       9.299 -12.814  27.066  1.00  0.00     0.053 C 
BRANCH   4   5
ATOM      5  C   UNL     1       9.317 -12.600  28.546  1.00  0.00     0.041 C 
ATOM      6  O   UNL     1      10.268 -13.047  29.240  1.00  0.00    -0.550 OA
ATOM      7  O   UNL     1       8.310 -11.861  29.154  1.00  0.00    -0.550 OA
ENDBRANCH   4   5
ENDBRANCH   3   4
ENDBRANCH   2   3
ENDBRANCH   1   2
BRANCH   1   8
ATOM      8  C   UNL     1      10.692 -12.574  23.383  1.00  0.00     0.000 C 
BRANCH   8   9
ATOM      9  C   UNL     1       9.525 -11.934  22.616  1.00  0.00     0.000 C 
BRANCH   9  10
ATOM     10  C   UNL     1       9.320 -12.553  21.225  1.00  0.00     0.006 C 
BRANCH  10  11
ATOM     11  C   UNL     1      10.456 -12.210  20.252  1.00  0.00     0.053 C 
BRANCH  11  12
ATOM     12  C   UNL     1       9.901 -11.686  18.966  1.00  0.00     0.041 C 
ATOM     13  O   UNL     1      10.196 -12.242  17.875  1.00  0.00    -0.550 OA
ATOM     14  O   UNL     1       9.020 -10.612  18.975  1.00  0.00    -0.550 OA
ENDBRANCH  11  12
ENDBRANCH  10  11
ENDBRANCH   9  10
ENDBRANCH   8   9
ENDBRANCH   1   8
TORSDOF 9
ENDMDL
MODEL 8
REMARK VINA RESULT:    -4.495      5.758      8.286
REMARK INTER + INTRA:          -7.398
REMARK INTER:                  -6.855
REMARK INTRA:                  -0.543
REMARK UNBOUND:                -0.539
REMARK SMILES O=C([O-])CCCCCCCCC(=O)[O-]
REMARK SMILES IDX 7 1 6 2 5 3 4 4 2 5 1 6 3 7 8 8 9 9 10 10 11 11 12 12 13 13
REMARK SMILES IDX 14 14
REMARK H PARENT
REMARK Flexibility Score: inf
ROOT
ATOM      1  C   UNL     1      18.978 -15.052  23.714  1.00  0.00     0.000 C 
ENDROOT
BRANCH   1   2
ATOM      2  C   UNL     1      17.799 -14.485  24.520  1.00  0.00     0.000 C 
BRANCH   2   3
ATOM      3  C   UNL     1      17.207 -15.509  25.502  1.00  0.00     0.006 C 
BRANCH   3   4
ATOM      4  C   UNL     1      16.495 -14.806  26.661  1.00  0.00     0.053 C 
BRANCH   4   5
ATOM      5  C   UNL     1      15.012 -14.843  26.466  1.00  0.00     0.041 C 
ATOM      6  O   UNL     1      14.260 -14.138  27.188  1.00  0.00    -0.550 OA
ATOM      7  O   UNL     1      14.464 -15.618  25.452  1.00  0.00    -0.550 OA
ENDBRANCH   4   5
ENDBRANCH   3   4
ENDBRANCH   2   3
ENDBRANCH   1   2
BRANCH   1   8
ATOM      8  C   UNL     1      19.462 -16.410  24.246  1.00  0.00     0.000 C 
BRANCH   8   9
ATOM      9  C   UNL     1      19.331 -17.498  23.170  1.00  0.00     0.000 C 
BRANCH   9  10
ATOM     10  C   UNL     1      19.142 -16.916  21.760  1.00  0.00     0.006 C 
BRANCH  10  11
ATOM     11  C   UNL     1      18.461 -17.902  20.800  1.00  0.00     0.053 C 
BRANCH  11  12
ATOM     12  C   UNL     1      17.279 -17.260  20.146  1.00  0.00     0.041 C 
ATOM     13  O   UNL     1      16.480 -16.564  20.825  1.00  0.00    -0.550 OA
ATOM     14  O   UNL     1      17.086 -17.391  18.776  1.00  0.00    -0.550 OA
ENDBRANCH  11  12
ENDBRANCH  10  11
ENDBRANCH   9  10
ENDBRANCH   8   9
ENDBRANCH   1   8
TORSDOF 9
ENDMDL
MODEL 9
REMARK VINA RESULT:    -4.459      1.710      2.196
REMARK INTER + INTRA:          -7.344
REMARK INTER:                  -6.976
REMARK INTRA:                  -0.368
REMARK UNBOUND:                -0.539
REMARK SMILES O=C([O-])CCCCCCCCC(=O)[O-]
REMARK SMILES IDX 7 1 6 2 5 3 4 4 2 5 1 6 3 7 8 8 9 9 10 10 11 11 12 12 13 13
REMARK SMILES IDX 14 14
REMARK H PARENT
REMARK Flexibility Score: inf
ROOT
ATOM      1  C   UNL     1      10.983 -12.247  24.532  1.00  0.00     0.000 C 
ENDROOT
BRANCH   1   2
ATOM      2  C   UNL     1       9.554 -12.635  24.941  1.00  0.00     0.000 C 
BRANCH   2   3
ATOM      3  C   UNL     1       9.100 -11.941  26.235  1.00  0.00     0.006 C 
BRANCH   3   4
ATOM      4  C   UNL     1       8.640 -12.968  27.274  1.00  0.00     0.053 C 
BRANCH   4   5
ATOM      5  C   UNL     1       9.037 -12.536  28.650  1.00  0.00     0.041 C 
ATOM      6  O   UNL     1      10.185 -12.805  29.093  1.00  0.00    -0.550 OA
ATOM      7  O   UNL     1       8.158 -11.791  29.425  1.00  0.00    -0.550 OA
ENDBRANCH   4   5
ENDBRANCH   3   4
ENDBRANCH   2   3
ENDBRANCH   1   2
BRANCH   1   8
ATOM      8  C   UNL     1      12.014 -12.536  25.634  1.00  0.00     0.000 C 
BRANCH   8   9
ATOM      9  C   UNL     1      13.444 -12.483  25.073  1.00  0.00     0.000 C 
BRANCH   9  10
ATOM     10  C   UNL     1      13.877 -13.809  24.429  1.00  0.00     0.006 C 
BRANCH  10  11
ATOM     11  C   UNL     1      14.559 -14.756  25.426  1.00  0.00     0.053 C 
BRANCH  11  12
ATOM     12  C   UNL     1      15.863 -15.240  24.876  1.00  0.00     0.041 C 
ATOM     13  O   UNL     1      16.018 -15.370  23.633  1.00  0.00    -0.550 OA
ATOM     14  O   UNL     1      16.925 -15.502  25.733  1.00  0.00    -0.550 OA
ENDBRANCH  11  12
ENDBRANCH  10  11
ENDBRANCH   9  10
ENDBRANCH   8   9
ENDBRANCH   1   8
TORSDOF 9
ENDMDL
