MODEL 1
REMARK VINA RESULT:    -4.644      0.000      0.000
REMARK INTER + INTRA:          -9.530
REMARK INTER:                  -7.358
REMARK INTRA:                  -2.172
REMARK UNBOUND:                -2.172
REMARK SMILES C[C@@H]1O[C@@H](OC[C@@H]2O[C@H](Oc3cc(O)c4c(c3)O[C@H](c3ccc(O)cc3)CC4=O)[C@H](O)[C@@H](O)[C@H]2O)[C@H](O)[C@@H](O)[C@H]1O
REMARK SMILES IDX 7 1 34 2 32 3 30 4 9 5 8 6 6 7 5 8 4 9 1 10 2 11 40 12 3 13
REMARK SMILES IDX 38 14 36 15 41 16 39 18 37 20 35 22 33 24 10 26 11 27 12 28
REMARK SMILES IDX 17 29 13 30 16 31 15 32 18 33 28 34 19 35 29 36 27 37 14 38
REMARK SMILES IDX 20 40 21 41 26 42 22 43 25 44 23 45 24 46 31 48
REMARK H PARENT 41 17 39 19 37 21 35 23 33 25 14 39 24 47 31 49
REMARK Flexibility Score: inf
ROOT
ATOM      1  C   UNL     1      22.768  33.138  41.860  1.00  0.00     0.180 C 
ATOM      2  C   UNL     1      23.935  32.261  41.338  1.00  0.00     0.177 C 
ATOM      3  C   UNL     1      23.789  31.963  39.839  1.00  0.00     0.180 C 
ATOM      4  C   UNL     1      23.543  33.261  39.060  1.00  0.00     0.214 C 
ATOM      5  C   UNL     1      22.391  34.075  39.685  1.00  0.00     0.339 C 
ATOM      6  O   UNL     1      22.567  34.314  41.077  1.00  0.00    -0.332 OA
ENDROOT
BRANCH   1   7
ATOM      7  C   UNL     1      21.463  32.348  42.085  1.00  0.00     0.198 C 
BRANCH   7   8
ATOM      8  O   UNL     1      20.452  33.194  42.600  1.00  0.00    -0.347 OA
BRANCH   8   9
ATOM      9  C   UNL     1      20.352  33.055  44.014  1.00  0.00     0.281 C 
ATOM     10  C   UNL     1      17.221  34.917  44.530  1.00  0.00     0.041 C 
ATOM     11  C   UNL     1      18.692  34.715  44.155  1.00  0.00     0.150 C 
ATOM     12  C   UNL     1      19.585  35.704  44.942  1.00  0.00     0.174 C 
ATOM     13  O   UNL     1      19.038  33.373  44.450  1.00  0.00    -0.344 OA
ATOM     14  C   UNL     1      21.085  35.428  44.686  1.00  0.00     0.179 C 
ATOM     15  C   UNL     1      21.411  33.920  44.747  1.00  0.00     0.202 C 
BRANCH  12  16
ATOM     16  O   UNL     1      19.271  37.023  44.575  1.00  0.00    -0.388 OA
ATOM     17  H   UNL     1      18.428  36.980  44.053  1.00  0.00     0.211 HD
ENDBRANCH  12  16
BRANCH  14  18
ATOM     18  O   UNL     1      21.530  35.985  43.472  1.00  0.00    -0.387 OA
ATOM     19  H   UNL     1      21.167  35.443  42.727  1.00  0.00     0.211 HD
ENDBRANCH  14  18
BRANCH  15  20
ATOM     20  O   UNL     1      21.556  33.503  46.084  1.00  0.00    -0.385 OA
ATOM     21  H   UNL     1      22.118  34.171  46.559  1.00  0.00     0.211 HD
ENDBRANCH  15  20
ENDBRANCH   8   9
ENDBRANCH   7   8
ENDBRANCH   1   7
BRANCH   2  22
ATOM     22  O   UNL     1      25.180  32.858  41.619  1.00  0.00    -0.387 OA
ATOM     23  H   UNL     1      25.101  33.360  42.473  1.00  0.00     0.211 HD
ENDBRANCH   2  22
BRANCH   3  24
ATOM     24  O   UNL     1      24.956  31.335  39.373  1.00  0.00    -0.387 OA
ATOM     25  H   UNL     1      24.929  31.366  38.383  1.00  0.00     0.211 HD
ENDBRANCH   3  24
BRANCH   5  26
ATOM     26  O   UNL     1      21.130  33.462  39.412  1.00  0.00    -0.462 OA
BRANCH  26  27
ATOM     27  C   UNL     1      20.041  34.108  38.807  1.00  0.00     0.130 A 
ATOM     28  C   UNL     1      20.022  34.439  37.440  1.00  0.00     0.093 A 
ATOM     29  C   UNL     1      18.953  34.461  39.611  1.00  0.00     0.094 A 
ATOM     30  C   UNL     1      18.928  35.117  36.884  1.00  0.00     0.133 A 
ATOM     31  C   UNL     1      17.882  35.181  39.080  1.00  0.00     0.138 A 
ATOM     32  C   UNL     1      17.842  35.487  37.706  1.00  0.00     0.102 A 
ATOM     33  O   UNL     1      16.853  35.609  39.926  1.00  0.00    -0.484 OA
ATOM     34  C   UNL     1      16.645  36.192  37.184  1.00  0.00     0.174 C 
ATOM     35  C   UNL     1      15.941  36.638  39.532  1.00  0.00     0.211 C 
ATOM     36  O   UNL     1      16.577  36.559  35.980  1.00  0.00    -0.294 OA
ATOM     37  C   UNL     1      15.463  36.409  38.090  1.00  0.00     0.131 C 
BRANCH  30  38
ATOM     38  O   UNL     1      18.924  35.417  35.521  1.00  0.00    -0.507 OA
ATOM     39  H   UNL     1      19.285  34.769  34.830  1.00  0.00     0.293 HD
ENDBRANCH  30  38
BRANCH  35  40
ATOM     40  C   UNL     1      14.777  36.694  40.489  1.00  0.00    -0.007 A 
ATOM     41  C   UNL     1      14.746  35.844  41.609  1.00  0.00     0.011 A 
ATOM     42  C   UNL     1      13.730  37.615  40.297  1.00  0.00     0.011 A 
ATOM     43  C   UNL     1      13.675  35.897  42.505  1.00  0.00     0.046 A 
ATOM     44  C   UNL     1      12.658  37.661  41.192  1.00  0.00     0.046 A 
ATOM     45  C   UNL     1      12.626  36.801  42.297  1.00  0.00     0.115 A 
BRANCH  45  46
ATOM     46  O   UNL     1      11.558  36.833  43.193  1.00  0.00    -0.508 OA
ATOM     47  H   UNL     1      11.014  36.004  43.401  1.00  0.00     0.293 HD
ENDBRANCH  45  46
ENDBRANCH  35  40
ENDBRANCH  26  27
ENDBRANCH   5  26
BRANCH   4  48
ATOM     48  O   UNL     1      23.240  32.948  37.724  1.00  0.00    -0.384 OA
ATOM     49  H   UNL     1      22.323  33.287  37.549  1.00  0.00     0.211 HD
ENDBRANCH   4  48
TORSDOF 14
ENDMDL
MODEL 2
REMARK VINA RESULT:    -4.395      2.131      8.141
REMARK INTER + INTRA:          -9.136
REMARK INTER:                  -6.827
REMARK INTRA:                  -2.310
REMARK UNBOUND:                -2.172
REMARK SMILES C[C@@H]1O[C@@H](OC[C@@H]2O[C@H](Oc3cc(O)c4c(c3)O[C@H](c3ccc(O)cc3)CC4=O)[C@H](O)[C@@H](O)[C@H]2O)[C@H](O)[C@@H](O)[C@H]1O
REMARK SMILES IDX 7 1 34 2 32 3 30 4 9 5 8 6 6 7 5 8 4 9 1 10 2 11 40 12 3 13
REMARK SMILES IDX 38 14 36 15 41 16 39 18 37 20 35 22 33 24 10 26 11 27 12 28
REMARK SMILES IDX 17 29 13 30 16 31 15 32 18 33 28 34 19 35 29 36 27 37 14 38
REMARK SMILES IDX 20 40 21 41 26 42 22 43 25 44 23 45 24 46 31 48
REMARK H PARENT 41 17 39 19 37 21 35 23 33 25 14 39 24 47 31 49
REMARK Flexibility Score: inf
ROOT
ATOM      1  C   UNL     1      16.925  36.575  37.471  1.00  0.00     0.180 C 
ATOM      2  C   UNL     1      15.886  36.705  36.329  1.00  0.00     0.177 C 
ATOM      3  C   UNL     1      14.482  36.296  36.795  1.00  0.00     0.180 C 
ATOM      4  C   UNL     1      14.120  37.022  38.097  1.00  0.00     0.214 C 
ATOM      5  C   UNL     1      15.236  36.864  39.150  1.00  0.00     0.339 C 
ATOM      6  O   UNL     1      16.520  37.243  38.665  1.00  0.00    -0.332 OA
ENDROOT
BRANCH   1   7
ATOM      7  C   UNL     1      17.371  35.122  37.730  1.00  0.00     0.198 C 
BRANCH   7   8
ATOM      8  O   UNL     1      18.467  35.090  38.624  1.00  0.00    -0.347 OA
BRANCH   8   9
ATOM      9  C   UNL     1      18.781  33.749  38.989  1.00  0.00     0.281 C 
ATOM     10  C   UNL     1      21.461  34.448  41.409  1.00  0.00     0.041 C 
ATOM     11  C   UNL     1      20.782  34.401  40.037  1.00  0.00     0.150 C 
ATOM     12  C   UNL     1      21.690  33.675  39.016  1.00  0.00     0.174 C 
ATOM     13  O   UNL     1      19.544  33.727  40.186  1.00  0.00    -0.344 OA
ATOM     14  C   UNL     1      20.969  33.492  37.660  1.00  0.00     0.179 C 
ATOM     15  C   UNL     1      19.515  33.006  37.842  1.00  0.00     0.202 C 
BRANCH  12  16
ATOM     16  O   UNL     1      22.876  34.404  38.833  1.00  0.00    -0.388 OA
ATOM     17  H   UNL     1      23.297  34.059  38.003  1.00  0.00     0.211 HD
ENDBRANCH  12  16
BRANCH  14  18
ATOM     18  O   UNL     1      21.009  34.659  36.873  1.00  0.00    -0.387 OA
ATOM     19  H   UNL     1      20.123  35.098  36.920  1.00  0.00     0.211 HD
ENDBRANCH  14  18
BRANCH  15  20
ATOM     20  O   UNL     1      19.486  31.613  38.053  1.00  0.00    -0.385 OA
ATOM     21  H   UNL     1      19.709  31.439  39.006  1.00  0.00     0.211 HD
ENDBRANCH  15  20
ENDBRANCH   8   9
ENDBRANCH   7   8
ENDBRANCH   1   7
BRANCH   2  22
ATOM     22  O   UNL     1      15.884  38.008  35.793  1.00  0.00    -0.387 OA
ATOM     23  H   UNL     1      16.070  38.649  36.528  1.00  0.00     0.211 HD
ENDBRANCH   2  22
BRANCH   3  24
ATOM     24  O   UNL     1      13.547  36.610  35.793  1.00  0.00    -0.387 OA
ATOM     25  H   UNL     1      13.634  35.921  35.087  1.00  0.00     0.211 HD
ENDBRANCH   3  24
BRANCH   5  26
ATOM     26  O   UNL     1      15.247  35.538  39.683  1.00  0.00    -0.462 OA
BRANCH  26  27
ATOM     27  C   UNL     1      15.440  35.221  41.036  1.00  0.00     0.130 A 
ATOM     28  C   UNL     1      14.393  34.785  41.868  1.00  0.00     0.093 A 
ATOM     29  C   UNL     1      16.720  35.382  41.575  1.00  0.00     0.094 A 
ATOM     30  C   UNL     1      14.623  34.513  43.224  1.00  0.00     0.133 A 
ATOM     31  C   UNL     1      16.950  35.164  42.935  1.00  0.00     0.138 A 
ATOM     32  C   UNL     1      15.913  34.697  43.765  1.00  0.00     0.102 A 
ATOM     33  O   UNL     1      18.215  35.428  43.470  1.00  0.00    -0.484 OA
ATOM     34  C   UNL     1      16.234  34.415  45.187  1.00  0.00     0.174 C 
ATOM     35  C   UNL     1      18.414  35.580  44.878  1.00  0.00     0.211 C 
ATOM     36  O   UNL     1      15.337  34.064  46.001  1.00  0.00    -0.294 OA
ATOM     37  C   UNL     1      17.664  34.482  45.648  1.00  0.00     0.131 C 
BRANCH  30  38
ATOM     38  O   UNL     1      13.572  34.063  44.024  1.00  0.00    -0.507 OA
ATOM     39  H   UNL     1      13.512  34.299  45.008  1.00  0.00     0.293 HD
ENDBRANCH  30  38
BRANCH  35  40
ATOM     40  C   UNL     1      19.887  35.560  45.199  1.00  0.00    -0.007 A 
ATOM     41  C   UNL     1      20.519  36.724  45.671  1.00  0.00     0.011 A 
ATOM     42  C   UNL     1      20.638  34.377  45.065  1.00  0.00     0.011 A 
ATOM     43  C   UNL     1      21.882  36.711  45.979  1.00  0.00     0.046 A 
ATOM     44  C   UNL     1      22.002  34.369  45.369  1.00  0.00     0.046 A 
ATOM     45  C   UNL     1      22.629  35.536  45.825  1.00  0.00     0.115 A 
BRANCH  45  46
ATOM     46  O   UNL     1      23.991  35.542  46.125  1.00  0.00    -0.508 OA
ATOM     47  H   UNL     1      24.340  35.915  47.000  1.00  0.00     0.293 HD
ENDBRANCH  45  46
ENDBRANCH  35  40
ENDBRANCH  26  27
ENDBRANCH   5  26
BRANCH   4  48
ATOM     48  O   UNL     1      12.913  36.505  38.595  1.00  0.00    -0.384 OA
ATOM     49  H   UNL     1      12.578  37.153  39.269  1.00  0.00     0.211 HD
ENDBRANCH   4  48
TORSDOF 14
ENDMDL
MODEL 3
REMARK VINA RESULT:    -4.368      1.070      1.135
REMARK INTER + INTRA:          -9.093
REMARK INTER:                  -7.167
REMARK INTRA:                  -1.926
REMARK UNBOUND:                -2.172
REMARK SMILES C[C@@H]1O[C@@H](OC[C@@H]2O[C@H](Oc3cc(O)c4c(c3)O[C@H](c3ccc(O)cc3)CC4=O)[C@H](O)[C@@H](O)[C@H]2O)[C@H](O)[C@@H](O)[C@H]1O
REMARK SMILES IDX 7 1 34 2 32 3 30 4 9 5 8 6 6 7 5 8 4 9 1 10 2 11 40 12 3 13
REMARK SMILES IDX 38 14 36 15 41 16 39 18 37 20 35 22 33 24 10 26 11 27 12 28
REMARK SMILES IDX 17 29 13 30 16 31 15 32 18 33 28 34 19 35 29 36 27 37 14 38
REMARK SMILES IDX 20 40 21 41 26 42 22 43 25 44 23 45 24 46 31 48
REMARK H PARENT 41 17 39 19 37 21 35 23 33 25 14 39 24 47 31 49
REMARK Flexibility Score: inf
ROOT
ATOM      1  C   UNL     1      23.030  33.318  40.533  1.00  0.00     0.180 C 
ATOM      2  C   UNL     1      23.805  31.977  40.471  1.00  0.00     0.177 C 
ATOM      3  C   UNL     1      23.318  31.098  39.310  1.00  0.00     0.180 C 
ATOM      4  C   UNL     1      23.294  31.904  38.006  1.00  0.00     0.214 C 
ATOM      5  C   UNL     1      22.535  33.235  38.188  1.00  0.00     0.339 C 
ATOM      6  O   UNL     1      23.016  34.007  39.283  1.00  0.00    -0.332 OA
ENDROOT
BRANCH   1   7
ATOM      7  C   UNL     1      21.623  33.183  41.149  1.00  0.00     0.198 C 
BRANCH   7   8
ATOM      8  O   UNL     1      21.417  34.174  42.138  1.00  0.00    -0.347 OA
BRANCH   8   9
ATOM      9  C   UNL     1      21.052  33.577  43.380  1.00  0.00     0.281 C 
ATOM     10  C   UNL     1      17.496  34.518  43.420  1.00  0.00     0.041 C 
ATOM     11  C   UNL     1      19.011  34.742  43.449  1.00  0.00     0.150 C 
ATOM     12  C   UNL     1      19.402  35.589  44.684  1.00  0.00     0.174 C 
ATOM     13  O   UNL     1      19.640  33.473  43.483  1.00  0.00    -0.344 OA
ATOM     14  C   UNL     1      20.939  35.712  44.811  1.00  0.00     0.179 C 
ATOM     15  C   UNL     1      21.645  34.359  44.581  1.00  0.00     0.202 C 
BRANCH  12  16
ATOM     16  O   UNL     1      18.826  36.866  44.587  1.00  0.00    -0.388 OA
ATOM     17  H   UNL     1      19.563  37.520  44.701  1.00  0.00     0.211 HD
ENDBRANCH  12  16
BRANCH  14  18
ATOM     18  O   UNL     1      21.467  36.701  43.960  1.00  0.00    -0.387 OA
ATOM     19  H   UNL     1      20.863  37.485  43.979  1.00  0.00     0.211 HD
ENDBRANCH  14  18
BRANCH  15  20
ATOM     20  O   UNL     1      21.604  33.578  45.752  1.00  0.00    -0.385 OA
ATOM     21  H   UNL     1      22.519  33.228  45.925  1.00  0.00     0.211 HD
ENDBRANCH  15  20
ENDBRANCH   8   9
ENDBRANCH   7   8
ENDBRANCH   1   7
BRANCH   2  22
ATOM     22  O   UNL     1      25.194  32.200  40.392  1.00  0.00    -0.387 OA
ATOM     23  H   UNL     1      25.635  31.686  41.120  1.00  0.00     0.211 HD
ENDBRANCH   2  22
BRANCH   3  24
ATOM     24  O   UNL     1      24.170  29.989  39.176  1.00  0.00    -0.387 OA
ATOM     25  H   UNL     1      23.911  29.335  39.874  1.00  0.00     0.211 HD
ENDBRANCH   3  24
BRANCH   5  26
ATOM     26  O   UNL     1      21.128  33.008  38.282  1.00  0.00    -0.462 OA
BRANCH  26  27
ATOM     27  C   UNL     1      20.143  33.852  37.744  1.00  0.00     0.130 A 
ATOM     28  C   UNL     1      20.186  34.314  36.417  1.00  0.00     0.093 A 
ATOM     29  C   UNL     1      19.104  34.268  38.581  1.00  0.00     0.094 A 
ATOM     30  C   UNL     1      19.201  35.185  35.932  1.00  0.00     0.133 A 
ATOM     31  C   UNL     1      18.146  35.175  38.125  1.00  0.00     0.138 A 
ATOM     32  C   UNL     1      18.165  35.617  36.787  1.00  0.00     0.102 A 
ATOM     33  O   UNL     1      17.174  35.654  39.010  1.00  0.00    -0.484 OA
ATOM     34  C   UNL     1      17.080  36.525  36.339  1.00  0.00     0.174 C 
ATOM     35  C   UNL     1      16.415  36.831  38.720  1.00  0.00     0.211 C 
ATOM     36  O   UNL     1      17.078  37.014  35.177  1.00  0.00    -0.294 OA
ATOM     37  C   UNL     1      15.928  36.811  37.263  1.00  0.00     0.131 C 
BRANCH  30  38
ATOM     38  O   UNL     1      19.254  35.615  34.605  1.00  0.00    -0.507 OA
ATOM     39  H   UNL     1      18.459  35.525  33.982  1.00  0.00     0.293 HD
ENDBRANCH  30  38
BRANCH  35  40
ATOM     40  C   UNL     1      15.257  36.950  39.679  1.00  0.00    -0.007 A 
ATOM     41  C   UNL     1      15.100  36.009  40.712  1.00  0.00     0.011 A 
ATOM     42  C   UNL     1      14.344  38.017  39.577  1.00  0.00     0.011 A 
ATOM     43  C   UNL     1      14.035  36.119  41.610  1.00  0.00     0.046 A 
ATOM     44  C   UNL     1      13.277  38.120  40.473  1.00  0.00     0.046 A 
ATOM     45  C   UNL     1      13.118  37.170  41.491  1.00  0.00     0.115 A 
BRANCH  45  46
ATOM     46  O   UNL     1      12.053  37.260  42.387  1.00  0.00    -0.508 OA
ATOM     47  H   UNL     1      11.108  37.012  42.115  1.00  0.00     0.293 HD
ENDBRANCH  45  46
ENDBRANCH  35  40
ENDBRANCH  26  27
ENDBRANCH   5  26
BRANCH   4  48
ATOM     48  O   UNL     1      22.684  31.137  36.999  1.00  0.00    -0.384 OA
ATOM     49  H   UNL     1      22.451  31.761  36.262  1.00  0.00     0.211 HD
ENDBRANCH   4  48
TORSDOF 14
ENDMDL
MODEL 4
REMARK VINA RESULT:    -4.269      1.563      2.229
REMARK INTER + INTRA:          -8.937
REMARK INTER:                  -6.643
REMARK INTRA:                  -2.294
REMARK UNBOUND:                -2.172
REMARK SMILES C[C@@H]1O[C@@H](OC[C@@H]2O[C@H](Oc3cc(O)c4c(c3)O[C@H](c3ccc(O)cc3)CC4=O)[C@H](O)[C@@H](O)[C@H]2O)[C@H](O)[C@@H](O)[C@H]1O
REMARK SMILES IDX 7 1 34 2 32 3 30 4 9 5 8 6 6 7 5 8 4 9 1 10 2 11 40 12 3 13
REMARK SMILES IDX 38 14 36 15 41 16 39 18 37 20 35 22 33 24 10 26 11 27 12 28
REMARK SMILES IDX 17 29 13 30 16 31 15 32 18 33 28 34 19 35 29 36 27 37 14 38
REMARK SMILES IDX 20 40 21 41 26 42 22 43 25 44 23 45 24 46 31 48
REMARK H PARENT 41 17 39 19 37 21 35 23 33 25 14 39 24 47 31 49
REMARK Flexibility Score: inf
ROOT
ATOM      1  C   UNL     1      22.068  33.149  40.901  1.00  0.00     0.180 C 
ATOM      2  C   UNL     1      22.839  32.325  39.838  1.00  0.00     0.177 C 
ATOM      3  C   UNL     1      22.058  32.235  38.520  1.00  0.00     0.180 C 
ATOM      4  C   UNL     1      21.610  33.630  38.070  1.00  0.00     0.214 C 
ATOM      5  C   UNL     1      20.891  34.379  39.211  1.00  0.00     0.339 C 
ATOM      6  O   UNL     1      21.651  34.424  40.415  1.00  0.00    -0.332 OA
ENDROOT
BRANCH   1   7
ATOM      7  C   UNL     1      20.920  32.366  41.568  1.00  0.00     0.198 C 
BRANCH   7   8
ATOM      8  O   UNL     1      20.076  33.242  42.292  1.00  0.00    -0.347 OA
BRANCH   8   9
ATOM      9  C   UNL     1      20.191  33.008  43.693  1.00  0.00     0.281 C 
ATOM     10  C   UNL     1      17.336  35.031  44.825  1.00  0.00     0.041 C 
ATOM     11  C   UNL     1      18.708  34.760  44.204  1.00  0.00     0.150 C 
ATOM     12  C   UNL     1      19.788  35.629  44.892  1.00  0.00     0.174 C 
ATOM     13  O   UNL     1      18.993  33.380  44.357  1.00  0.00    -0.344 OA
ATOM     14  C   UNL     1      21.202  35.273  44.377  1.00  0.00     0.179 C 
ATOM     15  C   UNL     1      21.417  33.746  44.292  1.00  0.00     0.202 C 
BRANCH  12  16
ATOM     16  O   UNL     1      19.523  36.988  44.661  1.00  0.00    -0.388 OA
ATOM     17  H   UNL     1      20.393  37.463  44.723  1.00  0.00     0.211 HD
ENDBRANCH  12  16
BRANCH  14  18
ATOM     18  O   UNL     1      21.490  35.885  43.143  1.00  0.00    -0.387 OA
ATOM     19  H   UNL     1      22.019  35.253  42.595  1.00  0.00     0.211 HD
ENDBRANCH  14  18
BRANCH  15  20
ATOM     20  O   UNL     1      21.740  33.225  45.560  1.00  0.00    -0.385 OA
ATOM     21  H   UNL     1      21.297  32.341  45.655  1.00  0.00     0.211 HD
ENDBRANCH  15  20
ENDBRANCH   8   9
ENDBRANCH   7   8
ENDBRANCH   1   7
BRANCH   2  22
ATOM     22  O   UNL     1      24.130  32.850  39.629  1.00  0.00    -0.387 OA
ATOM     23  H   UNL     1      24.668  32.173  39.140  1.00  0.00     0.211 HD
ENDBRANCH   2  22
BRANCH   3  24
ATOM     24  O   UNL     1      22.871  31.649  37.535  1.00  0.00    -0.387 OA
ATOM     25  H   UNL     1      23.711  31.369  37.979  1.00  0.00     0.211 HD
ENDBRANCH   3  24
BRANCH   5  26
ATOM     26  O   UNL     1      19.588  33.837  39.433  1.00  0.00    -0.462 OA
BRANCH  26  27
ATOM     27  C   UNL     1      18.395  34.576  39.384  1.00  0.00     0.130 A 
ATOM     28  C   UNL     1      18.080  35.434  38.315  1.00  0.00     0.093 A 
ATOM     29  C   UNL     1      17.510  34.471  40.461  1.00  0.00     0.094 A 
ATOM     30  C   UNL     1      16.894  36.180  38.325  1.00  0.00     0.133 A 
ATOM     31  C   UNL     1      16.352  35.248  40.506  1.00  0.00     0.138 A 
ATOM     32  C   UNL     1      16.015  36.085  39.425  1.00  0.00     0.102 A 
ATOM     33  O   UNL     1      15.533  35.199  41.640  1.00  0.00    -0.484 OA
ATOM     34  C   UNL     1      14.735  36.833  39.496  1.00  0.00     0.174 C 
ATOM     35  C   UNL     1      14.562  36.215  41.903  1.00  0.00     0.211 C 
ATOM     36  O   UNL     1      14.408  37.654  38.597  1.00  0.00    -0.294 OA
ATOM     37  C   UNL     1      13.780  36.556  40.625  1.00  0.00     0.131 C 
BRANCH  30  38
ATOM     38  O   UNL     1      16.594  37.011  37.244  1.00  0.00    -0.507 OA
ATOM     39  H   UNL     1      17.275  37.213  36.521  1.00  0.00     0.293 HD
ENDBRANCH  30  38
BRANCH  35  40
ATOM     40  C   UNL     1      13.634  35.771  43.007  1.00  0.00    -0.007 A 
ATOM     41  C   UNL     1      13.732  34.468  43.526  1.00  0.00     0.011 A 
ATOM     42  C   UNL     1      12.689  36.659  43.553  1.00  0.00     0.011 A 
ATOM     43  C   UNL     1      12.881  34.053  44.554  1.00  0.00     0.046 A 
ATOM     44  C   UNL     1      11.836  36.238  44.578  1.00  0.00     0.046 A 
ATOM     45  C   UNL     1      11.929  34.934  45.080  1.00  0.00     0.115 A 
BRANCH  45  46
ATOM     46  O   UNL     1      11.079  34.502  46.098  1.00  0.00    -0.508 OA
ATOM     47  H   UNL     1      10.118  34.818  46.157  1.00  0.00     0.293 HD
ENDBRANCH  45  46
ENDBRANCH  35  40
ENDBRANCH  26  27
ENDBRANCH   5  26
BRANCH   4  48
ATOM     48  O   UNL     1      20.753  33.507  36.963  1.00  0.00    -0.384 OA
ATOM     49  H   UNL     1      21.319  33.253  36.187  1.00  0.00     0.211 HD
ENDBRANCH   4  48
TORSDOF 14
ENDMDL
MODEL 5
REMARK VINA RESULT:    -4.256      1.481      2.046
REMARK INTER + INTRA:          -8.916
REMARK INTER:                  -6.508
REMARK INTRA:                  -2.408
REMARK UNBOUND:                -2.172
REMARK SMILES C[C@@H]1O[C@@H](OC[C@@H]2O[C@H](Oc3cc(O)c4c(c3)O[C@H](c3ccc(O)cc3)CC4=O)[C@H](O)[C@@H](O)[C@H]2O)[C@H](O)[C@@H](O)[C@H]1O
REMARK SMILES IDX 7 1 34 2 32 3 30 4 9 5 8 6 6 7 5 8 4 9 1 10 2 11 40 12 3 13
REMARK SMILES IDX 38 14 36 15 41 16 39 18 37 20 35 22 33 24 10 26 11 27 12 28
REMARK SMILES IDX 17 29 13 30 16 31 15 32 18 33 28 34 19 35 29 36 27 37 14 38
REMARK SMILES IDX 20 40 21 41 26 42 22 43 25 44 23 45 24 46 31 48
REMARK H PARENT 41 17 39 19 37 21 35 23 33 25 14 39 24 47 31 49
REMARK Flexibility Score: inf
ROOT
ATOM      1  C   UNL     1      22.445  33.137  43.506  1.00  0.00     0.180 C 
ATOM      2  C   UNL     1      23.710  32.246  43.591  1.00  0.00     0.177 C 
ATOM      3  C   UNL     1      24.124  31.722  42.209  1.00  0.00     0.180 C 
ATOM      4  C   UNL     1      24.200  32.877  41.202  1.00  0.00     0.214 C 
ATOM      5  C   UNL     1      22.910  33.722  41.227  1.00  0.00     0.339 C 
ATOM      6  O   UNL     1      22.563  34.173  42.532  1.00  0.00    -0.332 OA
ENDROOT
BRANCH   1   7
ATOM      7  C   UNL     1      21.139  32.332  43.357  1.00  0.00     0.198 C 
BRANCH   7   8
ATOM      8  O   UNL     1      20.015  33.188  43.434  1.00  0.00    -0.347 OA
BRANCH   8   9
ATOM      9  C   UNL     1      19.943  33.809  44.715  1.00  0.00     0.281 C 
ATOM     10  C   UNL     1      16.725  32.412  45.822  1.00  0.00     0.041 C 
ATOM     11  C   UNL     1      17.671  33.253  44.961  1.00  0.00     0.150 C 
ATOM     12  C   UNL     1      17.187  34.722  44.914  1.00  0.00     0.174 C 
ATOM     13  O   UNL     1      18.969  33.164  45.522  1.00  0.00    -0.344 OA
ATOM     14  C   UNL     1      18.201  35.620  44.165  1.00  0.00     0.179 C 
ATOM     15  C   UNL     1      19.654  35.328  44.594  1.00  0.00     0.202 C 
BRANCH  12  16
ATOM     16  O   UNL     1      15.933  34.790  44.285  1.00  0.00    -0.388 OA
ATOM     17  H   UNL     1      15.388  34.047  44.656  1.00  0.00     0.211 HD
ENDBRANCH  12  16
BRANCH  14  18
ATOM     18  O   UNL     1      18.065  35.526  42.767  1.00  0.00    -0.387 OA
ATOM     19  H   UNL     1      17.678  34.641  42.549  1.00  0.00     0.211 HD
ENDBRANCH  14  18
BRANCH  15  20
ATOM     20  O   UNL     1      19.952  35.988  45.802  1.00  0.00    -0.385 OA
ATOM     21  H   UNL     1      20.879  36.343  45.743  1.00  0.00     0.211 HD
ENDBRANCH  15  20
ENDBRANCH   8   9
ENDBRANCH   7   8
ENDBRANCH   1   7
BRANCH   2  22
ATOM     22  O   UNL     1      24.772  32.934  44.213  1.00  0.00    -0.387 OA
ATOM     23  H   UNL     1      25.496  32.283  44.407  1.00  0.00     0.211 HD
ENDBRANCH   2  22
BRANCH   3  24
ATOM     24  O   UNL     1      25.373  31.085  42.306  1.00  0.00    -0.387 OA
ATOM     25  H   UNL     1      25.538  30.633  41.440  1.00  0.00     0.211 HD
ENDBRANCH   3  24
BRANCH   5  26
ATOM     26  O   UNL     1      21.831  33.019  40.610  1.00  0.00    -0.462 OA
BRANCH  26  27
ATOM     27  C   UNL     1      20.956  33.569  39.660  1.00  0.00     0.130 A 
ATOM     28  C   UNL     1      21.250  33.591  38.284  1.00  0.00     0.093 A 
ATOM     29  C   UNL     1      19.766  34.145  40.114  1.00  0.00     0.094 A 
ATOM     30  C   UNL     1      20.364  34.184  37.374  1.00  0.00     0.133 A 
ATOM     31  C   UNL     1      18.901  34.783  39.224  1.00  0.00     0.138 A 
ATOM     32  C   UNL     1      19.174  34.780  37.842  1.00  0.00     0.102 A 
ATOM     33  O   UNL     1      17.766  35.437  39.716  1.00  0.00    -0.484 OA
ATOM     34  C   UNL     1      18.183  35.411  36.936  1.00  0.00     0.174 C 
ATOM     35  C   UNL     1      17.059  36.399  38.928  1.00  0.00     0.211 C 
ATOM     36  O   UNL     1      18.399  35.508  35.698  1.00  0.00    -0.294 OA
ATOM     37  C   UNL     1      16.867  35.882  37.494  1.00  0.00     0.131 C 
BRANCH  30  38
ATOM     38  O   UNL     1      20.669  34.177  36.012  1.00  0.00    -0.507 OA
ATOM     39  H   UNL     1      20.894  33.320  35.520  1.00  0.00     0.293 HD
ENDBRANCH  30  38
BRANCH  35  40
ATOM     40  C   UNL     1      15.734  36.722  39.572  1.00  0.00    -0.007 A 
ATOM     41  C   UNL     1      15.268  35.949  40.649  1.00  0.00     0.011 A 
ATOM     42  C   UNL     1      14.967  37.817  39.130  1.00  0.00     0.011 A 
ATOM     43  C   UNL     1      14.046  36.248  41.256  1.00  0.00     0.046 A 
ATOM     44  C   UNL     1      13.742  38.110  39.736  1.00  0.00     0.046 A 
ATOM     45  C   UNL     1      13.277  37.326  40.800  1.00  0.00     0.115 A 
BRANCH  45  46
ATOM     46  O   UNL     1      12.054  37.605  41.408  1.00  0.00    -0.508 OA
ATOM     47  H   UNL     1      11.546  38.460  41.211  1.00  0.00     0.293 HD
ENDBRANCH  45  46
ENDBRANCH  35  40
ENDBRANCH  26  27
ENDBRANCH   5  26
BRANCH   4  48
ATOM     48  O   UNL     1      24.408  32.355  39.914  1.00  0.00    -0.384 OA
ATOM     49  H   UNL     1      23.623  31.783  39.704  1.00  0.00     0.211 HD
ENDBRANCH   4  48
TORSDOF 14
ENDMDL
MODEL 6
REMARK VINA RESULT:    -4.236      2.363      7.990
REMARK INTER + INTRA:          -8.883
REMARK INTER:                  -6.265
REMARK INTRA:                  -2.618
REMARK UNBOUND:                -2.172
REMARK SMILES C[C@@H]1O[C@@H](OC[C@@H]2O[C@H](Oc3cc(O)c4c(c3)O[C@H](c3ccc(O)cc3)CC4=O)[C@H](O)[C@@H](O)[C@H]2O)[C@H](O)[C@@H](O)[C@H]1O
REMARK SMILES IDX 7 1 34 2 32 3 30 4 9 5 8 6 6 7 5 8 4 9 1 10 2 11 40 12 3 13
REMARK SMILES IDX 38 14 36 15 41 16 39 18 37 20 35 22 33 24 10 26 11 27 12 28
REMARK SMILES IDX 17 29 13 30 16 31 15 32 18 33 28 34 19 35 29 36 27 37 14 38
REMARK SMILES IDX 20 40 21 41 26 42 22 43 25 44 23 45 24 46 31 48
REMARK H PARENT 41 17 39 19 37 21 35 23 33 25 14 39 24 47 31 49
REMARK Flexibility Score: inf
ROOT
ATOM      1  C   UNL     1      16.837  36.601  37.116  1.00  0.00     0.180 C 
ATOM      2  C   UNL     1      15.689  36.796  36.093  1.00  0.00     0.177 C 
ATOM      3  C   UNL     1      14.326  36.437  36.700  1.00  0.00     0.180 C 
ATOM      4  C   UNL     1      14.137  37.151  38.044  1.00  0.00     0.214 C 
ATOM      5  C   UNL     1      15.350  36.927  38.970  1.00  0.00     0.339 C 
ATOM      6  O   UNL     1      16.590  37.263  38.356  1.00  0.00    -0.332 OA
ENDROOT
BRANCH   1   7
ATOM      7  C   UNL     1      17.245  35.126  37.304  1.00  0.00     0.198 C 
BRANCH   7   8
ATOM      8  O   UNL     1      18.311  35.019  38.228  1.00  0.00    -0.347 OA
BRANCH   8   9
ATOM      9  C   UNL     1      19.070  33.838  37.987  1.00  0.00     0.281 C 
ATOM     10  C   UNL     1      17.306  31.571  40.285  1.00  0.00     0.041 C 
ATOM     11  C   UNL     1      18.177  32.763  39.878  1.00  0.00     0.150 C 
ATOM     12  C   UNL     1      19.525  32.724  40.637  1.00  0.00     0.174 C 
ATOM     13  O   UNL     1      18.380  32.698  38.477  1.00  0.00    -0.344 OA
ATOM     14  C   UNL     1      20.476  33.839  40.141  1.00  0.00     0.179 C 
ATOM     15  C   UNL     1      20.491  33.940  38.601  1.00  0.00     0.202 C 
BRANCH  12  16
ATOM     16  O   UNL     1      19.299  32.866  42.015  1.00  0.00    -0.388 OA
ATOM     17  H   UNL     1      19.865  32.188  42.468  1.00  0.00     0.211 HD
ENDBRANCH  12  16
BRANCH  14  18
ATOM     18  O   UNL     1      20.182  35.088  40.720  1.00  0.00    -0.387 OA
ATOM     19  H   UNL     1      19.292  35.380  40.398  1.00  0.00     0.211 HD
ENDBRANCH  14  18
BRANCH  15  20
ATOM     20  O   UNL     1      21.342  32.961  38.053  1.00  0.00    -0.385 OA
ATOM     21  H   UNL     1      22.272  33.160  38.342  1.00  0.00     0.211 HD
ENDBRANCH  15  20
ENDBRANCH   8   9
ENDBRANCH   7   8
ENDBRANCH   1   7
BRANCH   2  22
ATOM     22  O   UNL     1      15.687  38.109  35.580  1.00  0.00    -0.387 OA
ATOM     23  H   UNL     1      16.446  38.605  35.986  1.00  0.00     0.211 HD
ENDBRANCH   2  22
BRANCH   3  24
ATOM     24  O   UNL     1      13.306  36.809  35.809  1.00  0.00    -0.387 OA
ATOM     25  H   UNL     1      12.443  36.596  36.247  1.00  0.00     0.211 HD
ENDBRANCH   3  24
BRANCH   5  26
ATOM     26  O   UNL     1      15.360  35.592  39.478  1.00  0.00    -0.462 OA
BRANCH  26  27
ATOM     27  C   UNL     1      15.529  35.252  40.830  1.00  0.00     0.130 A 
ATOM     28  C   UNL     1      14.472  34.776  41.628  1.00  0.00     0.093 A 
ATOM     29  C   UNL     1      16.792  35.428  41.402  1.00  0.00     0.094 A 
ATOM     30  C   UNL     1      14.677  34.483  42.983  1.00  0.00     0.133 A 
ATOM     31  C   UNL     1      16.995  35.188  42.762  1.00  0.00     0.138 A 
ATOM     32  C   UNL     1      15.949  34.682  43.558  1.00  0.00     0.102 A 
ATOM     33  O   UNL     1      18.242  35.467  43.331  1.00  0.00    -0.484 OA
ATOM     34  C   UNL     1      16.243  34.378  44.981  1.00  0.00     0.174 C 
ATOM     35  C   UNL     1      18.404  35.594  44.746  1.00  0.00     0.211 C 
ATOM     36  O   UNL     1      15.336  33.992  45.766  1.00  0.00    -0.294 OA
ATOM     37  C   UNL     1      17.661  34.466  45.477  1.00  0.00     0.131 C 
BRANCH  30  38
ATOM     38  O   UNL     1      13.617  33.995  43.749  1.00  0.00    -0.507 OA
ATOM     39  H   UNL     1      12.837  33.502  43.329  1.00  0.00     0.293 HD
ENDBRANCH  30  38
BRANCH  35  40
ATOM     40  C   UNL     1      19.870  35.599  45.102  1.00  0.00    -0.007 A 
ATOM     41  C   UNL     1      20.464  36.764  45.620  1.00  0.00     0.011 A 
ATOM     42  C   UNL     1      20.651  34.437  44.955  1.00  0.00     0.011 A 
ATOM     43  C   UNL     1      21.819  36.773  45.959  1.00  0.00     0.046 A 
ATOM     44  C   UNL     1      22.007  34.452  45.290  1.00  0.00     0.046 A 
ATOM     45  C   UNL     1      22.596  35.620  45.792  1.00  0.00     0.115 A 
BRANCH  45  46
ATOM     46  O   UNL     1      23.950  35.648  46.124  1.00  0.00    -0.508 OA
ATOM     47  H   UNL     1      24.284  35.313  47.020  1.00  0.00     0.293 HD
ENDBRANCH  45  46
ENDBRANCH  35  40
ENDBRANCH  26  27
ENDBRANCH   5  26
BRANCH   4  48
ATOM     48  O   UNL     1      12.968  36.675  38.661  1.00  0.00    -0.384 OA
ATOM     49  H   UNL     1      12.333  36.439  37.934  1.00  0.00     0.211 HD
ENDBRANCH   4  48
TORSDOF 14
ENDMDL
MODEL 7
REMARK VINA RESULT:    -4.193      1.581      7.445
REMARK INTER + INTRA:          -8.815
REMARK INTER:                  -7.186
REMARK INTRA:                  -1.630
REMARK UNBOUND:                -2.172
REMARK SMILES C[C@@H]1O[C@@H](OC[C@@H]2O[C@H](Oc3cc(O)c4c(c3)O[C@H](c3ccc(O)cc3)CC4=O)[C@H](O)[C@@H](O)[C@H]2O)[C@H](O)[C@@H](O)[C@H]1O
REMARK SMILES IDX 7 1 34 2 32 3 30 4 9 5 8 6 6 7 5 8 4 9 1 10 2 11 40 12 3 13
REMARK SMILES IDX 38 14 36 15 41 16 39 18 37 20 35 22 33 24 10 26 11 27 12 28
REMARK SMILES IDX 17 29 13 30 16 31 15 32 18 33 28 34 19 35 29 36 27 37 14 38
REMARK SMILES IDX 20 40 21 41 26 42 22 43 25 44 23 45 24 46 31 48
REMARK H PARENT 41 17 39 19 37 21 35 23 33 25 14 39 24 47 31 49
REMARK Flexibility Score: inf
ROOT
ATOM      1  C   UNL     1      15.877  34.292  42.558  1.00  0.00     0.180 C 
ATOM      2  C   UNL     1      14.562  35.079  42.792  1.00  0.00     0.177 C 
ATOM      3  C   UNL     1      14.291  36.075  41.657  1.00  0.00     0.180 C 
ATOM      4  C   UNL     1      14.406  35.376  40.296  1.00  0.00     0.214 C 
ATOM      5  C   UNL     1      15.729  34.592  40.183  1.00  0.00     0.339 C 
ATOM      6  O   UNL     1      15.939  33.691  41.266  1.00  0.00    -0.332 OA
ENDROOT
BRANCH   1   7
ATOM      7  C   UNL     1      17.143  35.106  42.893  1.00  0.00     0.198 C 
BRANCH   7   8
ATOM      8  O   UNL     1      18.305  34.324  42.688  1.00  0.00    -0.347 OA
BRANCH   8   9
ATOM      9  C   UNL     1      18.816  33.848  43.930  1.00  0.00     0.281 C 
ATOM     10  C   UNL     1      18.909  37.044  45.749  1.00  0.00     0.041 C 
ATOM     11  C   UNL     1      19.300  36.025  44.674  1.00  0.00     0.150 C 
ATOM     12  C   UNL     1      20.832  35.810  44.674  1.00  0.00     0.174 C 
ATOM     13  O   UNL     1      18.617  34.815  44.951  1.00  0.00    -0.344 OA
ATOM     14  C   UNL     1      21.237  34.685  43.693  1.00  0.00     0.179 C 
ATOM     15  C   UNL     1      20.312  33.455  43.815  1.00  0.00     0.202 C 
BRANCH  12  16
ATOM     16  O   UNL     1      21.480  37.006  44.324  1.00  0.00    -0.388 OA
ATOM     17  H   UNL     1      22.337  37.023  44.825  1.00  0.00     0.211 HD
ENDBRANCH  12  16
BRANCH  14  18
ATOM     18  O   UNL     1      21.295  35.134  42.360  1.00  0.00    -0.387 OA
ATOM     19  H   UNL     1      21.102  34.369  41.763  1.00  0.00     0.211 HD
ENDBRANCH  14  18
BRANCH  15  20
ATOM     20  O   UNL     1      20.702  32.653  44.905  1.00  0.00    -0.385 OA
ATOM     21  H   UNL     1      21.570  32.996  45.249  1.00  0.00     0.211 HD
ENDBRANCH  15  20
ENDBRANCH   8   9
ENDBRANCH   7   8
ENDBRANCH   1   7
BRANCH   2  22
ATOM     22  O   UNL     1      13.473  34.201  42.969  1.00  0.00    -0.387 OA
ATOM     23  H   UNL     1      13.754  33.292  42.681  1.00  0.00     0.211 HD
ENDBRANCH   2  22
BRANCH   3  24
ATOM     24  O   UNL     1      13.006  36.621  41.811  1.00  0.00    -0.387 OA
ATOM     25  H   UNL     1      12.731  36.974  40.928  1.00  0.00     0.211 HD
ENDBRANCH   3  24
BRANCH   5  26
ATOM     26  O   UNL     1      16.834  35.482  40.019  1.00  0.00    -0.462 OA
BRANCH  26  27
ATOM     27  C   UNL     1      17.929  35.251  39.172  1.00  0.00     0.130 A 
ATOM     28  C   UNL     1      17.863  35.444  37.780  1.00  0.00     0.093 A 
ATOM     29  C   UNL     1      19.115  34.778  39.741  1.00  0.00     0.094 A 
ATOM     30  C   UNL     1      18.970  35.166  36.967  1.00  0.00     0.133 A 
ATOM     31  C   UNL     1      20.207  34.449  38.936  1.00  0.00     0.138 A 
ATOM     32  C   UNL     1      20.158  34.670  37.546  1.00  0.00     0.102 A 
ATOM     33  O   UNL     1      21.347  33.884  39.518  1.00  0.00    -0.484 OA
ATOM     34  C   UNL     1      21.373  34.369  36.750  1.00  0.00     0.174 C 
ATOM     35  C   UNL     1      22.325  33.199  38.732  1.00  0.00     0.211 C 
ATOM     36  O   UNL     1      21.374  34.476  35.494  1.00  0.00    -0.294 OA
ATOM     37  C   UNL     1      22.647  33.997  37.459  1.00  0.00     0.131 C 
BRANCH  30  38
ATOM     38  O   UNL     1      18.886  35.384  35.590  1.00  0.00    -0.507 OA
ATOM     39  H   UNL     1      18.829  34.617  34.931  1.00  0.00     0.293 HD
ENDBRANCH  30  38
BRANCH  35  40
ATOM     40  C   UNL     1      23.569  32.955  39.550  1.00  0.00    -0.007 A 
ATOM     41  C   UNL     1      24.797  32.719  38.908  1.00  0.00     0.011 A 
ATOM     42  C   UNL     1      23.525  32.994  40.956  1.00  0.00     0.011 A 
ATOM     43  C   UNL     1      25.955  32.501  39.660  1.00  0.00     0.046 A 
ATOM     44  C   UNL     1      24.684  32.770  41.704  1.00  0.00     0.046 A 
ATOM     45  C   UNL     1      25.902  32.521  41.058  1.00  0.00     0.115 A 
BRANCH  45  46
ATOM     46  O   UNL     1      27.064  32.290  41.795  1.00  0.00    -0.508 OA
ATOM     47  H   UNL     1      27.054  32.265  42.808  1.00  0.00     0.293 HD
ENDBRANCH  45  46
ENDBRANCH  35  40
ENDBRANCH  26  27
ENDBRANCH   5  26
BRANCH   4  48
ATOM     48  O   UNL     1      14.328  36.337  39.274  1.00  0.00    -0.384 OA
ATOM     49  H   UNL     1      15.255  36.488  38.949  1.00  0.00     0.211 HD
ENDBRANCH   4  48
TORSDOF 14
ENDMDL
MODEL 8
REMARK VINA RESULT:    -4.111      1.699      4.579
REMARK INTER + INTRA:          -8.687
REMARK INTER:                  -6.730
REMARK INTRA:                  -1.957
REMARK UNBOUND:                -2.172
REMARK SMILES C[C@@H]1O[C@@H](OC[C@@H]2O[C@H](Oc3cc(O)c4c(c3)O[C@H](c3ccc(O)cc3)CC4=O)[C@H](O)[C@@H](O)[C@H]2O)[C@H](O)[C@@H](O)[C@H]1O
REMARK SMILES IDX 7 1 34 2 32 3 30 4 9 5 8 6 6 7 5 8 4 9 1 10 2 11 40 12 3 13
REMARK SMILES IDX 38 14 36 15 41 16 39 18 37 20 35 22 33 24 10 26 11 27 12 28
REMARK SMILES IDX 17 29 13 30 16 31 15 32 18 33 28 34 19 35 29 36 27 37 14 38
REMARK SMILES IDX 20 40 21 41 26 42 22 43 25 44 23 45 24 46 31 48
REMARK H PARENT 41 17 39 19 37 21 35 23 33 25 14 39 24 47 31 49
REMARK Flexibility Score: inf
ROOT
ATOM      1  C   UNL     1      21.286  31.938  44.187  1.00  0.00     0.180 C 
ATOM      2  C   UNL     1      22.470  32.734  44.793  1.00  0.00     0.177 C 
ATOM      3  C   UNL     1      22.824  33.957  43.936  1.00  0.00     0.180 C 
ATOM      4  C   UNL     1      21.565  34.780  43.636  1.00  0.00     0.214 C 
ATOM      5  C   UNL     1      20.437  33.887  43.076  1.00  0.00     0.339 C 
ATOM      6  O   UNL     1      20.156  32.761  43.901  1.00  0.00    -0.332 OA
ENDROOT
BRANCH   1   7
ATOM      7  C   UNL     1      21.692  31.054  42.991  1.00  0.00     0.198 C 
BRANCH   7   8
ATOM      8  O   UNL     1      23.097  30.887  42.951  1.00  0.00    -0.347 OA
BRANCH   8   9
ATOM      9  C   UNL     1      23.479  30.103  41.825  1.00  0.00     0.281 C 
ATOM     10  C   UNL     1      27.125  30.519  42.074  1.00  0.00     0.041 C 
ATOM     11  C   UNL     1      25.672  30.951  41.858  1.00  0.00     0.150 C 
ATOM     12  C   UNL     1      25.529  31.692  40.507  1.00  0.00     0.174 C 
ATOM     13  O   UNL     1      24.862  29.788  41.887  1.00  0.00    -0.344 OA
ATOM     14  C   UNL     1      24.048  32.016  40.202  1.00  0.00     0.179 C 
ATOM     15  C   UNL     1      23.125  30.813  40.492  1.00  0.00     0.202 C 
BRANCH  12  16
ATOM     16  O   UNL     1      26.282  32.877  40.534  1.00  0.00    -0.388 OA
ATOM     17  H   UNL     1      26.042  33.349  41.374  1.00  0.00     0.211 HD
ENDBRANCH  12  16
BRANCH  14  18
ATOM     18  O   UNL     1      23.601  33.163  40.884  1.00  0.00    -0.387 OA
ATOM     19  H   UNL     1      24.130  33.939  40.570  1.00  0.00     0.211 HD
ENDBRANCH  14  18
BRANCH  15  20
ATOM     20  O   UNL     1      23.154  29.901  39.419  1.00  0.00    -0.385 OA
ATOM     21  H   UNL     1      22.249  29.501  39.327  1.00  0.00     0.211 HD
ENDBRANCH  15  20
ENDBRANCH   8   9
ENDBRANCH   7   8
ENDBRANCH   1   7
BRANCH   2  22
ATOM     22  O   UNL     1      22.199  33.107  46.125  1.00  0.00    -0.387 OA
ATOM     23  H   UNL     1      21.227  33.298  46.205  1.00  0.00     0.211 HD
ENDBRANCH   2  22
BRANCH   3  24
ATOM     24  O   UNL     1      23.764  34.748  44.617  1.00  0.00    -0.387 OA
ATOM     25  H   UNL     1      23.391  35.664  44.673  1.00  0.00     0.211 HD
ENDBRANCH   3  24
BRANCH   5  26
ATOM     26  O   UNL     1      20.719  33.497  41.731  1.00  0.00    -0.462 OA
BRANCH  26  27
ATOM     27  C   UNL     1      20.032  33.966  40.601  1.00  0.00     0.130 A 
ATOM     28  C   UNL     1      20.569  33.889  39.303  1.00  0.00     0.093 A 
ATOM     29  C   UNL     1      18.782  34.562  40.790  1.00  0.00     0.094 A 
ATOM     30  C   UNL     1      19.863  34.403  38.207  1.00  0.00     0.133 A 
ATOM     31  C   UNL     1      18.093  35.123  39.713  1.00  0.00     0.138 A 
ATOM     32  C   UNL     1      18.610  35.020  38.407  1.00  0.00     0.102 A 
ATOM     33  O   UNL     1      16.891  35.801  39.943  1.00  0.00    -0.484 OA
ATOM     34  C   UNL     1      17.800  35.572  37.293  1.00  0.00     0.174 C 
ATOM     35  C   UNL     1      16.340  36.694  38.971  1.00  0.00     0.211 C 
ATOM     36  O   UNL     1      18.236  35.578  36.110  1.00  0.00    -0.294 OA
ATOM     37  C   UNL     1      16.408  36.070  37.568  1.00  0.00     0.131 C 
BRANCH  30  38
ATOM     38  O   UNL     1      20.408  34.297  36.926  1.00  0.00    -0.507 OA
ATOM     39  H   UNL     1      21.397  34.129  36.779  1.00  0.00     0.293 HD
ENDBRANCH  30  38
BRANCH  35  40
ATOM     40  C   UNL     1      14.922  37.051  39.340  1.00  0.00    -0.007 A 
ATOM     41  C   UNL     1      14.404  36.670  40.590  1.00  0.00     0.011 A 
ATOM     42  C   UNL     1      14.115  37.796  38.460  1.00  0.00     0.011 A 
ATOM     43  C   UNL     1      13.094  37.006  40.942  1.00  0.00     0.046 A 
ATOM     44  C   UNL     1      12.803  38.125  38.813  1.00  0.00     0.046 A 
ATOM     45  C   UNL     1      12.288  37.729  40.055  1.00  0.00     0.115 A 
BRANCH  45  46
ATOM     46  O   UNL     1      10.979  38.046  40.415  1.00  0.00    -0.508 OA
ATOM     47  H   UNL     1      10.504  38.856  40.032  1.00  0.00     0.293 HD
ENDBRANCH  45  46
ENDBRANCH  35  40
ENDBRANCH  26  27
ENDBRANCH   5  26
BRANCH   4  48
ATOM     48  O   UNL     1      21.881  35.789  42.711  1.00  0.00    -0.384 OA
ATOM     49  H   UNL     1      21.299  35.648  41.919  1.00  0.00     0.211 HD
ENDBRANCH   4  48
TORSDOF 14
ENDMDL
MODEL 9
REMARK VINA RESULT:    -4.083      1.977      3.679
REMARK INTER + INTRA:          -8.642
REMARK INTER:                  -6.011
REMARK INTRA:                  -2.630
REMARK UNBOUND:                -2.172
REMARK SMILES C[C@@H]1O[C@@H](OC[C@@H]2O[C@H](Oc3cc(O)c4c(c3)O[C@H](c3ccc(O)cc3)CC4=O)[C@H](O)[C@@H](O)[C@H]2O)[C@H](O)[C@@H](O)[C@H]1O
REMARK SMILES IDX 7 1 34 2 32 3 30 4 9 5 8 6 6 7 5 8 4 9 1 10 2 11 40 12 3 13
REMARK SMILES IDX 38 14 36 15 41 16 39 18 37 20 35 22 33 24 10 26 11 27 12 28
REMARK SMILES IDX 17 29 13 30 16 31 15 32 18 33 28 34 19 35 29 36 27 37 14 38
REMARK SMILES IDX 20 40 21 41 26 42 22 43 25 44 23 45 24 46 31 48
REMARK H PARENT 41 17 39 19 37 21 35 23 33 25 14 39 24 47 31 49
REMARK Flexibility Score: inf
ROOT
ATOM      1  C   UNL     1      22.333  34.407  44.969  1.00  0.00     0.180 C 
ATOM      2  C   UNL     1      23.599  33.744  45.570  1.00  0.00     0.177 C 
ATOM      3  C   UNL     1      24.237  32.754  44.586  1.00  0.00     0.180 C 
ATOM      4  C   UNL     1      24.430  33.414  43.215  1.00  0.00     0.214 C 
ATOM      5  C   UNL     1      23.124  34.078  42.729  1.00  0.00     0.339 C 
ATOM      6  O   UNL     1      22.566  34.977  43.681  1.00  0.00    -0.332 OA
ENDROOT
BRANCH   1   7
ATOM      7  C   UNL     1      21.092  33.492  44.995  1.00  0.00     0.198 C 
BRANCH   7   8
ATOM      8  O   UNL     1      19.948  34.195  44.547  1.00  0.00    -0.347 OA
BRANCH   8   9
ATOM      9  C   UNL     1      18.783  33.749  45.236  1.00  0.00     0.281 C 
ATOM     10  C   UNL     1      17.878  30.946  43.034  1.00  0.00     0.041 C 
ATOM     11  C   UNL     1      18.110  32.407  43.426  1.00  0.00     0.150 C 
ATOM     12  C   UNL     1      16.848  33.249  43.121  1.00  0.00     0.174 C 
ATOM     13  O   UNL     1      18.423  32.444  44.808  1.00  0.00    -0.344 OA
ATOM     14  C   UNL     1      17.006  34.699  43.636  1.00  0.00     0.179 C 
ATOM     15  C   UNL     1      17.605  34.742  45.058  1.00  0.00     0.202 C 
BRANCH  12  16
ATOM     16  O   UNL     1      16.605  33.256  41.738  1.00  0.00    -0.388 OA
ATOM     17  H   UNL     1      16.949  34.121  41.392  1.00  0.00     0.211 HD
ENDBRANCH  12  16
BRANCH  14  18
ATOM     18  O   UNL     1      17.758  35.499  42.754  1.00  0.00    -0.387 OA
ATOM     19  H   UNL     1      17.367  36.408  42.745  1.00  0.00     0.211 HD
ENDBRANCH  14  18
BRANCH  15  20
ATOM     20  O   UNL     1      16.603  34.504  46.019  1.00  0.00    -0.385 OA
ATOM     21  H   UNL     1      16.407  33.529  46.028  1.00  0.00     0.211 HD
ENDBRANCH  15  20
ENDBRANCH   8   9
ENDBRANCH   7   8
ENDBRANCH   1   7
BRANCH   2  22
ATOM     22  O   UNL     1      24.529  34.716  45.988  1.00  0.00    -0.387 OA
ATOM     23  H   UNL     1      24.647  34.634  46.971  1.00  0.00     0.211 HD
ENDBRANCH   2  22
BRANCH   3  24
ATOM     24  O   UNL     1      25.475  32.325  45.092  1.00  0.00    -0.387 OA
ATOM     25  H   UNL     1      26.178  32.843  44.623  1.00  0.00     0.211 HD
ENDBRANCH   3  24
BRANCH   5  26
ATOM     26  O   UNL     1      22.176  33.091  42.319  1.00  0.00    -0.462 OA
BRANCH  26  27
ATOM     27  C   UNL     1      21.412  33.156  41.143  1.00  0.00     0.130 A 
ATOM     28  C   UNL     1      21.774  32.474  39.967  1.00  0.00     0.093 A 
ATOM     29  C   UNL     1      20.267  33.958  41.144  1.00  0.00     0.094 A 
ATOM     30  C   UNL     1      21.000  32.596  38.805  1.00  0.00     0.133 A 
ATOM     31  C   UNL     1      19.518  34.127  39.978  1.00  0.00     0.138 A 
ATOM     32  C   UNL     1      19.858  33.423  38.807  1.00  0.00     0.102 A 
ATOM     33  O   UNL     1      18.435  35.013  39.978  1.00  0.00    -0.484 OA
ATOM     34  C   UNL     1      18.984  33.587  37.619  1.00  0.00     0.174 C 
ATOM     35  C   UNL     1      17.872  35.503  38.758  1.00  0.00     0.211 C 
ATOM     36  O   UNL     1      19.270  33.043  36.518  1.00  0.00    -0.294 OA
ATOM     37  C   UNL     1      17.698  34.358  37.748  1.00  0.00     0.131 C 
BRANCH  30  38
ATOM     38  O   UNL     1      21.370  31.895  37.655  1.00  0.00    -0.507 OA
ATOM     39  H   UNL     1      22.268  32.039  37.208  1.00  0.00     0.293 HD
ENDBRANCH  30  38
BRANCH  35  40
ATOM     40  C   UNL     1      16.557  36.190  39.033  1.00  0.00    -0.007 A 
ATOM     41  C   UNL     1      16.222  37.368  38.344  1.00  0.00     0.011 A 
ATOM     42  C   UNL     1      15.639  35.646  39.951  1.00  0.00     0.011 A 
ATOM     43  C   UNL     1      15.003  38.005  38.588  1.00  0.00     0.046 A 
ATOM     44  C   UNL     1      14.422  36.289  40.196  1.00  0.00     0.046 A 
ATOM     45  C   UNL     1      14.101  37.471  39.516  1.00  0.00     0.115 A 
BRANCH  45  46
ATOM     46  O   UNL     1      12.893  38.125  39.758  1.00  0.00    -0.508 OA
ATOM     47  H   UNL     1      12.503  38.192  40.691  1.00  0.00     0.293 HD
ENDBRANCH  45  46
ENDBRANCH  35  40
ENDBRANCH  26  27
ENDBRANCH   5  26
BRANCH   4  48
ATOM     48  O   UNL     1      24.849  32.445  42.289  1.00  0.00    -0.384 OA
ATOM     49  H   UNL     1      24.854  31.573  42.765  1.00  0.00     0.211 HD
ENDBRANCH   4  48
TORSDOF 14
ENDMDL
