MODEL 1
REMARK VINA RESULT:    -6.201      0.000      0.000
REMARK INTER + INTRA:          -7.457
REMARK INTER:                  -7.469
REMARK INTRA:                   0.013
REMARK UNBOUND:                 0.013
REMARK SMILES O=c1c(O)c(-c2ccc(O)c(O)c2)oc2cc(O)cc(O)c12
REMARK SMILES IDX 5 1 3 2 2 3 1 4 22 5 20 6 19 7 17 8 16 9 15 10 14 11 6 12
REMARK SMILES IDX 7 13 8 14 9 15 13 16 11 17 10 18 12 20 4 22 21 24 18 26
REMARK H PARENT 10 19 12 21 4 23 21 25 18 27
REMARK Flexibility Score: inf
ROOT
ATOM      1  C   UNL     1      25.796 -10.028  -5.187  1.00  0.00     0.180 A 
ATOM      2  C   UNL     1      25.254 -10.778  -6.245  1.00  0.00     0.208 A 
ATOM      3  C   UNL     1      24.234 -10.215  -7.027  1.00  0.00     0.238 A 
ATOM      4  O   UNL     1      23.702 -10.919  -7.924  1.00  0.00    -0.285 OA
ATOM      5  C   UNL     1      23.806  -8.887  -6.779  1.00  0.00     0.111 A 
ATOM      6  C   UNL     1      22.810  -8.200  -7.537  1.00  0.00     0.134 A 
ATOM      7  C   UNL     1      22.392  -6.926  -7.133  1.00  0.00     0.093 A 
ATOM      8  C   UNL     1      22.977  -6.289  -6.036  1.00  0.00     0.123 A 
ATOM      9  C   UNL     1      23.988  -6.930  -5.323  1.00  0.00     0.094 A 
ATOM     10  C   UNL     1      24.400  -8.216  -5.678  1.00  0.00     0.146 A 
ATOM     11  O   UNL     1      25.352  -8.797  -4.958  1.00  0.00    -0.452 OA
ENDROOT
BRANCH   1  12
ATOM     12  C   UNL     1      26.864 -10.558  -4.311  1.00  0.00     0.025 A 
ATOM     13  C   UNL     1      26.760 -10.497  -2.910  1.00  0.00     0.016 A 
ATOM     14  C   UNL     1      27.793 -10.982  -2.104  1.00  0.00     0.051 A 
ATOM     15  C   UNL     1      28.950 -11.521  -2.683  1.00  0.00     0.157 A 
ATOM     16  C   UNL     1      28.035 -11.079  -4.886  1.00  0.00     0.062 A 
ATOM     17  C   UNL     1      29.071 -11.566  -4.081  1.00  0.00     0.158 A 
BRANCH  15  18
ATOM     18  O   UNL     1      29.977 -12.006  -1.875  1.00  0.00    -0.504 OA
ATOM     19  H   UNL     1      30.719 -11.401  -1.539  1.00  0.00     0.293 HD
ENDBRANCH  15  18
BRANCH  17  20
ATOM     20  O   UNL     1      30.213 -12.089  -4.689  1.00  0.00    -0.504 OA
ATOM     21  H   UNL     1      31.143 -11.756  -4.464  1.00  0.00     0.293 HD
ENDBRANCH  17  20
ENDBRANCH   1  12
BRANCH   2  22
ATOM     22  O   UNL     1      25.744 -12.057  -6.522  1.00  0.00    -0.502 OA
ATOM     23  H   UNL     1      25.156 -12.798  -6.888  1.00  0.00     0.293 HD
ENDBRANCH   2  22
BRANCH   6  24
ATOM     24  O   UNL     1      22.223  -8.706  -8.700  1.00  0.00    -0.507 OA
ATOM     25  H   UNL     1      22.090  -8.187  -9.554  1.00  0.00     0.293 HD
ENDBRANCH   6  24
BRANCH   8  26
ATOM     26  O   UNL     1      22.567  -5.015  -5.651  1.00  0.00    -0.508 OA
ATOM     27  H   UNL     1      21.688  -4.623  -5.968  1.00  0.00     0.293 HD
ENDBRANCH   8  26
TORSDOF 6
ENDMDL
MODEL 2
REMARK VINA RESULT:    -5.982      2.927      8.100
REMARK INTER + INTRA:          -7.193
REMARK INTER:                  -7.463
REMARK INTRA:                   0.270
REMARK UNBOUND:                 0.013
REMARK SMILES O=c1c(O)c(-c2ccc(O)c(O)c2)oc2cc(O)cc(O)c12
REMARK SMILES IDX 5 1 3 2 2 3 1 4 22 5 20 6 19 7 17 8 16 9 15 10 14 11 6 12
REMARK SMILES IDX 7 13 8 14 9 15 13 16 11 17 10 18 12 20 4 22 21 24 18 26
REMARK H PARENT 10 19 12 21 4 23 21 25 18 27
REMARK Flexibility Score: inf
ROOT
ATOM      1  C   UNL     1      22.406  -5.696  -5.623  1.00  0.00     0.180 A 
ATOM      2  C   UNL     1      22.569  -6.543  -6.732  1.00  0.00     0.208 A 
ATOM      3  C   UNL     1      23.513  -7.580  -6.665  1.00  0.00     0.238 A 
ATOM      4  O   UNL     1      23.706  -8.288  -7.688  1.00  0.00    -0.285 OA
ATOM      5  C   UNL     1      24.243  -7.793  -5.470  1.00  0.00     0.111 A 
ATOM      6  C   UNL     1      25.192  -8.841  -5.274  1.00  0.00     0.134 A 
ATOM      7  C   UNL     1      25.932  -8.890  -4.086  1.00  0.00     0.093 A 
ATOM      8  C   UNL     1      25.711  -7.966  -3.061  1.00  0.00     0.123 A 
ATOM      9  C   UNL     1      24.748  -6.973  -3.221  1.00  0.00     0.094 A 
ATOM     10  C   UNL     1      24.021  -6.875  -4.410  1.00  0.00     0.146 A 
ATOM     11  O   UNL     1      23.128  -5.900  -4.527  1.00  0.00    -0.452 OA
ENDROOT
BRANCH   1  12
ATOM     12  C   UNL     1      21.442  -4.573  -5.624  1.00  0.00     0.025 A 
ATOM     13  C   UNL     1      20.256  -4.627  -6.376  1.00  0.00     0.016 A 
ATOM     14  C   UNL     1      19.373  -3.544  -6.380  1.00  0.00     0.051 A 
ATOM     15  C   UNL     1      19.667  -2.388  -5.646  1.00  0.00     0.157 A 
ATOM     16  C   UNL     1      21.743  -3.403  -4.907  1.00  0.00     0.062 A 
ATOM     17  C   UNL     1      20.861  -2.317  -4.909  1.00  0.00     0.158 A 
BRANCH  15  18
ATOM     18  O   UNL     1      18.783  -1.310  -5.651  1.00  0.00    -0.504 OA
ATOM     19  H   UNL     1      18.859  -0.564  -6.334  1.00  0.00     0.293 HD
ENDBRANCH  15  18
BRANCH  17  20
ATOM     20  O   UNL     1      21.187  -1.177  -4.174  1.00  0.00    -0.504 OA
ATOM     21  H   UNL     1      22.130  -0.998  -3.849  1.00  0.00     0.293 HD
ENDBRANCH  17  20
ENDBRANCH   1  12
BRANCH   2  22
ATOM     22  O   UNL     1      21.785  -6.364  -7.875  1.00  0.00    -0.502 OA
ATOM     23  H   UNL     1      22.103  -5.830  -8.676  1.00  0.00     0.293 HD
ENDBRANCH   2  22
BRANCH   6  24
ATOM     24  O   UNL     1      25.428  -9.867  -6.194  1.00  0.00    -0.507 OA
ATOM     25  H   UNL     1      26.323 -10.075  -6.611  1.00  0.00     0.293 HD
ENDBRANCH   6  24
BRANCH   8  26
ATOM     26  O   UNL     1      26.439  -8.032  -1.875  1.00  0.00    -0.508 OA
ATOM     27  H   UNL     1      26.029  -8.389  -1.021  1.00  0.00     0.293 HD
ENDBRANCH   8  26
TORSDOF 6
ENDMDL
MODEL 3
REMARK VINA RESULT:    -5.816      2.894      8.070
REMARK INTER + INTRA:          -6.993
REMARK INTER:                  -7.364
REMARK INTRA:                   0.371
REMARK UNBOUND:                 0.013
REMARK SMILES O=c1c(O)c(-c2ccc(O)c(O)c2)oc2cc(O)cc(O)c12
REMARK SMILES IDX 5 1 3 2 2 3 1 4 22 5 20 6 19 7 17 8 16 9 15 10 14 11 6 12
REMARK SMILES IDX 7 13 8 14 9 15 13 16 11 17 10 18 12 20 4 22 21 24 18 26
REMARK H PARENT 10 19 12 21 4 23 21 25 18 27
REMARK Flexibility Score: inf
ROOT
ATOM      1  C   UNL     1      22.514  -5.760  -5.671  1.00  0.00     0.180 A 
ATOM      2  C   UNL     1      22.666  -6.631  -6.763  1.00  0.00     0.208 A 
ATOM      3  C   UNL     1      23.595  -7.680  -6.675  1.00  0.00     0.238 A 
ATOM      4  O   UNL     1      23.778  -8.410  -7.683  1.00  0.00    -0.285 OA
ATOM      5  C   UNL     1      24.321  -7.880  -5.475  1.00  0.00     0.111 A 
ATOM      6  C   UNL     1      25.255  -8.937  -5.258  1.00  0.00     0.134 A 
ATOM      7  C   UNL     1      25.993  -8.973  -4.068  1.00  0.00     0.093 A 
ATOM      8  C   UNL     1      25.785  -8.026  -3.062  1.00  0.00     0.123 A 
ATOM      9  C   UNL     1      24.836  -7.023  -3.243  1.00  0.00     0.094 A 
ATOM     10  C   UNL     1      24.111  -6.938  -4.434  1.00  0.00     0.146 A 
ATOM     11  O   UNL     1      23.232  -5.953  -4.571  1.00  0.00    -0.452 OA
ENDROOT
BRANCH   1  12
ATOM     12  C   UNL     1      21.566  -4.624  -5.695  1.00  0.00     0.025 A 
ATOM     13  C   UNL     1      21.751  -3.499  -4.872  1.00  0.00     0.016 A 
ATOM     14  C   UNL     1      20.827  -2.450  -4.894  1.00  0.00     0.051 A 
ATOM     15  C   UNL     1      19.701  -2.514  -5.725  1.00  0.00     0.157 A 
ATOM     16  C   UNL     1      20.423  -4.694  -6.510  1.00  0.00     0.062 A 
ATOM     17  C   UNL     1      19.498  -3.645  -6.534  1.00  0.00     0.158 A 
BRANCH  15  18
ATOM     18  O   UNL     1      18.784  -1.465  -5.746  1.00  0.00    -0.504 OA
ATOM     19  H   UNL     1      17.787  -1.633  -5.831  1.00  0.00     0.293 HD
ENDBRANCH  15  18
BRANCH  17  20
ATOM     20  O   UNL     1      18.383  -3.744  -7.366  1.00  0.00    -0.504 OA
ATOM     21  H   UNL     1      17.894  -4.619  -7.508  1.00  0.00     0.293 HD
ENDBRANCH  17  20
ENDBRANCH   1  12
BRANCH   2  22
ATOM     22  O   UNL     1      21.885  -6.463  -7.910  1.00  0.00    -0.502 OA
ATOM     23  H   UNL     1      22.177  -6.797  -8.822  1.00  0.00     0.293 HD
ENDBRANCH   2  22
BRANCH   6  24
ATOM     24  O   UNL     1      25.477  -9.984  -6.158  1.00  0.00    -0.507 OA
ATOM     25  H   UNL     1      24.769 -10.408  -6.737  1.00  0.00     0.293 HD
ENDBRANCH   6  24
BRANCH   8  26
ATOM     26  O   UNL     1      26.512  -8.079  -1.875  1.00  0.00    -0.508 OA
ATOM     27  H   UNL     1      26.073  -8.325  -0.996  1.00  0.00     0.293 HD
ENDBRANCH   8  26
TORSDOF 6
ENDMDL
MODEL 4
REMARK VINA RESULT:    -5.686      2.457      3.758
REMARK INTER + INTRA:          -6.837
REMARK INTER:                  -6.658
REMARK INTRA:                  -0.179
REMARK UNBOUND:                 0.013
REMARK SMILES O=c1c(O)c(-c2ccc(O)c(O)c2)oc2cc(O)cc(O)c12
REMARK SMILES IDX 5 1 3 2 2 3 1 4 22 5 20 6 19 7 17 8 16 9 15 10 14 11 6 12
REMARK SMILES IDX 7 13 8 14 9 15 13 16 11 17 10 18 12 20 4 22 21 24 18 26
REMARK H PARENT 10 19 12 21 4 23 21 25 18 27
REMARK Flexibility Score: inf
ROOT
ATOM      1  C   UNL     1      24.020  -7.056  -5.293  1.00  0.00     0.180 A 
ATOM      2  C   UNL     1      23.551  -7.464  -6.553  1.00  0.00     0.208 A 
ATOM      3  C   UNL     1      22.472  -6.778  -7.134  1.00  0.00     0.238 A 
ATOM      4  O   UNL     1      22.010  -7.195  -8.228  1.00  0.00    -0.285 OA
ATOM      5  C   UNL     1      21.912  -5.657  -6.473  1.00  0.00     0.111 A 
ATOM      6  C   UNL     1      20.846  -4.860  -6.989  1.00  0.00     0.134 A 
ATOM      7  C   UNL     1      20.301  -3.840  -6.199  1.00  0.00     0.093 A 
ATOM      8  C   UNL     1      20.825  -3.547  -4.938  1.00  0.00     0.123 A 
ATOM      9  C   UNL     1      21.902  -4.284  -4.449  1.00  0.00     0.094 A 
ATOM     10  C   UNL     1      22.442  -5.332  -5.197  1.00  0.00     0.146 A 
ATOM     11  O   UNL     1      23.453  -6.022  -4.683  1.00  0.00    -0.452 OA
ENDROOT
BRANCH   1  12
ATOM     12  C   UNL     1      25.143  -7.738  -4.611  1.00  0.00     0.025 A 
ATOM     13  C   UNL     1      25.045  -9.079  -4.201  1.00  0.00     0.016 A 
ATOM     14  C   UNL     1      26.110  -9.693  -3.537  1.00  0.00     0.051 A 
ATOM     15  C   UNL     1      27.281  -8.975  -3.260  1.00  0.00     0.157 A 
ATOM     16  C   UNL     1      26.310  -7.015  -4.312  1.00  0.00     0.062 A 
ATOM     17  C   UNL     1      27.379  -7.628  -3.648  1.00  0.00     0.158 A 
BRANCH  15  18
ATOM     18  O   UNL     1      28.342  -9.592  -2.599  1.00  0.00    -0.504 OA
ATOM     19  H   UNL     1      28.460 -10.599  -2.609  1.00  0.00     0.293 HD
ENDBRANCH  15  18
BRANCH  17  20
ATOM     20  O   UNL     1      28.527  -6.883  -3.380  1.00  0.00    -0.504 OA
ATOM     21  H   UNL     1      29.348  -6.930  -3.971  1.00  0.00     0.293 HD
ENDBRANCH  17  20
ENDBRANCH   1  12
BRANCH   2  22
ATOM     22  O   UNL     1      24.168  -8.524  -7.224  1.00  0.00    -0.502 OA
ATOM     23  H   UNL     1      24.638  -9.277  -6.736  1.00  0.00     0.293 HD
ENDBRANCH   2  22
BRANCH   6  24
ATOM     24  O   UNL     1      20.306  -5.008  -8.270  1.00  0.00    -0.507 OA
ATOM     25  H   UNL     1      19.397  -5.394  -8.473  1.00  0.00     0.293 HD
ENDBRANCH   6  24
BRANCH   8  26
ATOM     26  O   UNL     1      20.289  -2.520  -4.166  1.00  0.00    -0.508 OA
ATOM     27  H   UNL     1      19.661  -1.831  -4.563  1.00  0.00     0.293 HD
ENDBRANCH   8  26
TORSDOF 6
ENDMDL
MODEL 5
REMARK VINA RESULT:    -5.029      1.184      2.864
REMARK INTER + INTRA:          -6.045
REMARK INTER:                  -6.074
REMARK INTRA:                   0.029
REMARK UNBOUND:                 0.013
REMARK SMILES O=c1c(O)c(-c2ccc(O)c(O)c2)oc2cc(O)cc(O)c12
REMARK SMILES IDX 5 1 3 2 2 3 1 4 22 5 20 6 19 7 17 8 16 9 15 10 14 11 6 12
REMARK SMILES IDX 7 13 8 14 9 15 13 16 11 17 10 18 12 20 4 22 21 24 18 26
REMARK H PARENT 10 19 12 21 4 23 21 25 18 27
REMARK Flexibility Score: inf
ROOT
ATOM      1  C   UNL     1      25.802  -9.443  -4.804  1.00  0.00     0.180 A 
ATOM      2  C   UNL     1      25.357  -8.158  -4.453  1.00  0.00     0.208 A 
ATOM      3  C   UNL     1      24.376  -7.536  -5.243  1.00  0.00     0.238 A 
ATOM      4  O   UNL     1      24.036  -6.357  -4.966  1.00  0.00    -0.285 OA
ATOM      5  C   UNL     1      23.813  -8.230  -6.342  1.00  0.00     0.111 A 
ATOM      6  C   UNL     1      22.782  -7.714  -7.185  1.00  0.00     0.134 A 
ATOM      7  C   UNL     1      22.377  -8.447  -8.308  1.00  0.00     0.093 A 
ATOM      8  C   UNL     1      22.921  -9.705  -8.582  1.00  0.00     0.123 A 
ATOM      9  C   UNL     1      23.888 -10.239  -7.734  1.00  0.00     0.094 A 
ATOM     10  C   UNL     1      24.340  -9.516  -6.629  1.00  0.00     0.146 A 
ATOM     11  O   UNL     1      25.279 -10.056  -5.860  1.00  0.00    -0.452 OA
ENDROOT
BRANCH   1  12
ATOM     12  C   UNL     1      26.842 -10.157  -4.029  1.00  0.00     0.025 A 
ATOM     13  C   UNL     1      26.772 -10.255  -2.628  1.00  0.00     0.016 A 
ATOM     14  C   UNL     1      27.779 -10.912  -1.916  1.00  0.00     0.051 A 
ATOM     15  C   UNL     1      28.875 -11.468  -2.589  1.00  0.00     0.157 A 
ATOM     16  C   UNL     1      27.954 -10.697  -4.697  1.00  0.00     0.062 A 
ATOM     17  C   UNL     1      28.963 -11.356  -3.986  1.00  0.00     0.158 A 
BRANCH  15  18
ATOM     18  O   UNL     1      29.876 -12.125  -1.875  1.00  0.00    -0.504 OA
ATOM     19  H   UNL     1      30.134 -11.839  -0.937  1.00  0.00     0.293 HD
ENDBRANCH  15  18
BRANCH  17  20
ATOM     20  O   UNL     1      30.044 -11.891  -4.685  1.00  0.00    -0.504 OA
ATOM     21  H   UNL     1      30.675 -11.313  -5.228  1.00  0.00     0.293 HD
ENDBRANCH  17  20
ENDBRANCH   1  12
BRANCH   2  22
ATOM     22  O   UNL     1      25.870  -7.521  -3.319  1.00  0.00    -0.502 OA
ATOM     23  H   UNL     1      26.079  -6.530  -3.299  1.00  0.00     0.293 HD
ENDBRANCH   2  22
BRANCH   6  24
ATOM     24  O   UNL     1      22.109  -6.511  -6.953  1.00  0.00    -0.507 OA
ATOM     25  H   UNL     1      22.530  -5.596  -6.995  1.00  0.00     0.293 HD
ENDBRANCH   6  24
BRANCH   8  26
ATOM     26  O   UNL     1      22.500 -10.434  -9.691  1.00  0.00    -0.508 OA
ATOM     27  H   UNL     1      22.939 -11.311  -9.946  1.00  0.00     0.293 HD
ENDBRANCH   8  26
TORSDOF 6
ENDMDL
MODEL 6
REMARK VINA RESULT:    -4.463      8.344     10.342
REMARK INTER + INTRA:          -5.364
REMARK INTER:                  -5.188
REMARK INTRA:                  -0.176
REMARK UNBOUND:                 0.013
REMARK SMILES O=c1c(O)c(-c2ccc(O)c(O)c2)oc2cc(O)cc(O)c12
REMARK SMILES IDX 5 1 3 2 2 3 1 4 22 5 20 6 19 7 17 8 16 9 15 10 14 11 6 12
REMARK SMILES IDX 7 13 8 14 9 15 13 16 11 17 10 18 12 20 4 22 21 24 18 26
REMARK H PARENT 10 19 12 21 4 23 21 25 18 27
REMARK Flexibility Score: inf
ROOT
ATOM      1  C   UNL     1      20.545  -1.799  -4.593  1.00  0.00     0.180 A 
ATOM      2  C   UNL     1      21.085  -2.932  -5.224  1.00  0.00     0.208 A 
ATOM      3  C   UNL     1      20.215  -3.915  -5.723  1.00  0.00     0.238 A 
ATOM      4  O   UNL     1      20.706  -4.961  -6.220  1.00  0.00    -0.285 OA
ATOM      5  C   UNL     1      18.813  -3.726  -5.634  1.00  0.00     0.111 A 
ATOM      6  C   UNL     1      17.838  -4.635  -6.145  1.00  0.00     0.134 A 
ATOM      7  C   UNL     1      16.479  -4.396  -5.905  1.00  0.00     0.093 A 
ATOM      8  C   UNL     1      16.057  -3.249  -5.228  1.00  0.00     0.123 A 
ATOM      9  C   UNL     1      17.000  -2.329  -4.773  1.00  0.00     0.094 A 
ATOM     10  C   UNL     1      18.364  -2.558  -4.964  1.00  0.00     0.146 A 
ATOM     11  O   UNL     1      19.227  -1.665  -4.496  1.00  0.00    -0.452 OA
ENDROOT
BRANCH   1  12
ATOM     12  C   UNL     1      21.398  -0.728  -4.031  1.00  0.00     0.025 A 
ATOM     13  C   UNL     1      21.424  -0.461  -2.651  1.00  0.00     0.016 A 
ATOM     14  C   UNL     1      22.219   0.572  -2.147  1.00  0.00     0.051 A 
ATOM     15  C   UNL     1      22.987   1.361  -3.013  1.00  0.00     0.157 A 
ATOM     16  C   UNL     1      22.152   0.081  -4.897  1.00  0.00     0.062 A 
ATOM     17  C   UNL     1      22.949   1.115  -4.395  1.00  0.00     0.158 A 
BRANCH  15  18
ATOM     18  O   UNL     1      23.780   2.390  -2.506  1.00  0.00    -0.504 OA
ATOM     19  H   UNL     1      23.504   3.362  -2.588  1.00  0.00     0.293 HD
ENDBRANCH  15  18
BRANCH  17  20
ATOM     20  O   UNL     1      23.696   1.888  -5.285  1.00  0.00    -0.504 OA
ATOM     21  H   UNL     1      23.280   2.322  -6.100  1.00  0.00     0.293 HD
ENDBRANCH  17  20
ENDBRANCH   1  12
BRANCH   2  22
ATOM     22  O   UNL     1      22.469  -3.063  -5.371  1.00  0.00    -0.502 OA
ATOM     23  H   UNL     1      23.033  -3.620  -4.739  1.00  0.00     0.293 HD
ENDBRANCH   2  22
BRANCH   6  24
ATOM     24  O   UNL     1      18.144  -5.764  -6.911  1.00  0.00    -0.507 OA
ATOM     25  H   UNL     1      17.807  -5.938  -7.845  1.00  0.00     0.293 HD
ENDBRANCH   6  24
BRANCH   8  26
ATOM     26  O   UNL     1      14.703  -3.010  -5.008  1.00  0.00    -0.508 OA
ATOM     27  H   UNL     1      14.323  -2.933  -4.072  1.00  0.00     0.293 HD
ENDBRANCH   8  26
TORSDOF 6
ENDMDL
MODEL 7
REMARK VINA RESULT:    -4.161      2.892      5.338
REMARK INTER + INTRA:          -5.000
REMARK INTER:                  -5.389
REMARK INTRA:                   0.389
REMARK UNBOUND:                 0.013
REMARK SMILES O=c1c(O)c(-c2ccc(O)c(O)c2)oc2cc(O)cc(O)c12
REMARK SMILES IDX 5 1 3 2 2 3 1 4 22 5 20 6 19 7 17 8 16 9 15 10 14 11 6 12
REMARK SMILES IDX 7 13 8 14 9 15 13 16 11 17 10 18 12 20 4 22 21 24 18 26
REMARK H PARENT 10 19 12 21 4 23 21 25 18 27
REMARK Flexibility Score: inf
ROOT
ATOM      1  C   UNL     1      22.782  -6.216  -5.728  1.00  0.00     0.180 A 
ATOM      2  C   UNL     1      21.969  -6.245  -6.874  1.00  0.00     0.208 A 
ATOM      3  C   UNL     1      21.012  -5.234  -7.057  1.00  0.00     0.238 A 
ATOM      4  O   UNL     1      20.239  -5.306  -8.046  1.00  0.00    -0.285 OA
ATOM      5  C   UNL     1      20.918  -4.175  -6.120  1.00  0.00     0.111 A 
ATOM      6  C   UNL     1      20.015  -3.074  -6.228  1.00  0.00     0.134 A 
ATOM      7  C   UNL     1      19.936  -2.142  -5.186  1.00  0.00     0.093 A 
ATOM      8  C   UNL     1      20.771  -2.235  -4.070  1.00  0.00     0.123 A 
ATOM      9  C   UNL     1      21.693  -3.276  -3.981  1.00  0.00     0.094 A 
ATOM     10  C   UNL     1      21.769  -4.243  -4.986  1.00  0.00     0.146 A 
ATOM     11  O   UNL     1      22.648  -5.229  -4.850  1.00  0.00    -0.452 OA
ENDROOT
BRANCH   1  12
ATOM     12  C   UNL     1      23.803  -7.254  -5.459  1.00  0.00     0.025 A 
ATOM     13  C   UNL     1      23.777  -8.495  -6.119  1.00  0.00     0.016 A 
ATOM     14  C   UNL     1      24.737  -9.468  -5.830  1.00  0.00     0.051 A 
ATOM     15  C   UNL     1      25.727  -9.222  -4.870  1.00  0.00     0.157 A 
ATOM     16  C   UNL     1      24.784  -7.021  -4.481  1.00  0.00     0.062 A 
ATOM     17  C   UNL     1      25.747  -7.993  -4.191  1.00  0.00     0.158 A 
BRANCH  15  18
ATOM     18  O   UNL     1      26.685 -10.194  -4.586  1.00  0.00    -0.504 OA
ATOM     19  H   UNL     1      27.112 -10.266  -3.669  1.00  0.00     0.293 HD
ENDBRANCH  15  18
BRANCH  17  20
ATOM     20  O   UNL     1      26.715  -7.720  -3.224  1.00  0.00    -0.504 OA
ATOM     21  H   UNL     1      27.058  -8.431  -2.589  1.00  0.00     0.293 HD
ENDBRANCH  17  20
ENDBRANCH   1  12
BRANCH   2  22
ATOM     22  O   UNL     1      22.130  -7.256  -7.825  1.00  0.00    -0.502 OA
ATOM     23  H   UNL     1      23.039  -7.526  -8.184  1.00  0.00     0.293 HD
ENDBRANCH   2  22
BRANCH   6  24
ATOM     24  O   UNL     1      19.200  -2.835  -7.338  1.00  0.00    -0.507 OA
ATOM     25  H   UNL     1      19.292  -3.292  -8.232  1.00  0.00     0.293 HD
ENDBRANCH   6  24
BRANCH   8  26
ATOM     26  O   UNL     1      20.698  -1.294  -3.046  1.00  0.00    -0.508 OA
ATOM     27  H   UNL     1      21.058  -1.489  -2.119  1.00  0.00     0.293 HD
ENDBRANCH   8  26
TORSDOF 6
ENDMDL
MODEL 8
REMARK VINA RESULT:    -4.001      3.611      8.855
REMARK INTER + INTRA:          -4.807
REMARK INTER:                  -4.627
REMARK INTRA:                  -0.180
REMARK UNBOUND:                 0.013
REMARK SMILES O=c1c(O)c(-c2ccc(O)c(O)c2)oc2cc(O)cc(O)c12
REMARK SMILES IDX 5 1 3 2 2 3 1 4 22 5 20 6 19 7 17 8 16 9 15 10 14 11 6 12
REMARK SMILES IDX 7 13 8 14 9 15 13 16 11 17 10 18 12 20 4 22 21 24 18 26
REMARK H PARENT 10 19 12 21 4 23 21 25 18 27
REMARK Flexibility Score: inf
ROOT
ATOM      1  C   UNL     1      21.333  -4.961  -5.746  1.00  0.00     0.180 A 
ATOM      2  C   UNL     1      21.435  -5.678  -6.950  1.00  0.00     0.208 A 
ATOM      3  C   UNL     1      22.435  -6.655  -7.080  1.00  0.00     0.238 A 
ATOM      4  O   UNL     1      22.568  -7.240  -8.186  1.00  0.00    -0.285 OA
ATOM      5  C   UNL     1      23.284  -6.945  -5.983  1.00  0.00     0.111 A 
ATOM      6  C   UNL     1      24.301  -7.946  -5.987  1.00  0.00     0.134 A 
ATOM      7  C   UNL     1      25.151  -8.071  -4.880  1.00  0.00     0.093 A 
ATOM      8  C   UNL     1      24.980  -7.273  -3.746  1.00  0.00     0.123 A 
ATOM      9  C   UNL     1      23.954  -6.331  -3.712  1.00  0.00     0.094 A 
ATOM     10  C   UNL     1      23.115  -6.157  -4.815  1.00  0.00     0.146 A 
ATOM     11  O   UNL     1      22.164  -5.232  -4.746  1.00  0.00    -0.452 OA
ENDROOT
BRANCH   1  12
ATOM     12  C   UNL     1      20.315  -3.907  -5.540  1.00  0.00     0.025 A 
ATOM     13  C   UNL     1      20.681  -2.563  -5.347  1.00  0.00     0.016 A 
ATOM     14  C   UNL     1      19.702  -1.590  -5.129  1.00  0.00     0.051 A 
ATOM     15  C   UNL     1      18.347  -1.945  -5.087  1.00  0.00     0.157 A 
ATOM     16  C   UNL     1      18.957  -4.261  -5.474  1.00  0.00     0.062 A 
ATOM     17  C   UNL     1      17.975  -3.289  -5.257  1.00  0.00     0.158 A 
BRANCH  15  18
ATOM     18  O   UNL     1      17.374  -0.971  -4.871  1.00  0.00    -0.504 OA
ATOM     19  H   UNL     1      16.680  -0.749  -5.577  1.00  0.00     0.293 HD
ENDBRANCH  15  18
BRANCH  17  20
ATOM     20  O   UNL     1      16.636  -3.676  -5.212  1.00  0.00    -0.504 OA
ATOM     21  H   UNL     1      16.324  -4.575  -5.559  1.00  0.00     0.293 HD
ENDBRANCH  17  20
ENDBRANCH   1  12
BRANCH   2  22
ATOM     22  O   UNL     1      20.539  -5.431  -7.994  1.00  0.00    -0.502 OA
ATOM     23  H   UNL     1      20.512  -4.549  -8.492  1.00  0.00     0.293 HD
ENDBRANCH   2  22
BRANCH   6  24
ATOM     24  O   UNL     1      24.504  -8.854  -7.030  1.00  0.00    -0.507 OA
ATOM     25  H   UNL     1      23.771  -9.287  -7.570  1.00  0.00     0.293 HD
ENDBRANCH   6  24
BRANCH   8  26
ATOM     26  O   UNL     1      25.819  -7.416  -2.643  1.00  0.00    -0.508 OA
ATOM     27  H   UNL     1      26.791  -7.681  -2.748  1.00  0.00     0.293 HD
ENDBRANCH   8  26
TORSDOF 6
ENDMDL
MODEL 9
REMARK VINA RESULT:    -3.914      3.420      8.463
REMARK INTER + INTRA:          -4.702
REMARK INTER:                  -5.134
REMARK INTRA:                   0.431
REMARK UNBOUND:                 0.013
REMARK SMILES O=c1c(O)c(-c2ccc(O)c(O)c2)oc2cc(O)cc(O)c12
REMARK SMILES IDX 5 1 3 2 2 3 1 4 22 5 20 6 19 7 17 8 16 9 15 10 14 11 6 12
REMARK SMILES IDX 7 13 8 14 9 15 13 16 11 17 10 18 12 20 4 22 21 24 18 26
REMARK H PARENT 10 19 12 21 4 23 21 25 18 27
REMARK Flexibility Score: inf
ROOT
ATOM      1  C   UNL     1      21.872  -5.741  -6.016  1.00  0.00     0.180 A 
ATOM      2  C   UNL     1      22.842  -5.916  -5.014  1.00  0.00     0.208 A 
ATOM      3  C   UNL     1      23.692  -7.032  -5.076  1.00  0.00     0.238 A 
ATOM      4  O   UNL     1      24.508  -7.222  -4.137  1.00  0.00    -0.285 OA
ATOM      5  C   UNL     1      23.600  -7.929  -6.168  1.00  0.00     0.111 A 
ATOM      6  C   UNL     1      24.440  -9.068  -6.357  1.00  0.00     0.134 A 
ATOM      7  C   UNL     1      24.186  -9.945  -7.419  1.00  0.00     0.093 A 
ATOM      8  C   UNL     1      23.164  -9.689  -8.336  1.00  0.00     0.123 A 
ATOM      9  C   UNL     1      22.374  -8.551  -8.192  1.00  0.00     0.094 A 
ATOM     10  C   UNL     1      22.578  -7.678  -7.121  1.00  0.00     0.146 A 
ATOM     11  O   UNL     1      21.788  -6.617  -7.010  1.00  0.00    -0.452 OA
ENDROOT
BRANCH   1  12
ATOM     12  C   UNL     1      20.932  -4.598  -6.011  1.00  0.00     0.025 A 
ATOM     13  C   UNL     1      19.744  -4.625  -6.762  1.00  0.00     0.016 A 
ATOM     14  C   UNL     1      18.884  -3.523  -6.761  1.00  0.00     0.051 A 
ATOM     15  C   UNL     1      19.204  -2.375  -6.023  1.00  0.00     0.157 A 
ATOM     16  C   UNL     1      21.260  -3.437  -5.291  1.00  0.00     0.062 A 
ATOM     17  C   UNL     1      20.400  -2.333  -5.288  1.00  0.00     0.158 A 
BRANCH  15  18
ATOM     18  O   UNL     1      18.344  -1.279  -6.023  1.00  0.00    -0.504 OA
ATOM     19  H   UNL     1      18.218  -0.703  -6.849  1.00  0.00     0.293 HD
ENDBRANCH  15  18
BRANCH  17  20
ATOM     20  O   UNL     1      20.752  -1.203  -4.550  1.00  0.00    -0.504 OA
ATOM     21  H   UNL     1      21.023  -0.333  -4.993  1.00  0.00     0.293 HD
ENDBRANCH  17  20
ENDBRANCH   1  12
BRANCH   2  22
ATOM     22  O   UNL     1      22.969  -4.979  -3.986  1.00  0.00    -0.502 OA
ATOM     23  H   UNL     1      23.717  -4.296  -3.960  1.00  0.00     0.293 HD
ENDBRANCH   2  22
BRANCH   6  24
ATOM     24  O   UNL     1      25.543  -9.370  -5.553  1.00  0.00    -0.507 OA
ATOM     25  H   UNL     1      26.322  -9.946  -5.832  1.00  0.00     0.293 HD
ENDBRANCH   6  24
BRANCH   8  26
ATOM     26  O   UNL     1      22.930 -10.557  -9.400  1.00  0.00    -0.508 OA
ATOM     27  H   UNL     1      22.416 -10.262 -10.222  1.00  0.00     0.293 HD
ENDBRANCH   8  26
TORSDOF 6
ENDMDL
