MODEL 1
REMARK VINA RESULT:    -2.656      0.000      0.000
REMARK INTER + INTRA:          -3.654
REMARK INTER:                  -3.743
REMARK INTRA:                   0.089
REMARK UNBOUND:                 0.089
REMARK SMILES CC1=CCC(=C(C)C)C(=O)CC(C)=CCC1
REMARK SMILES IDX 12 1 14 2 13 3 15 4 16 5 2 6 1 7 3 8 11 10 9 11 10 12 5 13
REMARK SMILES IDX 6 14 7 15 8 16 4 17
REMARK H PARENT
REMARK Flexibility Score: 60.00
ROOT
ATOM      1  C   UNL     1     189.152 200.255 213.737  1.00  0.00    -0.070 C 
ATOM      2  C   UNL     1     188.054 199.516 213.460  1.00  0.00    -0.027 C 
ATOM      3  C   UNL     1     190.417 199.531 214.125  1.00  0.00     0.039 C 
ENDROOT
BRANCH   2   4
ATOM      4  C   UNL     1     186.679 200.076 213.202  1.00  0.00     0.032 C 
BRANCH   4   5
ATOM      5  C   UNL     1     186.450 200.222 211.693  1.00  0.00     0.034 C 
BRANCH   5   6
ATOM      6  C   UNL     1     186.020 201.621 211.304  1.00  0.00    -0.077 C 
ATOM      7  C   UNL     1     184.586 202.027 211.537  1.00  0.00     0.039 C 
ATOM      8  C   UNL     1     186.871 202.562 210.822  1.00  0.00    -0.023 CG0
ATOM      9  G   UNL     1     188.333 202.379 210.452  1.00  0.00     0.000 G0
ENDBRANCH   5   6
ENDBRANCH   4   5
ENDBRANCH   2   4
BRANCH   1  10
ATOM     10  C   UNL     1     189.181 201.770 213.659  1.00  0.00     0.111 C 
BRANCH  10  11
ATOM     11  C   UNL     1     189.972 202.257 212.468  1.00  0.00     0.163 C 
ATOM     12  O   UNL     1     191.190 201.936 212.418  1.00  0.00    -0.294 OA
BRANCH  11  13
ATOM     13  C   UNL     1     189.384 203.069 211.351  1.00  0.00    -0.002 C 
ATOM     14  C   UNL     1     189.875 204.314 211.064  1.00  0.00    -0.069 C 
ATOM     15  C   UNL     1     190.808 205.032 212.011  1.00  0.00     0.039 C 
ATOM     16  C   UNL     1     189.474 205.063 209.813  1.00  0.00     0.039 C 
BRANCH  13  17
ATOM     17  C   UNL     1     188.361 202.395 210.443  1.00  0.00     0.066 CG0
ATOM     18  G   UNL     1     186.901 202.563 210.825  1.00  0.00     0.000 G0
ENDBRANCH  13  17
ENDBRANCH  11  13
ENDBRANCH  10  11
ENDBRANCH   1  10
TORSDOF 0
ENDMDL
MODEL 2
REMARK VINA RESULT:    -2.580      2.246      3.128
REMARK INTER + INTRA:          -3.546
REMARK INTER:                  -3.418
REMARK INTRA:                  -0.128
REMARK UNBOUND:                 0.089
REMARK SMILES CC1=CCC(=C(C)C)C(=O)CC(C)=CCC1
REMARK SMILES IDX 12 1 14 2 13 3 15 4 16 5 2 6 1 7 3 8 11 10 9 11 10 12 5 13
REMARK SMILES IDX 6 14 7 15 8 16 4 17
REMARK H PARENT
REMARK Flexibility Score: 60.00
ROOT
ATOM      1  C   UNL     1     185.990 201.478 212.353  1.00  0.00    -0.070 C 
ATOM      2  C   UNL     1     185.312 200.445 211.803  1.00  0.00    -0.027 C 
ATOM      3  C   UNL     1     185.895 201.675 213.845  1.00  0.00     0.039 C 
ENDROOT
BRANCH   2   4
ATOM      4  C   UNL     1     185.177 200.191 210.324  1.00  0.00     0.032 C 
BRANCH   4   5
ATOM      5  C   UNL     1     186.272 199.224 209.859  1.00  0.00     0.034 C 
BRANCH   5   6
ATOM      6  C   UNL     1     186.938 199.676 208.576  1.00  0.00    -0.077 C 
ATOM      7  C   UNL     1     186.177 199.540 207.280  1.00  0.00     0.039 C 
ATOM      8  C   UNL     1     188.159 200.268 208.530  1.00  0.00    -0.023 CG0
ATOM      9  G   UNL     1     189.131 200.463 209.679  1.00  0.00     0.000 G0
ENDBRANCH   5   6
ENDBRANCH   4   5
ENDBRANCH   2   4
BRANCH   1  10
ATOM     10  C   UNL     1     186.853 202.432 211.551  1.00  0.00     0.111 C 
BRANCH  10  11
ATOM     11  C   UNL     1     188.309 202.030 211.575  1.00  0.00     0.163 C 
ATOM     12  O   UNL     1     188.827 201.820 212.704  1.00  0.00    -0.294 OA
BRANCH  11  13
ATOM     13  C   UNL     1     189.145 201.850 210.342  1.00  0.00    -0.002 C 
ATOM     14  C   UNL     1     190.004 202.835 209.934  1.00  0.00    -0.069 C 
ATOM     15  C   UNL     1     189.942 204.228 210.519  1.00  0.00     0.039 C 
ATOM     16  C   UNL     1     191.026 202.605 208.843  1.00  0.00     0.039 C 
BRANCH  13  17
ATOM     17  C   UNL     1     189.143 200.479 209.674  1.00  0.00     0.066 CG0
ATOM     18  G   UNL     1     188.155 200.280 208.539  1.00  0.00     0.000 G0
ENDBRANCH  13  17
ENDBRANCH  11  13
ENDBRANCH  10  11
ENDBRANCH   1  10
TORSDOF 0
ENDMDL
MODEL 3
REMARK VINA RESULT:    -2.534      2.228      4.900
REMARK INTER + INTRA:          -3.482
REMARK INTER:                  -3.509
REMARK INTRA:                   0.027
REMARK UNBOUND:                 0.089
REMARK SMILES CC1=CCC(=C(C)C)C(=O)CC(C)=CCC1
REMARK SMILES IDX 12 1 14 2 13 3 15 4 16 5 2 6 1 7 3 8 11 10 9 11 10 12 5 13
REMARK SMILES IDX 6 14 7 15 8 16 4 17
REMARK H PARENT
REMARK Flexibility Score: 60.00
ROOT
ATOM      1  C   UNL     1     188.850 200.913 208.698  1.00  0.00    -0.070 C 
ATOM      2  C   UNL     1     189.926 201.632 209.091  1.00  0.00    -0.027 C 
ATOM      3  C   UNL     1     189.055 199.838 207.661  1.00  0.00     0.039 C 
ENDROOT
BRANCH   2   4
ATOM      4  C   UNL     1     189.876 202.833 210.001  1.00  0.00     0.032 C 
BRANCH   4   5
ATOM      5  C   UNL     1     190.718 202.573 211.255  1.00  0.00     0.034 C 
BRANCH   5   6
ATOM      6  C   UNL     1     190.055 203.085 212.516  1.00  0.00    -0.077 C 
ATOM      7  C   UNL     1     190.514 204.401 213.092  1.00  0.00     0.039 C 
ATOM      8  C   UNL     1     189.013 202.461 213.123  1.00  0.00    -0.023 CG0
ATOM      9  G   UNL     1     188.414 201.111 212.770  1.00  0.00     0.000 G0
ENDBRANCH   5   6
ENDBRANCH   4   5
ENDBRANCH   2   4
BRANCH   1  10
ATOM     10  C   UNL     1     187.456 201.120 209.259  1.00  0.00     0.111 C 
BRANCH  10  11
ATOM     11  C   UNL     1     187.261 200.389 210.565  1.00  0.00     0.163 C 
ATOM     12  O   UNL     1     187.197 199.131 210.513  1.00  0.00    -0.294 OA
BRANCH  11  13
ATOM     13  C   UNL     1     187.163 201.072 211.898  1.00  0.00    -0.002 C 
ATOM     14  C   UNL     1     185.954 201.510 212.367  1.00  0.00    -0.069 C 
ATOM     15  C   UNL     1     184.741 201.590 211.470  1.00  0.00     0.039 C 
ATOM     16  C   UNL     1     185.774 201.988 213.791  1.00  0.00     0.039 C 
BRANCH  13  17
ATOM     17  C   UNL     1     188.407 201.093 212.780  1.00  0.00     0.066 CG0
ATOM     18  G   UNL     1     188.987 202.460 213.098  1.00  0.00     0.000 G0
ENDBRANCH  13  17
ENDBRANCH  11  13
ENDBRANCH  10  11
ENDBRANCH   1  10
TORSDOF 0
ENDMDL
MODEL 4
REMARK VINA RESULT:    -2.532      2.877      4.374
REMARK INTER + INTRA:          -3.479
REMARK INTER:                  -3.299
REMARK INTRA:                  -0.181
REMARK UNBOUND:                 0.089
REMARK SMILES CC1=CCC(=C(C)C)C(=O)CC(C)=CCC1
REMARK SMILES IDX 12 1 14 2 13 3 15 4 16 5 2 6 1 7 3 8 11 10 9 11 10 12 5 13
REMARK SMILES IDX 6 14 7 15 8 16 4 17
REMARK H PARENT
REMARK Flexibility Score: 60.00
ROOT
ATOM      1  C   UNL     1     185.628 201.740 212.259  1.00  0.00    -0.070 C 
ATOM      2  C   UNL     1     184.625 201.234 211.505  1.00  0.00    -0.027 C 
ATOM      3  C   UNL     1     185.268 202.431 213.550  1.00  0.00     0.039 C 
ENDROOT
BRANCH   2   4
ATOM      4  C   UNL     1     184.792 200.648 210.127  1.00  0.00     0.032 C 
BRANCH   4   5
ATOM      5  C   UNL     1     184.948 199.126 210.224  1.00  0.00     0.034 C 
BRANCH   5   6
ATOM      6  C   UNL     1     186.031 198.594 209.309  1.00  0.00    -0.077 C 
ATOM      7  C   UNL     1     185.752 198.514 207.828  1.00  0.00     0.039 C 
ATOM      8  C   UNL     1     187.274 198.252 209.735  1.00  0.00    -0.023 CG0
ATOM      9  G   UNL     1     187.773 198.194 211.168  1.00  0.00     0.000 G0
ENDBRANCH   5   6
ENDBRANCH   4   5
ENDBRANCH   2   4
BRANCH   1  10
ATOM     10  C   UNL     1     187.093 201.629 211.882  1.00  0.00     0.111 C 
BRANCH  10  11
ATOM     11  C   UNL     1     187.744 200.415 212.500  1.00  0.00     0.163 C 
ATOM     12  O   UNL     1     187.589 200.251 213.740  1.00  0.00    -0.294 OA
BRANCH  11  13
ATOM     13  C   UNL     1     188.530 199.402 211.721  1.00  0.00    -0.002 C 
ATOM     14  C   UNL     1     189.894 199.492 211.641  1.00  0.00    -0.069 C 
ATOM     15  C   UNL     1     190.629 200.740 212.073  1.00  0.00     0.039 C 
ATOM     16  C   UNL     1     190.737 198.375 211.068  1.00  0.00     0.039 C 
BRANCH  13  17
ATOM     17  C   UNL     1     187.787 198.182 211.186  1.00  0.00     0.066 CG0
ATOM     18  G   UNL     1     187.280 198.272 209.758  1.00  0.00     0.000 G0
ENDBRANCH  13  17
ENDBRANCH  11  13
ENDBRANCH  10  11
ENDBRANCH   1  10
TORSDOF 0
ENDMDL
MODEL 5
REMARK VINA RESULT:    -2.516      2.258      3.944
REMARK INTER + INTRA:          -3.456
REMARK INTER:                  -3.322
REMARK INTRA:                  -0.134
REMARK UNBOUND:                 0.089
REMARK SMILES CC1=CCC(=C(C)C)C(=O)CC(C)=CCC1
REMARK SMILES IDX 12 1 14 2 13 3 15 4 16 5 2 6 1 7 3 8 11 10 9 11 10 12 5 13
REMARK SMILES IDX 6 14 7 15 8 16 4 17
REMARK H PARENT
REMARK Flexibility Score: 60.00
ROOT
ATOM      1  C   UNL     1     190.211 201.690 209.236  1.00  0.00    -0.070 C 
ATOM      2  C   UNL     1     189.569 200.966 208.290  1.00  0.00    -0.027 C 
ATOM      3  C   UNL     1     191.288 202.645 208.788  1.00  0.00     0.039 C 
ENDROOT
BRANCH   2   4
ATOM      4  C   UNL     1     188.578 199.866 208.571  1.00  0.00     0.032 C 
BRANCH   4   5
ATOM      5  C   UNL     1     187.156 200.359 208.279  1.00  0.00     0.034 C 
BRANCH   5   6
ATOM      6  C   UNL     1     186.149 199.857 209.292  1.00  0.00    -0.077 C 
ATOM      7  C   UNL     1     185.533 198.495 209.087  1.00  0.00     0.039 C 
ATOM      8  C   UNL     1     185.819 200.533 210.423  1.00  0.00    -0.023 CG0
ATOM      9  G   UNL     1     186.257 201.932 210.820  1.00  0.00     0.000 G0
ENDBRANCH   5   6
ENDBRANCH   4   5
ENDBRANCH   2   4
BRANCH   1  10
ATOM     10  C   UNL     1     189.890 201.603 210.715  1.00  0.00     0.111 C 
BRANCH  10  11
ATOM     11  C   UNL     1     188.751 202.517 211.098  1.00  0.00     0.163 C 
ATOM     12  O   UNL     1     188.891 203.744 210.846  1.00  0.00    -0.294 OA
BRANCH  11  13
ATOM     13  C   UNL     1     187.475 202.042 211.731  1.00  0.00    -0.002 C 
ATOM     14  C   UNL     1     187.393 201.873 213.087  1.00  0.00    -0.069 C 
ATOM     15  C   UNL     1     188.628 201.875 213.959  1.00  0.00     0.039 C 
ATOM     16  C   UNL     1     186.075 201.623 213.784  1.00  0.00     0.039 C 
BRANCH  13  17
ATOM     17  C   UNL     1     186.239 201.934 210.846  1.00  0.00     0.066 CG0
ATOM     18  G   UNL     1     185.838 200.536 210.411  1.00  0.00     0.000 G0
ENDBRANCH  13  17
ENDBRANCH  11  13
ENDBRANCH  10  11
ENDBRANCH   1  10
TORSDOF 0
ENDMDL
MODEL 6
REMARK VINA RESULT:    -2.454      2.030      3.736
REMARK INTER + INTRA:          -3.369
REMARK INTER:                  -3.608
REMARK INTRA:                   0.240
REMARK UNBOUND:                 0.089
REMARK SMILES CC1=CCC(=C(C)C)C(=O)CC(C)=CCC1
REMARK SMILES IDX 12 1 14 2 13 3 15 4 16 5 2 6 1 7 3 8 11 10 9 11 10 12 5 13
REMARK SMILES IDX 6 14 7 15 8 16 4 17
REMARK H PARENT
REMARK Flexibility Score: 60.00
ROOT
ATOM      1  C   UNL     1     187.720 202.531 210.439  1.00  0.00    -0.070 C 
ATOM      2  C   UNL     1     186.382 202.331 210.418  1.00  0.00    -0.027 C 
ATOM      3  C   UNL     1     188.489 202.330 209.157  1.00  0.00     0.039 C 
ENDROOT
BRANCH   2   4
ATOM      4  C   UNL     1     185.488 202.343 211.630  1.00  0.00     0.032 C 
BRANCH   4   5
ATOM      5  C   UNL     1     185.123 200.907 212.023  1.00  0.00     0.034 C 
BRANCH   5   6
ATOM      6  C   UNL     1     185.646 199.885 211.036  1.00  0.00    -0.077 C 
ATOM      7  C   UNL     1     184.818 199.569 209.815  1.00  0.00     0.039 C 
ATOM      8  C   UNL     1     186.859 199.285 211.147  1.00  0.00    -0.023 CG0
ATOM      9  G   UNL     1     187.839 199.395 212.301  1.00  0.00     0.000 G0
ENDBRANCH   5   6
ENDBRANCH   4   5
ENDBRANCH   2   4
BRANCH   1  10
ATOM     10  C   UNL     1     188.479 202.966 211.678  1.00  0.00     0.111 C 
BRANCH  10  11
ATOM     11  C   UNL     1     188.721 201.813 212.623  1.00  0.00     0.163 C 
ATOM     12  O   UNL     1     188.678 202.065 213.857  1.00  0.00    -0.294 OA
BRANCH  11  13
ATOM     13  C   UNL     1     188.982 200.405 212.172  1.00  0.00    -0.002 C 
ATOM     14  C   UNL     1     190.242 200.015 211.805  1.00  0.00    -0.069 C 
ATOM     15  C   UNL     1     191.341 201.024 211.561  1.00  0.00     0.039 C 
ATOM     16  C   UNL     1     190.594 198.563 211.571  1.00  0.00     0.039 C 
BRANCH  13  17
ATOM     17  C   UNL     1     187.852 199.392 212.314  1.00  0.00     0.066 CG0
ATOM     18  G   UNL     1     186.878 199.298 211.153  1.00  0.00     0.000 G0
ENDBRANCH  13  17
ENDBRANCH  11  13
ENDBRANCH  10  11
ENDBRANCH   1  10
TORSDOF 0
ENDMDL
MODEL 7
REMARK VINA RESULT:    -2.451      3.784      5.747
REMARK INTER + INTRA:          -3.364
REMARK INTER:                  -3.246
REMARK INTRA:                  -0.118
REMARK UNBOUND:                 0.089
REMARK SMILES CC1=CCC(=C(C)C)C(=O)CC(C)=CCC1
REMARK SMILES IDX 12 1 14 2 13 3 15 4 16 5 2 6 1 7 3 8 11 10 9 11 10 12 5 13
REMARK SMILES IDX 6 14 7 15 8 16 4 17
REMARK H PARENT
REMARK Flexibility Score: 60.00
ROOT
ATOM      1  C   UNL     1     185.402 199.406 207.969  1.00  0.00    -0.070 C 
ATOM      2  C   UNL     1     186.407 198.587 207.584  1.00  0.00    -0.027 C 
ATOM      3  C   UNL     1     184.054 199.233 207.315  1.00  0.00     0.039 C 
ENDROOT
BRANCH   2   4
ATOM      4  C   UNL     1     187.843 198.717 208.021  1.00  0.00     0.032 C 
BRANCH   4   5
ATOM      5  C   UNL     1     188.060 197.951 209.331  1.00  0.00     0.034 C 
BRANCH   5   6
ATOM      6  C   UNL     1     188.924 198.714 210.313  1.00  0.00    -0.077 C 
ATOM      7  C   UNL     1     190.378 198.936 209.977  1.00  0.00     0.039 C 
ATOM      8  C   UNL     1     188.448 199.279 211.452  1.00  0.00    -0.023 CG0
ATOM      9  G   UNL     1     187.050 199.149 212.030  1.00  0.00     0.000 G0
ENDBRANCH   5   6
ENDBRANCH   4   5
ENDBRANCH   2   4
BRANCH   1  10
ATOM     10  C   UNL     1     185.557 200.474 209.034  1.00  0.00     0.111 C 
BRANCH  10  11
ATOM     11  C   UNL     1     185.199 199.956 210.407  1.00  0.00     0.163 C 
ATOM     12  O   UNL     1     184.156 199.255 210.501  1.00  0.00    -0.294 OA
BRANCH  11  13
ATOM     13  C   UNL     1     186.022 200.211 211.636  1.00  0.00    -0.002 C 
ATOM     14  C   UNL     1     185.748 201.280 212.446  1.00  0.00    -0.069 C 
ATOM     15  C   UNL     1     184.821 202.389 212.004  1.00  0.00     0.039 C 
ATOM     16  C   UNL     1     186.394 201.441 213.804  1.00  0.00     0.039 C 
BRANCH  13  17
ATOM     17  C   UNL     1     187.038 199.151 212.045  1.00  0.00     0.066 CG0
ATOM     18  G   UNL     1     188.427 199.277 211.443  1.00  0.00     0.000 G0
ENDBRANCH  13  17
ENDBRANCH  11  13
ENDBRANCH  10  11
ENDBRANCH   1  10
TORSDOF 0
ENDMDL
MODEL 8
REMARK VINA RESULT:    -2.439      2.655      4.555
REMARK INTER + INTRA:          -3.348
REMARK INTER:                  -3.243
REMARK INTRA:                  -0.105
REMARK UNBOUND:                 0.089
REMARK SMILES CC1=CCC(=C(C)C)C(=O)CC(C)=CCC1
REMARK SMILES IDX 12 1 14 2 13 3 15 4 16 5 2 6 1 7 3 8 11 10 9 11 10 12 5 13
REMARK SMILES IDX 6 14 7 15 8 16 4 17
REMARK H PARENT
REMARK Flexibility Score: 60.00
ROOT
ATOM      1  C   UNL     1     185.900 201.268 210.610  1.00  0.00    -0.070 C 
ATOM      2  C   UNL     1     186.141 200.225 209.783  1.00  0.00    -0.027 C 
ATOM      3  C   UNL     1     184.465 201.645 210.879  1.00  0.00     0.039 C 
ENDROOT
BRANCH   2   4
ATOM      4  C   UNL     1     187.503 199.808 209.292  1.00  0.00     0.032 C 
BRANCH   4   5
ATOM      5  C   UNL     1     187.879 198.447 209.889  1.00  0.00     0.034 C 
BRANCH   5   6
ATOM      6  C   UNL     1     189.308 198.407 210.388  1.00  0.00    -0.077 C 
ATOM      7  C   UNL     1     190.385 197.910 209.456  1.00  0.00     0.039 C 
ATOM      8  C   UNL     1     189.691 198.863 211.608  1.00  0.00    -0.023 CG0
ATOM      9  G   UNL     1     188.795 199.352 212.732  1.00  0.00     0.000 G0
ENDBRANCH   5   6
ENDBRANCH   4   5
ENDBRANCH   2   4
BRANCH   1  10
ATOM     10  C   UNL     1     186.997 202.062 211.293  1.00  0.00     0.111 C 
BRANCH  10  11
ATOM     11  C   UNL     1     187.355 201.485 212.641  1.00  0.00     0.163 C 
ATOM     12  O   UNL     1     186.471 201.535 213.538  1.00  0.00    -0.294 OA
BRANCH  11  13
ATOM     13  C   UNL     1     188.677 200.846 212.952  1.00  0.00    -0.002 C 
ATOM     14  C   UNL     1     189.676 201.570 213.543  1.00  0.00    -0.069 C 
ATOM     15  C   UNL     1     189.606 203.077 213.645  1.00  0.00     0.039 C 
ATOM     16  C   UNL     1     190.929 200.915 214.081  1.00  0.00     0.039 C 
BRANCH  13  17
ATOM     17  C   UNL     1     188.802 199.339 212.759  1.00  0.00     0.066 CG0
ATOM     18  G   UNL     1     189.690 198.874 211.618  1.00  0.00     0.000 G0
ENDBRANCH  13  17
ENDBRANCH  11  13
ENDBRANCH  10  11
ENDBRANCH   1  10
TORSDOF 0
ENDMDL
MODEL 9
REMARK VINA RESULT:    -2.413      3.296      5.374
REMARK INTER + INTRA:          -3.311
REMARK INTER:                  -3.156
REMARK INTRA:                  -0.156
REMARK UNBOUND:                 0.089
REMARK SMILES CC1=CCC(=C(C)C)C(=O)CC(C)=CCC1
REMARK SMILES IDX 12 1 14 2 13 3 15 4 16 5 2 6 1 7 3 8 11 10 9 11 10 12 5 13
REMARK SMILES IDX 6 14 7 15 8 16 4 17
REMARK H PARENT
REMARK Flexibility Score: 60.00
ROOT
ATOM      1  C   UNL     1     186.038 198.260 209.686  1.00  0.00    -0.070 C 
ATOM      2  C   UNL     1     186.489 196.985 209.683  1.00  0.00    -0.027 C 
ATOM      3  C   UNL     1     184.621 198.512 209.234  1.00  0.00     0.039 C 
ENDROOT
BRANCH   2   4
ATOM      4  C   UNL     1     187.912 196.573 209.960  1.00  0.00     0.032 C 
BRANCH   4   5
ATOM      5  C   UNL     1     188.089 196.283 211.455  1.00  0.00     0.034 C 
BRANCH   5   6
ATOM      6  C   UNL     1     189.385 196.842 212.005  1.00  0.00    -0.077 C 
ATOM      7  C   UNL     1     190.682 196.179 211.614  1.00  0.00     0.039 C 
ATOM      8  C   UNL     1     189.455 197.957 212.777  1.00  0.00    -0.023 CG0
ATOM      9  G   UNL     1     188.297 198.759 213.344  1.00  0.00     0.000 G0
ENDBRANCH   5   6
ENDBRANCH   4   5
ENDBRANCH   2   4
BRANCH   1  10
ATOM     10  C   UNL     1     186.875 199.441 210.137  1.00  0.00     0.111 C 
BRANCH  10  11
ATOM     11  C   UNL     1     186.672 199.748 211.601  1.00  0.00     0.163 C 
ATOM     12  O   UNL     1     185.484 199.804 212.016  1.00  0.00    -0.294 OA
BRANCH  11  13
ATOM     13  C   UNL     1     187.797 199.963 212.572  1.00  0.00    -0.002 C 
ATOM     14  C   UNL     1     188.242 201.227 212.851  1.00  0.00    -0.069 C 
ATOM     15  C   UNL     1     187.836 202.412 212.005  1.00  0.00     0.039 C 
ATOM     16  C   UNL     1     189.204 201.505 213.985  1.00  0.00     0.039 C 
BRANCH  13  17
ATOM     17  C   UNL     1     188.293 198.759 213.365  1.00  0.00     0.066 CG0
ATOM     18  G   UNL     1     189.446 197.978 212.759  1.00  0.00     0.000 G0
ENDBRANCH  13  17
ENDBRANCH  11  13
ENDBRANCH  10  11
ENDBRANCH   1  10
TORSDOF 0
ENDMDL
