MODEL 1
REMARK VINA RESULT:    -5.829      0.000      0.000
REMARK INTER + INTRA:          -9.393
REMARK INTER:                  -8.214
REMARK INTRA:                  -1.179
REMARK UNBOUND:                -1.179
REMARK SMILES O=c1cc(-c2ccc(O)c(O)c2)oc2cc(O)c([C@H]3O[C@@H](CO)[C@@H](O)[C@@H](O)[C@H]3O)c(O)c12
REMARK SMILES IDX 4 1 3 2 2 3 1 4 32 5 14 6 13 7 15 8 16 9 18 10 30 11 5 12
REMARK SMILES IDX 6 13 7 14 8 15 12 16 10 17 9 18 11 20 31 22 17 24 19 26
REMARK SMILES IDX 28 27 20 28 26 29 21 30 24 31 29 32 27 34 22 36 23 37 25 39
REMARK H PARENT 9 19 11 21 31 23 17 25 29 33 27 35 23 38 25 40
REMARK Flexibility Score: inf
ROOT
ATOM      1  C   UNL     1      46.879 112.195  52.265  1.00  0.00     0.138 A 
ATOM      2  C   UNL     1      46.272 111.872  53.487  1.00  0.00     0.100 A 
ATOM      3  C   UNL     1      47.058 111.399  54.539  1.00  0.00     0.197 A 
ATOM      4  O   UNL     1      46.498 111.112  55.633  1.00  0.00    -0.289 OA
ATOM      5  C   UNL     1      48.452 111.254  54.361  1.00  0.00     0.107 A 
ATOM      6  C   UNL     1      48.986 111.614  53.105  1.00  0.00     0.146 A 
ATOM      7  O   UNL     1      48.195 112.059  52.134  1.00  0.00    -0.456 OA
ATOM      8  C   UNL     1      50.352 111.515  52.870  1.00  0.00     0.094 A 
ATOM      9  C   UNL     1      51.217 111.037  53.857  1.00  0.00     0.128 A 
ATOM     10  C   UNL     1      50.709 110.621  55.113  1.00  0.00     0.068 A 
ATOM     11  C   UNL     1      49.319 110.787  55.382  1.00  0.00     0.140 A 
ENDROOT
BRANCH   1  12
ATOM     12  C   UNL     1      46.095 112.702  51.110  1.00  0.00     0.021 A 
ATOM     13  C   UNL     1      44.686 112.692  51.110  1.00  0.00     0.016 A 
ATOM     14  C   UNL     1      43.975 113.167  50.006  1.00  0.00     0.051 A 
ATOM     15  C   UNL     1      44.654 113.650  48.880  1.00  0.00     0.157 A 
ATOM     16  C   UNL     1      46.769 113.177  49.971  1.00  0.00     0.062 A 
ATOM     17  C   UNL     1      46.058 113.653  48.864  1.00  0.00     0.158 A 
BRANCH  15  18
ATOM     18  O   UNL     1      43.940 114.125  47.780  1.00  0.00    -0.504 OA
ATOM     19  H   UNL     1      43.930 115.110  47.540  1.00  0.00     0.293 HD
ENDBRANCH  15  18
BRANCH  17  20
ATOM     20  O   UNL     1      46.764 114.125  47.757  1.00  0.00    -0.504 OA
ATOM     21  H   UNL     1      46.341 114.736  47.069  1.00  0.00     0.293 HD
ENDBRANCH  17  20
ENDBRANCH   1  12
BRANCH  11  22
ATOM     22  O   UNL     1      48.782 110.514  56.646  1.00  0.00    -0.506 OA
ATOM     23  H   UNL     1      48.147 111.121  57.145  1.00  0.00     0.293 HD
ENDBRANCH  11  22
BRANCH   9  24
ATOM     24  O   UNL     1      52.584 110.987  53.587  1.00  0.00    -0.507 OA
ATOM     25  H   UNL     1      53.279 111.169  54.302  1.00  0.00     0.293 HD
ENDBRANCH   9  24
BRANCH  10  26
ATOM     26  C   UNL     1      51.651 110.048  56.172  1.00  0.00     0.188 C 
ATOM     27  C   UNL     1      52.275 111.183  57.022  1.00  0.00     0.179 C 
ATOM     28  O   UNL     1      52.664 109.257  55.566  1.00  0.00    -0.362 OA
ATOM     29  C   UNL     1      53.222 110.573  58.074  1.00  0.00     0.177 C 
ATOM     30  C   UNL     1      53.436 108.583  56.548  1.00  0.00     0.176 C 
ATOM     31  C   UNL     1      54.217 109.598  57.415  1.00  0.00     0.177 C 
BRANCH  27  32
ATOM     32  O   UNL     1      52.990 112.078  56.205  1.00  0.00    -0.387 OA
ATOM     33  H   UNL     1      52.733 112.996  56.482  1.00  0.00     0.211 HD
ENDBRANCH  27  32
BRANCH  29  34
ATOM     34  O   UNL     1      53.921 111.584  58.755  1.00  0.00    -0.387 OA
ATOM     35  H   UNL     1      53.896 111.349  59.719  1.00  0.00     0.211 HD
ENDBRANCH  29  34
BRANCH  30  36
ATOM     36  C   UNL     1      54.379 107.600  55.836  1.00  0.00     0.191 C 
BRANCH  36  37
ATOM     37  O   UNL     1      54.743 108.078  54.569  1.00  0.00    -0.394 OA
ATOM     38  H   UNL     1      54.895 109.054  54.666  1.00  0.00     0.210 HD
ENDBRANCH  36  37
ENDBRANCH  30  36
BRANCH  31  39
ATOM     39  O   UNL     1      55.138 110.300  56.616  1.00  0.00    -0.388 OA
ATOM     40  H   UNL     1      54.638 111.038  56.179  1.00  0.00     0.211 HD
ENDBRANCH  31  39
ENDBRANCH  10  26
TORSDOF 11
ENDMDL
MODEL 2
REMARK VINA RESULT:    -5.747     15.292     16.499
REMARK INTER + INTRA:          -9.278
REMARK INTER:                  -8.212
REMARK INTRA:                  -1.066
REMARK UNBOUND:                -1.179
REMARK SMILES O=c1cc(-c2ccc(O)c(O)c2)oc2cc(O)c([C@H]3O[C@@H](CO)[C@@H](O)[C@@H](O)[C@H]3O)c(O)c12
REMARK SMILES IDX 4 1 3 2 2 3 1 4 32 5 14 6 13 7 15 8 16 9 18 10 30 11 5 12
REMARK SMILES IDX 6 13 7 14 8 15 12 16 10 17 9 18 11 20 31 22 17 24 19 26
REMARK SMILES IDX 28 27 20 28 26 29 21 30 24 31 29 32 27 34 22 36 23 37 25 39
REMARK H PARENT 9 19 11 21 31 23 17 25 29 33 27 35 23 38 25 40
REMARK Flexibility Score: inf
ROOT
ATOM      1  C   UNL     1      56.645  98.352  56.945  1.00  0.00     0.138 A 
ATOM      2  C   UNL     1      57.372  99.216  57.776  1.00  0.00     0.100 A 
ATOM      3  C   UNL     1      58.501  99.864  57.272  1.00  0.00     0.197 A 
ATOM      4  O   UNL     1      59.145 100.638  58.031  1.00  0.00    -0.289 OA
ATOM      5  C   UNL     1      58.895  99.642  55.933  1.00  0.00     0.107 A 
ATOM      6  C   UNL     1      58.102  98.768  55.161  1.00  0.00     0.146 A 
ATOM      7  O   UNL     1      57.035  98.174  55.686  1.00  0.00    -0.456 OA
ATOM      8  C   UNL     1      58.423  98.522  53.831  1.00  0.00     0.094 A 
ATOM      9  C   UNL     1      59.544  99.112  53.242  1.00  0.00     0.128 A 
ATOM     10  C   UNL     1      60.390  99.956  54.003  1.00  0.00     0.068 A 
ATOM     11  C   UNL     1      60.026 100.266  55.346  1.00  0.00     0.140 A 
ENDROOT
BRANCH   1  12
ATOM     12  C   UNL     1      55.436  97.635  57.425  1.00  0.00     0.021 A 
ATOM     13  C   UNL     1      55.125  97.543  58.796  1.00  0.00     0.016 A 
ATOM     14  C   UNL     1      53.986  96.854  59.220  1.00  0.00     0.051 A 
ATOM     15  C   UNL     1      53.143  96.239  58.286  1.00  0.00     0.157 A 
ATOM     16  C   UNL     1      54.591  97.002  56.495  1.00  0.00     0.062 A 
ATOM     17  C   UNL     1      53.449  96.313  56.918  1.00  0.00     0.158 A 
BRANCH  15  18
ATOM     18  O   UNL     1      52.006  95.554  58.712  1.00  0.00    -0.504 OA
ATOM     19  H   UNL     1      52.056  94.837  59.427  1.00  0.00     0.293 HD
ENDBRANCH  15  18
BRANCH  17  20
ATOM     20  O   UNL     1      52.632  95.707  55.962  1.00  0.00    -0.504 OA
ATOM     21  H   UNL     1      51.820  96.173  55.577  1.00  0.00     0.293 HD
ENDBRANCH  17  20
ENDBRANCH   1  12
BRANCH  11  22
ATOM     22  O   UNL     1      60.751 101.193  56.105  1.00  0.00    -0.506 OA
ATOM     23  H   UNL     1      61.720 101.089  56.369  1.00  0.00     0.293 HD
ENDBRANCH  11  22
BRANCH   9  24
ATOM     24  O   UNL     1      59.807  98.863  51.896  1.00  0.00    -0.507 OA
ATOM     25  H   UNL     1      60.727  99.003  51.494  1.00  0.00     0.293 HD
ENDBRANCH   9  24
BRANCH  10  26
ATOM     26  C   UNL     1      61.646 100.558  53.372  1.00  0.00     0.188 C 
ATOM     27  C   UNL     1      61.361 101.983  52.836  1.00  0.00     0.179 C 
ATOM     28  O   UNL     1      62.137  99.718  52.336  1.00  0.00    -0.362 OA
ATOM     29  C   UNL     1      62.642 102.557  52.201  1.00  0.00     0.177 C 
ATOM     30  C   UNL     1      63.393 100.178  51.863  1.00  0.00     0.176 C 
ATOM     31  C   UNL     1      63.246 101.563  51.190  1.00  0.00     0.177 C 
BRANCH  27  32
ATOM     32  O   UNL     1      60.332 101.955  51.876  1.00  0.00    -0.387 OA
ATOM     33  H   UNL     1      60.181 102.891  51.581  1.00  0.00     0.211 HD
ENDBRANCH  27  32
BRANCH  29  34
ATOM     34  O   UNL     1      62.375 103.782  51.568  1.00  0.00    -0.387 OA
ATOM     35  H   UNL     1      63.225 104.295  51.567  1.00  0.00     0.211 HD
ENDBRANCH  29  34
BRANCH  30  36
ATOM     36  C   UNL     1      63.962  99.132  50.891  1.00  0.00     0.191 C 
BRANCH  36  37
ATOM     37  O   UNL     1      63.030  98.814  49.892  1.00  0.00    -0.394 OA
ATOM     38  H   UNL     1      62.221  99.359  50.074  1.00  0.00     0.210 HD
ENDBRANCH  36  37
ENDBRANCH  30  36
BRANCH  31  39
ATOM     39  O   UNL     1      62.422 101.456  50.054  1.00  0.00    -0.388 OA
ATOM     40  H   UNL     1      61.820 102.245  50.058  1.00  0.00     0.211 HD
ENDBRANCH  31  39
ENDBRANCH  10  26
TORSDOF 11
ENDMDL
MODEL 3
REMARK VINA RESULT:    -5.419      4.062      5.931
REMARK INTER + INTRA:          -8.815
REMARK INTER:                  -7.646
REMARK INTRA:                  -1.169
REMARK UNBOUND:                -1.179
REMARK SMILES O=c1cc(-c2ccc(O)c(O)c2)oc2cc(O)c([C@H]3O[C@@H](CO)[C@@H](O)[C@@H](O)[C@H]3O)c(O)c12
REMARK SMILES IDX 4 1 3 2 2 3 1 4 32 5 14 6 13 7 15 8 16 9 18 10 30 11 5 12
REMARK SMILES IDX 6 13 7 14 8 15 12 16 10 17 9 18 11 20 31 22 17 24 19 26
REMARK SMILES IDX 28 27 20 28 26 29 21 30 24 31 29 32 27 34 22 36 23 37 25 39
REMARK H PARENT 9 19 11 21 31 23 17 25 29 33 27 35 23 38 25 40
REMARK Flexibility Score: inf
ROOT
ATOM      1  C   UNL     1      49.820 108.175  53.687  1.00  0.00     0.138 A 
ATOM      2  C   UNL     1      49.289 109.473  53.704  1.00  0.00     0.100 A 
ATOM      3  C   UNL     1      50.071 110.528  54.175  1.00  0.00     0.197 A 
ATOM      4  O   UNL     1      49.580 111.690  54.184  1.00  0.00    -0.289 OA
ATOM      5  C   UNL     1      51.386 110.277  54.627  1.00  0.00     0.107 A 
ATOM      6  C   UNL     1      51.849 108.945  54.566  1.00  0.00     0.146 A 
ATOM      7  O   UNL     1      51.065 107.974  54.108  1.00  0.00    -0.456 OA
ATOM      8  C   UNL     1      53.139 108.633  54.976  1.00  0.00     0.094 A 
ATOM      9  C   UNL     1      53.991 109.619  55.478  1.00  0.00     0.128 A 
ATOM     10  C   UNL     1      53.543 110.958  55.600  1.00  0.00     0.068 A 
ATOM     11  C   UNL     1      52.245 111.295  55.115  1.00  0.00     0.140 A 
ENDROOT
BRANCH   1  12
ATOM     12  C   UNL     1      49.035 107.013  53.197  1.00  0.00     0.021 A 
ATOM     13  C   UNL     1      47.636 106.949  53.347  1.00  0.00     0.016 A 
ATOM     14  C   UNL     1      46.925 105.838  52.885  1.00  0.00     0.051 A 
ATOM     15  C   UNL     1      47.597 104.771  52.275  1.00  0.00     0.157 A 
ATOM     16  C   UNL     1      49.703 105.931  52.596  1.00  0.00     0.062 A 
ATOM     17  C   UNL     1      48.992 104.819  52.132  1.00  0.00     0.158 A 
BRANCH  15  18
ATOM     18  O   UNL     1      46.883 103.665  51.813  1.00  0.00    -0.504 OA
ATOM     19  H   UNL     1      47.353 102.855  51.425  1.00  0.00     0.293 HD
ENDBRANCH  15  18
BRANCH  17  20
ATOM     20  O   UNL     1      49.692 103.771  51.532  1.00  0.00    -0.504 OA
ATOM     21  H   UNL     1      50.308 103.918  50.742  1.00  0.00     0.293 HD
ENDBRANCH  17  20
ENDBRANCH   1  12
BRANCH  11  22
ATOM     22  O   UNL     1      51.795 112.621  55.091  1.00  0.00    -0.506 OA
ATOM     23  H   UNL     1      52.377 113.423  54.894  1.00  0.00     0.293 HD
ENDBRANCH  11  22
BRANCH   9  24
ATOM     24  O   UNL     1      55.289 109.264  55.845  1.00  0.00    -0.507 OA
ATOM     25  H   UNL     1      55.984 109.958  56.096  1.00  0.00     0.293 HD
ENDBRANCH   9  24
BRANCH  10  26
ATOM     26  C   UNL     1      54.458 112.025  56.200  1.00  0.00     0.188 C 
ATOM     27  C   UNL     1      55.393 112.617  55.115  1.00  0.00     0.179 C 
ATOM     28  O   UNL     1      55.214 111.489  57.277  1.00  0.00    -0.362 OA
ATOM     29  C   UNL     1      56.306 113.682  55.752  1.00  0.00     0.177 C 
ATOM     30  C   UNL     1      55.934 112.510  57.948  1.00  0.00     0.176 C 
ATOM     31  C   UNL     1      56.999 113.128  57.012  1.00  0.00     0.177 C 
BRANCH  27  32
ATOM     32  O   UNL     1      56.182 111.606  54.535  1.00  0.00    -0.387 OA
ATOM     33  H   UNL     1      55.704 110.747  54.673  1.00  0.00     0.211 HD
ENDBRANCH  27  32
BRANCH  29  34
ATOM     34  O   UNL     1      57.268 114.125  54.830  1.00  0.00    -0.387 OA
ATOM     35  H   UNL     1      56.917 114.961  54.428  1.00  0.00     0.211 HD
ENDBRANCH  29  34
BRANCH  30  36
ATOM     36  C   UNL     1      56.571 111.908  59.212  1.00  0.00     0.191 C 
BRANCH  36  37
ATOM     37  O   UNL     1      56.938 110.571  59.003  1.00  0.00    -0.394 OA
ATOM     38  H   UNL     1      57.907 110.506  59.211  1.00  0.00     0.210 HD
ENDBRANCH  36  37
ENDBRANCH  30  36
BRANCH  31  39
ATOM     39  O   UNL     1      57.949 112.152  56.660  1.00  0.00    -0.388 OA
ATOM     40  H   UNL     1      58.403 111.875  57.498  1.00  0.00     0.211 HD
ENDBRANCH  31  39
ENDBRANCH  10  26
TORSDOF 11
ENDMDL
MODEL 4
REMARK VINA RESULT:    -5.404      3.617      5.234
REMARK INTER + INTRA:          -8.795
REMARK INTER:                  -7.593
REMARK INTRA:                  -1.202
REMARK UNBOUND:                -1.179
REMARK SMILES O=c1cc(-c2ccc(O)c(O)c2)oc2cc(O)c([C@H]3O[C@@H](CO)[C@@H](O)[C@@H](O)[C@H]3O)c(O)c12
REMARK SMILES IDX 4 1 3 2 2 3 1 4 32 5 14 6 13 7 15 8 16 9 18 10 30 11 5 12
REMARK SMILES IDX 6 13 7 14 8 15 12 16 10 17 9 18 11 20 31 22 17 24 19 26
REMARK SMILES IDX 28 27 20 28 26 29 21 30 24 31 29 32 27 34 22 36 23 37 25 39
REMARK H PARENT 9 19 11 21 31 23 17 25 29 33 27 35 23 38 25 40
REMARK Flexibility Score: inf
ROOT
ATOM      1  C   UNL     1      52.348 113.224  49.317  1.00  0.00     0.138 A 
ATOM      2  C   UNL     1      53.643 113.631  49.668  1.00  0.00     0.100 A 
ATOM      3  C   UNL     1      54.099 113.421  50.971  1.00  0.00     0.197 A 
ATOM      4  O   UNL     1      55.266 113.793  51.271  1.00  0.00    -0.289 OA
ATOM      5  C   UNL     1      53.253 112.800  51.917  1.00  0.00     0.107 A 
ATOM      6  C   UNL     1      51.970 112.409  51.480  1.00  0.00     0.146 A 
ATOM      7  O   UNL     1      51.581 112.631  50.228  1.00  0.00    -0.456 OA
ATOM      8  C   UNL     1      51.095 111.775  52.354  1.00  0.00     0.094 A 
ATOM      9  C   UNL     1      51.456 111.537  53.682  1.00  0.00     0.128 A 
ATOM     10  C   UNL     1      52.718 111.960  54.168  1.00  0.00     0.068 A 
ATOM     11  C   UNL     1      53.644 112.547  53.256  1.00  0.00     0.140 A 
ENDROOT
BRANCH   1  12
ATOM     12  C   UNL     1      51.808 113.421  47.948  1.00  0.00     0.021 A 
ATOM     13  C   UNL     1      52.640 113.386  46.812  1.00  0.00     0.016 A 
ATOM     14  C   UNL     1      52.106 113.584  45.537  1.00  0.00     0.051 A 
ATOM     15  C   UNL     1      50.736 113.828  45.372  1.00  0.00     0.157 A 
ATOM     16  C   UNL     1      50.436 113.679  47.775  1.00  0.00     0.062 A 
ATOM     17  C   UNL     1      49.900 113.877  46.498  1.00  0.00     0.158 A 
BRANCH  15  18
ATOM     18  O   UNL     1      50.207 114.023  44.097  1.00  0.00    -0.504 OA
ATOM     19  H   UNL     1      50.805 114.139  43.287  1.00  0.00     0.293 HD
ENDBRANCH  15  18
BRANCH  17  20
ATOM     20  O   UNL     1      48.532 114.122  46.369  1.00  0.00    -0.504 OA
ATOM     21  H   UNL     1      47.997 113.782  45.579  1.00  0.00     0.293 HD
ENDBRANCH  17  20
ENDBRANCH   1  12
BRANCH  11  22
ATOM     22  O   UNL     1      54.950 112.868  53.647  1.00  0.00    -0.506 OA
ATOM     23  H   UNL     1      55.317 113.807  53.711  1.00  0.00     0.293 HD
ENDBRANCH  11  22
BRANCH   9  24
ATOM     24  O   UNL     1      50.558 110.867  54.513  1.00  0.00    -0.507 OA
ATOM     25  H   UNL     1      50.765 109.953  54.901  1.00  0.00     0.293 HD
ENDBRANCH   9  24
BRANCH  10  26
ATOM     26  C   UNL     1      53.089 111.746  55.635  1.00  0.00     0.188 C 
ATOM     27  C   UNL     1      52.768 113.010  56.472  1.00  0.00     0.179 C 
ATOM     28  O   UNL     1      54.461 111.396  55.758  1.00  0.00    -0.362 OA
ATOM     29  C   UNL     1      53.160 112.764  57.941  1.00  0.00     0.177 C 
ATOM     30  C   UNL     1      54.772 111.028  57.092  1.00  0.00     0.176 C 
ATOM     31  C   UNL     1      54.605 112.237  58.042  1.00  0.00     0.177 C 
BRANCH  27  32
ATOM     32  O   UNL     1      53.470 114.124  55.976  1.00  0.00    -0.387 OA
ATOM     33  H   UNL     1      52.898 114.921  56.125  1.00  0.00     0.211 HD
ENDBRANCH  27  32
BRANCH  29  34
ATOM     34  O   UNL     1      53.027 113.943  58.693  1.00  0.00    -0.387 OA
ATOM     35  H   UNL     1      52.070 114.013  58.948  1.00  0.00     0.211 HD
ENDBRANCH  29  34
BRANCH  30  36
ATOM     36  C   UNL     1      56.207 110.476  57.124  1.00  0.00     0.191 C 
BRANCH  36  37
ATOM     37  O   UNL     1      56.953 110.948  56.035  1.00  0.00    -0.394 OA
ATOM     38  H   UNL     1      57.129 110.166  55.450  1.00  0.00     0.210 HD
ENDBRANCH  36  37
ENDBRANCH  30  36
BRANCH  31  39
ATOM     39  O   UNL     1      55.522 113.246  57.697  1.00  0.00    -0.388 OA
ATOM     40  H   UNL     1      55.510 113.321  56.707  1.00  0.00     0.211 HD
ENDBRANCH  31  39
ENDBRANCH  10  26
TORSDOF 11
ENDMDL
MODEL 5
REMARK VINA RESULT:    -5.244      4.694      6.293
REMARK INTER + INTRA:          -8.569
REMARK INTER:                  -7.414
REMARK INTRA:                  -1.155
REMARK UNBOUND:                -1.179
REMARK SMILES O=c1cc(-c2ccc(O)c(O)c2)oc2cc(O)c([C@H]3O[C@@H](CO)[C@@H](O)[C@@H](O)[C@H]3O)c(O)c12
REMARK SMILES IDX 4 1 3 2 2 3 1 4 32 5 14 6 13 7 15 8 16 9 18 10 30 11 5 12
REMARK SMILES IDX 6 13 7 14 8 15 12 16 10 17 9 18 11 20 31 22 17 24 19 26
REMARK SMILES IDX 28 27 20 28 26 29 21 30 24 31 29 32 27 34 22 36 23 37 25 39
REMARK H PARENT 9 19 11 21 31 23 17 25 29 33 27 35 23 38 25 40
REMARK Flexibility Score: inf
ROOT
ATOM      1  C   UNL     1      52.384 112.598  52.350  1.00  0.00     0.138 A 
ATOM      2  C   UNL     1      52.128 113.495  53.396  1.00  0.00     0.100 A 
ATOM      3  C   UNL     1      51.370 113.074  54.490  1.00  0.00     0.197 A 
ATOM      4  O   UNL     1      51.148 113.893  55.424  1.00  0.00    -0.289 OA
ATOM      5  C   UNL     1      50.873 111.752  54.531  1.00  0.00     0.107 A 
ATOM      6  C   UNL     1      51.186 110.909  53.443  1.00  0.00     0.146 A 
ATOM      7  O   UNL     1      51.912 111.356  52.424  1.00  0.00    -0.456 OA
ATOM      8  C   UNL     1      50.745 109.591  53.429  1.00  0.00     0.094 A 
ATOM      9  C   UNL     1      49.966 109.084  54.472  1.00  0.00     0.128 A 
ATOM     10  C   UNL     1      49.592 109.917  55.556  1.00  0.00     0.068 A 
ATOM     11  C   UNL     1      50.101 111.248  55.608  1.00  0.00     0.140 A 
ENDROOT
BRANCH   1  12
ATOM     12  C   UNL     1      53.184 112.987  51.160  1.00  0.00     0.021 A 
ATOM     13  C   UNL     1      54.352 113.765  51.277  1.00  0.00     0.016 A 
ATOM     14  C   UNL     1      55.079 114.125  50.139  1.00  0.00     0.051 A 
ATOM     15  C   UNL     1      54.650 113.724  48.868  1.00  0.00     0.157 A 
ATOM     16  C   UNL     1      52.752 112.600  49.879  1.00  0.00     0.062 A 
ATOM     17  C   UNL     1      53.480 112.959  48.739  1.00  0.00     0.158 A 
BRANCH  15  18
ATOM     18  O   UNL     1      55.380 114.083  47.735  1.00  0.00    -0.504 OA
ATOM     19  H   UNL     1      55.389 113.503  46.905  1.00  0.00     0.293 HD
ENDBRANCH  15  18
BRANCH  17  20
ATOM     20  O   UNL     1      53.023 112.547  47.486  1.00  0.00    -0.504 OA
ATOM     21  H   UNL     1      52.185 112.930  47.067  1.00  0.00     0.293 HD
ENDBRANCH  17  20
ENDBRANCH   1  12
BRANCH  11  22
ATOM     22  O   UNL     1      49.871 112.076  56.714  1.00  0.00    -0.506 OA
ATOM     23  H   UNL     1      49.806 113.083  56.677  1.00  0.00     0.293 HD
ENDBRANCH  11  22
BRANCH   9  24
ATOM     24  O   UNL     1      49.575 107.746  54.431  1.00  0.00    -0.507 OA
ATOM     25  H   UNL     1      49.110 107.299  55.214  1.00  0.00     0.293 HD
ENDBRANCH   9  24
BRANCH  10  26
ATOM     26  C   UNL     1      48.695 109.375  56.669  1.00  0.00     0.188 C 
ATOM     27  C   UNL     1      49.547 108.779  57.817  1.00  0.00     0.179 C 
ATOM     28  O   UNL     1      47.791 108.406  56.157  1.00  0.00    -0.362 OA
ATOM     29  C   UNL     1      48.615 108.236  58.918  1.00  0.00     0.177 C 
ATOM     30  C   UNL     1      46.844 108.027  57.142  1.00  0.00     0.176 C 
ATOM     31  C   UNL     1      47.543 107.305  58.318  1.00  0.00     0.177 C 
BRANCH  27  32
ATOM     32  O   UNL     1      50.366 107.739  57.338  1.00  0.00    -0.387 OA
ATOM     33  H   UNL     1      49.903 107.339  56.556  1.00  0.00     0.211 HD
ENDBRANCH  27  32
BRANCH  29  34
ATOM     34  O   UNL     1      49.353 107.550  59.896  1.00  0.00    -0.387 OA
ATOM     35  H   UNL     1      50.082 107.072  59.423  1.00  0.00     0.211 HD
ENDBRANCH  29  34
BRANCH  30  36
ATOM     36  C   UNL     1      45.782 107.133  56.480  1.00  0.00     0.191 C 
BRANCH  36  37
ATOM     37  O   UNL     1      46.370 106.237  55.575  1.00  0.00    -0.394 OA
ATOM     38  H   UNL     1      46.221 105.326  55.940  1.00  0.00     0.210 HD
ENDBRANCH  36  37
ENDBRANCH  30  36
BRANCH  31  39
ATOM     39  O   UNL     1      48.128 106.109  57.864  1.00  0.00    -0.388 OA
ATOM     40  H   UNL     1      47.506 105.718  57.197  1.00  0.00     0.211 HD
ENDBRANCH  31  39
ENDBRANCH  10  26
TORSDOF 11
ENDMDL
MODEL 6
REMARK VINA RESULT:    -5.224     15.146     16.872
REMARK INTER + INTRA:          -8.540
REMARK INTER:                  -7.475
REMARK INTRA:                  -1.065
REMARK UNBOUND:                -1.179
REMARK SMILES O=c1cc(-c2ccc(O)c(O)c2)oc2cc(O)c([C@H]3O[C@@H](CO)[C@@H](O)[C@@H](O)[C@H]3O)c(O)c12
REMARK SMILES IDX 4 1 3 2 2 3 1 4 32 5 14 6 13 7 15 8 16 9 18 10 30 11 5 12
REMARK SMILES IDX 6 13 7 14 8 15 12 16 10 17 9 18 11 20 31 22 17 24 19 26
REMARK SMILES IDX 28 27 20 28 26 29 21 30 24 31 29 32 27 34 22 36 23 37 25 39
REMARK H PARENT 9 19 11 21 31 23 17 25 29 33 27 35 23 38 25 40
REMARK Flexibility Score: inf
ROOT
ATOM      1  C   UNL     1      56.601  97.159  56.202  1.00  0.00     0.138 A 
ATOM      2  C   UNL     1      57.671  96.700  56.983  1.00  0.00     0.100 A 
ATOM      3  C   UNL     1      58.974  97.074  56.648  1.00  0.00     0.197 A 
ATOM      4  O   UNL     1      59.926  96.653  57.360  1.00  0.00    -0.289 OA
ATOM      5  C   UNL     1      59.197  97.908  55.530  1.00  0.00     0.107 A 
ATOM      6  C   UNL     1      58.065  98.336  54.805  1.00  0.00     0.146 A 
ATOM      7  O   UNL     1      56.843  97.953  55.163  1.00  0.00    -0.456 OA
ATOM      8  C   UNL     1      58.213  99.175  53.707  1.00  0.00     0.094 A 
ATOM      9  C   UNL     1      59.478  99.589  53.286  1.00  0.00     0.128 A 
ATOM     10  C   UNL     1      60.640  99.139  53.961  1.00  0.00     0.068 A 
ATOM     11  C   UNL     1      60.488  98.336  55.129  1.00  0.00     0.140 A 
ENDROOT
BRANCH   1  12
ATOM     12  C   UNL     1      55.193  96.795  56.508  1.00  0.00     0.021 A 
ATOM     13  C   UNL     1      54.645  95.560  56.110  1.00  0.00     0.016 A 
ATOM     14  C   UNL     1      53.315  95.249  56.404  1.00  0.00     0.051 A 
ATOM     15  C   UNL     1      52.508  96.165  57.091  1.00  0.00     0.157 A 
ATOM     16  C   UNL     1      54.373  97.715  57.186  1.00  0.00     0.062 A 
ATOM     17  C   UNL     1      53.041  97.404  57.482  1.00  0.00     0.158 A 
BRANCH  15  18
ATOM     18  O   UNL     1      51.182  95.850  57.385  1.00  0.00    -0.504 OA
ATOM     19  H   UNL     1      50.942  95.051  57.961  1.00  0.00     0.293 HD
ENDBRANCH  15  18
BRANCH  17  20
ATOM     20  O   UNL     1      52.263  98.340  58.164  1.00  0.00    -0.504 OA
ATOM     21  H   UNL     1      52.231  98.377  59.176  1.00  0.00     0.293 HD
ENDBRANCH  17  20
ENDBRANCH   1  12
BRANCH  11  22
ATOM     22  O   UNL     1      61.591  97.967  55.911  1.00  0.00    -0.506 OA
ATOM     23  H   UNL     1      61.682  98.150  56.900  1.00  0.00     0.293 HD
ENDBRANCH  11  22
BRANCH   9  24
ATOM     24  O   UNL     1      59.575 100.459  52.199  1.00  0.00    -0.507 OA
ATOM     25  H   UNL     1      60.214 101.246  52.198  1.00  0.00     0.293 HD
ENDBRANCH   9  24
BRANCH  10  26
ATOM     26  C   UNL     1      62.027  99.550  53.465  1.00  0.00     0.188 C 
ATOM     27  C   UNL     1      62.386 100.973  53.963  1.00  0.00     0.179 C 
ATOM     28  O   UNL     1      62.093  99.481  52.048  1.00  0.00    -0.362 OA
ATOM     29  C   UNL     1      63.784 101.359  53.441  1.00  0.00     0.177 C 
ATOM     30  C   UNL     1      63.419  99.692  51.592  1.00  0.00     0.176 C 
ATOM     31  C   UNL     1      63.884 101.130  51.921  1.00  0.00     0.177 C 
BRANCH  27  32
ATOM     32  O   UNL     1      61.439 101.910  53.511  1.00  0.00    -0.387 OA
ATOM     33  H   UNL     1      61.742 102.227  52.620  1.00  0.00     0.211 HD
ENDBRANCH  27  32
BRANCH  29  34
ATOM     34  O   UNL     1      64.071 102.700  53.744  1.00  0.00    -0.387 OA
ATOM     35  H   UNL     1      64.561 102.700  54.607  1.00  0.00     0.211 HD
ENDBRANCH  29  34
BRANCH  30  36
ATOM     36  C   UNL     1      63.466  99.413  50.080  1.00  0.00     0.191 C 
BRANCH  36  37
ATOM     37  O   UNL     1      62.247  99.742  49.469  1.00  0.00    -0.394 OA
ATOM     38  H   UNL     1      61.617  99.976  50.200  1.00  0.00     0.210 HD
ENDBRANCH  36  37
ENDBRANCH  30  36
BRANCH  31  39
ATOM     39  O   UNL     1      63.086 102.059  51.229  1.00  0.00    -0.388 OA
ATOM     40  H   UNL     1      63.672 102.824  50.991  1.00  0.00     0.211 HD
ENDBRANCH  31  39
ENDBRANCH  10  26
TORSDOF 11
ENDMDL
MODEL 7
REMARK VINA RESULT:    -5.169      2.825      9.025
REMARK INTER + INTRA:          -8.462
REMARK INTER:                  -7.254
REMARK INTRA:                  -1.209
REMARK UNBOUND:                -1.179
REMARK SMILES O=c1cc(-c2ccc(O)c(O)c2)oc2cc(O)c([C@H]3O[C@@H](CO)[C@@H](O)[C@@H](O)[C@H]3O)c(O)c12
REMARK SMILES IDX 4 1 3 2 2 3 1 4 32 5 14 6 13 7 15 8 16 9 18 10 30 11 5 12
REMARK SMILES IDX 6 13 7 14 8 15 12 16 10 17 9 18 11 20 31 22 17 24 19 26
REMARK SMILES IDX 28 27 20 28 26 29 21 30 24 31 29 32 27 34 22 36 23 37 25 39
REMARK H PARENT 9 19 11 21 31 23 17 25 29 33 27 35 23 38 25 40
REMARK Flexibility Score: inf
ROOT
ATOM      1  C   UNL     1      53.878 111.943  55.079  1.00  0.00     0.138 A 
ATOM      2  C   UNL     1      53.483 111.688  53.757  1.00  0.00     0.100 A 
ATOM      3  C   UNL     1      52.142 111.415  53.483  1.00  0.00     0.197 A 
ATOM      4  O   UNL     1      51.802 111.187  52.290  1.00  0.00    -0.289 OA
ATOM      5  C   UNL     1      51.200 111.401  54.537  1.00  0.00     0.107 A 
ATOM      6  C   UNL     1      51.677 111.681  55.835  1.00  0.00     0.146 A 
ATOM      7  O   UNL     1      52.965 111.935  56.046  1.00  0.00    -0.456 OA
ATOM      8  C   UNL     1      50.801 111.704  56.913  1.00  0.00     0.094 A 
ATOM      9  C   UNL     1      49.443 111.428  56.740  1.00  0.00     0.128 A 
ATOM     10  C   UNL     1      48.938 111.095  55.458  1.00  0.00     0.068 A 
ATOM     11  C   UNL     1      49.820 111.139  54.339  1.00  0.00     0.140 A 
ENDROOT
BRANCH   1  12
ATOM     12  C   UNL     1      55.290 112.239  55.432  1.00  0.00     0.021 A 
ATOM     13  C   UNL     1      55.642 113.381  56.178  1.00  0.00     0.016 A 
ATOM     14  C   UNL     1      56.979 113.639  56.488  1.00  0.00     0.051 A 
ATOM     15  C   UNL     1      57.988 112.770  56.052  1.00  0.00     0.157 A 
ATOM     16  C   UNL     1      56.309 111.379  54.986  1.00  0.00     0.062 A 
ATOM     17  C   UNL     1      57.650 111.637  55.296  1.00  0.00     0.158 A 
BRANCH  15  18
ATOM     18  O   UNL     1      59.321 113.031  56.364  1.00  0.00    -0.504 OA
ATOM     19  H   UNL     1      59.628 113.149  57.323  1.00  0.00     0.293 HD
ENDBRANCH  15  18
BRANCH  17  20
ATOM     20  O   UNL     1      58.631 110.754  54.844  1.00  0.00    -0.504 OA
ATOM     21  H   UNL     1      59.175 110.183  55.479  1.00  0.00     0.293 HD
ENDBRANCH  17  20
ENDBRANCH   1  12
BRANCH  11  22
ATOM     22  O   UNL     1      49.355 110.945  53.033  1.00  0.00    -0.506 OA
ATOM     23  H   UNL     1      49.916 111.048  52.200  1.00  0.00     0.293 HD
ENDBRANCH  11  22
BRANCH   9  24
ATOM     24  O   UNL     1      48.595 111.496  57.846  1.00  0.00    -0.507 OA
ATOM     25  H   UNL     1      48.680 110.854  58.627  1.00  0.00     0.293 HD
ENDBRANCH   9  24
BRANCH  10  26
ATOM     26  C   UNL     1      47.462 110.740  55.280  1.00  0.00     0.188 C 
ATOM     27  C   UNL     1      47.258 109.205  55.327  1.00  0.00     0.179 C 
ATOM     28  O   UNL     1      46.961 111.278  54.064  1.00  0.00    -0.362 OA
ATOM     29  C   UNL     1      45.764 108.881  55.137  1.00  0.00     0.177 C 
ATOM     30  C   UNL     1      45.556 111.103  53.974  1.00  0.00     0.176 C 
ATOM     31  C   UNL     1      45.200 109.599  53.896  1.00  0.00     0.177 C 
BRANCH  27  32
ATOM     32  O   UNL     1      48.009 108.574  54.317  1.00  0.00    -0.387 OA
ATOM     33  H   UNL     1      48.958 108.584  54.608  1.00  0.00     0.211 HD
ENDBRANCH  27  32
BRANCH  29  34
ATOM     34  O   UNL     1      45.569 107.495  55.018  1.00  0.00    -0.387 OA
ATOM     35  H   UNL     1      44.764 107.366  54.452  1.00  0.00     0.211 HD
ENDBRANCH  29  34
BRANCH  30  36
ATOM     36  C   UNL     1      45.047 111.870  52.743  1.00  0.00     0.191 C 
BRANCH  36  37
ATOM     37  O   UNL     1      45.993 111.846  51.707  1.00  0.00    -0.394 OA
ATOM     38  H   UNL     1      46.383 112.758  51.657  1.00  0.00     0.210 HD
ENDBRANCH  36  37
ENDBRANCH  30  36
BRANCH  31  39
ATOM     39  O   UNL     1      45.735 109.043  52.720  1.00  0.00    -0.388 OA
ATOM     40  H   UNL     1      46.502 108.475  52.991  1.00  0.00     0.211 HD
ENDBRANCH  31  39
ENDBRANCH  10  26
TORSDOF 11
ENDMDL
MODEL 8
REMARK VINA RESULT:    -5.087      3.879      8.828
REMARK INTER + INTRA:          -8.348
REMARK INTER:                  -7.162
REMARK INTRA:                  -1.186
REMARK UNBOUND:                -1.179
REMARK SMILES O=c1cc(-c2ccc(O)c(O)c2)oc2cc(O)c([C@H]3O[C@@H](CO)[C@@H](O)[C@@H](O)[C@H]3O)c(O)c12
REMARK SMILES IDX 4 1 3 2 2 3 1 4 32 5 14 6 13 7 15 8 16 9 18 10 30 11 5 12
REMARK SMILES IDX 6 13 7 14 8 15 12 16 10 17 9 18 11 20 31 22 17 24 19 26
REMARK SMILES IDX 28 27 20 28 26 29 21 30 24 31 29 32 27 34 22 36 23 37 25 39
REMARK H PARENT 9 19 11 21 31 23 17 25 29 33 27 35 23 38 25 40
REMARK Flexibility Score: inf
ROOT
ATOM      1  C   UNL     1      54.618 110.958  54.732  1.00  0.00     0.138 A 
ATOM      2  C   UNL     1      54.615 109.600  55.084  1.00  0.00     0.100 A 
ATOM      3  C   UNL     1      53.446 108.854  54.929  1.00  0.00     0.197 A 
ATOM      4  O   UNL     1      53.458 107.635  55.251  1.00  0.00    -0.289 OA
ATOM      5  C   UNL     1      52.283 109.473  54.418  1.00  0.00     0.107 A 
ATOM      6  C   UNL     1      52.374 110.839  54.076  1.00  0.00     0.146 A 
ATOM      7  O   UNL     1      53.511 111.507  54.242  1.00  0.00    -0.456 OA
ATOM      8  C   UNL     1      51.273 111.504  53.549  1.00  0.00     0.094 A 
ATOM      9  C   UNL     1      50.054 110.845  53.373  1.00  0.00     0.128 A 
ATOM     10  C   UNL     1      49.913 109.487  53.752  1.00  0.00     0.068 A 
ATOM     11  C   UNL     1      51.059 108.783  54.226  1.00  0.00     0.140 A 
ENDROOT
BRANCH   1  12
ATOM     12  C   UNL     1      55.832 111.802  54.874  1.00  0.00     0.021 A 
ATOM     13  C   UNL     1      55.836 113.160  54.499  1.00  0.00     0.016 A 
ATOM     14  C   UNL     1      56.995 113.928  54.635  1.00  0.00     0.051 A 
ATOM     15  C   UNL     1      58.170 113.354  55.139  1.00  0.00     0.157 A 
ATOM     16  C   UNL     1      57.019 111.231  55.366  1.00  0.00     0.062 A 
ATOM     17  C   UNL     1      58.181 111.999  55.504  1.00  0.00     0.158 A 
BRANCH  15  18
ATOM     18  O   UNL     1      59.324 114.125  55.275  1.00  0.00    -0.504 OA
ATOM     19  H   UNL     1      60.068 113.858  55.909  1.00  0.00     0.293 HD
ENDBRANCH  15  18
BRANCH  17  20
ATOM     20  O   UNL     1      59.335 111.397  56.005  1.00  0.00    -0.504 OA
ATOM     21  H   UNL     1      59.348 110.432  56.313  1.00  0.00     0.293 HD
ENDBRANCH  17  20
ENDBRANCH   1  12
BRANCH  11  22
ATOM     22  O   UNL     1      51.014 107.409  54.495  1.00  0.00    -0.506 OA
ATOM     23  H   UNL     1      50.736 106.701  53.831  1.00  0.00     0.293 HD
ENDBRANCH  11  22
BRANCH   9  24
ATOM     24  O   UNL     1      48.986 111.543  52.809  1.00  0.00    -0.507 OA
ATOM     25  H   UNL     1      49.129 112.309  52.159  1.00  0.00     0.293 HD
ENDBRANCH   9  24
BRANCH  10  26
ATOM     26  C   UNL     1      48.564 108.783  53.608  1.00  0.00     0.188 C 
ATOM     27  C   UNL     1      47.769 108.846  54.935  1.00  0.00     0.179 C 
ATOM     28  O   UNL     1      48.744 107.436  53.192  1.00  0.00    -0.362 OA
ATOM     29  C   UNL     1      46.420 108.123  54.759  1.00  0.00     0.177 C 
ATOM     30  C   UNL     1      47.498 106.828  52.890  1.00  0.00     0.176 C 
ATOM     31  C   UNL     1      46.625 106.717  54.162  1.00  0.00     0.177 C 
BRANCH  27  32
ATOM     32  O   UNL     1      48.496 108.241  55.978  1.00  0.00    -0.387 OA
ATOM     33  H   UNL     1      48.370 108.803  56.786  1.00  0.00     0.211 HD
ENDBRANCH  27  32
BRANCH  29  34
ATOM     34  O   UNL     1      45.745 108.027  55.988  1.00  0.00    -0.387 OA
ATOM     35  H   UNL     1      45.326 107.128  56.015  1.00  0.00     0.211 HD
ENDBRANCH  29  34
BRANCH  30  36
ATOM     36  C   UNL     1      47.767 105.450  52.264  1.00  0.00     0.191 C 
BRANCH  36  37
ATOM     37  O   UNL     1      46.733 104.551  52.563  1.00  0.00    -0.394 OA
ATOM     38  H   UNL     1      47.057 103.983  53.310  1.00  0.00     0.210 HD
ENDBRANCH  36  37
ENDBRANCH  30  36
BRANCH  31  39
ATOM     39  O   UNL     1      47.250 105.872  55.097  1.00  0.00    -0.388 OA
ATOM     40  H   UNL     1      46.572 105.652  55.787  1.00  0.00     0.211 HD
ENDBRANCH  31  39
ENDBRANCH  10  26
TORSDOF 11
ENDMDL
MODEL 9
REMARK VINA RESULT:    -4.938      3.123      8.939
REMARK INTER + INTRA:          -8.137
REMARK INTER:                  -7.203
REMARK INTRA:                  -0.934
REMARK UNBOUND:                -1.179
REMARK SMILES O=c1cc(-c2ccc(O)c(O)c2)oc2cc(O)c([C@H]3O[C@@H](CO)[C@@H](O)[C@@H](O)[C@H]3O)c(O)c12
REMARK SMILES IDX 4 1 3 2 2 3 1 4 32 5 14 6 13 7 15 8 16 9 18 10 30 11 5 12
REMARK SMILES IDX 6 13 7 14 8 15 12 16 10 17 9 18 11 20 31 22 17 24 19 26
REMARK SMILES IDX 28 27 20 28 26 29 21 30 24 31 29 32 27 34 22 36 23 37 25 39
REMARK H PARENT 9 19 11 21 31 23 17 25 29 33 27 35 23 38 25 40
REMARK Flexibility Score: inf
ROOT
ATOM      1  C   UNL     1      54.267 112.173  54.923  1.00  0.00     0.138 A 
ATOM      2  C   UNL     1      53.805 111.865  56.211  1.00  0.00     0.100 A 
ATOM      3  C   UNL     1      52.451 111.592  56.408  1.00  0.00     0.197 A 
ATOM      4  O   UNL     1      52.051 111.317  57.572  1.00  0.00    -0.289 OA
ATOM      5  C   UNL     1      51.563 111.626  55.309  1.00  0.00     0.107 A 
ATOM      6  C   UNL     1      52.110 111.931  54.044  1.00  0.00     0.146 A 
ATOM      7  O   UNL     1      53.408 112.185  53.908  1.00  0.00    -0.456 OA
ATOM      8  C   UNL     1      51.296 111.962  52.918  1.00  0.00     0.094 A 
ATOM      9  C   UNL     1      49.924 111.717  53.018  1.00  0.00     0.128 A 
ATOM     10  C   UNL     1      49.334 111.456  54.279  1.00  0.00     0.068 A 
ATOM     11  C   UNL     1      50.176 111.355  55.425  1.00  0.00     0.140 A 
ENDROOT
BRANCH   1  12
ATOM     12  C   UNL     1      55.696 112.473  54.653  1.00  0.00     0.021 A 
ATOM     13  C   UNL     1      56.109 113.728  54.165  1.00  0.00     0.016 A 
ATOM     14  C   UNL     1      57.460 113.979  53.910  1.00  0.00     0.051 A 
ATOM     15  C   UNL     1      58.419 112.981  54.129  1.00  0.00     0.157 A 
ATOM     16  C   UNL     1      56.663 111.472  54.857  1.00  0.00     0.062 A 
ATOM     17  C   UNL     1      58.017 111.723  54.603  1.00  0.00     0.158 A 
BRANCH  15  18
ATOM     18  O   UNL     1      59.766 113.236  53.875  1.00  0.00    -0.504 OA
ATOM     19  H   UNL     1      60.359 113.687  54.563  1.00  0.00     0.293 HD
ENDBRANCH  15  18
BRANCH  17  20
ATOM     20  O   UNL     1      58.947 110.707  54.827  1.00  0.00    -0.504 OA
ATOM     21  H   UNL     1      59.798 110.863  55.352  1.00  0.00     0.293 HD
ENDBRANCH  17  20
ENDBRANCH   1  12
BRANCH  11  22
ATOM     22  O   UNL     1      49.669 110.974  56.674  1.00  0.00    -0.506 OA
ATOM     23  H   UNL     1      50.230 110.810  57.497  1.00  0.00     0.293 HD
ENDBRANCH  11  22
BRANCH   9  24
ATOM     24  O   UNL     1      49.153 111.725  51.856  1.00  0.00    -0.507 OA
ATOM     25  H   UNL     1      48.337 111.133  51.749  1.00  0.00     0.293 HD
ENDBRANCH   9  24
BRANCH  10  26
ATOM     26  C   UNL     1      47.824 111.242  54.393  1.00  0.00     0.188 C 
ATOM     27  C   UNL     1      47.491 109.732  54.482  1.00  0.00     0.179 C 
ATOM     28  O   UNL     1      47.149 111.844  53.297  1.00  0.00    -0.362 OA
ATOM     29  C   UNL     1      45.964 109.551  54.588  1.00  0.00     0.177 C 
ATOM     30  C   UNL     1      45.743 111.801  53.483  1.00  0.00     0.176 C 
ATOM     31  C   UNL     1      45.240 110.338  53.479  1.00  0.00     0.177 C 
BRANCH  27  32
ATOM     32  O   UNL     1      47.968 109.051  53.346  1.00  0.00    -0.387 OA
ATOM     33  H   UNL     1      48.591 108.348  53.667  1.00  0.00     0.211 HD
ENDBRANCH  27  32
BRANCH  29  34
ATOM     34  O   UNL     1      45.621 108.191  54.513  1.00  0.00    -0.387 OA
ATOM     35  H   UNL     1      45.729 107.817  55.426  1.00  0.00     0.211 HD
ENDBRANCH  29  34
BRANCH  30  36
ATOM     36  C   UNL     1      45.079 112.632  52.373  1.00  0.00     0.191 C 
BRANCH  36  37
ATOM     37  O   UNL     1      45.732 112.447  51.146  1.00  0.00    -0.394 OA
ATOM     38  H   UNL     1      45.290 111.677  50.702  1.00  0.00     0.210 HD
ENDBRANCH  36  37
ENDBRANCH  30  36
BRANCH  31  39
ATOM     39  O   UNL     1      45.481 109.754  52.223  1.00  0.00    -0.388 OA
ATOM     40  H   UNL     1      44.763 109.086  52.072  1.00  0.00     0.211 HD
ENDBRANCH  31  39
ENDBRANCH  10  26
TORSDOF 11
ENDMDL
