MODEL 1
REMARK VINA RESULT:    -4.388      0.000      0.000
REMARK INTER + INTRA:          -4.644
REMARK INTER:                  -4.644
REMARK INTRA:                   0.000
REMARK UNBOUND:                 0.000
REMARK SMILES Cc1cc(O)c(C)c(C)c1O
REMARK SMILES IDX 1 1 2 2 3 3 4 4 6 5 8 6 10 7 9 8 7 9 11 10 5 12
REMARK H PARENT 11 11 5 13
REMARK Flexibility Score: inf
ROOT
ATOM      1  C   UNL     1     161.847 176.651 156.566  1.00  0.00     0.048 C 
ATOM      2  C   UNL     1     161.884 176.751 155.065  1.00  0.00    -0.005 A 
ATOM      3  C   UNL     1     162.961 177.377 154.433  1.00  0.00     0.053 A 
ATOM      4  C   UNL     1     162.999 177.511 153.046  1.00  0.00     0.119 A 
ATOM      5  C   UNL     1     161.930 177.025 152.256  1.00  0.00    -0.003 A 
ATOM      6  C   UNL     1     160.892 176.277 152.881  1.00  0.00    -0.002 A 
ATOM      7  C   UNL     1     160.842 176.207 154.296  1.00  0.00     0.121 A 
ATOM      8  C   UNL     1     159.839 175.568 152.058  1.00  0.00     0.049 C 
ATOM      9  C   UNL     1     161.916 177.293 150.767  1.00  0.00     0.049 C 
ENDROOT
BRANCH   7  10
ATOM     10  O   UNL     1     159.765 175.616 154.967  1.00  0.00    -0.507 OA
ATOM     11  H   UNL     1     159.566 174.625 154.947  1.00  0.00     0.293 HD
ENDBRANCH   7  10
BRANCH   4  12
ATOM     12  O   UNL     1     164.124 178.125 152.488  1.00  0.00    -0.508 OA
ATOM     13  H   UNL     1     164.865 178.541 153.035  1.00  0.00     0.293 HD
ENDBRANCH   4  12
TORSDOF 2
ENDMDL
MODEL 2
REMARK VINA RESULT:    -4.279      0.468      3.198
REMARK INTER + INTRA:          -4.529
REMARK INTER:                  -4.529
REMARK INTRA:                   0.000
REMARK UNBOUND:                 0.000
REMARK SMILES Cc1cc(O)c(C)c(C)c1O
REMARK SMILES IDX 1 1 2 2 3 3 4 4 6 5 8 6 10 7 9 8 7 9 11 10 5 12
REMARK H PARENT 11 11 5 13
REMARK Flexibility Score: inf
ROOT
ATOM      1  C   UNL     1     164.101 177.761 155.319  1.00  0.00     0.048 C 
ATOM      2  C   UNL     1     162.971 177.276 154.453  1.00  0.00    -0.005 A 
ATOM      3  C   UNL     1     161.871 176.637 155.033  1.00  0.00     0.053 A 
ATOM      4  C   UNL     1     160.829 176.149 154.246  1.00  0.00     0.119 A 
ATOM      5  C   UNL     1     160.881 176.280 152.838  1.00  0.00    -0.003 A 
ATOM      6  C   UNL     1     161.934 177.037 152.252  1.00  0.00    -0.002 A 
ATOM      7  C   UNL     1     163.014 177.470 153.063  1.00  0.00     0.121 A 
ATOM      8  C   UNL     1     161.923 177.375 150.776  1.00  0.00     0.049 C 
ATOM      9  C   UNL     1     159.813 175.631 151.985  1.00  0.00     0.049 C 
ENDROOT
BRANCH   7  10
ATOM     10  O   UNL     1     164.146 178.085 152.516  1.00  0.00    -0.507 OA
ATOM     11  H   UNL     1     164.230 178.343 151.541  1.00  0.00     0.293 HD
ENDBRANCH   7  10
BRANCH   4  12
ATOM     12  O   UNL     1     159.752 175.548 154.904  1.00  0.00    -0.508 OA
ATOM     13  H   UNL     1     159.062 176.062 155.435  1.00  0.00     0.293 HD
ENDBRANCH   4  12
TORSDOF 2
ENDMDL
MODEL 3
REMARK VINA RESULT:    -4.267     11.586     13.118
REMARK INTER + INTRA:          -4.517
REMARK INTER:                  -4.517
REMARK INTRA:                   0.000
REMARK UNBOUND:                 0.000
REMARK SMILES Cc1cc(O)c(C)c(C)c1O
REMARK SMILES IDX 1 1 2 2 3 3 4 4 6 5 8 6 10 7 9 8 7 9 11 10 5 12
REMARK H PARENT 11 11 5 13
REMARK Flexibility Score: inf
ROOT
ATOM      1  C   UNL     1     176.092 174.746 155.367  1.00  0.00     0.048 C 
ATOM      2  C   UNL     1     175.274 175.647 154.482  1.00  0.00    -0.005 A 
ATOM      3  C   UNL     1     174.303 176.482 155.041  1.00  0.00     0.053 A 
ATOM      4  C   UNL     1     173.510 177.299 154.237  1.00  0.00     0.119 A 
ATOM      5  C   UNL     1     173.670 177.280 152.831  1.00  0.00    -0.003 A 
ATOM      6  C   UNL     1     174.739 176.528 152.265  1.00  0.00    -0.002 A 
ATOM      7  C   UNL     1     175.490 175.658 153.094  1.00  0.00     0.121 A 
ATOM      8  C   UNL     1     175.073 176.636 150.793  1.00  0.00     0.049 C 
ATOM      9  C   UNL     1     172.718 178.068 151.958  1.00  0.00     0.049 C 
ENDROOT
BRANCH   7  10
ATOM     10  O   UNL     1     176.449 174.785 152.568  1.00  0.00    -0.507 OA
ATOM     11  H   UNL     1     176.815 174.852 151.627  1.00  0.00     0.293 HD
ENDBRANCH   7  10
BRANCH   4  12
ATOM     12  O   UNL     1     172.581 178.125 154.874  1.00  0.00    -0.508 OA
ATOM     13  H   UNL     1     171.955 177.808 155.603  1.00  0.00     0.293 HD
ENDBRANCH   4  12
TORSDOF 2
ENDMDL
MODEL 4
REMARK VINA RESULT:    -4.211      1.009      4.320
REMARK INTER + INTRA:          -4.457
REMARK INTER:                  -4.457
REMARK INTRA:                   0.000
REMARK UNBOUND:                 0.000
REMARK SMILES Cc1cc(O)c(C)c(C)c1O
REMARK SMILES IDX 1 1 2 2 3 3 4 4 6 5 8 6 10 7 9 8 7 9 11 10 5 12
REMARK H PARENT 11 11 5 13
REMARK Flexibility Score: inf
ROOT
ATOM      1  C   UNL     1     160.510 177.398 150.368  1.00  0.00     0.048 C 
ATOM      2  C   UNL     1     161.030 177.075 151.742  1.00  0.00    -0.005 A 
ATOM      3  C   UNL     1     160.187 176.481 152.685  1.00  0.00     0.053 A 
ATOM      4  C   UNL     1     160.636 176.205 153.976  1.00  0.00     0.119 A 
ATOM      5  C   UNL     1     161.958 176.542 154.354  1.00  0.00    -0.003 A 
ATOM      6  C   UNL     1     162.857 177.030 153.365  1.00  0.00    -0.002 A 
ATOM      7  C   UNL     1     162.363 177.361 152.078  1.00  0.00     0.121 A 
ATOM      8  C   UNL     1     164.328 177.213 153.672  1.00  0.00     0.049 C 
ATOM      9  C   UNL     1     162.395 176.361 155.791  1.00  0.00     0.049 C 
ENDROOT
BRANCH   7  10
ATOM     10  O   UNL     1     163.167 177.986 151.118  1.00  0.00    -0.507 OA
ATOM     11  H   UNL     1     164.176 178.029 151.172  1.00  0.00     0.293 HD
ENDBRANCH   7  10
BRANCH   4  12
ATOM     12  O   UNL     1     159.741 175.584 154.852  1.00  0.00    -0.508 OA
ATOM     13  H   UNL     1     159.513 174.599 154.815  1.00  0.00     0.293 HD
ENDBRANCH   4  12
TORSDOF 2
ENDMDL
MODEL 5
REMARK VINA RESULT:    -4.102     12.171     13.659
REMARK INTER + INTRA:          -4.342
REMARK INTER:                  -4.342
REMARK INTRA:                   0.000
REMARK UNBOUND:                 0.000
REMARK SMILES Cc1cc(O)c(C)c(C)c1O
REMARK SMILES IDX 1 1 2 2 3 3 4 4 6 5 8 6 10 7 9 8 7 9 11 10 5 12
REMARK H PARENT 11 11 5 13
REMARK Flexibility Score: inf
ROOT
ATOM      1  C   UNL     1     175.079 177.007 151.010  1.00  0.00     0.048 C 
ATOM      2  C   UNL     1     174.864 176.725 152.472  1.00  0.00    -0.005 A 
ATOM      3  C   UNL     1     173.983 177.518 153.213  1.00  0.00     0.053 A 
ATOM      4  C   UNL     1     173.794 177.298 154.576  1.00  0.00     0.119 A 
ATOM      5  C   UNL     1     174.510 176.270 155.235  1.00  0.00    -0.003 A 
ATOM      6  C   UNL     1     175.311 175.381 154.464  1.00  0.00    -0.002 A 
ATOM      7  C   UNL     1     175.538 175.661 153.093  1.00  0.00     0.121 A 
ATOM      8  C   UNL     1     175.932 174.151 155.090  1.00  0.00     0.049 C 
ATOM      9  C   UNL     1     174.400 176.124 156.737  1.00  0.00     0.049 C 
ENDROOT
BRANCH   7  10
ATOM     10  O   UNL     1     176.435 174.910 152.326  1.00  0.00    -0.507 OA
ATOM     11  H   UNL     1     176.370 174.810 151.322  1.00  0.00     0.293 HD
ENDBRANCH   7  10
BRANCH   4  12
ATOM     12  O   UNL     1     172.876 178.115 155.241  1.00  0.00    -0.508 OA
ATOM     13  H   UNL     1     173.014 179.106 155.393  1.00  0.00     0.293 HD
ENDBRANCH   4  12
TORSDOF 2
ENDMDL
MODEL 6
REMARK VINA RESULT:    -4.097      2.785      4.530
REMARK INTER + INTRA:          -4.336
REMARK INTER:                  -4.336
REMARK INTRA:                   0.000
REMARK UNBOUND:                 0.000
REMARK SMILES Cc1cc(O)c(C)c(C)c1O
REMARK SMILES IDX 1 1 2 2 3 3 4 4 6 5 8 6 10 7 9 8 7 9 11 10 5 12
REMARK H PARENT 11 11 5 13
REMARK Flexibility Score: inf
ROOT
ATOM      1  C   UNL     1     160.126 178.125 151.319  1.00  0.00     0.048 C 
ATOM      2  C   UNL     1     160.649 176.726 151.499  1.00  0.00    -0.005 A 
ATOM      3  C   UNL     1     159.801 175.719 151.970  1.00  0.00     0.053 A 
ATOM      4  C   UNL     1     160.272 174.424 152.177  1.00  0.00     0.119 A 
ATOM      5  C   UNL     1     161.630 174.114 151.926  1.00  0.00    -0.003 A 
ATOM      6  C   UNL     1     162.466 175.099 151.329  1.00  0.00    -0.002 A 
ATOM      7  C   UNL     1     161.984 176.425 151.186  1.00  0.00     0.121 A 
ATOM      8  C   UNL     1     163.862 174.755 150.859  1.00  0.00     0.049 C 
ATOM      9  C   UNL     1     162.163 172.743 152.279  1.00  0.00     0.049 C 
ENDROOT
BRANCH   7  10
ATOM     10  O   UNL     1     162.811 177.466 150.748  1.00  0.00    -0.507 OA
ATOM     11  H   UNL     1     162.467 178.311 150.312  1.00  0.00     0.293 HD
ENDBRANCH   7  10
BRANCH   4  12
ATOM     12  O   UNL     1     159.355 173.468 152.623  1.00  0.00    -0.508 OA
ATOM     13  H   UNL     1     158.552 173.168 152.086  1.00  0.00     0.293 HD
ENDBRANCH   4  12
TORSDOF 2
ENDMDL
MODEL 7
REMARK VINA RESULT:    -4.095      2.169      4.128
REMARK INTER + INTRA:          -4.335
REMARK INTER:                  -4.335
REMARK INTRA:                   0.000
REMARK UNBOUND:                 0.000
REMARK SMILES Cc1cc(O)c(C)c(C)c1O
REMARK SMILES IDX 1 1 2 2 3 3 4 4 6 5 8 6 10 7 9 8 7 9 11 10 5 12
REMARK H PARENT 11 11 5 13
REMARK Flexibility Score: inf
ROOT
ATOM      1  C   UNL     1     165.399 177.510 150.881  1.00  0.00     0.048 C 
ATOM      2  C   UNL     1     164.044 177.604 151.527  1.00  0.00    -0.005 A 
ATOM      3  C   UNL     1     162.890 177.525 150.743  1.00  0.00     0.053 A 
ATOM      4  C   UNL     1     161.624 177.644 151.315  1.00  0.00     0.119 A 
ATOM      5  C   UNL     1     161.493 177.864 152.707  1.00  0.00    -0.003 A 
ATOM      6  C   UNL     1     162.655 177.819 153.528  1.00  0.00    -0.002 A 
ATOM      7  C   UNL     1     163.934 177.760 152.918  1.00  0.00     0.121 A 
ATOM      8  C   UNL     1     162.545 177.847 155.037  1.00  0.00     0.049 C 
ATOM      9  C   UNL     1     160.125 178.125 153.298  1.00  0.00     0.049 C 
ENDROOT
BRANCH   7  10
ATOM     10  O   UNL     1     165.112 177.866 153.667  1.00  0.00    -0.507 OA
ATOM     11  H   UNL     1     165.133 177.941 154.675  1.00  0.00     0.293 HD
ENDBRANCH   7  10
BRANCH   4  12
ATOM     12  O   UNL     1     160.519 177.527 150.467  1.00  0.00    -0.508 OA
ATOM     13  H   UNL     1     159.561 177.518 150.792  1.00  0.00     0.293 HD
ENDBRANCH   4  12
TORSDOF 2
ENDMDL
MODEL 8
REMARK VINA RESULT:    -4.067      0.534      3.055
REMARK INTER + INTRA:          -4.305
REMARK INTER:                  -4.305
REMARK INTRA:                   0.000
REMARK UNBOUND:                 0.000
REMARK SMILES Cc1cc(O)c(C)c(C)c1O
REMARK SMILES IDX 1 1 2 2 3 3 4 4 6 5 8 6 10 7 9 8 7 9 11 10 5 12
REMARK H PARENT 11 11 5 13
REMARK Flexibility Score: inf
ROOT
ATOM      1  C   UNL     1     159.921 175.721 152.062  1.00  0.00     0.048 C 
ATOM      2  C   UNL     1     160.981 176.299 152.960  1.00  0.00    -0.005 A 
ATOM      3  C   UNL     1     162.086 176.951 152.405  1.00  0.00     0.053 A 
ATOM      4  C   UNL     1     163.097 177.463 153.216  1.00  0.00     0.119 A 
ATOM      5  C   UNL     1     163.024 177.313 154.622  1.00  0.00    -0.003 A 
ATOM      6  C   UNL     1     161.845 176.764 155.199  1.00  0.00    -0.002 A 
ATOM      7  C   UNL     1     160.859 176.193 154.355  1.00  0.00     0.121 A 
ATOM      8  C   UNL     1     161.636 176.768 156.698  1.00  0.00     0.049 C 
ATOM      9  C   UNL     1     164.187 177.753 155.483  1.00  0.00     0.049 C 
ENDROOT
BRANCH   7  10
ATOM     10  O   UNL     1     159.754 175.506 154.872  1.00  0.00    -0.507 OA
ATOM     11  H   UNL     1     159.057 175.051 154.298  1.00  0.00     0.293 HD
ENDBRANCH   7  10
BRANCH   4  12
ATOM     12  O   UNL     1     164.155 178.125 152.587  1.00  0.00    -0.508 OA
ATOM     13  H   UNL     1     164.980 177.657 152.236  1.00  0.00     0.293 HD
ENDBRANCH   4  12
TORSDOF 2
ENDMDL
