MODEL 1
REMARK VINA RESULT:    -5.725      0.000      0.000
REMARK INTER + INTRA:          -6.355
REMARK INTER:                  -6.059
REMARK INTRA:                  -0.296
REMARK UNBOUND:                -0.296
REMARK SMILES CC1=CC[C@H]2[C@@H]3[C@@H](C(C)C)CC[C@@]2(C)[C@H]13
REMARK SMILES IDX 1 1 2 2 3 3 4 4 5 5 6 6 15 7 13 8 12 9 11 10 7 11 14 12 8 13
REMARK SMILES IDX 9 14 10 15
REMARK H PARENT
REMARK Flexibility Score: inf
ROOT
ATOM      1  C   UNL     1      -0.202  -3.899  13.351  1.00  0.00     0.039 C 
ATOM      2  C   UNL     1       0.321  -2.740  14.145  1.00  0.00    -0.073 C 
ATOM      3  C   UNL     1      -0.424  -1.619  14.330  1.00  0.00    -0.027 C 
ATOM      4  C   UNL     1       0.172  -0.458  15.135  1.00  0.00     0.031 C 
ATOM      5  C   UNL     1       1.602  -0.829  15.649  1.00  0.00     0.003 C 
ATOM      6  C   UNL     1       1.525  -2.253  16.247  1.00  0.00     0.004 C 
ATOM      7  C   UNL     1       1.706  -2.773  14.800  1.00  0.00     0.024 C 
ATOM      8  C   UNL     1       2.462  -1.447  14.523  1.00  0.00    -0.022 C 
ATOM      9  C   UNL     1       3.935  -1.533  15.016  1.00  0.00     0.008 C 
ATOM     10  C   UNL     1       4.087  -2.427  16.273  1.00  0.00     0.005 C 
ATOM     11  C   UNL     1       2.783  -2.534  17.131  1.00  0.00    -0.005 C 
ATOM     12  C   UNL     1       2.391  -0.827  13.108  1.00  0.00     0.012 C 
ENDROOT
BRANCH  11  13
ATOM     13  C   UNL     1       2.703  -3.907  17.875  1.00  0.00    -0.014 C 
ATOM     14  C   UNL     1       3.567  -3.901  19.150  1.00  0.00     0.007 C 
ATOM     15  C   UNL     1       1.259  -4.283  18.259  1.00  0.00     0.007 C 
ENDBRANCH  11  13
TORSDOF 1
ENDMDL
MODEL 2
REMARK VINA RESULT:    -5.522      1.660      4.840
REMARK INTER + INTRA:          -6.140
REMARK INTER:                  -5.839
REMARK INTRA:                  -0.301
REMARK UNBOUND:                -0.296
REMARK SMILES CC1=CC[C@H]2[C@@H]3[C@@H](C(C)C)CC[C@@]2(C)[C@H]13
REMARK SMILES IDX 1 1 2 2 3 3 4 4 5 5 6 6 15 7 13 8 12 9 11 10 7 11 14 12 8 13
REMARK SMILES IDX 9 14 10 15
REMARK H PARENT
REMARK Flexibility Score: inf
ROOT
ATOM      1  C   UNL     1      -0.560  -1.531  20.016  1.00  0.00     0.039 C 
ATOM      2  C   UNL     1       0.294  -2.614  19.429  1.00  0.00    -0.073 C 
ATOM      3  C   UNL     1      -0.026  -3.926  19.583  1.00  0.00    -0.027 C 
ATOM      4  C   UNL     1       0.897  -4.990  18.977  1.00  0.00     0.031 C 
ATOM      5  C   UNL     1       2.086  -4.312  18.220  1.00  0.00     0.003 C 
ATOM      6  C   UNL     1       1.496  -3.181  17.346  1.00  0.00     0.004 C 
ATOM      7  C   UNL     1       1.551  -2.295  18.614  1.00  0.00     0.024 C 
ATOM      8  C   UNL     1       2.730  -3.193  19.071  1.00  0.00    -0.022 C 
ATOM      9  C   UNL     1       4.059  -2.756  18.390  1.00  0.00     0.008 C 
ATOM     10  C   UNL     1       3.836  -2.197  16.962  1.00  0.00     0.005 C 
ATOM     11  C   UNL     1       2.538  -2.732  16.271  1.00  0.00    -0.005 C 
ATOM     12  C   UNL     1       2.942  -3.437  20.584  1.00  0.00     0.012 C 
ENDROOT
BRANCH  11  13
ATOM     13  C   UNL     1       1.955  -1.686  15.267  1.00  0.00    -0.014 C 
ATOM     14  C   UNL     1       0.477  -1.380  15.576  1.00  0.00     0.007 C 
ATOM     15  C   UNL     1       2.743  -0.362  15.274  1.00  0.00     0.007 C 
ENDBRANCH  11  13
TORSDOF 1
ENDMDL
MODEL 3
REMARK VINA RESULT:    -5.425      1.581      4.172
REMARK INTER + INTRA:          -6.038
REMARK INTER:                  -5.601
REMARK INTRA:                  -0.437
REMARK UNBOUND:                -0.296
REMARK SMILES CC1=CC[C@H]2[C@@H]3[C@@H](C(C)C)CC[C@@]2(C)[C@H]13
REMARK SMILES IDX 1 1 2 2 3 3 4 4 5 5 6 6 15 7 13 8 12 9 11 10 7 11 14 12 8 13
REMARK SMILES IDX 9 14 10 15
REMARK H PARENT
REMARK Flexibility Score: inf
ROOT
ATOM      1  C   UNL     1      -0.975  -0.012  15.610  1.00  0.00     0.039 C 
ATOM      2  C   UNL     1       0.153  -0.999  15.595  1.00  0.00    -0.073 C 
ATOM      3  C   UNL     1       0.615  -1.559  16.744  1.00  0.00    -0.027 C 
ATOM      4  C   UNL     1       1.786  -2.546  16.669  1.00  0.00     0.031 C 
ATOM      5  C   UNL     1       2.226  -2.756  15.182  1.00  0.00     0.003 C 
ATOM      6  C   UNL     1       0.945  -2.978  14.346  1.00  0.00     0.004 C 
ATOM      7  C   UNL     1       0.823  -1.436  14.289  1.00  0.00     0.024 C 
ATOM      8  C   UNL     1       2.366  -1.407  14.441  1.00  0.00    -0.022 C 
ATOM      9  C   UNL     1       3.065  -1.664  13.075  1.00  0.00     0.008 C 
ATOM     10  C   UNL     1       2.253  -2.622  12.166  1.00  0.00     0.005 C 
ATOM     11  C   UNL     1       1.310  -3.589  12.954  1.00  0.00    -0.005 C 
ATOM     12  C   UNL     1       3.023  -0.217  15.179  1.00  0.00     0.012 C 
ENDROOT
BRANCH  11  13
ATOM     13  C   UNL     1       0.048  -3.964  12.112  1.00  0.00    -0.014 C 
ATOM     14  C   UNL     1      -1.179  -4.191  13.015  1.00  0.00     0.007 C 
ATOM     15  C   UNL     1      -0.302  -2.888  11.066  1.00  0.00     0.007 C 
ENDBRANCH  11  13
TORSDOF 1
ENDMDL
MODEL 4
REMARK VINA RESULT:    -5.366      1.925      5.621
REMARK INTER + INTRA:          -5.976
REMARK INTER:                  -5.781
REMARK INTRA:                  -0.194
REMARK UNBOUND:                -0.296
REMARK SMILES CC1=CC[C@H]2[C@@H]3[C@@H](C(C)C)CC[C@@]2(C)[C@H]13
REMARK SMILES IDX 1 1 2 2 3 3 4 4 5 5 6 6 15 7 13 8 12 9 11 10 7 11 14 12 8 13
REMARK SMILES IDX 9 14 10 15
REMARK H PARENT
REMARK Flexibility Score: inf
ROOT
ATOM      1  C   UNL     1       7.527  -2.823  17.146  1.00  0.00     0.039 C 
ATOM      2  C   UNL     1       6.350  -2.679  18.063  1.00  0.00    -0.073 C 
ATOM      3  C   UNL     1       6.496  -2.213  19.331  1.00  0.00    -0.027 C 
ATOM      4  C   UNL     1       5.258  -2.106  20.229  1.00  0.00     0.031 C 
ATOM      5  C   UNL     1       3.978  -2.551  19.447  1.00  0.00     0.003 C 
ATOM      6  C   UNL     1       4.017  -1.864  18.062  1.00  0.00     0.004 C 
ATOM      7  C   UNL     1       4.929  -3.030  17.609  1.00  0.00     0.024 C 
ATOM      8  C   UNL     1       4.214  -3.879  18.692  1.00  0.00    -0.022 C 
ATOM      9  C   UNL     1       2.844  -4.404  18.173  1.00  0.00     0.008 C 
ATOM     10  C   UNL     1       2.166  -3.415  17.191  1.00  0.00     0.005 C 
ATOM     11  C   UNL     1       2.607  -1.927  17.391  1.00  0.00    -0.005 C 
ATOM     12  C   UNL     1       5.002  -5.008  19.399  1.00  0.00     0.012 C 
ENDROOT
BRANCH  11  13
ATOM     13  C   UNL     1       2.544  -1.130  16.047  1.00  0.00    -0.014 C 
ATOM     14  C   UNL     1       3.166  -1.937  14.891  1.00  0.00     0.007 C 
ATOM     15  C   UNL     1       1.104  -0.745  15.660  1.00  0.00     0.007 C 
ENDBRANCH  11  13
TORSDOF 1
ENDMDL
MODEL 5
REMARK VINA RESULT:    -5.366      3.282      6.449
REMARK INTER + INTRA:          -5.975
REMARK INTER:                  -5.539
REMARK INTRA:                  -0.437
REMARK UNBOUND:                -0.296
REMARK SMILES CC1=CC[C@H]2[C@@H]3[C@@H](C(C)C)CC[C@@]2(C)[C@H]13
REMARK SMILES IDX 1 1 2 2 3 3 4 4 5 5 6 6 15 7 13 8 12 9 11 10 7 11 14 12 8 13
REMARK SMILES IDX 9 14 10 15
REMARK H PARENT
REMARK Flexibility Score: inf
ROOT
ATOM      1  C   UNL     1       2.829  -3.285  23.235  1.00  0.00     0.039 C 
ATOM      2  C   UNL     1       3.555  -3.937  22.097  1.00  0.00    -0.073 C 
ATOM      3  C   UNL     1       4.302  -5.056  22.286  1.00  0.00    -0.027 C 
ATOM      4  C   UNL     1       5.039  -5.667  21.088  1.00  0.00     0.031 C 
ATOM      5  C   UNL     1       4.739  -4.848  19.790  1.00  0.00     0.003 C 
ATOM      6  C   UNL     1       3.214  -4.597  19.741  1.00  0.00     0.004 C 
ATOM      7  C   UNL     1       3.474  -3.387  20.669  1.00  0.00     0.024 C 
ATOM      8  C   UNL     1       4.888  -3.329  20.034  1.00  0.00    -0.022 C 
ATOM      9  C   UNL     1       4.852  -2.600  18.661  1.00  0.00     0.008 C 
ATOM     10  C   UNL     1       3.519  -2.829  17.904  1.00  0.00     0.005 C 
ATOM     11  C   UNL     1       2.787  -4.153  18.304  1.00  0.00    -0.005 C 
ATOM     12  C   UNL     1       6.073  -2.827  20.893  1.00  0.00     0.012 C 
ENDROOT
BRANCH  11  13
ATOM     13  C   UNL     1       1.238  -4.015  18.151  1.00  0.00    -0.014 C 
ATOM     14  C   UNL     1       0.496  -4.861  19.204  1.00  0.00     0.007 C 
ATOM     15  C   UNL     1       0.764  -2.554  18.271  1.00  0.00     0.007 C 
ENDBRANCH  11  13
TORSDOF 1
ENDMDL
MODEL 6
REMARK VINA RESULT:    -5.115      4.036      6.460
REMARK INTER + INTRA:          -5.710
REMARK INTER:                  -5.436
REMARK INTRA:                  -0.274
REMARK UNBOUND:                -0.296
REMARK SMILES CC1=CC[C@H]2[C@@H]3[C@@H](C(C)C)CC[C@@]2(C)[C@H]13
REMARK SMILES IDX 1 1 2 2 3 3 4 4 5 5 6 6 15 7 13 8 12 9 11 10 7 11 14 12 8 13
REMARK SMILES IDX 9 14 10 15
REMARK H PARENT
REMARK Flexibility Score: inf
ROOT
ATOM      1  C   UNL     1       2.818  -6.809  22.768  1.00  0.00     0.039 C 
ATOM      2  C   UNL     1       2.344  -5.540  22.126  1.00  0.00    -0.073 C 
ATOM      3  C   UNL     1       1.534  -4.674  22.791  1.00  0.00    -0.027 C 
ATOM      4  C   UNL     1       1.064  -3.401  22.076  1.00  0.00     0.031 C 
ATOM      5  C   UNL     1       1.678  -3.326  20.639  1.00  0.00     0.003 C 
ATOM      6  C   UNL     1       3.183  -3.661  20.758  1.00  0.00     0.004 C 
ATOM      7  C   UNL     1       2.764  -5.150  20.705  1.00  0.00     0.024 C 
ATOM      8  C   UNL     1       1.532  -4.672  19.893  1.00  0.00    -0.022 C 
ATOM      9  C   UNL     1       1.902  -4.453  18.398  1.00  0.00     0.008 C 
ATOM     10  C   UNL     1       3.362  -3.967  18.215  1.00  0.00     0.005 C 
ATOM     11  C   UNL     1       3.937  -3.218  19.463  1.00  0.00    -0.005 C 
ATOM     12  C   UNL     1       0.202  -5.453  20.022  1.00  0.00     0.012 C 
ENDROOT
BRANCH  11  13
ATOM     13  C   UNL     1       5.485  -3.405  19.574  1.00  0.00    -0.014 C 
ATOM     14  C   UNL     1       6.224  -2.582  18.502  1.00  0.00     0.007 C 
ATOM     15  C   UNL     1       6.027  -3.008  20.960  1.00  0.00     0.007 C 
ENDBRANCH  11  13
TORSDOF 1
ENDMDL
MODEL 7
REMARK VINA RESULT:    -5.092      2.297      5.069
REMARK INTER + INTRA:          -5.685
REMARK INTER:                  -5.403
REMARK INTRA:                  -0.282
REMARK UNBOUND:                -0.296
REMARK SMILES CC1=CC[C@H]2[C@@H]3[C@@H](C(C)C)CC[C@@]2(C)[C@H]13
REMARK SMILES IDX 1 1 2 2 3 3 4 4 5 5 6 6 15 7 13 8 12 9 11 10 7 11 14 12 8 13
REMARK SMILES IDX 9 14 10 15
REMARK H PARENT
REMARK Flexibility Score: inf
ROOT
ATOM      1  C   UNL     1      -0.959  -0.659  14.873  1.00  0.00     0.039 C 
ATOM      2  C   UNL     1       0.105  -1.583  14.364  1.00  0.00    -0.073 C 
ATOM      3  C   UNL     1       1.066  -2.075  15.190  1.00  0.00    -0.027 C 
ATOM      4  C   UNL     1       2.141  -3.001  14.607  1.00  0.00     0.031 C 
ATOM      5  C   UNL     1       1.884  -3.242  13.083  1.00  0.00     0.003 C 
ATOM      6  C   UNL     1       0.381  -3.562  12.910  1.00  0.00     0.004 C 
ATOM      7  C   UNL     1       0.149  -2.032  12.900  1.00  0.00     0.024 C 
ATOM      8  C   UNL     1       1.592  -1.916  12.345  1.00  0.00    -0.022 C 
ATOM      9  C   UNL     1       1.623  -2.185  10.813  1.00  0.00     0.008 C 
ATOM     10  C   UNL     1       0.554  -3.217  10.372  1.00  0.00     0.005 C 
ATOM     11  C   UNL     1       0.125  -4.204  11.508  1.00  0.00    -0.005 C 
ATOM     12  C   UNL     1       2.432  -0.666  12.701  1.00  0.00     0.012 C 
ENDROOT
BRANCH  11  13
ATOM     13  C   UNL     1      -1.353  -4.676  11.323  1.00  0.00    -0.014 C 
ATOM     14  C   UNL     1      -1.416  -6.057  10.642  1.00  0.00     0.007 C 
ATOM     15  C   UNL     1      -2.118  -4.750  12.658  1.00  0.00     0.007 C 
ENDBRANCH  11  13
TORSDOF 1
ENDMDL
MODEL 8
REMARK VINA RESULT:    -5.027      1.461      2.631
REMARK INTER + INTRA:          -5.617
REMARK INTER:                  -5.373
REMARK INTRA:                  -0.245
REMARK UNBOUND:                -0.296
REMARK SMILES CC1=CC[C@H]2[C@@H]3[C@@H](C(C)C)CC[C@@]2(C)[C@H]13
REMARK SMILES IDX 1 1 2 2 3 3 4 4 5 5 6 6 15 7 13 8 12 9 11 10 7 11 14 12 8 13
REMARK SMILES IDX 9 14 10 15
REMARK H PARENT
REMARK Flexibility Score: inf
ROOT
ATOM      1  C   UNL     1      -0.251  -6.039  12.626  1.00  0.00     0.039 C 
ATOM      2  C   UNL     1      -0.351  -4.561  12.855  1.00  0.00    -0.073 C 
ATOM      3  C   UNL     1      -1.543  -3.914  12.776  1.00  0.00    -0.027 C 
ATOM      4  C   UNL     1      -1.580  -2.398  13.000  1.00  0.00     0.031 C 
ATOM      5  C   UNL     1      -0.148  -1.862  13.332  1.00  0.00     0.003 C 
ATOM      6  C   UNL     1       0.468  -2.806  14.389  1.00  0.00     0.004 C 
ATOM      7  C   UNL     1       0.878  -3.716  13.206  1.00  0.00     0.024 C 
ATOM      8  C   UNL     1       0.905  -2.424  12.350  1.00  0.00    -0.022 C 
ATOM      9  C   UNL     1       2.237  -1.648  12.555  1.00  0.00     0.008 C 
ATOM     10  C   UNL     1       2.798  -1.804  13.991  1.00  0.00     0.005 C 
ATOM     11  C   UNL     1       1.704  -2.127  15.062  1.00  0.00    -0.005 C 
ATOM     12  C   UNL     1       0.547  -2.516  10.847  1.00  0.00     0.012 C 
ENDROOT
BRANCH  11  13
ATOM     13  C   UNL     1       2.292  -2.974  16.237  1.00  0.00    -0.014 C 
ATOM     14  C   UNL     1       3.433  -2.223  16.949  1.00  0.00     0.007 C 
ATOM     15  C   UNL     1       1.223  -3.351  17.281  1.00  0.00     0.007 C 
ENDBRANCH  11  13
TORSDOF 1
ENDMDL
MODEL 9
REMARK VINA RESULT:    -5.024      1.887      4.033
REMARK INTER + INTRA:          -5.613
REMARK INTER:                  -5.359
REMARK INTRA:                  -0.254
REMARK UNBOUND:                -0.296
REMARK SMILES CC1=CC[C@H]2[C@@H]3[C@@H](C(C)C)CC[C@@]2(C)[C@H]13
REMARK SMILES IDX 1 1 2 2 3 3 4 4 5 5 6 6 15 7 13 8 12 9 11 10 7 11 14 12 8 13
REMARK SMILES IDX 9 14 10 15
REMARK H PARENT
REMARK Flexibility Score: inf
ROOT
ATOM      1  C   UNL     1       0.719  -2.720   9.796  1.00  0.00     0.039 C 
ATOM      2  C   UNL     1       0.319  -3.221  11.151  1.00  0.00    -0.073 C 
ATOM      3  C   UNL     1      -0.263  -4.439  11.308  1.00  0.00    -0.027 C 
ATOM      4  C   UNL     1      -0.670  -4.890  12.716  1.00  0.00     0.031 C 
ATOM      5  C   UNL     1      -0.276  -3.803  13.770  1.00  0.00     0.003 C 
ATOM      6  C   UNL     1       1.174  -3.363  13.465  1.00  0.00     0.004 C 
ATOM      7  C   UNL     1       0.565  -2.398  12.419  1.00  0.00     0.024 C 
ATOM      8  C   UNL     1      -0.704  -2.391  13.310  1.00  0.00    -0.022 C 
ATOM      9  C   UNL     1      -0.540  -1.410  14.505  1.00  0.00     0.008 C 
ATOM     10  C   UNL     1       0.925  -1.322  15.002  1.00  0.00     0.005 C 
ATOM     11  C   UNL     1       1.774  -2.599  14.689  1.00  0.00    -0.005 C 
ATOM     12  C   UNL     1      -2.088  -2.215  12.639  1.00  0.00     0.012 C 
ENDROOT
BRANCH  11  13
ATOM     13  C   UNL     1       3.284  -2.245  14.497  1.00  0.00    -0.014 C 
ATOM     14  C   UNL     1       3.453  -0.858  13.847  1.00  0.00     0.007 C 
ATOM     15  C   UNL     1       4.066  -2.266  15.824  1.00  0.00     0.007 C 
ENDBRANCH  11  13
TORSDOF 1
ENDMDL
