MODEL 1
REMARK VINA RESULT:    -2.513      0.000      0.000
REMARK INTER + INTRA:          -2.835
REMARK INTER:                  -2.660
REMARK INTRA:                  -0.175
REMARK UNBOUND:                -0.175
REMARK SMILES C=C1CC=C(C(C)C)CC1
REMARK SMILES IDX 5 1 4 2 3 3 2 4 1 5 10 6 9 7 6 8 7 9 8 10
REMARK H PARENT
REMARK Flexibility Score: inf
ROOT
ATOM      1  C   UNL     1     -14.842  -2.967  16.645  1.00  0.00    -0.071 C 
ATOM      2  C   UNL     1     -14.662  -2.252  17.777  1.00  0.00    -0.023 C 
ATOM      3  C   UNL     1     -15.729  -1.321  18.291  1.00  0.00     0.057 C 
ATOM      4  C   UNL     1     -16.463  -0.654  17.146  1.00  0.00    -0.073 C 
ATOM      5  C   UNL     1     -17.044   0.541  17.325  1.00  0.00     0.008 C 
ATOM      6  C   UNL     1     -16.574  -1.352  15.805  1.00  0.00     0.035 C 
ATOM      7  C   UNL     1     -16.153  -2.826  15.901  1.00  0.00     0.035 C 
ENDROOT
BRANCH   1   8
ATOM      8  C   UNL     1     -13.754  -3.880  16.102  1.00  0.00     0.008 C 
ATOM      9  C   UNL     1     -14.351  -5.023  15.273  1.00  0.00     0.012 C 
ATOM     10  C   UNL     1     -12.716  -3.092  15.293  1.00  0.00     0.012 C 
ENDBRANCH   1   8
TORSDOF 1
ENDMDL
MODEL 2
REMARK VINA RESULT:    -1.751      0.931      4.161
REMARK INTER + INTRA:          -2.028
REMARK INTER:                  -1.848
REMARK INTRA:                  -0.180
REMARK UNBOUND:                -0.175
REMARK SMILES C=C1CC=C(C(C)C)CC1
REMARK SMILES IDX 5 1 4 2 3 3 2 4 1 5 10 6 9 7 6 8 7 9 8 10
REMARK H PARENT
REMARK Flexibility Score: inf
ROOT
ATOM      1  C   UNL     1     -15.014  -2.369  16.739  1.00  0.00    -0.071 C 
ATOM      2  C   UNL     1     -13.910  -3.148  16.779  1.00  0.00    -0.023 C 
ATOM      3  C   UNL     1     -13.676  -4.223  15.750  1.00  0.00     0.057 C 
ATOM      4  C   UNL     1     -14.980  -4.870  15.335  1.00  0.00    -0.073 C 
ATOM      5  C   UNL     1     -14.991  -6.129  14.875  1.00  0.00     0.008 C 
ATOM      6  C   UNL     1     -16.274  -4.083  15.404  1.00  0.00     0.035 C 
ATOM      7  C   UNL     1     -16.012  -2.586  15.623  1.00  0.00     0.035 C 
ENDROOT
BRANCH   1   8
ATOM      8  C   UNL     1     -15.273  -1.308  17.798  1.00  0.00     0.008 C 
ATOM      9  C   UNL     1     -16.536  -0.500  17.474  1.00  0.00     0.012 C 
ATOM     10  C   UNL     1     -15.354  -1.925  19.199  1.00  0.00     0.012 C 
ENDBRANCH   1   8
TORSDOF 1
ENDMDL
MODEL 3
REMARK VINA RESULT:    -1.496      3.171      4.700
REMARK INTER + INTRA:          -1.758
REMARK INTER:                  -1.585
REMARK INTRA:                  -0.173
REMARK UNBOUND:                -0.175
REMARK SMILES C=C1CC=C(C(C)C)CC1
REMARK SMILES IDX 5 1 4 2 3 3 2 4 1 5 10 6 9 7 6 8 7 9 8 10
REMARK H PARENT
REMARK Flexibility Score: inf
ROOT
ATOM      1  C   UNL     1     -14.504  -2.369  19.590  1.00  0.00    -0.071 C 
ATOM      2  C   UNL     1     -13.248  -1.998  19.923  1.00  0.00    -0.023 C 
ATOM      3  C   UNL     1     -12.783  -2.013  21.356  1.00  0.00     0.057 C 
ATOM      4  C   UNL     1     -13.905  -1.620  22.294  1.00  0.00    -0.073 C 
ATOM      5  C   UNL     1     -13.626  -1.065  23.482  1.00  0.00     0.008 C 
ATOM      6  C   UNL     1     -15.347  -1.885  21.907  1.00  0.00     0.035 C 
ATOM      7  C   UNL     1     -15.441  -2.818  20.691  1.00  0.00     0.035 C 
ENDROOT
BRANCH   1   8
ATOM      8  C   UNL     1     -14.989  -2.320  18.150  1.00  0.00     0.008 C 
ATOM      9  C   UNL     1     -15.729  -1.009  17.859  1.00  0.00     0.012 C 
ATOM     10  C   UNL     1     -13.835  -2.536  17.164  1.00  0.00     0.012 C 
ENDBRANCH   1   8
TORSDOF 1
ENDMDL
MODEL 4
REMARK VINA RESULT:    -1.484      0.763      4.469
REMARK INTER + INTRA:          -1.745
REMARK INTER:                  -1.592
REMARK INTRA:                  -0.154
REMARK UNBOUND:                -0.175
REMARK SMILES C=C1CC=C(C(C)C)CC1
REMARK SMILES IDX 5 1 4 2 3 3 2 4 1 5 10 6 9 7 6 8 7 9 8 10
REMARK H PARENT
REMARK Flexibility Score: inf
ROOT
ATOM      1  C   UNL     1     -16.223  -0.914  16.922  1.00  0.00    -0.071 C 
ATOM      2  C   UNL     1     -16.531  -1.680  15.851  1.00  0.00    -0.023 C 
ATOM      3  C   UNL     1     -16.052  -3.105  15.747  1.00  0.00     0.057 C 
ATOM      4  C   UNL     1     -14.672  -3.259  16.350  1.00  0.00    -0.073 C 
ATOM      5  C   UNL     1     -13.857  -4.234  15.925  1.00  0.00     0.008 C 
ATOM      6  C   UNL     1     -14.221  -2.332  17.462  1.00  0.00     0.035 C 
ATOM      7  C   UNL     1     -15.395  -1.523  18.032  1.00  0.00     0.035 C 
ENDROOT
BRANCH   1   8
ATOM      8  C   UNL     1     -16.672   0.536  17.013  1.00  0.00     0.008 C 
ATOM      9  C   UNL     1     -17.968   0.665  17.824  1.00  0.00     0.012 C 
ATOM     10  C   UNL     1     -15.566   1.427  17.591  1.00  0.00     0.012 C 
ENDBRANCH   1   8
TORSDOF 1
ENDMDL
MODEL 5
REMARK VINA RESULT:    -1.441      1.857      3.857
REMARK INTER + INTRA:          -1.700
REMARK INTER:                  -1.543
REMARK INTRA:                  -0.158
REMARK UNBOUND:                -0.175
REMARK SMILES C=C1CC=C(C(C)C)CC1
REMARK SMILES IDX 5 1 4 2 3 3 2 4 1 5 10 6 9 7 6 8 7 9 8 10
REMARK H PARENT
REMARK Flexibility Score: inf
ROOT
ATOM      1  C   UNL     1     -14.448  -2.042  18.870  1.00  0.00    -0.071 C 
ATOM      2  C   UNL     1     -14.129  -2.845  17.830  1.00  0.00    -0.023 C 
ATOM      3  C   UNL     1     -14.554  -2.508  16.424  1.00  0.00     0.057 C 
ATOM      4  C   UNL     1     -15.918  -1.849  16.413  1.00  0.00    -0.073 C 
ATOM      5  C   UNL     1     -16.701  -1.943  15.330  1.00  0.00     0.008 C 
ATOM      6  C   UNL     1     -16.386  -1.051  17.614  1.00  0.00     0.035 C 
ATOM      7  C   UNL     1     -15.235  -0.779  18.593  1.00  0.00     0.035 C 
ENDROOT
BRANCH   1   8
ATOM      8  C   UNL     1     -14.055  -2.397  20.295  1.00  0.00     0.008 C 
ATOM      9  C   UNL     1     -13.005  -1.421  20.839  1.00  0.00     0.012 C 
ATOM     10  C   UNL     1     -15.280  -2.461  21.214  1.00  0.00     0.012 C 
ENDBRANCH   1   8
TORSDOF 1
ENDMDL
MODEL 6
REMARK VINA RESULT:    -0.014      1.596      3.218
REMARK INTER + INTRA:          -0.190
REMARK INTER:                  -0.009
REMARK INTRA:                  -0.181
REMARK UNBOUND:                -0.175
REMARK SMILES C=C1CC=C(C(C)C)CC1
REMARK SMILES IDX 5 1 4 2 3 3 2 4 1 5 10 6 9 7 6 8 7 9 8 10
REMARK H PARENT
REMARK Flexibility Score: inf
ROOT
ATOM      1  C   UNL     1     -14.942  -2.274  16.968  1.00  0.00    -0.071 C 
ATOM      2  C   UNL     1     -15.763  -1.700  17.875  1.00  0.00    -0.023 C 
ATOM      3  C   UNL     1     -15.238  -1.196  19.195  1.00  0.00     0.057 C 
ATOM      4  C   UNL     1     -14.128  -2.087  19.713  1.00  0.00    -0.073 C 
ATOM      5  C   UNL     1     -13.887  -2.165  21.028  1.00  0.00     0.008 C 
ATOM      6  C   UNL     1     -13.264  -2.867  18.741  1.00  0.00     0.035 C 
ATOM      7  C   UNL     1     -13.469  -2.389  17.296  1.00  0.00     0.035 C 
ENDROOT
BRANCH   1   8
ATOM      8  C   UNL     1     -15.474  -2.818  15.651  1.00  0.00     0.008 C 
ATOM      9  C   UNL     1     -15.411  -4.349  15.618  1.00  0.00     0.012 C 
ATOM     10  C   UNL     1     -16.896  -2.316  15.372  1.00  0.00     0.012 C 
ENDBRANCH   1   8
TORSDOF 1
ENDMDL
MODEL 7
REMARK VINA RESULT:     0.200      2.697      4.553
REMARK INTER + INTRA:           0.036
REMARK INTER:                   0.173
REMARK INTRA:                  -0.137
REMARK UNBOUND:                -0.175
REMARK SMILES C=C1CC=C(C(C)C)CC1
REMARK SMILES IDX 5 1 4 2 3 3 2 4 1 5 10 6 9 7 6 8 7 9 8 10
REMARK H PARENT
REMARK Flexibility Score: inf
ROOT
ATOM      1  C   UNL     1     -14.105  -2.170  20.103  1.00  0.00    -0.071 C 
ATOM      2  C   UNL     1     -15.427  -2.030  19.862  1.00  0.00    -0.023 C 
ATOM      3  C   UNL     1     -16.032  -2.460  18.551  1.00  0.00     0.057 C 
ATOM      4  C   UNL     1     -15.077  -2.204  17.404  1.00  0.00    -0.073 C 
ATOM      5  C   UNL     1     -15.551  -2.005  16.166  1.00  0.00     0.008 C 
ATOM      6  C   UNL     1     -13.581  -2.209  17.646  1.00  0.00     0.035 C 
ATOM      7  C   UNL     1     -13.235  -2.785  19.027  1.00  0.00     0.035 C 
ENDROOT
BRANCH   1   8
ATOM      8  C   UNL     1     -13.483  -1.703  21.410  1.00  0.00     0.008 C 
ATOM      9  C   UNL     1     -14.559  -1.426  22.467  1.00  0.00     0.012 C 
ATOM     10  C   UNL     1     -12.446  -2.708  21.925  1.00  0.00     0.012 C 
ENDBRANCH   1   8
TORSDOF 1
ENDMDL
MODEL 8
REMARK VINA RESULT:     0.331      3.062      4.587
REMARK INTER + INTRA:           0.175
REMARK INTER:                   0.332
REMARK INTRA:                  -0.157
REMARK UNBOUND:                -0.175
REMARK SMILES C=C1CC=C(C(C)C)CC1
REMARK SMILES IDX 5 1 4 2 3 3 2 4 1 5 10 6 9 7 6 8 7 9 8 10
REMARK H PARENT
REMARK Flexibility Score: inf
ROOT
ATOM      1  C   UNL     1     -14.812  -2.082  19.357  1.00  0.00    -0.071 C 
ATOM      2  C   UNL     1     -15.404  -2.742  20.377  1.00  0.00    -0.023 C 
ATOM      3  C   UNL     1     -15.147  -2.356  21.811  1.00  0.00     0.057 C 
ATOM      4  C   UNL     1     -13.715  -1.903  22.002  1.00  0.00    -0.073 C 
ATOM      5  C   UNL     1     -13.126  -2.020  23.200  1.00  0.00     0.008 C 
ATOM      6  C   UNL     1     -12.954  -1.282  20.847  1.00  0.00     0.035 C 
ATOM      7  C   UNL     1     -13.889  -0.927  19.682  1.00  0.00     0.035 C 
ENDROOT
BRANCH   1   8
ATOM      8  C   UNL     1     -15.038  -2.492  17.910  1.00  0.00     0.008 C 
ATOM      9  C   UNL     1     -15.900  -1.462  17.171  1.00  0.00     0.012 C 
ATOM     10  C   UNL     1     -13.710  -2.727  17.182  1.00  0.00     0.012 C 
ENDBRANCH   1   8
TORSDOF 1
ENDMDL
