MODEL 1
REMARK VINA RESULT:    -4.828      0.000      0.000
REMARK INTER + INTRA:          -5.111
REMARK INTER:                  -5.111
REMARK INTRA:                   0.000
REMARK UNBOUND:                 0.000
REMARK SMILES O=c1ccc2cc(O)c(O)cc2o1
REMARK SMILES IDX 4 1 3 2 2 3 1 4 13 5 12 6 11 7 9 8 7 9 6 10 5 11 8 12 10 14
REMARK H PARENT 8 13 10 15
REMARK Flexibility Score: inf
ROOT
ATOM      1  C   UNL     1      43.640  20.879  -5.093  1.00  0.00     0.019 A 
ATOM      2  C   UNL     1      44.329  20.089  -6.013  1.00  0.00     0.094 A 
ATOM      3  C   UNL     1      44.528  18.733  -5.728  1.00  0.00     0.336 A 
ATOM      4  O   UNL     1      45.147  18.004  -6.546  1.00  0.00    -0.246 OA
ATOM      5  O   UNL     1      44.067  18.208  -4.596  1.00  0.00    -0.423 OA
ATOM      6  C   UNL     1      43.404  18.925  -3.692  1.00  0.00     0.142 A 
ATOM      7  C   UNL     1      42.943  18.319  -2.519  1.00  0.00     0.098 A 
ATOM      8  C   UNL     1      42.244  19.071  -1.563  1.00  0.00     0.161 A 
ATOM      9  C   UNL     1      42.007  20.437  -1.781  1.00  0.00     0.158 A 
ATOM     10  C   UNL     1      42.467  21.050  -2.954  1.00  0.00     0.062 A 
ATOM     11  C   UNL     1      43.166  20.300  -3.911  1.00  0.00     0.022 A 
ENDROOT
BRANCH   9  12
ATOM     12  O   UNL     1      41.312  21.176  -0.825  1.00  0.00    -0.504 OA
ATOM     13  H   UNL     1      40.308  21.299  -0.878  1.00  0.00     0.293 HD
ENDBRANCH   9  12
BRANCH   8  14
ATOM     14  O   UNL     1      41.783  18.469  -0.394  1.00  0.00    -0.504 OA
ATOM     15  H   UNL     1      40.794  18.398  -0.188  1.00  0.00     0.293 HD
ENDBRANCH   8  14
TORSDOF 2
ENDMDL
MODEL 2
REMARK VINA RESULT:    -4.782      1.219      2.282
REMARK INTER + INTRA:          -5.061
REMARK INTER:                  -5.061
REMARK INTRA:                   0.000
REMARK UNBOUND:                 0.000
REMARK SMILES O=c1ccc2cc(O)c(O)cc2o1
REMARK SMILES IDX 4 1 3 2 2 3 1 4 13 5 12 6 11 7 9 8 7 9 6 10 5 11 8 12 10 14
REMARK H PARENT 8 13 10 15
REMARK Flexibility Score: inf
ROOT
ATOM      1  C   UNL     1      44.064  18.260  -4.848  1.00  0.00     0.019 A 
ATOM      2  C   UNL     1      44.532  18.964  -5.959  1.00  0.00     0.094 A 
ATOM      3  C   UNL     1      44.324  20.346  -6.022  1.00  0.00     0.336 A 
ATOM      4  O   UNL     1      44.739  20.998  -7.016  1.00  0.00    -0.246 OA
ATOM      5  O   UNL     1      43.690  20.979  -5.038  1.00  0.00    -0.423 OA
ATOM      6  C   UNL     1      43.228  20.346  -3.962  1.00  0.00     0.142 A 
ATOM      7  C   UNL     1      42.569  21.063  -2.959  1.00  0.00     0.098 A 
ATOM      8  C   UNL     1      42.080  20.401  -1.822  1.00  0.00     0.161 A 
ATOM      9  C   UNL     1      42.252  19.015  -1.690  1.00  0.00     0.158 A 
ATOM     10  C   UNL     1      42.913  18.291  -2.692  1.00  0.00     0.062 A 
ATOM     11  C   UNL     1      43.401  18.951  -3.829  1.00  0.00     0.022 A 
ENDROOT
BRANCH   9  12
ATOM     12  O   UNL     1      41.763  18.365  -0.557  1.00  0.00    -0.504 OA
ATOM     13  H   UNL     1      41.114  18.819   0.074  1.00  0.00     0.293 HD
ENDBRANCH   9  12
BRANCH   8  14
ATOM     14  O   UNL     1      41.424  21.114  -0.821  1.00  0.00    -0.504 OA
ATOM     15  H   UNL     1      41.057  22.044  -0.985  1.00  0.00     0.293 HD
ENDBRANCH   8  14
TORSDOF 2
ENDMDL
MODEL 3
REMARK VINA RESULT:    -4.592      1.577      2.537
REMARK INTER + INTRA:          -4.860
REMARK INTER:                  -4.860
REMARK INTRA:                   0.000
REMARK UNBOUND:                 0.000
REMARK SMILES O=c1ccc2cc(O)c(O)cc2o1
REMARK SMILES IDX 4 1 3 2 2 3 1 4 13 5 12 6 11 7 9 8 7 9 6 10 5 11 8 12 10 14
REMARK H PARENT 8 13 10 15
REMARK Flexibility Score: inf
ROOT
ATOM      1  C   UNL     1      43.987  18.264  -5.315  1.00  0.00     0.019 A 
ATOM      2  C   UNL     1      44.443  19.363  -6.043  1.00  0.00     0.094 A 
ATOM      3  C   UNL     1      44.204  20.650  -5.549  1.00  0.00     0.336 A 
ATOM      4  O   UNL     1      44.608  21.654  -6.191  1.00  0.00    -0.246 OA
ATOM      5  O   UNL     1      43.549  20.821  -4.403  1.00  0.00    -0.423 OA
ATOM      6  C   UNL     1      43.098  19.801  -3.677  1.00  0.00     0.142 A 
ATOM      7  C   UNL     1      42.417  20.041  -2.480  1.00  0.00     0.098 A 
ATOM      8  C   UNL     1      41.939  18.969  -1.712  1.00  0.00     0.161 A 
ATOM      9  C   UNL     1      42.142  17.650  -2.145  1.00  0.00     0.158 A 
ATOM     10  C   UNL     1      42.825  17.403  -3.344  1.00  0.00     0.062 A 
ATOM     11  C   UNL     1      43.303  18.473  -4.114  1.00  0.00     0.022 A 
ENDROOT
BRANCH   9  12
ATOM     12  O   UNL     1      41.664  16.591  -1.375  1.00  0.00    -0.504 OA
ATOM     13  H   UNL     1      40.764  16.638  -0.912  1.00  0.00     0.293 HD
ENDBRANCH   9  12
BRANCH   8  14
ATOM     14  O   UNL     1      41.260  19.207  -0.518  1.00  0.00    -0.504 OA
ATOM     15  H   UNL     1      41.567  19.919   0.133  1.00  0.00     0.293 HD
ENDBRANCH   8  14
TORSDOF 2
ENDMDL
MODEL 4
REMARK VINA RESULT:    -4.315      7.662      9.300
REMARK INTER + INTRA:          -4.568
REMARK INTER:                  -4.568
REMARK INTRA:                   0.000
REMARK UNBOUND:                 0.000
REMARK SMILES O=c1ccc2cc(O)c(O)cc2o1
REMARK SMILES IDX 4 1 3 2 2 3 1 4 13 5 12 6 11 7 9 8 7 9 6 10 5 11 8 12 10 14
REMARK H PARENT 8 13 10 15
REMARK Flexibility Score: inf
ROOT
ATOM      1  C   UNL     1      51.986  15.789  -6.415  1.00  0.00     0.019 A 
ATOM      2  C   UNL     1      53.019  14.945  -6.823  1.00  0.00     0.094 A 
ATOM      3  C   UNL     1      52.972  13.593  -6.465  1.00  0.00     0.336 A 
ATOM      4  O   UNL     1      53.894  12.815  -6.823  1.00  0.00    -0.246 OA
ATOM      5  O   UNL     1      51.956  13.121  -5.746  1.00  0.00    -0.423 OA
ATOM      6  C   UNL     1      50.950  13.891  -5.338  1.00  0.00     0.142 A 
ATOM      7  C   UNL     1      49.909  13.340  -4.585  1.00  0.00     0.098 A 
ATOM      8  C   UNL     1      48.846  14.147  -4.151  1.00  0.00     0.161 A 
ATOM      9  C   UNL     1      48.827  15.513  -4.473  1.00  0.00     0.158 A 
ATOM     10  C   UNL     1      49.868  16.071  -5.228  1.00  0.00     0.062 A 
ATOM     11  C   UNL     1      50.931  15.266  -5.661  1.00  0.00     0.022 A 
ENDROOT
BRANCH   9  12
ATOM     12  O   UNL     1      47.767  16.308  -4.038  1.00  0.00    -0.504 OA
ATOM     13  H   UNL     1      46.805  16.071  -4.252  1.00  0.00     0.293 HD
ENDBRANCH   9  12
BRANCH   8  14
ATOM     14  O   UNL     1      47.807  13.600  -3.401  1.00  0.00    -0.504 OA
ATOM     15  H   UNL     1      47.340  12.748  -3.685  1.00  0.00     0.293 HD
ENDBRANCH   8  14
TORSDOF 2
ENDMDL
MODEL 5
REMARK VINA RESULT:    -4.247      2.105      3.181
REMARK INTER + INTRA:          -4.495
REMARK INTER:                  -4.495
REMARK INTRA:                   0.000
REMARK UNBOUND:                 0.000
REMARK SMILES O=c1ccc2cc(O)c(O)cc2o1
REMARK SMILES IDX 4 1 3 2 2 3 1 4 13 5 12 6 11 7 9 8 7 9 6 10 5 11 8 12 10 14
REMARK H PARENT 8 13 10 15
REMARK Flexibility Score: inf
ROOT
ATOM      1  C   UNL     1      41.876  20.065  -3.295  1.00  0.00     0.019 A 
ATOM      2  C   UNL     1      42.588  20.903  -4.153  1.00  0.00     0.094 A 
ATOM      3  C   UNL     1      43.680  20.383  -4.858  1.00  0.00     0.336 A 
ATOM      4  O   UNL     1      44.335  21.123  -5.637  1.00  0.00    -0.246 OA
ATOM      5  O   UNL     1      44.032  19.108  -4.710  1.00  0.00    -0.423 OA
ATOM      6  C   UNL     1      43.379  18.274  -3.903  1.00  0.00     0.142 A 
ATOM      7  C   UNL     1      43.795  16.944  -3.787  1.00  0.00     0.098 A 
ATOM      8  C   UNL     1      43.110  16.062  -2.937  1.00  0.00     0.161 A 
ATOM      9  C   UNL     1      42.006  16.514  -2.199  1.00  0.00     0.158 A 
ATOM     10  C   UNL     1      41.585  17.846  -2.311  1.00  0.00     0.062 A 
ATOM     11  C   UNL     1      42.268  18.729  -3.160  1.00  0.00     0.022 A 
ENDROOT
BRANCH   9  12
ATOM     12  O   UNL     1      41.333  15.630  -1.358  1.00  0.00    -0.504 OA
ATOM     13  H   UNL     1      41.055  14.707  -1.672  1.00  0.00     0.293 HD
ENDBRANCH   9  12
BRANCH   8  14
ATOM     14  O   UNL     1      43.522  14.736  -2.821  1.00  0.00    -0.504 OA
ATOM     15  H   UNL     1      43.979  14.253  -3.586  1.00  0.00     0.293 HD
ENDBRANCH   8  14
TORSDOF 2
ENDMDL
MODEL 6
REMARK VINA RESULT:    -4.203      6.781      9.591
REMARK INTER + INTRA:          -4.449
REMARK INTER:                  -4.449
REMARK INTRA:                   0.000
REMARK UNBOUND:                 0.000
REMARK SMILES O=c1ccc2cc(O)c(O)cc2o1
REMARK SMILES IDX 4 1 3 2 2 3 1 4 13 5 12 6 11 7 9 8 7 9 6 10 5 11 8 12 10 14
REMARK H PARENT 8 13 10 15
REMARK Flexibility Score: inf
ROOT
ATOM      1  C   UNL     1      48.905  13.816  -4.273  1.00  0.00     0.019 A 
ATOM      2  C   UNL     1      47.694  14.464  -4.033  1.00  0.00     0.094 A 
ATOM      3  C   UNL     1      47.520  15.771  -4.502  1.00  0.00     0.336 A 
ATOM      4  O   UNL     1      46.434  16.373  -4.296  1.00  0.00    -0.246 OA
ATOM      5  O   UNL     1      48.497  16.385  -5.165  1.00  0.00    -0.423 OA
ATOM      6  C   UNL     1      49.667  15.803  -5.415  1.00  0.00     0.142 A 
ATOM      7  C   UNL     1      50.657  16.497  -6.117  1.00  0.00     0.098 A 
ATOM      8  C   UNL     1      51.893  15.888  -6.384  1.00  0.00     0.161 A 
ATOM      9  C   UNL     1      52.138  14.578  -5.944  1.00  0.00     0.158 A 
ATOM     10  C   UNL     1      51.149  13.877  -5.240  1.00  0.00     0.062 A 
ATOM     11  C   UNL     1      49.914  14.485  -4.973  1.00  0.00     0.022 A 
ENDROOT
BRANCH   9  12
ATOM     12  O   UNL     1      53.369  13.981  -6.214  1.00  0.00    -0.504 OA
ATOM     13  H   UNL     1      53.780  13.306  -5.580  1.00  0.00     0.293 HD
ENDBRANCH   9  12
BRANCH   8  14
ATOM     14  O   UNL     1      52.881  16.578  -7.084  1.00  0.00    -0.504 OA
ATOM     15  H   UNL     1      53.774  16.151  -7.299  1.00  0.00     0.293 HD
ENDBRANCH   8  14
TORSDOF 2
ENDMDL
MODEL 7
REMARK VINA RESULT:    -4.090      5.848      7.789
REMARK INTER + INTRA:          -4.329
REMARK INTER:                  -4.329
REMARK INTRA:                   0.000
REMARK UNBOUND:                 0.000
REMARK SMILES O=c1ccc2cc(O)c(O)cc2o1
REMARK SMILES IDX 4 1 3 2 2 3 1 4 13 5 12 6 11 7 9 8 7 9 6 10 5 11 8 12 10 14
REMARK H PARENT 8 13 10 15
REMARK Flexibility Score: inf
ROOT
ATOM      1  C   UNL     1      46.807  16.294  -4.508  1.00  0.00     0.019 A 
ATOM      2  C   UNL     1      45.487  16.435  -4.080  1.00  0.00     0.094 A 
ATOM      3  C   UNL     1      44.917  15.425  -3.296  1.00  0.00     0.336 A 
ATOM      4  O   UNL     1      43.727  15.533  -2.901  1.00  0.00    -0.246 OA
ATOM      5  O   UNL     1      45.625  14.347  -2.966  1.00  0.00    -0.423 OA
ATOM      6  C   UNL     1      46.886  14.174  -3.352  1.00  0.00     0.142 A 
ATOM      7  C   UNL     1      47.581  13.021  -2.975  1.00  0.00     0.098 A 
ATOM      8  C   UNL     1      48.912  12.834  -3.380  1.00  0.00     0.161 A 
ATOM      9  C   UNL     1      49.549  13.805  -4.167  1.00  0.00     0.158 A 
ATOM     10  C   UNL     1      48.857  14.963  -4.548  1.00  0.00     0.062 A 
ATOM     11  C   UNL     1      47.528  15.152  -4.145  1.00  0.00     0.022 A 
ENDROOT
BRANCH   9  12
ATOM     12  O   UNL     1      50.871  13.610  -4.565  1.00  0.00    -0.504 OA
ATOM     13  H   UNL     1      51.172  12.742  -4.993  1.00  0.00     0.293 HD
ENDBRANCH   9  12
BRANCH   8  14
ATOM     14  O   UNL     1      49.606  11.685  -3.004  1.00  0.00    -0.504 OA
ATOM     15  H   UNL     1      49.157  10.939  -2.487  1.00  0.00     0.293 HD
ENDBRANCH   8  14
TORSDOF 2
ENDMDL
MODEL 8
REMARK VINA RESULT:    -4.066      1.835      4.489
REMARK INTER + INTRA:          -4.304
REMARK INTER:                  -4.304
REMARK INTRA:                   0.000
REMARK UNBOUND:                 0.000
REMARK SMILES O=c1ccc2cc(O)c(O)cc2o1
REMARK SMILES IDX 4 1 3 2 2 3 1 4 13 5 12 6 11 7 9 8 7 9 6 10 5 11 8 12 10 14
REMARK H PARENT 8 13 10 15
REMARK Flexibility Score: inf
ROOT
ATOM      1  C   UNL     1      43.217  20.110  -3.465  1.00  0.00     0.019 A 
ATOM      2  C   UNL     1      42.468  20.890  -2.585  1.00  0.00     0.094 A 
ATOM      3  C   UNL     1      41.697  20.256  -1.604  1.00  0.00     0.336 A 
ATOM      4  O   UNL     1      41.015  20.942  -0.800  1.00  0.00    -0.246 OA
ATOM      5  O   UNL     1      41.680  18.928  -1.515  1.00  0.00    -0.423 OA
ATOM      6  C   UNL     1      42.380  18.146  -2.334  1.00  0.00     0.142 A 
ATOM      7  C   UNL     1      42.323  16.757  -2.193  1.00  0.00     0.098 A 
ATOM      8  C   UNL     1      43.059  15.929  -3.055  1.00  0.00     0.161 A 
ATOM      9  C   UNL     1      43.854  16.495  -4.062  1.00  0.00     0.158 A 
ATOM     10  C   UNL     1      43.915  17.888  -4.208  1.00  0.00     0.062 A 
ATOM     11  C   UNL     1      43.180  18.717  -3.349  1.00  0.00     0.022 A 
ENDROOT
BRANCH   9  12
ATOM     12  O   UNL     1      44.582  15.665  -4.913  1.00  0.00    -0.504 OA
ATOM     13  H   UNL     1      45.584  15.550  -4.813  1.00  0.00     0.293 HD
ENDBRANCH   9  12
BRANCH   8  14
ATOM     14  O   UNL     1      43.004  14.543  -2.916  1.00  0.00    -0.504 OA
ATOM     15  H   UNL     1      43.774  13.951  -3.202  1.00  0.00     0.293 HD
ENDBRANCH   8  14
TORSDOF 2
ENDMDL
MODEL 9
REMARK VINA RESULT:    -3.352      6.634      9.203
REMARK INTER + INTRA:          -3.548
REMARK INTER:                  -3.548
REMARK INTRA:                   0.000
REMARK UNBOUND:                 0.000
REMARK SMILES O=c1ccc2cc(O)c(O)cc2o1
REMARK SMILES IDX 4 1 3 2 2 3 1 4 13 5 12 6 11 7 9 8 7 9 6 10 5 11 8 12 10 14
REMARK H PARENT 8 13 10 15
REMARK Flexibility Score: inf
ROOT
ATOM      1  C   UNL     1      48.155  16.517  -5.248  1.00  0.00     0.019 A 
ATOM      2  C   UNL     1      47.229  15.791  -4.499  1.00  0.00     0.094 A 
ATOM      3  C   UNL     1      47.605  14.551  -3.971  1.00  0.00     0.336 A 
ATOM      4  O   UNL     1      46.784  13.881  -3.293  1.00  0.00    -0.246 OA
ATOM      5  O   UNL     1      48.829  14.072  -4.183  1.00  0.00    -0.423 OA
ATOM      6  C   UNL     1      49.743  14.731  -4.891  1.00  0.00     0.142 A 
ATOM      7  C   UNL     1      51.013  14.179  -5.081  1.00  0.00     0.098 A 
ATOM      8  C   UNL     1      51.980  14.870  -5.827  1.00  0.00     0.161 A 
ATOM      9  C   UNL     1      51.673  16.120  -6.386  1.00  0.00     0.158 A 
ATOM     10  C   UNL     1      50.401  16.679  -6.198  1.00  0.00     0.062 A 
ATOM     11  C   UNL     1      49.434  15.989  -5.454  1.00  0.00     0.022 A 
ENDROOT
BRANCH   9  12
ATOM     12  O   UNL     1      52.640  16.799  -7.125  1.00  0.00    -0.504 OA
ATOM     13  H   UNL     1      53.011  17.691  -6.819  1.00  0.00     0.293 HD
ENDBRANCH   9  12
BRANCH   8  14
ATOM     14  O   UNL     1      53.247  14.321  -6.016  1.00  0.00    -0.504 OA
ATOM     15  H   UNL     1      54.072  14.738  -5.603  1.00  0.00     0.293 HD
ENDBRANCH   8  14
TORSDOF 2
ENDMDL
