MODEL 1
REMARK VINA RESULT:    -6.117      0.000      0.000
REMARK INTER + INTRA:          -6.758
REMARK INTER:                  -6.653
REMARK INTRA:                  -0.105
REMARK UNBOUND:                -0.105
REMARK SMILES C[C@@H]1[C@@H](C)CC[C@@]2(C(=O)[O-])CC[C@@]3(C)C(=CC[C@H]4[C@]5(C)CC[C@H](O)C(C)(C)[C@@H]5CC[C@@]43C)[C@@H]12
REMARK SMILES IDX 7 1 6 2 11 3 33 4 5 5 12 6 15 7 2 8 3 9 13 10 16 11 1 12
REMARK SMILES IDX 4 13 14 14 31 15 17 16 18 17 30 18 32 19 19 20 29 21 28 22
REMARK SMILES IDX 21 23 20 24 25 25 22 26 23 27 26 28 27 29 8 30 9 31 10 32
REMARK SMILES IDX 24 33
REMARK H PARENT 24 34
REMARK Flexibility Score: inf
ROOT
ATOM      1  C   UNL     1      43.916  39.932  -2.629  1.00  0.00     0.017 C 
ATOM      2  C   UNL     1      43.502  40.019  -1.074  1.00  0.00     0.014 C 
ATOM      3  C   UNL     1      43.471  38.504  -2.898  1.00  0.00     0.014 C 
ATOM      4  C   UNL     1      43.094  41.065  -3.360  1.00  0.00     0.030 C 
ATOM      5  C   UNL     1      42.037  40.681  -0.776  1.00  0.00     0.004 C 
ATOM      6  C   UNL     1      42.943  38.269  -4.278  1.00  0.00     0.013 C 
ATOM      7  C   UNL     1      41.823  40.546  -4.257  1.00  0.00    -0.063 C 
ATOM      8  C   UNL     1      42.946  42.368  -2.283  1.00  0.00    -0.003 C 
ATOM      9  C   UNL     1      41.710  42.066  -1.455  1.00  0.00    -0.011 C 
ATOM     10  C   UNL     1      41.603  39.012  -4.550  1.00  0.00    -0.006 C 
ATOM     11  C   UNL     1      40.978  41.476  -4.896  1.00  0.00    -0.027 C 
ATOM     12  C   UNL     1      43.968  42.871  -1.083  1.00  0.00     0.008 C 
ATOM     13  C   UNL     1      40.406  42.489  -2.152  1.00  0.00     0.008 C 
ATOM     14  C   UNL     1      40.506  38.559  -3.563  1.00  0.00     0.017 C 
ATOM     15  C   UNL     1      41.068  38.633  -6.097  1.00  0.00    -0.020 C 
ATOM     16  C   UNL     1      40.362  41.221  -6.241  1.00  0.00     0.032 C 
ATOM     17  C   UNL     1      40.051  39.760  -6.585  1.00  0.00     0.006 C 
ATOM     18  C   UNL     1      40.181  37.340  -6.123  1.00  0.00     0.008 C 
ATOM     19  C   UNL     1      42.328  38.347  -6.991  1.00  0.00     0.012 C 
ATOM     20  C   UNL     1      39.743  39.598  -8.114  1.00  0.00    -0.025 C 
ATOM     21  C   UNL     1      39.851  36.912  -7.595  1.00  0.00     0.005 C 
ATOM     22  C   UNL     1      39.294  38.106  -8.536  1.00  0.00     0.003 C 
ATOM     23  C   UNL     1      38.488  40.399  -8.402  1.00  0.00     0.010 C 
ATOM     24  C   UNL     1      40.960  40.130  -8.992  1.00  0.00     0.012 C 
ATOM     25  C   UNL     1      37.746  37.989  -9.205  1.00  0.00    -0.006 C 
ATOM     26  C   UNL     1      38.124  40.284  -9.876  1.00  0.00     0.033 C 
ATOM     27  C   UNL     1      37.182  39.126 -10.125  1.00  0.00     0.120 C 
ATOM     28  C   UNL     1      36.722  37.723  -8.025  1.00  0.00     0.014 C 
ATOM     29  C   UNL     1      37.848  36.649 -10.083  1.00  0.00     0.014 C 
ENDROOT
BRANCH   1  30
ATOM     30  C   UNL     1      45.454  40.172  -3.074  1.00  0.00     0.048 C 
ATOM     31  O   UNL     1      46.254  40.374  -2.137  1.00  0.00    -0.550 OA
ATOM     32  O   UNL     1      45.941  39.517  -4.211  1.00  0.00    -0.550 OA
ENDBRANCH   1  30
BRANCH  27  33
ATOM     33  O   UNL     1      35.834  39.442  -9.887  1.00  0.00    -0.393 OA
ATOM     34  H   UNL     1      35.253  39.429 -10.731  1.00  0.00     0.210 HD
ENDBRANCH  27  33
TORSDOF 2
ENDMDL
MODEL 2
REMARK VINA RESULT:    -5.764      1.544      8.057
REMARK INTER + INTRA:          -6.374
REMARK INTER:                  -6.101
REMARK INTRA:                  -0.273
REMARK UNBOUND:                -0.105
REMARK SMILES C[C@@H]1[C@@H](C)CC[C@@]2(C(=O)[O-])CC[C@@]3(C)C(=CC[C@H]4[C@]5(C)CC[C@H](O)C(C)(C)[C@@H]5CC[C@@]43C)[C@@H]12
REMARK SMILES IDX 7 1 6 2 11 3 33 4 5 5 12 6 15 7 2 8 3 9 13 10 16 11 1 12
REMARK SMILES IDX 4 13 14 14 31 15 17 16 18 17 30 18 32 19 19 20 29 21 28 22
REMARK SMILES IDX 21 23 20 24 25 25 22 26 23 27 26 28 27 29 8 30 9 31 10 32
REMARK SMILES IDX 24 33
REMARK H PARENT 24 34
REMARK Flexibility Score: inf
ROOT
ATOM      1  C   UNL     1      37.773  37.359  -7.839  1.00  0.00     0.017 C 
ATOM      2  C   UNL     1      38.079  37.111  -9.401  1.00  0.00     0.014 C 
ATOM      3  C   UNL     1      38.882  36.500  -7.256  1.00  0.00     0.014 C 
ATOM      4  C   UNL     1      37.910  38.917  -7.613  1.00  0.00     0.030 C 
ATOM      5  C   UNL     1      39.005  38.248 -10.123  1.00  0.00     0.004 C 
ATOM      6  C   UNL     1      39.462  37.019  -5.979  1.00  0.00     0.013 C 
ATOM      7  C   UNL     1      39.274  39.399  -6.839  1.00  0.00    -0.063 C 
ATOM      8  C   UNL     1      37.373  39.689  -9.025  1.00  0.00    -0.003 C 
ATOM      9  C   UNL     1      38.587  39.758  -9.933  1.00  0.00    -0.011 C 
ATOM     10  C   UNL     1      40.242  38.353  -6.164  1.00  0.00    -0.006 C 
ATOM     11  C   UNL     1      39.533  40.771  -6.647  1.00  0.00    -0.027 C 
ATOM     12  C   UNL     1      36.232  39.212 -10.124  1.00  0.00     0.008 C 
ATOM     13  C   UNL     1      39.500  40.955  -9.622  1.00  0.00     0.008 C 
ATOM     14  C   UNL     1      41.413  38.179  -7.155  1.00  0.00     0.017 C 
ATOM     15  C   UNL     1      40.903  38.814  -4.690  1.00  0.00    -0.020 C 
ATOM     16  C   UNL     1      40.200  41.305  -5.412  1.00  0.00     0.032 C 
ATOM     17  C   UNL     1      41.210  40.378  -4.726  1.00  0.00     0.006 C 
ATOM     18  C   UNL     1      42.323  38.193  -4.450  1.00  0.00     0.008 C 
ATOM     19  C   UNL     1      39.966  38.278  -3.548  1.00  0.00     0.012 C 
ATOM     20  C   UNL     1      41.565  40.902  -3.290  1.00  0.00    -0.025 C 
ATOM     21  C   UNL     1      42.831  38.493  -2.997  1.00  0.00     0.005 C 
ATOM     22  C   UNL     1      42.710  40.043  -2.545  1.00  0.00     0.003 C 
ATOM     23  C   UNL     1      42.242  42.248  -3.463  1.00  0.00     0.010 C 
ATOM     24  C   UNL     1      40.250  41.047  -2.405  1.00  0.00     0.012 C 
ATOM     25  C   UNL     1      44.106  40.908  -2.148  1.00  0.00    -0.006 C 
ATOM     26  C   UNL     1      42.620  42.818  -2.103  1.00  0.00     0.033 C 
ATOM     27  C   UNL     1      44.021  42.408  -1.701  1.00  0.00     0.120 C 
ATOM     28  C   UNL     1      45.119  40.787  -3.362  1.00  0.00     0.014 C 
ATOM     29  C   UNL     1      44.702  40.061  -0.921  1.00  0.00     0.014 C 
ENDROOT
BRANCH   1  30
ATOM     30  C   UNL     1      36.328  36.970  -7.222  1.00  0.00     0.048 C 
ATOM     31  O   UNL     1      35.846  37.804  -6.428  1.00  0.00    -0.550 OA
ATOM     32  O   UNL     1      35.433  36.231  -8.005  1.00  0.00    -0.550 OA
ENDBRANCH   1  30
BRANCH  27  33
ATOM     33  O   UNL     1      45.022  43.228  -2.248  1.00  0.00    -0.393 OA
ATOM     34  H   UNL     1      45.739  42.713  -2.767  1.00  0.00     0.210 HD
ENDBRANCH  27  33
TORSDOF 2
ENDMDL
MODEL 3
REMARK VINA RESULT:    -5.721      2.023      8.153
REMARK INTER + INTRA:          -6.327
REMARK INTER:                  -6.082
REMARK INTRA:                  -0.244
REMARK UNBOUND:                -0.105
REMARK SMILES C[C@@H]1[C@@H](C)CC[C@@]2(C(=O)[O-])CC[C@@]3(C)C(=CC[C@H]4[C@]5(C)CC[C@H](O)C(C)(C)[C@@H]5CC[C@@]43C)[C@@H]12
REMARK SMILES IDX 7 1 6 2 11 3 33 4 5 5 12 6 15 7 2 8 3 9 13 10 16 11 1 12
REMARK SMILES IDX 4 13 14 14 31 15 17 16 18 17 30 18 32 19 19 20 29 21 28 22
REMARK SMILES IDX 21 23 20 24 25 25 22 26 23 27 26 28 27 29 8 30 9 31 10 32
REMARK SMILES IDX 24 33
REMARK H PARENT 24 34
REMARK Flexibility Score: inf
ROOT
ATOM      1  C   UNL     1      39.342  39.694  -8.065  1.00  0.00     0.017 C 
ATOM      2  C   UNL     1      38.371  38.435  -8.329  1.00  0.00     0.014 C 
ATOM      3  C   UNL     1      38.467  40.447  -7.077  1.00  0.00     0.014 C 
ATOM      4  C   UNL     1      40.684  39.092  -7.486  1.00  0.00     0.030 C 
ATOM      5  C   UNL     1      38.680  37.111  -7.422  1.00  0.00     0.004 C 
ATOM      6  C   UNL     1      39.222  41.190  -6.021  1.00  0.00     0.013 C 
ATOM      7  C   UNL     1      40.912  39.303  -5.876  1.00  0.00    -0.063 C 
ATOM      8  C   UNL     1      40.931  37.586  -8.227  1.00  0.00    -0.003 C 
ATOM      9  C   UNL     1      40.168  36.588  -7.376  1.00  0.00    -0.011 C 
ATOM     10  C   UNL     1      39.971  40.249  -5.035  1.00  0.00    -0.006 C 
ATOM     11  C   UNL     1      42.041  38.746  -5.241  1.00  0.00    -0.027 C 
ATOM     12  C   UNL     1      40.490  37.061  -9.733  1.00  0.00     0.008 C 
ATOM     13  C   UNL     1      40.963  36.119  -6.147  1.00  0.00     0.008 C 
ATOM     14  C   UNL     1      38.987  39.307  -4.308  1.00  0.00     0.017 C 
ATOM     15  C   UNL     1      40.731  41.177  -3.858  1.00  0.00    -0.020 C 
ATOM     16  C   UNL     1      42.759  39.432  -4.115  1.00  0.00     0.032 C 
ATOM     17  C   UNL     1      41.907  40.322  -3.202  1.00  0.00     0.006 C 
ATOM     18  C   UNL     1      39.799  41.470  -2.632  1.00  0.00     0.008 C 
ATOM     19  C   UNL     1      41.103  42.563  -4.497  1.00  0.00     0.012 C 
ATOM     20  C   UNL     1      42.814  41.233  -2.303  1.00  0.00    -0.025 C 
ATOM     21  C   UNL     1      40.470  42.482  -1.642  1.00  0.00     0.005 C 
ATOM     22  C   UNL     1      41.993  42.118  -1.232  1.00  0.00     0.003 C 
ATOM     23  C   UNL     1      43.616  40.312  -1.404  1.00  0.00     0.010 C 
ATOM     24  C   UNL     1      43.783  42.121  -3.201  1.00  0.00     0.012 C 
ATOM     25  C   UNL     1      42.372  41.811   0.386  1.00  0.00    -0.006 C 
ATOM     26  C   UNL     1      44.521  41.132  -0.495  1.00  0.00     0.033 C 
ATOM     27  C   UNL     1      43.838  41.461   0.815  1.00  0.00     0.120 C 
ATOM     28  C   UNL     1      41.396  40.677   0.911  1.00  0.00     0.014 C 
ATOM     29  C   UNL     1      41.962  43.187   1.105  1.00  0.00     0.014 C 
ENDROOT
BRANCH   1  30
ATOM     30  C   UNL     1      39.802  40.638  -9.297  1.00  0.00     0.048 C 
ATOM     31  O   UNL     1      38.907  41.367  -9.772  1.00  0.00    -0.550 OA
ATOM     32  O   UNL     1      41.115  41.123  -9.328  1.00  0.00    -0.550 OA
ENDBRANCH   1  30
BRANCH  27  33
ATOM     33  O   UNL     1      43.929  40.432   1.767  1.00  0.00    -0.393 OA
ATOM     34  H   UNL     1      44.731  39.810   1.626  1.00  0.00     0.210 HD
ENDBRANCH  27  33
TORSDOF 2
ENDMDL
MODEL 4
REMARK VINA RESULT:    -5.650      4.418      6.175
REMARK INTER + INTRA:          -6.250
REMARK INTER:                  -5.974
REMARK INTRA:                  -0.276
REMARK UNBOUND:                -0.105
REMARK SMILES C[C@@H]1[C@@H](C)CC[C@@]2(C(=O)[O-])CC[C@@]3(C)C(=CC[C@H]4[C@]5(C)CC[C@H](O)C(C)(C)[C@@H]5CC[C@@]43C)[C@@H]12
REMARK SMILES IDX 7 1 6 2 11 3 33 4 5 5 12 6 15 7 2 8 3 9 13 10 16 11 1 12
REMARK SMILES IDX 4 13 14 14 31 15 17 16 18 17 30 18 32 19 19 20 29 21 28 22
REMARK SMILES IDX 21 23 20 24 25 25 22 26 23 27 26 28 27 29 8 30 9 31 10 32
REMARK SMILES IDX 24 33
REMARK H PARENT 24 34
REMARK Flexibility Score: inf
ROOT
ATOM      1  C   UNL     1      37.590  42.080   1.862  1.00  0.00     0.017 C 
ATOM      2  C   UNL     1      36.143  41.876   2.543  1.00  0.00     0.014 C 
ATOM      3  C   UNL     1      37.820  40.652   1.398  1.00  0.00     0.014 C 
ATOM      4  C   UNL     1      37.384  43.156   0.723  1.00  0.00     0.030 C 
ATOM      5  C   UNL     1      34.865  42.239   1.592  1.00  0.00     0.004 C 
ATOM      6  C   UNL     1      38.580  40.532   0.115  1.00  0.00     0.013 C 
ATOM      7  C   UNL     1      37.377  42.567  -0.808  1.00  0.00    -0.063 C 
ATOM      8  C   UNL     1      36.202  44.249   1.258  1.00  0.00    -0.003 C 
ATOM      9  C   UNL     1      34.874  43.634   0.856  1.00  0.00    -0.011 C 
ATOM     10  C   UNL     1      37.790  41.076  -1.111  1.00  0.00    -0.006 C 
ATOM     11  C   UNL     1      37.132  43.428  -1.897  1.00  0.00    -0.027 C 
ATOM     12  C   UNL     1      35.829  44.737   2.795  1.00  0.00     0.008 C 
ATOM     13  C   UNL     1      34.494  43.932  -0.603  1.00  0.00     0.008 C 
ATOM     14  C   UNL     1      36.461  40.313  -1.299  1.00  0.00     0.017 C 
ATOM     15  C   UNL     1      38.701  40.838  -2.503  1.00  0.00    -0.020 C 
ATOM     16  C   UNL     1      37.814  43.269  -3.225  1.00  0.00     0.032 C 
ATOM     17  C   UNL     1      38.192  41.841  -3.634  1.00  0.00     0.006 C 
ATOM     18  C   UNL     1      38.446  39.434  -3.153  1.00  0.00     0.008 C 
ATOM     19  C   UNL     1      40.220  40.893  -2.105  1.00  0.00     0.012 C 
ATOM     20  C   UNL     1      39.185  41.850  -4.847  1.00  0.00    -0.025 C 
ATOM     21  C   UNL     1      39.438  39.172  -4.338  1.00  0.00     0.005 C 
ATOM     22  C   UNL     1      39.542  40.380  -5.411  1.00  0.00     0.003 C 
ATOM     23  C   UNL     1      38.448  42.467  -6.020  1.00  0.00     0.010 C 
ATOM     24  C   UNL     1      40.489  42.694  -4.501  1.00  0.00     0.012 C 
ATOM     25  C   UNL     1      39.106  40.107  -7.020  1.00  0.00    -0.006 C 
ATOM     26  C   UNL     1      39.354  42.505  -7.243  1.00  0.00     0.033 C 
ATOM     27  C   UNL     1      39.202  41.255  -8.084  1.00  0.00     0.120 C 
ATOM     28  C   UNL     1      37.637  39.511  -7.034  1.00  0.00     0.014 C 
ATOM     29  C   UNL     1      40.117  38.940  -7.461  1.00  0.00     0.014 C 
ENDROOT
BRANCH   1  30
ATOM     30  C   UNL     1      38.831  42.630   2.742  1.00  0.00     0.048 C 
ATOM     31  O   UNL     1      39.612  43.397   2.141  1.00  0.00    -0.550 OA
ATOM     32  O   UNL     1      38.650  42.839   4.115  1.00  0.00    -0.550 OA
ENDBRANCH   1  30
BRANCH  27  33
ATOM     33  O   UNL     1      38.115  41.308  -8.972  1.00  0.00    -0.393 OA
ATOM     34  H   UNL     1      37.206  41.387  -8.506  1.00  0.00     0.210 HD
ENDBRANCH  27  33
TORSDOF 2
ENDMDL
MODEL 5
REMARK VINA RESULT:    -5.625      2.502      4.443
REMARK INTER + INTRA:          -6.223
REMARK INTER:                  -5.951
REMARK INTRA:                  -0.272
REMARK UNBOUND:                -0.105
REMARK SMILES C[C@@H]1[C@@H](C)CC[C@@]2(C(=O)[O-])CC[C@@]3(C)C(=CC[C@H]4[C@]5(C)CC[C@H](O)C(C)(C)[C@@H]5CC[C@@]43C)[C@@H]12
REMARK SMILES IDX 7 1 6 2 11 3 33 4 5 5 12 6 15 7 2 8 3 9 13 10 16 11 1 12
REMARK SMILES IDX 4 13 14 14 31 15 17 16 18 17 30 18 32 19 19 20 29 21 28 22
REMARK SMILES IDX 21 23 20 24 25 25 22 26 23 27 26 28 27 29 8 30 9 31 10 32
REMARK SMILES IDX 24 33
REMARK H PARENT 24 34
REMARK Flexibility Score: inf
ROOT
ATOM      1  C   UNL     1      41.320  41.820   0.254  1.00  0.00     0.017 C 
ATOM      2  C   UNL     1      42.631  42.639   0.710  1.00  0.00     0.014 C 
ATOM      3  C   UNL     1      40.700  42.874  -0.646  1.00  0.00     0.014 C 
ATOM      4  C   UNL     1      41.853  40.518  -0.466  1.00  0.00     0.030 C 
ATOM      5  C   UNL     1      43.982  42.339  -0.160  1.00  0.00     0.004 C 
ATOM      6  C   UNL     1      39.969  42.327  -1.830  1.00  0.00     0.013 C 
ATOM      7  C   UNL     1      41.726  40.516  -2.101  1.00  0.00    -0.063 C 
ATOM      8  C   UNL     1      43.286  40.051   0.313  1.00  0.00    -0.003 C 
ATOM      9  C   UNL     1      44.391  40.831  -0.376  1.00  0.00    -0.011 C 
ATOM     10  C   UNL     1      40.910  41.633  -2.858  1.00  0.00    -0.006 C 
ATOM     11  C   UNL     1      42.234  39.436  -2.850  1.00  0.00    -0.027 C 
ATOM     12  C   UNL     1      43.748  40.250   1.889  1.00  0.00     0.008 C 
ATOM     13  C   UNL     1      44.874  40.163  -1.674  1.00  0.00     0.008 C 
ATOM     14  C   UNL     1      41.968  42.620  -3.397  1.00  0.00     0.017 C 
ATOM     15  C   UNL     1      40.002  41.111  -4.172  1.00  0.00    -0.020 C 
ATOM     16  C   UNL     1      41.567  38.928  -4.096  1.00  0.00     0.032 C 
ATOM     17  C   UNL     1      40.804  39.962  -4.933  1.00  0.00     0.006 C 
ATOM     18  C   UNL     1      39.858  42.215  -5.276  1.00  0.00     0.008 C 
ATOM     19  C   UNL     1      38.554  40.779  -3.660  1.00  0.00     0.012 C 
ATOM     20  C   UNL     1      39.884  39.257  -5.990  1.00  0.00    -0.025 C 
ATOM     21  C   UNL     1      38.861  41.764  -6.398  1.00  0.00     0.005 C 
ATOM     22  C   UNL     1      39.133  40.281  -6.987  1.00  0.00     0.003 C 
ATOM     23  C   UNL     1      40.795  38.503  -6.938  1.00  0.00     0.010 C 
ATOM     24  C   UNL     1      38.869  38.260  -5.276  1.00  0.00     0.012 C 
ATOM     25  C   UNL     1      39.510  40.088  -8.623  1.00  0.00    -0.006 C 
ATOM     26  C   UNL     1      39.966  37.794  -8.001  1.00  0.00     0.033 C 
ATOM     27  C   UNL     1      39.773  38.664  -9.224  1.00  0.00     0.120 C 
ATOM     28  C   UNL     1      40.746  41.024  -8.953  1.00  0.00     0.014 C 
ATOM     29  C   UNL     1      38.217  40.701  -9.352  1.00  0.00     0.014 C 
ENDROOT
BRANCH   1  30
ATOM     30  C   UNL     1      40.269  41.287   1.364  1.00  0.00     0.048 C 
ATOM     31  O   UNL     1      39.847  40.126   1.183  1.00  0.00    -0.550 OA
ATOM     32  O   UNL     1      40.394  41.732   2.685  1.00  0.00    -0.550 OA
ENDBRANCH   1  30
BRANCH  27  33
ATOM     33  O   UNL     1      40.849  38.610 -10.125  1.00  0.00    -0.393 OA
ATOM     34  H   UNL     1      40.896  37.737 -10.659  1.00  0.00     0.210 HD
ENDBRANCH  27  33
TORSDOF 2
ENDMDL
MODEL 6
REMARK VINA RESULT:    -5.311      4.995      8.021
REMARK INTER + INTRA:          -5.881
REMARK INTER:                  -5.610
REMARK INTRA:                  -0.272
REMARK UNBOUND:                -0.105
REMARK SMILES C[C@@H]1[C@@H](C)CC[C@@]2(C(=O)[O-])CC[C@@]3(C)C(=CC[C@H]4[C@]5(C)CC[C@H](O)C(C)(C)[C@@H]5CC[C@@]43C)[C@@H]12
REMARK SMILES IDX 7 1 6 2 11 3 33 4 5 5 12 6 15 7 2 8 3 9 13 10 16 11 1 12
REMARK SMILES IDX 4 13 14 14 31 15 17 16 18 17 30 18 32 19 19 20 29 21 28 22
REMARK SMILES IDX 21 23 20 24 25 25 22 26 23 27 26 28 27 29 8 30 9 31 10 32
REMARK SMILES IDX 24 33
REMARK H PARENT 24 34
REMARK Flexibility Score: inf
ROOT
ATOM      1  C   UNL     1      37.795  42.780   2.083  1.00  0.00     0.017 C 
ATOM      2  C   UNL     1      36.279  42.270   1.882  1.00  0.00     0.014 C 
ATOM      3  C   UNL     1      38.424  41.455   2.479  1.00  0.00     0.014 C 
ATOM      4  C   UNL     1      38.241  43.371   0.687  1.00  0.00     0.030 C 
ATOM      5  C   UNL     1      35.865  41.894   0.347  1.00  0.00     0.004 C 
ATOM      6  C   UNL     1      39.833  41.273   2.010  1.00  0.00     0.013 C 
ATOM      7  C   UNL     1      39.273  42.433  -0.177  1.00  0.00    -0.063 C 
ATOM      8  C   UNL     1      36.876  44.079  -0.029  1.00  0.00    -0.003 C 
ATOM      9  C   UNL     1      36.183  42.954  -0.776  1.00  0.00    -0.011 C 
ATOM     10  C   UNL     1      39.946  41.158   0.462  1.00  0.00    -0.006 C 
ATOM     11  C   UNL     1      39.681  42.830  -1.466  1.00  0.00    -0.027 C 
ATOM     12  C   UNL     1      35.561  44.795   0.675  1.00  0.00     0.008 C 
ATOM     13  C   UNL     1      36.786  42.700  -2.168  1.00  0.00     0.008 C 
ATOM     14  C   UNL     1      39.134  39.957  -0.068  1.00  0.00     0.017 C 
ATOM     15  C   UNL     1      41.553  40.894   0.045  1.00  0.00    -0.020 C 
ATOM     16  C   UNL     1      41.063  42.574  -1.994  1.00  0.00     0.032 C 
ATOM     17  C   UNL     1      41.770  41.315  -1.477  1.00  0.00     0.006 C 
ATOM     18  C   UNL     1      41.926  39.371   0.034  1.00  0.00     0.008 C 
ATOM     19  C   UNL     1      42.455  41.583   1.131  1.00  0.00     0.012 C 
ATOM     20  C   UNL     1      43.299  41.349  -1.826  1.00  0.00    -0.025 C 
ATOM     21  C   UNL     1      43.466  39.170  -0.178  1.00  0.00     0.005 C 
ATOM     22  C   UNL     1      44.093  40.005  -1.415  1.00  0.00     0.003 C 
ATOM     23  C   UNL     1      43.410  41.332  -3.338  1.00  0.00     0.010 C 
ATOM     24  C   UNL     1      43.982  42.657  -1.229  1.00  0.00     0.012 C 
ATOM     25  C   UNL     1      44.811  39.179  -2.702  1.00  0.00    -0.006 C 
ATOM     26  C   UNL     1      44.875  41.360  -3.751  1.00  0.00     0.033 C 
ATOM     27  C   UNL     1      45.431  39.960  -3.911  1.00  0.00     0.120 C 
ATOM     28  C   UNL     1      43.762  38.125  -3.252  1.00  0.00     0.014 C 
ATOM     29  C   UNL     1      45.993  38.369  -1.978  1.00  0.00     0.014 C 
ENDROOT
BRANCH   1  30
ATOM     30  C   UNL     1      38.124  43.944   3.158  1.00  0.00     0.048 C 
ATOM     31  O   UNL     1      38.929  44.815   2.769  1.00  0.00    -0.550 OA
ATOM     32  O   UNL     1      37.126  44.341   4.055  1.00  0.00    -0.550 OA
ENDBRANCH   1  30
BRANCH  27  33
ATOM     33  O   UNL     1      45.158  39.390  -5.165  1.00  0.00    -0.393 OA
ATOM     34  H   UNL     1      45.817  39.672  -5.898  1.00  0.00     0.210 HD
ENDBRANCH  27  33
TORSDOF 2
ENDMDL
MODEL 7
REMARK VINA RESULT:    -5.176      3.604      6.235
REMARK INTER + INTRA:          -5.735
REMARK INTER:                  -5.492
REMARK INTRA:                  -0.243
REMARK UNBOUND:                -0.105
REMARK SMILES C[C@@H]1[C@@H](C)CC[C@@]2(C(=O)[O-])CC[C@@]3(C)C(=CC[C@H]4[C@]5(C)CC[C@H](O)C(C)(C)[C@@H]5CC[C@@]43C)[C@@H]12
REMARK SMILES IDX 7 1 6 2 11 3 33 4 5 5 12 6 15 7 2 8 3 9 13 10 16 11 1 12
REMARK SMILES IDX 4 13 14 14 31 15 17 16 18 17 30 18 32 19 19 20 29 21 28 22
REMARK SMILES IDX 21 23 20 24 25 25 22 26 23 27 26 28 27 29 8 30 9 31 10 32
REMARK SMILES IDX 24 33
REMARK H PARENT 24 34
REMARK Flexibility Score: inf
ROOT
ATOM      1  C   UNL     1      40.058  40.251  -7.715  1.00  0.00     0.017 C 
ATOM      2  C   UNL     1      40.865  40.703  -6.396  1.00  0.00     0.014 C 
ATOM      3  C   UNL     1      40.783  38.943  -7.982  1.00  0.00     0.014 C 
ATOM      4  C   UNL     1      38.545  40.129  -7.276  1.00  0.00     0.030 C 
ATOM      5  C   UNL     1      40.162  40.306  -4.975  1.00  0.00     0.004 C 
ATOM      6  C   UNL     1      39.923  37.865  -8.563  1.00  0.00     0.013 C 
ATOM      7  C   UNL     1      37.984  38.598  -7.100  1.00  0.00    -0.063 C 
ATOM      8  C   UNL     1      38.254  41.320  -6.103  1.00  0.00    -0.003 C 
ATOM      9  C   UNL     1      38.643  40.686  -4.781  1.00  0.00    -0.011 C 
ATOM     10  C   UNL     1      38.835  37.358  -7.574  1.00  0.00    -0.006 C 
ATOM     11  C   UNL     1      36.669  38.372  -6.644  1.00  0.00    -0.027 C 
ATOM     12  C   UNL     1      38.949  42.810  -5.912  1.00  0.00     0.008 C 
ATOM     13  C   UNL     1      37.525  39.818  -4.181  1.00  0.00     0.008 C 
ATOM     14  C   UNL     1      39.473  36.784  -6.290  1.00  0.00     0.017 C 
ATOM     15  C   UNL     1      37.970  36.112  -8.298  1.00  0.00    -0.020 C 
ATOM     16  C   UNL     1      35.821  37.240  -7.145  1.00  0.00     0.032 C 
ATOM     17  C   UNL     1      36.561  35.965  -7.566  1.00  0.00     0.006 C 
ATOM     18  C   UNL     1      38.627  34.709  -8.058  1.00  0.00     0.008 C 
ATOM     19  C   UNL     1      37.966  36.361  -9.849  1.00  0.00     0.012 C 
ATOM     20  C   UNL     1      35.616  35.012  -8.378  1.00  0.00    -0.025 C 
ATOM     21  C   UNL     1      37.903  33.597  -8.892  1.00  0.00     0.005 C 
ATOM     22  C   UNL     1      36.290  33.595  -8.759  1.00  0.00     0.003 C 
ATOM     23  C   UNL     1      34.501  34.589  -7.442  1.00  0.00     0.010 C 
ATOM     24  C   UNL     1      35.024  35.759  -9.652  1.00  0.00     0.012 C 
ATOM     25  C   UNL     1      35.506  32.239  -8.125  1.00  0.00    -0.006 C 
ATOM     26  C   UNL     1      33.542  33.653  -8.165  1.00  0.00     0.033 C 
ATOM     27  C   UNL     1      33.944  32.204  -7.989  1.00  0.00     0.120 C 
ATOM     28  C   UNL     1      36.154  31.914  -6.715  1.00  0.00     0.014 C 
ATOM     29  C   UNL     1      35.938  31.078  -9.147  1.00  0.00     0.014 C 
ENDROOT
BRANCH   1  30
ATOM     30  C   UNL     1      40.041  41.204  -9.023  1.00  0.00     0.048 C 
ATOM     31  O   UNL     1      41.131  41.301  -9.625  1.00  0.00    -0.550 OA
ATOM     32  O   UNL     1      38.871  41.287  -9.787  1.00  0.00    -0.550 OA
ENDBRANCH   1  30
BRANCH  27  33
ATOM     33  O   UNL     1      33.484  31.638  -6.789  1.00  0.00    -0.393 OA
ATOM     34  H   UNL     1      32.752  30.934  -6.920  1.00  0.00     0.210 HD
ENDBRANCH  27  33
TORSDOF 2
ENDMDL
MODEL 8
REMARK VINA RESULT:    -5.163      5.060      8.433
REMARK INTER + INTRA:          -5.720
REMARK INTER:                  -5.488
REMARK INTRA:                  -0.232
REMARK UNBOUND:                -0.105
REMARK SMILES C[C@@H]1[C@@H](C)CC[C@@]2(C(=O)[O-])CC[C@@]3(C)C(=CC[C@H]4[C@]5(C)CC[C@H](O)C(C)(C)[C@@H]5CC[C@@]43C)[C@@H]12
REMARK SMILES IDX 7 1 6 2 11 3 33 4 5 5 12 6 15 7 2 8 3 9 13 10 16 11 1 12
REMARK SMILES IDX 4 13 14 14 31 15 17 16 18 17 30 18 32 19 19 20 29 21 28 22
REMARK SMILES IDX 21 23 20 24 25 25 22 26 23 27 26 28 27 29 8 30 9 31 10 32
REMARK SMILES IDX 24 33
REMARK H PARENT 24 34
REMARK Flexibility Score: inf
ROOT
ATOM      1  C   UNL     1      40.906  40.886  -3.834  1.00  0.00     0.017 C 
ATOM      2  C   UNL     1      42.102  39.828  -3.620  1.00  0.00     0.014 C 
ATOM      3  C   UNL     1      39.734  39.948  -3.602  1.00  0.00     0.014 C 
ATOM      4  C   UNL     1      41.123  42.009  -2.744  1.00  0.00     0.030 C 
ATOM      5  C   UNL     1      42.745  39.791  -2.118  1.00  0.00     0.004 C 
ATOM      6  C   UNL     1      38.551  40.583  -2.943  1.00  0.00     0.013 C 
ATOM      7  C   UNL     1      40.090  41.962  -1.470  1.00  0.00    -0.063 C 
ATOM      8  C   UNL     1      42.795  42.194  -2.524  1.00  0.00    -0.003 C 
ATOM      9  C   UNL     1      43.179  41.166  -1.476  1.00  0.00    -0.011 C 
ATOM     10  C   UNL     1      38.832  41.011  -1.474  1.00  0.00    -0.006 C 
ATOM     11  C   UNL     1      40.237  42.873  -0.404  1.00  0.00    -0.027 C 
ATOM     12  C   UNL     1      44.035  41.975  -3.596  1.00  0.00     0.008 C 
ATOM     13  C   UNL     1      42.932  41.653  -0.039  1.00  0.00     0.008 C 
ATOM     14  C   UNL     1      39.233  39.797  -0.608  1.00  0.00     0.017 C 
ATOM     15  C   UNL     1      37.429  41.653  -0.809  1.00  0.00    -0.020 C 
ATOM     16  C   UNL     1      39.065  43.453   0.334  1.00  0.00     0.032 C 
ATOM     17  C   UNL     1      37.817  42.568   0.438  1.00  0.00     0.006 C 
ATOM     18  C   UNL     1      36.519  40.556  -0.156  1.00  0.00     0.008 C 
ATOM     19  C   UNL     1      36.599  42.311  -1.969  1.00  0.00     0.012 C 
ATOM     20  C   UNL     1      36.577  43.403   0.915  1.00  0.00    -0.025 C 
ATOM     21  C   UNL     1      35.142  41.157   0.290  1.00  0.00     0.005 C 
ATOM     22  C   UNL     1      35.249  42.519   1.159  1.00  0.00     0.003 C 
ATOM     23  C   UNL     1      36.888  43.901   2.313  1.00  0.00     0.010 C 
ATOM     24  C   UNL     1      36.312  44.627  -0.068  1.00  0.00     0.012 C 
ATOM     25  C   UNL     1      34.653  42.550   2.740  1.00  0.00    -0.006 C 
ATOM     26  C   UNL     1      35.720  44.720   2.844  1.00  0.00     0.033 C 
ATOM     27  C   UNL     1      34.737  43.855   3.604  1.00  0.00     0.120 C 
ATOM     28  C   UNL     1      35.324  41.357   3.540  1.00  0.00     0.014 C 
ATOM     29  C   UNL     1      33.101  42.195   2.533  1.00  0.00     0.014 C 
ENDROOT
BRANCH   1  30
ATOM     30  C   UNL     1      40.767  41.682  -5.236  1.00  0.00     0.048 C 
ATOM     31  O   UNL     1      40.616  40.962  -6.245  1.00  0.00    -0.550 OA
ATOM     32  O   UNL     1      40.155  42.941  -5.244  1.00  0.00    -0.550 OA
ENDBRANCH   1  30
BRANCH  27  33
ATOM     33  O   UNL     1      35.104  43.636   4.943  1.00  0.00    -0.393 OA
ATOM     34  H   UNL     1      34.399  43.945   5.619  1.00  0.00     0.210 HD
ENDBRANCH  27  33
TORSDOF 2
ENDMDL
MODEL 9
REMARK VINA RESULT:    -5.108      4.722      8.569
REMARK INTER + INTRA:          -5.661
REMARK INTER:                  -5.487
REMARK INTRA:                  -0.174
REMARK UNBOUND:                -0.105
REMARK SMILES C[C@@H]1[C@@H](C)CC[C@@]2(C(=O)[O-])CC[C@@]3(C)C(=CC[C@H]4[C@]5(C)CC[C@H](O)C(C)(C)[C@@H]5CC[C@@]43C)[C@@H]12
REMARK SMILES IDX 7 1 6 2 11 3 33 4 5 5 12 6 15 7 2 8 3 9 13 10 16 11 1 12
REMARK SMILES IDX 4 13 14 14 31 15 17 16 18 17 30 18 32 19 19 20 29 21 28 22
REMARK SMILES IDX 21 23 20 24 25 25 22 26 23 27 26 28 27 29 8 30 9 31 10 32
REMARK SMILES IDX 24 33
REMARK H PARENT 24 34
REMARK Flexibility Score: inf
ROOT
ATOM      1  C   UNL     1      40.734  40.817  -4.546  1.00  0.00     0.017 C 
ATOM      2  C   UNL     1      40.387  41.053  -6.102  1.00  0.00     0.014 C 
ATOM      3  C   UNL     1      40.727  42.267  -4.094  1.00  0.00     0.014 C 
ATOM      4  C   UNL     1      39.574  39.906  -3.978  1.00  0.00     0.030 C 
ATOM      5  C   UNL     1      38.808  40.912  -6.497  1.00  0.00     0.004 C 
ATOM      6  C   UNL     1      40.229  42.479  -2.699  1.00  0.00     0.013 C 
ATOM      7  C   UNL     1      38.477  40.673  -3.031  1.00  0.00    -0.063 C 
ATOM      8  C   UNL     1      39.093  38.855  -5.220  1.00  0.00    -0.003 C 
ATOM      9  C   UNL     1      38.046  39.619  -6.010  1.00  0.00    -0.011 C 
ATOM     10  C   UNL     1      38.716  42.152  -2.538  1.00  0.00    -0.006 C 
ATOM     11  C   UNL     1      37.362  39.973  -2.528  1.00  0.00    -0.027 C 
ATOM     12  C   UNL     1      39.972  38.217  -6.469  1.00  0.00     0.008 C 
ATOM     13  C   UNL     1      36.644  39.530  -5.387  1.00  0.00     0.008 C 
ATOM     14  C   UNL     1      37.854  43.036  -3.465  1.00  0.00     0.017 C 
ATOM     15  C   UNL     1      38.246  42.481  -0.959  1.00  0.00    -0.020 C 
ATOM     16  C   UNL     1      36.787  40.234  -1.166  1.00  0.00     0.032 C 
ATOM     17  C   UNL     1      36.914  41.667  -0.633  1.00  0.00     0.006 C 
ATOM     18  C   UNL     1      37.790  43.969  -0.769  1.00  0.00     0.008 C 
ATOM     19  C   UNL     1      39.489  42.256  -0.026  1.00  0.00     0.012 C 
ATOM     20  C   UNL     1      36.597  41.724   0.901  1.00  0.00    -0.025 C 
ATOM     21  C   UNL     1      37.533  44.291   0.744  1.00  0.00     0.005 C 
ATOM     22  C   UNL     1      36.598  43.217   1.514  1.00  0.00     0.003 C 
ATOM     23  C   UNL     1      35.147  41.314   1.070  1.00  0.00     0.010 C 
ATOM     24  C   UNL     1      37.553  40.741   1.710  1.00  0.00     0.012 C 
ATOM     25  C   UNL     1      35.128  43.716   2.180  1.00  0.00    -0.006 C 
ATOM     26  C   UNL     1      34.764  41.351   2.544  1.00  0.00     0.033 C 
ATOM     27  C   UNL     1      34.203  42.701   2.936  1.00  0.00     0.120 C 
ATOM     28  C   UNL     1      34.289  44.426   1.037  1.00  0.00     0.014 C 
ATOM     29  C   UNL     1      35.586  44.842   3.229  1.00  0.00     0.014 C 
ENDROOT
BRANCH   1  30
ATOM     30  C   UNL     1      42.104  40.065  -4.125  1.00  0.00     0.048 C 
ATOM     31  O   UNL     1      43.032  40.816  -3.758  1.00  0.00    -0.550 OA
ATOM     32  O   UNL     1      42.029  38.796  -3.539  1.00  0.00    -0.550 OA
ENDBRANCH   1  30
BRANCH  27  33
ATOM     33  O   UNL     1      32.836  42.843   2.648  1.00  0.00    -0.393 OA
ATOM     34  H   UNL     1      32.300  43.284   3.402  1.00  0.00     0.210 HD
ENDBRANCH  27  33
TORSDOF 2
ENDMDL
