MODEL 1
REMARK VINA RESULT:    -3.638      0.000      0.000
REMARK INTER + INTRA:          -4.009
REMARK INTER:                  -3.957
REMARK INTRA:                  -0.053
REMARK UNBOUND:                -0.053
REMARK SMILES CCc1cccc(O)c1
REMARK SMILES IDX 3 1 9 2 7 3 6 4 5 5 4 6 2 7 1 8 8 9
REMARK H PARENT 8 10
REMARK Flexibility Score: inf
ROOT
ATOM      1  C   UNL     1     127.733 143.671 120.340  1.00  0.00    -0.045 A 
ATOM      2  C   UNL     1     127.514 144.436 121.498  1.00  0.00     0.049 A 
ATOM      3  C   UNL     1     127.129 145.777 121.397  1.00  0.00     0.115 A 
ATOM      4  C   UNL     1     126.951 146.358 120.134  1.00  0.00     0.046 A 
ATOM      5  C   UNL     1     127.154 145.597 118.978  1.00  0.00     0.004 A 
ATOM      6  C   UNL     1     127.539 144.258 119.079  1.00  0.00     0.004 A 
ENDROOT
BRANCH   1   7
ATOM      7  C   UNL     1     128.116 142.218 120.450  1.00  0.00     0.032 C 
ATOM      8  C   UNL     1     126.875 141.340 120.569  1.00  0.00     0.009 C 
ENDBRANCH   1   7
BRANCH   3   9
ATOM      9  O   UNL     1     126.922 146.522 122.556  1.00  0.00    -0.508 OA
ATOM     10  H   UNL     1     126.787 146.076 123.454  1.00  0.00     0.293 HD
ENDBRANCH   3   9
TORSDOF 2
ENDMDL
MODEL 2
REMARK VINA RESULT:    -3.620      1.932      3.520
REMARK INTER + INTRA:          -3.990
REMARK INTER:                  -3.939
REMARK INTRA:                  -0.051
REMARK UNBOUND:                -0.053
REMARK SMILES CCc1cccc(O)c1
REMARK SMILES IDX 3 1 9 2 7 3 6 4 5 5 4 6 2 7 1 8 8 9
REMARK H PARENT 8 10
REMARK Flexibility Score: inf
ROOT
ATOM      1  C   UNL     1     127.194 145.656 121.417  1.00  0.00    -0.045 A 
ATOM      2  C   UNL     1     127.611 144.315 121.405  1.00  0.00     0.049 A 
ATOM      3  C   UNL     1     127.813 143.648 120.191  1.00  0.00     0.115 A 
ATOM      4  C   UNL     1     127.607 144.326 118.981  1.00  0.00     0.046 A 
ATOM      5  C   UNL     1     127.205 145.665 118.988  1.00  0.00     0.004 A 
ATOM      6  C   UNL     1     127.003 146.330 120.199  1.00  0.00     0.004 A 
ENDROOT
BRANCH   1   7
ATOM      7  C   UNL     1     127.008 146.382 122.723  1.00  0.00     0.032 C 
ATOM      8  C   UNL     1     128.356 146.765 123.325  1.00  0.00     0.009 C 
ENDBRANCH   1   7
BRANCH   3   9
ATOM      9  O   UNL     1     128.221 142.316 120.197  1.00  0.00    -0.508 OA
ATOM     10  H   UNL     1     128.976 141.997 120.792  1.00  0.00     0.293 HD
ENDBRANCH   3   9
TORSDOF 2
ENDMDL
MODEL 3
REMARK VINA RESULT:    -3.552      3.031      4.131
REMARK INTER + INTRA:          -3.916
REMARK INTER:                  -3.865
REMARK INTRA:                  -0.051
REMARK UNBOUND:                -0.053
REMARK SMILES CCc1cccc(O)c1
REMARK SMILES IDX 3 1 9 2 7 3 6 4 5 5 4 6 2 7 1 8 8 9
REMARK H PARENT 8 10
REMARK Flexibility Score: inf
ROOT
ATOM      1  C   UNL     1     129.719 145.998 120.707  1.00  0.00    -0.045 A 
ATOM      2  C   UNL     1     129.319 145.626 119.412  1.00  0.00     0.049 A 
ATOM      3  C   UNL     1     127.996 145.244 119.164  1.00  0.00     0.115 A 
ATOM      4  C   UNL     1     127.063 145.240 120.210  1.00  0.00     0.046 A 
ATOM      5  C   UNL     1     127.453 145.621 121.497  1.00  0.00     0.004 A 
ATOM      6  C   UNL     1     128.774 146.003 121.746  1.00  0.00     0.004 A 
ENDROOT
BRANCH   1   7
ATOM      7  C   UNL     1     131.135 146.441 120.966  1.00  0.00     0.032 C 
ATOM      8  C   UNL     1     131.738 147.081 119.721  1.00  0.00     0.009 C 
ENDBRANCH   1   7
BRANCH   3   9
ATOM      9  O   UNL     1     127.618 144.873 117.875  1.00  0.00    -0.508 OA
ATOM     10  H   UNL     1     127.483 143.902 117.622  1.00  0.00     0.293 HD
ENDBRANCH   3   9
TORSDOF 2
ENDMDL
MODEL 4
REMARK VINA RESULT:    -3.548      1.993      3.804
REMARK INTER + INTRA:          -3.912
REMARK INTER:                  -3.836
REMARK INTRA:                  -0.076
REMARK UNBOUND:                -0.053
REMARK SMILES CCc1cccc(O)c1
REMARK SMILES IDX 3 1 9 2 7 3 6 4 5 5 4 6 2 7 1 8 8 9
REMARK H PARENT 8 10
REMARK Flexibility Score: inf
ROOT
ATOM      1  C   UNL     1     127.371 145.636 121.514  1.00  0.00    -0.045 A 
ATOM      2  C   UNL     1     127.359 145.840 120.123  1.00  0.00     0.049 A 
ATOM      3  C   UNL     1     127.618 144.777 119.250  1.00  0.00     0.115 A 
ATOM      4  C   UNL     1     127.882 143.500 119.766  1.00  0.00     0.046 A 
ATOM      5  C   UNL     1     127.882 143.289 121.148  1.00  0.00     0.004 A 
ATOM      6  C   UNL     1     127.623 144.350 122.019  1.00  0.00     0.004 A 
ENDROOT
BRANCH   1   7
ATOM      7  C   UNL     1     127.060 146.772 122.451  1.00  0.00     0.032 C 
ATOM      8  C   UNL     1     127.227 146.337 123.902  1.00  0.00     0.009 C 
ENDBRANCH   1   7
BRANCH   3   9
ATOM      9  O   UNL     1     127.608 144.999 117.875  1.00  0.00    -0.508 OA
ATOM     10  H   UNL     1     126.883 145.550 117.434  1.00  0.00     0.293 HD
ENDBRANCH   3   9
TORSDOF 2
ENDMDL
MODEL 5
REMARK VINA RESULT:    -3.547     13.905     14.937
REMARK INTER + INTRA:          -3.910
REMARK INTER:                  -3.846
REMARK INTRA:                  -0.065
REMARK UNBOUND:                -0.053
REMARK SMILES CCc1cccc(O)c1
REMARK SMILES IDX 3 1 9 2 7 3 6 4 5 5 4 6 2 7 1 8 8 9
REMARK H PARENT 8 10
REMARK Flexibility Score: inf
ROOT
ATOM      1  C   UNL     1     128.600 130.187 120.293  1.00  0.00    -0.045 A 
ATOM      2  C   UNL     1     129.244 129.034 120.774  1.00  0.00     0.049 A 
ATOM      3  C   UNL     1     130.601 129.073 121.116  1.00  0.00     0.115 A 
ATOM      4  C   UNL     1     131.319 130.270 120.987  1.00  0.00     0.046 A 
ATOM      5  C   UNL     1     130.680 131.423 120.522  1.00  0.00     0.004 A 
ATOM      6  C   UNL     1     129.325 131.385 120.180  1.00  0.00     0.004 A 
ENDROOT
BRANCH   1   7
ATOM      7  C   UNL     1     127.133 130.154 119.958  1.00  0.00     0.032 C 
ATOM      8  C   UNL     1     126.884 130.720 118.564  1.00  0.00     0.009 C 
ENDBRANCH   1   7
BRANCH   3   9
ATOM      9  O   UNL     1     131.224 127.919 121.585  1.00  0.00    -0.508 OA
ATOM     10  H   UNL     1     131.718 127.906 122.469  1.00  0.00     0.293 HD
ENDBRANCH   3   9
TORSDOF 2
ENDMDL
MODEL 6
REMARK VINA RESULT:    -3.518      2.300      3.368
REMARK INTER + INTRA:          -3.879
REMARK INTER:                  -3.829
REMARK INTRA:                  -0.050
REMARK UNBOUND:                -0.053
REMARK SMILES CCc1cccc(O)c1
REMARK SMILES IDX 3 1 9 2 7 3 6 4 5 5 4 6 2 7 1 8 8 9
REMARK H PARENT 8 10
REMARK Flexibility Score: inf
ROOT
ATOM      1  C   UNL     1     127.761 145.917 120.606  1.00  0.00    -0.045 A 
ATOM      2  C   UNL     1     129.142 146.063 120.821  1.00  0.00     0.049 A 
ATOM      3  C   UNL     1     129.632 146.343 122.101  1.00  0.00     0.115 A 
ATOM      4  C   UNL     1     128.742 146.469 123.177  1.00  0.00     0.046 A 
ATOM      5  C   UNL     1     127.368 146.311 122.971  1.00  0.00     0.004 A 
ATOM      6  C   UNL     1     126.878 146.032 121.692  1.00  0.00     0.004 A 
ENDROOT
BRANCH   1   7
ATOM      7  C   UNL     1     127.237 145.584 119.234  1.00  0.00     0.032 C 
ATOM      8  C   UNL     1     128.002 144.410 118.634  1.00  0.00     0.009 C 
ENDBRANCH   1   7
BRANCH   3   9
ATOM      9  O   UNL     1     131.004 146.490 122.295  1.00  0.00    -0.508 OA
ATOM     10  H   UNL     1     131.578 145.722 122.620  1.00  0.00     0.293 HD
ENDBRANCH   3   9
TORSDOF 2
ENDMDL
MODEL 7
REMARK VINA RESULT:    -3.513      3.104      4.042
REMARK INTER + INTRA:          -3.874
REMARK INTER:                  -3.827
REMARK INTRA:                  -0.048
REMARK UNBOUND:                -0.053
REMARK SMILES CCc1cccc(O)c1
REMARK SMILES IDX 3 1 9 2 7 3 6 4 5 5 4 6 2 7 1 8 8 9
REMARK H PARENT 8 10
REMARK Flexibility Score: inf
ROOT
ATOM      1  C   UNL     1     128.901 145.003 119.406  1.00  0.00    -0.045 A 
ATOM      2  C   UNL     1     129.758 146.073 119.713  1.00  0.00     0.049 A 
ATOM      3  C   UNL     1     131.119 145.844 119.949  1.00  0.00     0.115 A 
ATOM      4  C   UNL     1     131.630 144.541 119.869  1.00  0.00     0.046 A 
ATOM      5  C   UNL     1     130.784 143.475 119.551  1.00  0.00     0.004 A 
ATOM      6  C   UNL     1     129.426 143.704 119.315  1.00  0.00     0.004 A 
ENDROOT
BRANCH   1   7
ATOM      7  C   UNL     1     127.444 145.255 119.119  1.00  0.00     0.032 C 
ATOM      8  C   UNL     1     126.875 146.290 120.083  1.00  0.00     0.009 C 
ENDBRANCH   1   7
BRANCH   3   9
ATOM      9  O   UNL     1     131.953 146.916 120.258  1.00  0.00    -0.508 OA
ATOM     10  H   UNL     1     131.679 147.872 120.066  1.00  0.00     0.293 HD
ENDBRANCH   3   9
TORSDOF 2
ENDMDL
MODEL 8
REMARK VINA RESULT:    -3.498      2.518      3.406
REMARK INTER + INTRA:          -3.858
REMARK INTER:                  -3.789
REMARK INTRA:                  -0.068
REMARK UNBOUND:                -0.053
REMARK SMILES CCc1cccc(O)c1
REMARK SMILES IDX 3 1 9 2 7 3 6 4 5 5 4 6 2 7 1 8 8 9
REMARK H PARENT 8 10
REMARK Flexibility Score: inf
ROOT
ATOM      1  C   UNL     1     129.699 145.996 120.789  1.00  0.00    -0.045 A 
ATOM      2  C   UNL     1     128.983 145.970 121.997  1.00  0.00     0.049 A 
ATOM      3  C   UNL     1     127.600 145.756 121.995  1.00  0.00     0.115 A 
ATOM      4  C   UNL     1     126.927 145.557 120.782  1.00  0.00     0.046 A 
ATOM      5  C   UNL     1     127.637 145.569 119.577  1.00  0.00     0.004 A 
ATOM      6  C   UNL     1     129.018 145.782 119.579  1.00  0.00     0.004 A 
ENDROOT
BRANCH   1   7
ATOM      7  C   UNL     1     131.192 146.193 120.794  1.00  0.00     0.032 C 
ATOM      8  C   UNL     1     131.619 147.122 119.663  1.00  0.00     0.009 C 
ENDBRANCH   1   7
BRANCH   3   9
ATOM      9  O   UNL     1     126.906 145.739 123.203  1.00  0.00    -0.508 OA
ATOM     10  H   UNL     1     126.575 146.594 123.634  1.00  0.00     0.293 HD
ENDBRANCH   3   9
TORSDOF 2
ENDMDL
MODEL 9
REMARK VINA RESULT:    -3.457      2.148      3.892
REMARK INTER + INTRA:          -3.813
REMARK INTER:                  -3.762
REMARK INTRA:                  -0.050
REMARK UNBOUND:                -0.053
REMARK SMILES CCc1cccc(O)c1
REMARK SMILES IDX 3 1 9 2 7 3 6 4 5 5 4 6 2 7 1 8 8 9
REMARK H PARENT 8 10
REMARK Flexibility Score: inf
ROOT
ATOM      1  C   UNL     1     128.141 143.898 119.403  1.00  0.00    -0.045 A 
ATOM      2  C   UNL     1     127.265 143.069 120.125  1.00  0.00     0.049 A 
ATOM      3  C   UNL     1     127.759 141.973 120.841  1.00  0.00     0.115 A 
ATOM      4  C   UNL     1     129.135 141.705 120.846  1.00  0.00     0.046 A 
ATOM      5  C   UNL     1     130.012 142.534 120.140  1.00  0.00     0.004 A 
ATOM      6  C   UNL     1     129.519 143.629 119.425  1.00  0.00     0.004 A 
ENDROOT
BRANCH   1   7
ATOM      7  C   UNL     1     127.613 145.096 118.660  1.00  0.00     0.032 C 
ATOM      8  C   UNL     1     127.171 146.184 119.633  1.00  0.00     0.009 C 
ENDBRANCH   1   7
BRANCH   3   9
ATOM      9  O   UNL     1     126.875 141.158 121.546  1.00  0.00    -0.508 OA
ATOM     10  H   UNL     1     127.117 140.775 122.451  1.00  0.00     0.293 HD
ENDBRANCH   3   9
TORSDOF 2
ENDMDL
