MODEL 1
REMARK VINA RESULT:    -4.739      0.000      0.000
REMARK INTER + INTRA:          -6.030
REMARK INTER:                  -6.678
REMARK INTRA:                   0.648
REMARK UNBOUND:                 0.648
REMARK SMILES CC1=CCC(=C(C)C)C(=O)CC(C)=CCC1
REMARK SMILES IDX 12 1 14 2 13 3 15 4 16 5 2 6 1 7 3 8 11 10 9 11 10 12 5 13
REMARK SMILES IDX 6 14 7 15 8 16 4 17
REMARK H PARENT
REMARK Flexibility Score: 60.00
ROOT
ATOM      1  C   UNL     1      19.514  -9.667  64.890  1.00  0.00    -0.070 C 
ATOM      2  C   UNL     1      19.847  -9.755  66.201  1.00  0.00    -0.027 C 
ATOM      3  C   UNL     1      20.640  -9.671  63.886  1.00  0.00     0.039 C 
ENDROOT
BRANCH   2   4
ATOM      4  C   UNL     1      18.899  -9.664  67.372  1.00  0.00     0.032 C 
BRANCH   4   5
ATOM      5  C   UNL     1      18.934 -10.921  68.262  1.00  0.00     0.034 C 
BRANCH   5   6
ATOM      6  C   UNL     1      18.746 -12.195  67.461  1.00  0.00    -0.077 C 
ATOM      7  C   UNL     1      19.795 -13.272  67.574  1.00  0.00     0.039 C 
ATOM      8  C   UNL     1      17.676 -12.433  66.670  1.00  0.00    -0.023 CG0
ATOM      9  G   UNL     1      16.509 -11.498  66.458  1.00  0.00     0.000 G0
ENDBRANCH   5   6
ENDBRANCH   4   5
ENDBRANCH   2   4
BRANCH   1  10
ATOM     10  C   UNL     1      18.089  -9.501  64.391  1.00  0.00     0.111 C 
BRANCH  10  11
ATOM     11  C   UNL     1      17.425 -10.834  64.151  1.00  0.00     0.163 C 
ATOM     12  O   UNL     1      17.903 -11.582  63.255  1.00  0.00    -0.294 OA
BRANCH  11  13
ATOM     13  C   UNL     1      16.267 -11.301  64.974  1.00  0.00    -0.002 C 
ATOM     14  C   UNL     1      15.023 -11.477  64.432  1.00  0.00    -0.069 C 
ATOM     15  C   UNL     1      14.734 -11.138  62.987  1.00  0.00     0.039 C 
ATOM     16  C   UNL     1      13.866 -11.986  65.263  1.00  0.00     0.039 C 
BRANCH  13  17
ATOM     17  C   UNL     1      16.512 -11.502  66.459  1.00  0.00     0.066 CG0
ATOM     18  G   UNL     1      17.686 -12.428  66.663  1.00  0.00     0.000 G0
ENDBRANCH  13  17
ENDBRANCH  11  13
ENDBRANCH  10  11
ENDBRANCH   1  10
TORSDOF 0
ENDMDL
MODEL 2
REMARK VINA RESULT:    -4.618      2.357      5.180
REMARK INTER + INTRA:          -5.859
REMARK INTER:                  -6.522
REMARK INTRA:                   0.663
REMARK UNBOUND:                 0.648
REMARK SMILES CC1=CCC(=C(C)C)C(=O)CC(C)=CCC1
REMARK SMILES IDX 12 1 14 2 13 3 15 4 16 5 2 6 1 7 3 8 11 10 9 11 10 12 5 13
REMARK SMILES IDX 6 14 7 15 8 16 4 17
REMARK H PARENT
REMARK Flexibility Score: 60.00
ROOT
ATOM      1  C   UNL     1      17.855 -12.698  67.033  1.00  0.00    -0.070 C 
ATOM      2  C   UNL     1      17.094 -12.514  65.927  1.00  0.00    -0.027 C 
ATOM      3  C   UNL     1      18.564 -14.023  67.177  1.00  0.00     0.039 C 
ENDROOT
BRANCH   2   4
ATOM      4  C   UNL     1      16.222 -11.319  65.632  1.00  0.00     0.032 C 
BRANCH   4   5
ATOM      5  C   UNL     1      16.980  -9.984  65.761  1.00  0.00     0.034 C 
BRANCH   5   6
ATOM      6  C   UNL     1      18.118  -9.874  64.766  1.00  0.00    -0.077 C 
ATOM      7  C   UNL     1      17.798  -9.988  63.297  1.00  0.00     0.039 C 
ATOM      8  C   UNL     1      19.405  -9.652  65.119  1.00  0.00    -0.023 CG0
ATOM      9  G   UNL     1      19.916  -9.474  66.528  1.00  0.00     0.000 G0
ENDBRANCH   5   6
ENDBRANCH   4   5
ENDBRANCH   2   4
BRANCH   1  10
ATOM     10  C   UNL     1      17.977 -11.678  68.153  1.00  0.00     0.111 C 
BRANCH  10  11
ATOM     11  C   UNL     1      19.402 -11.214  68.329  1.00  0.00     0.163 C 
ATOM     12  O   UNL     1      19.889 -11.222  69.492  1.00  0.00    -0.294 OA
BRANCH  11  13
ATOM     13  C   UNL     1      20.250 -10.803  67.167  1.00  0.00    -0.002 C 
ATOM     14  C   UNL     1      21.297 -11.569  66.734  1.00  0.00    -0.069 C 
ATOM     15  C   UNL     1      21.701 -12.837  67.453  1.00  0.00     0.039 C 
ATOM     16  C   UNL     1      22.126 -11.166  65.535  1.00  0.00     0.039 C 
BRANCH  13  17
ATOM     17  C   UNL     1      19.945  -9.459  66.532  1.00  0.00     0.066 CG0
ATOM     18  G   UNL     1      19.409  -9.662  65.135  1.00  0.00     0.000 G0
ENDBRANCH  13  17
ENDBRANCH  11  13
ENDBRANCH  10  11
ENDBRANCH   1  10
TORSDOF 0
ENDMDL
MODEL 3
REMARK VINA RESULT:    -4.429      2.044      4.928
REMARK INTER + INTRA:          -5.594
REMARK INTER:                  -6.364
REMARK INTRA:                   0.770
REMARK UNBOUND:                 0.648
REMARK SMILES CC1=CCC(=C(C)C)C(=O)CC(C)=CCC1
REMARK SMILES IDX 12 1 14 2 13 3 15 4 16 5 2 6 1 7 3 8 11 10 9 11 10 12 5 13
REMARK SMILES IDX 6 14 7 15 8 16 4 17
REMARK H PARENT
REMARK Flexibility Score: 60.00
ROOT
ATOM      1  C   UNL     1      16.836 -11.837  66.390  1.00  0.00    -0.070 C 
ATOM      2  C   UNL     1      15.949 -12.201  65.433  1.00  0.00    -0.027 C 
ATOM      3  C   UNL     1      17.780 -12.897  66.902  1.00  0.00     0.039 C 
ENDROOT
BRANCH   2   4
ATOM      4  C   UNL     1      14.852 -11.339  64.856  1.00  0.00     0.032 C 
BRANCH   4   5
ATOM      5  C   UNL     1      15.381 -10.306  63.843  1.00  0.00     0.034 C 
BRANCH   5   6
ATOM      6  C   UNL     1      16.602 -10.809  63.098  1.00  0.00    -0.077 C 
ATOM      7  C   UNL     1      16.411 -11.871  62.044  1.00  0.00     0.039 C 
ATOM      8  C   UNL     1      17.853 -10.340  63.305  1.00  0.00    -0.023 CG0
ATOM      9  G   UNL     1      18.239  -9.258  64.285  1.00  0.00     0.000 G0
ENDBRANCH   5   6
ENDBRANCH   4   5
ENDBRANCH   2   4
BRANCH   1  10
ATOM     10  C   UNL     1      16.885 -10.451  67.013  1.00  0.00     0.111 C 
BRANCH  10  11
ATOM     11  C   UNL     1      18.230  -9.799  66.811  1.00  0.00     0.163 C 
ATOM     12  O   UNL     1      18.767  -9.230  67.800  1.00  0.00    -0.294 OA
BRANCH  11  13
ATOM     13  C   UNL     1      18.950  -9.858  65.501  1.00  0.00    -0.002 C 
ATOM     14  C   UNL     1      20.213 -10.370  65.396  1.00  0.00    -0.069 C 
ATOM     15  C   UNL     1      20.981 -10.838  66.613  1.00  0.00     0.039 C 
ATOM     16  C   UNL     1      20.920 -10.461  64.062  1.00  0.00     0.039 C 
BRANCH  13  17
ATOM     17  C   UNL     1      18.246  -9.254  64.299  1.00  0.00     0.066 CG0
ATOM     18  G   UNL     1      17.848 -10.347  63.336  1.00  0.00     0.000 G0
ENDBRANCH  13  17
ENDBRANCH  11  13
ENDBRANCH  10  11
ENDBRANCH   1  10
TORSDOF 0
ENDMDL
MODEL 4
REMARK VINA RESULT:    -4.341      1.837      3.710
REMARK INTER + INTRA:          -5.469
REMARK INTER:                  -6.043
REMARK INTRA:                   0.574
REMARK UNBOUND:                 0.648
REMARK SMILES CC1=CCC(=C(C)C)C(=O)CC(C)=CCC1
REMARK SMILES IDX 12 1 14 2 13 3 15 4 16 5 2 6 1 7 3 8 11 10 9 11 10 12 5 13
REMARK SMILES IDX 6 14 7 15 8 16 4 17
REMARK H PARENT
REMARK Flexibility Score: 60.00
ROOT
ATOM      1  C   UNL     1      15.503 -12.271  65.090  1.00  0.00    -0.070 C 
ATOM      2  C   UNL     1      16.554 -12.262  65.945  1.00  0.00    -0.027 C 
ATOM      3  C   UNL     1      14.181 -11.759  65.608  1.00  0.00     0.039 C 
ENDROOT
BRANCH   2   4
ATOM      4  C   UNL     1      17.930 -12.821  65.675  1.00  0.00     0.032 C 
BRANCH   4   5
ATOM      5  C   UNL     1      19.006 -11.723  65.575  1.00  0.00     0.034 C 
BRANCH   5   6
ATOM      6  C   UNL     1      18.426 -10.334  65.755  1.00  0.00    -0.077 C 
ATOM      7  C   UNL     1      18.395  -9.746  67.143  1.00  0.00     0.039 C 
ATOM      8  C   UNL     1      17.956  -9.579  64.736  1.00  0.00    -0.023 CG0
ATOM      9  G   UNL     1      17.936  -9.976  63.280  1.00  0.00     0.000 G0
ENDBRANCH   5   6
ENDBRANCH   4   5
ENDBRANCH   2   4
BRANCH   1  10
ATOM     10  C   UNL     1      15.569 -12.824  63.676  1.00  0.00     0.111 C 
BRANCH  10  11
ATOM     11  C   UNL     1      16.531 -12.041  62.817  1.00  0.00     0.163 C 
ATOM     12  O   UNL     1      17.248 -12.677  61.998  1.00  0.00    -0.294 OA
BRANCH  11  13
ATOM     13  C   UNL     1      16.611 -10.548  62.878  1.00  0.00    -0.002 C 
ATOM     14  C   UNL     1      15.550  -9.756  62.535  1.00  0.00    -0.069 C 
ATOM     15  C   UNL     1      14.262 -10.344  62.004  1.00  0.00     0.039 C 
ATOM     16  C   UNL     1      15.627  -8.249  62.636  1.00  0.00     0.039 C 
BRANCH  13  17
ATOM     17  C   UNL     1      17.949  -9.945  63.268  1.00  0.00     0.066 CG0
ATOM     18  G   UNL     1      17.937  -9.576  64.732  1.00  0.00     0.000 G0
ENDBRANCH  13  17
ENDBRANCH  11  13
ENDBRANCH  10  11
ENDBRANCH   1  10
TORSDOF 0
ENDMDL
MODEL 5
REMARK VINA RESULT:    -4.325      1.927      3.460
REMARK INTER + INTRA:          -5.446
REMARK INTER:                  -6.173
REMARK INTRA:                   0.726
REMARK UNBOUND:                 0.648
REMARK SMILES CC1=CCC(=C(C)C)C(=O)CC(C)=CCC1
REMARK SMILES IDX 12 1 14 2 13 3 15 4 16 5 2 6 1 7 3 8 11 10 9 11 10 12 5 13
REMARK SMILES IDX 6 14 7 15 8 16 4 17
REMARK H PARENT
REMARK Flexibility Score: 60.00
ROOT
ATOM      1  C   UNL     1      17.585 -12.380  65.781  1.00  0.00    -0.070 C 
ATOM      2  C   UNL     1      18.393 -11.558  66.492  1.00  0.00    -0.027 C 
ATOM      3  C   UNL     1      17.949 -13.844  65.734  1.00  0.00     0.039 C 
ENDROOT
BRANCH   2   4
ATOM      4  C   UNL     1      18.279 -10.056  66.588  1.00  0.00     0.032 C 
BRANCH   4   5
ATOM      5  C   UNL     1      19.521  -9.331  66.037  1.00  0.00     0.034 C 
BRANCH   5   6
ATOM      6  C   UNL     1      19.863  -9.771  64.626  1.00  0.00    -0.077 C 
ATOM      7  C   UNL     1      21.206 -10.412  64.382  1.00  0.00     0.039 C 
ATOM      8  C   UNL     1      19.020  -9.646  63.576  1.00  0.00    -0.023 CG0
ATOM      9  G   UNL     1      17.627  -9.067  63.627  1.00  0.00     0.000 G0
ENDBRANCH   5   6
ENDBRANCH   4   5
ENDBRANCH   2   4
BRANCH   1  10
ATOM     10  C   UNL     1      16.384 -11.900  64.983  1.00  0.00     0.111 C 
BRANCH  10  11
ATOM     11  C   UNL     1      16.771 -11.511  63.577  1.00  0.00     0.163 C 
ATOM     12  O   UNL     1      17.180 -12.418  62.802  1.00  0.00    -0.294 OA
BRANCH  11  13
ATOM     13  C   UNL     1      16.630 -10.108  63.077  1.00  0.00    -0.002 C 
ATOM     14  C   UNL     1      15.707  -9.773  62.125  1.00  0.00    -0.069 C 
ATOM     15  C   UNL     1      14.828 -10.816  61.472  1.00  0.00     0.039 C 
ATOM     16  C   UNL     1      15.546  -8.345  61.651  1.00  0.00     0.039 C 
BRANCH  13  17
ATOM     17  C   UNL     1      17.610  -9.082  63.617  1.00  0.00     0.066 CG0
ATOM     18  G   UNL     1      19.013  -9.635  63.563  1.00  0.00     0.000 G0
ENDBRANCH  13  17
ENDBRANCH  11  13
ENDBRANCH  10  11
ENDBRANCH   1  10
TORSDOF 0
ENDMDL
MODEL 6
REMARK VINA RESULT:    -4.302      1.635      4.398
REMARK INTER + INTRA:          -5.415
REMARK INTER:                  -6.155
REMARK INTRA:                   0.739
REMARK UNBOUND:                 0.648
REMARK SMILES CC1=CCC(=C(C)C)C(=O)CC(C)=CCC1
REMARK SMILES IDX 12 1 14 2 13 3 15 4 16 5 2 6 1 7 3 8 11 10 9 11 10 12 5 13
REMARK SMILES IDX 6 14 7 15 8 16 4 17
REMARK H PARENT
REMARK Flexibility Score: 60.00
ROOT
ATOM      1  C   UNL     1      15.509  -9.440  63.016  1.00  0.00    -0.070 C 
ATOM      2  C   UNL     1      14.444 -10.262  63.172  1.00  0.00    -0.027 C 
ATOM      3  C   UNL     1      15.723  -8.832  61.651  1.00  0.00     0.039 C 
ENDROOT
BRANCH   2   4
ATOM      4  C   UNL     1      14.101 -11.055  64.410  1.00  0.00     0.032 C 
BRANCH   4   5
ATOM      5  C   UNL     1      14.104 -12.575  64.161  1.00  0.00     0.034 C 
BRANCH   5   6
ATOM      6  C   UNL     1      15.429 -13.062  63.607  1.00  0.00    -0.077 C 
ATOM      7  C   UNL     1      15.442 -13.704  62.242  1.00  0.00     0.039 C 
ATOM      8  C   UNL     1      16.608 -12.930  64.256  1.00  0.00    -0.023 CG0
ATOM      9  G   UNL     1      16.804 -12.285  65.607  1.00  0.00     0.000 G0
ENDBRANCH   5   6
ENDBRANCH   4   5
ENDBRANCH   2   4
BRANCH   1  10
ATOM     10  C   UNL     1      16.524  -9.155  64.111  1.00  0.00     0.111 C 
BRANCH  10  11
ATOM     11  C   UNL     1      17.554 -10.252  64.212  1.00  0.00     0.163 C 
ATOM     12  O   UNL     1      18.313 -10.446  63.223  1.00  0.00    -0.294 OA
BRANCH  11  13
ATOM     13  C   UNL     1      17.728 -11.062  65.457  1.00  0.00    -0.002 C 
ATOM     14  C   UNL     1      18.685 -10.758  66.386  1.00  0.00    -0.069 C 
ATOM     15  C   UNL     1      19.669  -9.630  66.169  1.00  0.00     0.039 C 
ATOM     16  C   UNL     1      18.830 -11.560  67.660  1.00  0.00     0.039 C 
BRANCH  13  17
ATOM     17  C   UNL     1      16.844 -12.286  65.612  1.00  0.00     0.066 CG0
ATOM     18  G   UNL     1      16.600 -12.916  64.262  1.00  0.00     0.000 G0
ENDBRANCH  13  17
ENDBRANCH  11  13
ENDBRANCH  10  11
ENDBRANCH   1  10
TORSDOF 0
ENDMDL
MODEL 7
REMARK VINA RESULT:    -4.203     15.979     17.638
REMARK INTER + INTRA:          -5.275
REMARK INTER:                  -5.906
REMARK INTRA:                   0.631
REMARK UNBOUND:                 0.648
REMARK SMILES CC1=CCC(=C(C)C)C(=O)CC(C)=CCC1
REMARK SMILES IDX 12 1 14 2 13 3 15 4 16 5 2 6 1 7 3 8 11 10 9 11 10 12 5 13
REMARK SMILES IDX 6 14 7 15 8 16 4 17
REMARK H PARENT
REMARK Flexibility Score: 60.00
ROOT
ATOM      1  C   UNL     1       9.146   2.719  63.442  1.00  0.00    -0.070 C 
ATOM      2  C   UNL     1       8.364   1.760  63.993  1.00  0.00    -0.027 C 
ATOM      3  C   UNL     1      10.575   2.354  63.126  1.00  0.00     0.039 C 
ENDROOT
BRANCH   2   4
ATOM      4  C   UNL     1       6.947   1.934  64.482  1.00  0.00     0.032 C 
BRANCH   4   5
ATOM      5  C   UNL     1       5.921   1.190  63.606  1.00  0.00     0.034 C 
BRANCH   5   6
ATOM      6  C   UNL     1       6.574   0.488  62.431  1.00  0.00    -0.077 C 
ATOM      7  C   UNL     1       7.048  -0.931  62.619  1.00  0.00     0.039 C 
ATOM      8  C   UNL     1       6.733   1.053  61.213  1.00  0.00    -0.023 CG0
ATOM      9  G   UNL     1       6.293   2.443  60.820  1.00  0.00     0.000 G0
ENDBRANCH   5   6
ENDBRANCH   4   5
ENDBRANCH   2   4
BRANCH   1  10
ATOM     10  C   UNL     1       8.683   4.145  63.191  1.00  0.00     0.111 C 
BRANCH  10  11
ATOM     11  C   UNL     1       7.472   4.185  62.291  1.00  0.00     0.163 C 
ATOM     12  O   UNL     1       6.498   4.906  62.640  1.00  0.00    -0.294 OA
BRANCH  11  13
ATOM     13  C   UNL     1       7.425   3.443  60.993  1.00  0.00    -0.002 C 
ATOM     14  C   UNL     1       8.318   3.695  59.988  1.00  0.00    -0.069 C 
ATOM     15  C   UNL     1       9.356   4.789  60.106  1.00  0.00     0.039 C 
ATOM     16  C   UNL     1       8.288   2.915  58.693  1.00  0.00     0.039 C 
BRANCH  13  17
ATOM     17  C   UNL     1       6.295   2.447  60.808  1.00  0.00     0.066 CG0
ATOM     18  G   UNL     1       6.757   1.068  61.211  1.00  0.00     0.000 G0
ENDBRANCH  13  17
ENDBRANCH  11  13
ENDBRANCH  10  11
ENDBRANCH   1  10
TORSDOF 0
ENDMDL
MODEL 8
REMARK VINA RESULT:    -4.013     15.447     17.226
REMARK INTER + INTRA:          -5.007
REMARK INTER:                  -5.632
REMARK INTRA:                   0.625
REMARK UNBOUND:                 0.648
REMARK SMILES CC1=CCC(=C(C)C)C(=O)CC(C)=CCC1
REMARK SMILES IDX 12 1 14 2 13 3 15 4 16 5 2 6 1 7 3 8 11 10 9 11 10 12 5 13
REMARK SMILES IDX 6 14 7 15 8 16 4 17
REMARK H PARENT
REMARK Flexibility Score: 60.00
ROOT
ATOM      1  C   UNL     1       6.526   2.652  61.723  1.00  0.00    -0.070 C 
ATOM      2  C   UNL     1       6.987   3.910  61.522  1.00  0.00    -0.027 C 
ATOM      3  C   UNL     1       6.030   1.892  60.518  1.00  0.00     0.039 C 
ENDROOT
BRANCH   2   4
ATOM      4  C   UNL     1       7.430   4.881  62.590  1.00  0.00     0.032 C 
BRANCH   4   5
ATOM      5  C   UNL     1       8.961   5.042  62.648  1.00  0.00     0.034 C 
BRANCH   5   6
ATOM      6  C   UNL     1       9.657   4.305  61.520  1.00  0.00    -0.077 C 
ATOM      7  C   UNL     1       9.789   4.997  60.187  1.00  0.00     0.039 C 
ATOM      8  C   UNL     1      10.191   3.069  61.647  1.00  0.00    -0.023 CG0
ATOM      9  G   UNL     1      10.191   2.234  62.905  1.00  0.00     0.000 G0
ENDBRANCH   5   6
ENDBRANCH   4   5
ENDBRANCH   2   4
BRANCH   1  10
ATOM     10  C   UNL     1       6.423   2.000  63.092  1.00  0.00     0.111 C 
BRANCH  10  11
ATOM     11  C   UNL     1       7.779   1.833  63.732  1.00  0.00     0.163 C 
ATOM     12  O   UNL     1       7.887   2.077  64.964  1.00  0.00    -0.294 OA
BRANCH  11  13
ATOM     13  C   UNL     1       8.963   1.343  62.961  1.00  0.00    -0.002 C 
ATOM     14  C   UNL     1       8.976   0.110  62.368  1.00  0.00    -0.069 C 
ATOM     15  C   UNL     1       7.821  -0.854  62.523  1.00  0.00     0.039 C 
ATOM     16  C   UNL     1      10.162  -0.363  61.559  1.00  0.00     0.039 C 
BRANCH  13  17
ATOM     17  C   UNL     1      10.185   2.244  62.925  1.00  0.00     0.066 CG0
ATOM     18  G   UNL     1      10.179   3.065  61.658  1.00  0.00     0.000 G0
ENDBRANCH  13  17
ENDBRANCH  11  13
ENDBRANCH  10  11
ENDBRANCH   1  10
TORSDOF 0
ENDMDL
MODEL 9
REMARK VINA RESULT:    -3.993     16.132     17.380
REMARK INTER + INTRA:          -4.978
REMARK INTER:                  -5.326
REMARK INTRA:                   0.347
REMARK UNBOUND:                 0.648
REMARK SMILES CC1=CCC(=C(C)C)C(=O)CC(C)=CCC1
REMARK SMILES IDX 12 1 14 2 13 3 15 4 16 5 2 6 1 7 3 8 11 10 9 11 10 12 5 13
REMARK SMILES IDX 6 14 7 15 8 16 4 17
REMARK H PARENT
REMARK Flexibility Score: 60.00
ROOT
ATOM      1  C   UNL     1      10.772   4.662  61.975  1.00  0.00    -0.070 C 
ATOM      2  C   UNL     1      10.671   4.988  60.664  1.00  0.00    -0.027 C 
ATOM      3  C   UNL     1      12.129   4.794  62.621  1.00  0.00     0.039 C 
ENDROOT
BRANCH   2   4
ATOM      4  C   UNL     1       9.446   4.833  59.796  1.00  0.00     0.032 C 
BRANCH   4   5
ATOM      5  C   UNL     1       9.293   3.408  59.233  1.00  0.00     0.034 C 
BRANCH   5   6
ATOM      6  C   UNL     1       7.882   2.877  59.392  1.00  0.00    -0.077 C 
ATOM      7  C   UNL     1       6.793   3.475  58.537  1.00  0.00     0.039 C 
ATOM      8  C   UNL     1       7.546   1.879  60.239  1.00  0.00    -0.023 CG0
ATOM      9  G   UNL     1       8.496   1.134  61.146  1.00  0.00     0.000 G0
ENDBRANCH   5   6
ENDBRANCH   4   5
ENDBRANCH   2   4
BRANCH   1  10
ATOM     10  C   UNL     1       9.619   4.114  62.800  1.00  0.00     0.111 C 
BRANCH  10  11
ATOM     11  C   UNL     1       9.670   2.610  62.895  1.00  0.00     0.163 C 
ATOM     12  O   UNL     1      10.727   2.078  63.331  1.00  0.00    -0.294 OA
BRANCH  11  13
ATOM     13  C   UNL     1       8.495   1.754  62.540  1.00  0.00    -0.002 C 
ATOM     14  C   UNL     1       7.502   1.485  63.442  1.00  0.00    -0.069 C 
ATOM     15  C   UNL     1       7.575   1.978  64.870  1.00  0.00     0.039 C 
ATOM     16  C   UNL     1       6.299   0.650  63.064  1.00  0.00     0.039 C 
BRANCH  13  17
ATOM     17  C   UNL     1       8.488   1.133  61.155  1.00  0.00     0.066 CG0
ATOM     18  G   UNL     1       7.539   1.892  60.258  1.00  0.00     0.000 G0
ENDBRANCH  13  17
ENDBRANCH  11  13
ENDBRANCH  10  11
ENDBRANCH   1  10
TORSDOF 0
ENDMDL
