MODEL 1
REMARK VINA RESULT:    -5.671      0.000      0.000
REMARK INTER + INTRA:          -5.671
REMARK INTER:                  -5.671
REMARK INTRA:                   0.000
REMARK UNBOUND:                 0.000
REMARK SMILES O=c1ccc2ccccc2o1
REMARK SMILES IDX 7 1 8 2 9 3 10 4 5 5 6 6 4 7 3 8 2 9 1 10 11 11
REMARK H PARENT
REMARK Flexibility Score: inf
ROOT
ATOM      1  C   UNL     1      -2.196  39.102  30.554  1.00  0.00     0.001 A 
ATOM      2  C   UNL     1      -2.780  39.732  31.658  1.00  0.00     0.004 A 
ATOM      3  C   UNL     1      -2.170  39.658  32.914  1.00  0.00     0.048 A 
ATOM      4  C   UNL     1      -0.972  38.952  33.072  1.00  0.00     0.138 A 
ATOM      5  C   UNL     1      -0.381  38.316  31.957  1.00  0.00     0.018 A 
ATOM      6  C   UNL     1      -0.998  38.395  30.699  1.00  0.00     0.012 A 
ATOM      7  C   UNL     1       0.816  37.620  32.145  1.00  0.00     0.019 A 
ATOM      8  C   UNL     1       1.389  37.573  33.416  1.00  0.00     0.094 A 
ATOM      9  C   UNL     1       0.747  38.227  34.473  1.00  0.00     0.336 A 
ATOM     10  O   UNL     1       1.247  38.196  35.628  1.00  0.00    -0.246 OA
ATOM     11  O   UNL     1      -0.392  38.883  34.268  1.00  0.00    -0.423 OA
ENDROOT
TORSDOF 0
ENDMDL
MODEL 2
REMARK VINA RESULT:    -5.612      1.562      2.307
REMARK INTER + INTRA:          -5.612
REMARK INTER:                  -5.612
REMARK INTRA:                   0.000
REMARK UNBOUND:                 0.000
REMARK SMILES O=c1ccc2ccccc2o1
REMARK SMILES IDX 7 1 8 2 9 3 10 4 5 5 6 6 4 7 3 8 2 9 1 10 11 11
REMARK H PARENT
REMARK Flexibility Score: inf
ROOT
ATOM      1  C   UNL     1      -2.804  40.063  32.119  1.00  0.00     0.001 A 
ATOM      2  C   UNL     1      -2.544  39.489  30.870  1.00  0.00     0.004 A 
ATOM      3  C   UNL     1      -1.445  38.643  30.700  1.00  0.00     0.048 A 
ATOM      4  C   UNL     1      -0.599  38.366  31.779  1.00  0.00     0.138 A 
ATOM      5  C   UNL     1      -0.861  38.945  33.042  1.00  0.00     0.018 A 
ATOM      6  C   UNL     1      -1.966  39.794  33.206  1.00  0.00     0.012 A 
ATOM      7  C   UNL     1       0.001  38.650  34.102  1.00  0.00     0.019 A 
ATOM      8  C   UNL     1       1.085  37.800  33.886  1.00  0.00     0.094 A 
ATOM      9  C   UNL     1       1.282  37.263  32.609  1.00  0.00     0.336 A 
ATOM     10  O   UNL     1       2.256  36.494  32.394  1.00  0.00    -0.246 OA
ATOM     11  O   UNL     1       0.448  37.560  31.616  1.00  0.00    -0.423 OA
ENDROOT
TORSDOF 0
ENDMDL
MODEL 3
REMARK VINA RESULT:    -5.438      2.013      4.403
REMARK INTER + INTRA:          -5.438
REMARK INTER:                  -5.438
REMARK INTRA:                   0.000
REMARK UNBOUND:                 0.000
REMARK SMILES O=c1ccc2ccccc2o1
REMARK SMILES IDX 7 1 8 2 9 3 10 4 5 5 6 6 4 7 3 8 2 9 1 10 11 11
REMARK H PARENT
REMARK Flexibility Score: inf
ROOT
ATOM      1  C   UNL     1       2.491  39.162  35.961  1.00  0.00     0.001 A 
ATOM      2  C   UNL     1       3.008  39.897  34.888  1.00  0.00     0.004 A 
ATOM      3  C   UNL     1       2.358  39.887  33.651  1.00  0.00     0.048 A 
ATOM      4  C   UNL     1       1.186  39.141  33.479  1.00  0.00     0.138 A 
ATOM      5  C   UNL     1       0.663  38.399  34.562  1.00  0.00     0.018 A 
ATOM      6  C   UNL     1       1.320  38.413  35.802  1.00  0.00     0.012 A 
ATOM      7  C   UNL     1      -0.509  37.664  34.362  1.00  0.00     0.019 A 
ATOM      8  C   UNL     1      -1.123  37.684  33.110  1.00  0.00     0.094 A 
ATOM      9  C   UNL     1      -0.548  38.442  32.084  1.00  0.00     0.336 A 
ATOM     10  O   UNL     1      -1.088  38.472  30.947  1.00  0.00    -0.246 OA
ATOM     11  O   UNL     1       0.568  39.132  32.300  1.00  0.00    -0.423 OA
ENDROOT
TORSDOF 0
ENDMDL
MODEL 4
REMARK VINA RESULT:    -5.392      2.014      4.032
REMARK INTER + INTRA:          -5.392
REMARK INTER:                  -5.392
REMARK INTRA:                   0.000
REMARK UNBOUND:                 0.000
REMARK SMILES O=c1ccc2ccccc2o1
REMARK SMILES IDX 7 1 8 2 9 3 10 4 5 5 6 6 4 7 3 8 2 9 1 10 11 11
REMARK H PARENT
REMARK Flexibility Score: inf
ROOT
ATOM      1  C   UNL     1       2.992  40.231  34.527  1.00  0.00     0.001 A 
ATOM      2  C   UNL     1       2.817  39.585  35.756  1.00  0.00     0.004 A 
ATOM      3  C   UNL     1       1.769  38.675  35.930  1.00  0.00     0.048 A 
ATOM      4  C   UNL     1       0.890  38.408  34.874  1.00  0.00     0.138 A 
ATOM      5  C   UNL     1       1.067  39.060  33.633  1.00  0.00     0.018 A 
ATOM      6  C   UNL     1       2.121  39.971  33.465  1.00  0.00     0.012 A 
ATOM      7  C   UNL     1       0.174  38.771  32.596  1.00  0.00     0.019 A 
ATOM      8  C   UNL     1      -0.856  37.857  32.815  1.00  0.00     0.094 A 
ATOM      9  C   UNL     1      -0.969  37.250  34.070  1.00  0.00     0.336 A 
ATOM     10  O   UNL     1      -1.893  36.423  34.287  1.00  0.00    -0.246 OA
ATOM     11  O   UNL     1      -0.107  37.542  35.040  1.00  0.00    -0.423 OA
ENDROOT
TORSDOF 0
ENDMDL
MODEL 5
REMARK VINA RESULT:    -5.377      1.937      4.356
REMARK INTER + INTRA:          -5.377
REMARK INTER:                  -5.377
REMARK INTRA:                   0.000
REMARK UNBOUND:                 0.000
REMARK SMILES O=c1ccc2ccccc2o1
REMARK SMILES IDX 7 1 8 2 9 3 10 4 5 5 6 6 4 7 3 8 2 9 1 10 11 11
REMARK H PARENT
REMARK Flexibility Score: inf
ROOT
ATOM      1  C   UNL     1       1.292  38.324  34.411  1.00  0.00     0.001 A 
ATOM      2  C   UNL     1       1.660  37.615  33.263  1.00  0.00     0.004 A 
ATOM      3  C   UNL     1       0.860  37.668  32.117  1.00  0.00     0.048 A 
ATOM      4  C   UNL     1      -0.313  38.431  32.115  1.00  0.00     0.138 A 
ATOM      5  C   UNL     1      -0.685  39.147  33.275  1.00  0.00     0.018 A 
ATOM      6  C   UNL     1       0.122  39.091  34.421  1.00  0.00     0.012 A 
ATOM      7  C   UNL     1      -1.862  39.901  33.242  1.00  0.00     0.019 A 
ATOM      8  C   UNL     1      -2.628  39.925  32.078  1.00  0.00     0.094 A 
ATOM      9  C   UNL     1      -2.198  39.190  30.967  1.00  0.00     0.336 A 
ATOM     10  O   UNL     1      -2.876  39.198  29.907  1.00  0.00    -0.246 OA
ATOM     11  O   UNL     1      -1.074  38.480  31.023  1.00  0.00    -0.423 OA
ENDROOT
TORSDOF 0
ENDMDL
MODEL 6
REMARK VINA RESULT:    -5.167      2.177      3.104
REMARK INTER + INTRA:          -5.167
REMARK INTER:                  -5.167
REMARK INTRA:                   0.000
REMARK UNBOUND:                 0.000
REMARK SMILES O=c1ccc2ccccc2o1
REMARK SMILES IDX 7 1 8 2 9 3 10 4 5 5 6 6 4 7 3 8 2 9 1 10 11 11
REMARK H PARENT
REMARK Flexibility Score: inf
ROOT
ATOM      1  C   UNL     1      -1.006  37.608  32.961  1.00  0.00     0.001 A 
ATOM      2  C   UNL     1      -0.650  38.414  31.874  1.00  0.00     0.004 A 
ATOM      3  C   UNL     1       0.433  39.293  31.975  1.00  0.00     0.048 A 
ATOM      4  C   UNL     1       1.164  39.371  33.166  1.00  0.00     0.138 A 
ATOM      5  C   UNL     1       0.805  38.558  34.264  1.00  0.00     0.018 A 
ATOM      6  C   UNL     1      -0.282  37.677  34.156  1.00  0.00     0.012 A 
ATOM      7  C   UNL     1       1.555  38.657  35.440  1.00  0.00     0.019 A 
ATOM      8  C   UNL     1       2.626  39.547  35.495  1.00  0.00     0.094 A 
ATOM      9  C   UNL     1       2.924  40.321  34.368  1.00  0.00     0.336 A 
ATOM     10  O   UNL     1       3.887  41.132  34.399  1.00  0.00    -0.246 OA
ATOM     11  O   UNL     1       2.195  40.209  33.261  1.00  0.00    -0.423 OA
ENDROOT
TORSDOF 0
ENDMDL
MODEL 7
REMARK VINA RESULT:    -5.087      1.511      3.805
REMARK INTER + INTRA:          -5.087
REMARK INTER:                  -5.087
REMARK INTRA:                   0.000
REMARK UNBOUND:                 0.000
REMARK SMILES O=c1ccc2ccccc2o1
REMARK SMILES IDX 7 1 8 2 9 3 10 4 5 5 6 6 4 7 3 8 2 9 1 10 11 11
REMARK H PARENT
REMARK Flexibility Score: inf
ROOT
ATOM      1  C   UNL     1       1.776  37.669  33.601  1.00  0.00     0.001 A 
ATOM      2  C   UNL     1       1.275  38.467  34.635  1.00  0.00     0.004 A 
ATOM      3  C   UNL     1       0.106  39.211  34.447  1.00  0.00     0.048 A 
ATOM      4  C   UNL     1      -0.567  39.161  33.221  1.00  0.00     0.138 A 
ATOM      5  C   UNL     1      -0.062  38.355  32.176  1.00  0.00     0.018 A 
ATOM      6  C   UNL     1       1.111  37.610  32.372  1.00  0.00     0.012 A 
ATOM      7  C   UNL     1      -0.756  38.324  30.963  1.00  0.00     0.019 A 
ATOM      8  C   UNL     1      -1.918  39.082  30.820  1.00  0.00     0.094 A 
ATOM      9  C   UNL     1      -2.359  39.858  31.898  1.00  0.00     0.336 A 
ATOM     10  O   UNL     1      -3.404  40.550  31.788  1.00  0.00    -0.246 OA
ATOM     11  O   UNL     1      -1.680  39.870  33.042  1.00  0.00    -0.423 OA
ENDROOT
TORSDOF 0
ENDMDL
MODEL 8
REMARK VINA RESULT:    -5.068      2.430      4.449
REMARK INTER + INTRA:          -5.068
REMARK INTER:                  -5.068
REMARK INTRA:                   0.000
REMARK UNBOUND:                 0.000
REMARK SMILES O=c1ccc2ccccc2o1
REMARK SMILES IDX 7 1 8 2 9 3 10 4 5 5 6 6 4 7 3 8 2 9 1 10 11 11
REMARK H PARENT
REMARK Flexibility Score: inf
ROOT
ATOM      1  C   UNL     1       0.188  38.526  34.969  1.00  0.00     0.001 A 
ATOM      2  C   UNL     1      -0.450  37.483  34.290  1.00  0.00     0.004 A 
ATOM      3  C   UNL     1      -1.381  37.762  33.285  1.00  0.00     0.048 A 
ATOM      4  C   UNL     1      -1.679  39.090  32.954  1.00  0.00     0.138 A 
ATOM      5  C   UNL     1      -1.034  40.144  33.640  1.00  0.00     0.018 A 
ATOM      6  C   UNL     1      -0.101  39.856  34.647  1.00  0.00     0.012 A 
ATOM      7  C   UNL     1      -1.350  41.459  33.287  1.00  0.00     0.019 A 
ATOM      8  C   UNL     1      -2.285  41.691  32.278  1.00  0.00     0.094 A 
ATOM      9  C   UNL     1      -2.883  40.597  31.643  1.00  0.00     0.336 A 
ATOM     10  O   UNL     1      -3.729  40.786  30.730  1.00  0.00    -0.246 OA
ATOM     11  O   UNL     1      -2.565  39.355  31.997  1.00  0.00    -0.423 OA
ENDROOT
TORSDOF 0
ENDMDL
MODEL 9
REMARK VINA RESULT:    -4.869      2.391      3.349
REMARK INTER + INTRA:          -4.869
REMARK INTER:                  -4.869
REMARK INTRA:                   0.000
REMARK UNBOUND:                 0.000
REMARK SMILES O=c1ccc2ccccc2o1
REMARK SMILES IDX 7 1 8 2 9 3 10 4 5 5 6 6 4 7 3 8 2 9 1 10 11 11
REMARK H PARENT
REMARK Flexibility Score: inf
ROOT
ATOM      1  C   UNL     1      -1.513  38.179  33.276  1.00  0.00     0.001 A 
ATOM      2  C   UNL     1      -0.518  37.254  33.611  1.00  0.00     0.004 A 
ATOM      3  C   UNL     1       0.783  37.687  33.883  1.00  0.00     0.048 A 
ATOM      4  C   UNL     1       1.096  39.049  33.822  1.00  0.00     0.138 A 
ATOM      5  C   UNL     1       0.092  39.985  33.484  1.00  0.00     0.018 A 
ATOM      6  C   UNL     1      -1.212  39.544  33.212  1.00  0.00     0.012 A 
ATOM      7  C   UNL     1       0.434  41.339  33.431  1.00  0.00     0.019 A 
ATOM      8  C   UNL     1       1.745  41.725  33.711  1.00  0.00     0.094 A 
ATOM      9  C   UNL     1       2.686  40.743  34.038  1.00  0.00     0.336 A 
ATOM     10  O   UNL     1       3.874  41.072  34.293  1.00  0.00    -0.246 OA
ATOM     11  O   UNL     1       2.335  39.461  34.081  1.00  0.00    -0.423 OA
ENDROOT
TORSDOF 0
ENDMDL
