MODEL 1
REMARK VINA RESULT:    -4.081      0.000      0.000
REMARK INTER + INTRA:          -5.233
REMARK INTER:                  -5.035
REMARK INTRA:                  -0.198
REMARK UNBOUND:                -0.198
REMARK SMILES CCCCC=CC(C)=O
REMARK SMILES IDX 4 1 3 2 2 3 1 4 5 5 6 6 7 7 9 8 8 9
REMARK H PARENT
REMARK Flexibility Score: inf
ROOT
ATOM      1  C   UNL     1      12.507 -30.448  22.037  1.00  0.00     0.027 C 
ENDROOT
BRANCH   1   2
ATOM      2  C   UNL     1      13.249 -30.287  23.370  1.00  0.00     0.004 C 
BRANCH   2   3
ATOM      3  C   UNL     1      12.684 -29.112  24.174  1.00  0.00    -0.003 C 
ATOM      4  C   UNL     1      11.508 -28.463  23.449  1.00  0.00     0.004 C 
ENDBRANCH   2   3
ENDBRANCH   1   2
BRANCH   1   5
ATOM      5  C   UNL     1      13.080 -31.575  21.227  1.00  0.00    -0.023 C 
ATOM      6  C   UNL     1      14.007 -32.397  21.732  1.00  0.00     0.042 C 
BRANCH   6   7
ATOM      7  C   UNL     1      14.574 -33.517  20.958  1.00  0.00     0.152 C 
ATOM      8  O   UNL     1      14.215 -33.725  19.766  1.00  0.00    -0.295 OA
ATOM      9  C   UNL     1      15.585 -34.416  21.591  1.00  0.00     0.093 C 
ENDBRANCH   6   7
ENDBRANCH   1   5
TORSDOF 4
ENDMDL
MODEL 2
REMARK VINA RESULT:    -4.022      1.111      1.207
REMARK INTER + INTRA:          -5.161
REMARK INTER:                  -4.951
REMARK INTRA:                  -0.210
REMARK UNBOUND:                -0.198
REMARK SMILES CCCCC=CC(C)=O
REMARK SMILES IDX 4 1 3 2 2 3 1 4 5 5 6 6 7 7 9 8 8 9
REMARK H PARENT
REMARK Flexibility Score: inf
ROOT
ATOM      1  C   UNL     1      12.576 -30.607  22.107  1.00  0.00     0.027 C 
ENDROOT
BRANCH   1   2
ATOM      2  C   UNL     1      13.120 -30.276  23.503  1.00  0.00     0.004 C 
BRANCH   2   3
ATOM      3  C   UNL     1      12.561 -28.941  24.007  1.00  0.00    -0.003 C 
ATOM      4  C   UNL     1      11.293 -28.554  23.250  1.00  0.00     0.004 C 
ENDBRANCH   2   3
ENDBRANCH   1   2
BRANCH   1   5
ATOM      5  C   UNL     1      13.357 -31.719  21.469  1.00  0.00    -0.023 C 
ATOM      6  C   UNL     1      14.125 -32.540  22.195  1.00  0.00     0.042 C 
BRANCH   6   7
ATOM      7  C   UNL     1      14.889 -33.646  21.590  1.00  0.00     0.152 C 
ATOM      8  O   UNL     1      15.693 -34.330  22.281  1.00  0.00    -0.295 OA
ATOM      9  C   UNL     1      14.711 -33.963  20.140  1.00  0.00     0.093 C 
ENDBRANCH   6   7
ENDBRANCH   1   5
TORSDOF 4
ENDMDL
MODEL 3
REMARK VINA RESULT:    -3.950      1.177      1.519
REMARK INTER + INTRA:          -5.072
REMARK INTER:                  -4.814
REMARK INTRA:                  -0.258
REMARK UNBOUND:                -0.198
REMARK SMILES CCCCC=CC(C)=O
REMARK SMILES IDX 4 1 3 2 2 3 1 4 5 5 6 6 7 7 9 8 8 9
REMARK H PARENT
REMARK Flexibility Score: inf
ROOT
ATOM      1  C   UNL     1      13.104 -31.319  21.416  1.00  0.00     0.027 C 
ENDROOT
BRANCH   1   2
ATOM      2  C   UNL     1      13.071 -31.318  22.949  1.00  0.00     0.004 C 
BRANCH   2   3
ATOM      3  C   UNL     1      13.272 -29.903  23.501  1.00  0.00    -0.003 C 
ATOM      4  C   UNL     1      14.222 -29.097  22.619  1.00  0.00     0.004 C 
ENDBRANCH   2   3
ENDBRANCH   1   2
BRANCH   1   5
ATOM      5  C   UNL     1      13.871 -32.497  20.889  1.00  0.00    -0.023 C 
ATOM      6  C   UNL     1      14.615 -33.264  21.694  1.00  0.00     0.042 C 
BRANCH   6   7
ATOM      7  C   UNL     1      15.366 -34.432  21.199  1.00  0.00     0.152 C 
ATOM      8  O   UNL     1      14.984 -35.057  20.172  1.00  0.00    -0.295 OA
ATOM      9  C   UNL     1      16.594 -34.883  21.921  1.00  0.00     0.093 C 
ENDBRANCH   6   7
ENDBRANCH   1   5
TORSDOF 4
ENDMDL
MODEL 4
REMARK VINA RESULT:    -3.929      1.176      1.218
REMARK INTER + INTRA:          -5.046
REMARK INTER:                  -4.854
REMARK INTRA:                  -0.192
REMARK UNBOUND:                -0.198
REMARK SMILES CCCCC=CC(C)=O
REMARK SMILES IDX 4 1 3 2 2 3 1 4 5 5 6 6 7 7 9 8 8 9
REMARK H PARENT
REMARK Flexibility Score: inf
ROOT
ATOM      1  C   UNL     1      12.703 -30.523  22.371  1.00  0.00     0.027 C 
ENDROOT
BRANCH   1   2
ATOM      2  C   UNL     1      13.096 -30.006  23.761  1.00  0.00     0.004 C 
BRANCH   2   3
ATOM      3  C   UNL     1      12.464 -28.637  24.035  1.00  0.00    -0.003 C 
ATOM      4  C   UNL     1      11.166 -28.462  23.250  1.00  0.00     0.004 C 
ENDBRANCH   2   3
ENDBRANCH   1   2
BRANCH   1   5
ATOM      5  C   UNL     1      13.500 -31.741  22.000  1.00  0.00    -0.023 C 
ATOM      6  C   UNL     1      14.294 -32.354  22.885  1.00  0.00     0.042 C 
BRANCH   6   7
ATOM      7  C   UNL     1      15.074 -33.558  22.544  1.00  0.00     0.152 C 
ATOM      8  O   UNL     1      14.921 -34.133  21.431  1.00  0.00    -0.295 OA
ATOM      9  C   UNL     1      16.059 -34.104  23.526  1.00  0.00     0.093 C 
ENDBRANCH   6   7
ENDBRANCH   1   5
TORSDOF 4
ENDMDL
MODEL 5
REMARK VINA RESULT:    -3.843      2.810      3.076
REMARK INTER + INTRA:          -4.940
REMARK INTER:                  -4.652
REMARK INTRA:                  -0.288
REMARK UNBOUND:                -0.198
REMARK SMILES CCCCC=CC(C)=O
REMARK SMILES IDX 4 1 3 2 2 3 1 4 5 5 6 6 7 7 9 8 8 9
REMARK H PARENT
REMARK Flexibility Score: inf
ROOT
ATOM      1  C   UNL     1      13.623 -30.940  23.757  1.00  0.00     0.027 C 
ENDROOT
BRANCH   1   2
ATOM      2  C   UNL     1      12.800 -29.811  23.123  1.00  0.00     0.004 C 
BRANCH   2   3
ATOM      3  C   UNL     1      12.366 -28.790  24.180  1.00  0.00    -0.003 C 
ATOM      4  C   UNL     1      13.190 -27.509  24.080  1.00  0.00     0.004 C 
ENDBRANCH   2   3
ENDBRANCH   1   2
BRANCH   1   5
ATOM      5  C   UNL     1      14.966 -31.069  23.098  1.00  0.00    -0.023 C 
ATOM      6  C   UNL     1      15.432 -30.128  22.269  1.00  0.00     0.042 C 
BRANCH   6   7
ATOM      7  C   UNL     1      16.753 -30.230  21.623  1.00  0.00     0.152 C 
ATOM      8  O   UNL     1      17.482 -29.210  21.480  1.00  0.00    -0.295 OA
ATOM      9  C   UNL     1      17.237 -31.556  21.131  1.00  0.00     0.093 C 
ENDBRANCH   6   7
ENDBRANCH   1   5
TORSDOF 4
ENDMDL
MODEL 6
REMARK VINA RESULT:    -3.824      2.248      5.205
REMARK INTER + INTRA:          -4.917
REMARK INTER:                  -4.752
REMARK INTRA:                  -0.165
REMARK UNBOUND:                -0.198
REMARK SMILES CCCCC=CC(C)=O
REMARK SMILES IDX 4 1 3 2 2 3 1 4 5 5 6 6 7 7 9 8 8 9
REMARK H PARENT
REMARK Flexibility Score: inf
ROOT
ATOM      1  C   UNL     1      14.432 -32.758  23.504  1.00  0.00     0.027 C 
ENDROOT
BRANCH   1   2
ATOM      2  C   UNL     1      14.643 -32.967  21.999  1.00  0.00     0.004 C 
BRANCH   2   3
ATOM      3  C   UNL     1      15.390 -34.276  21.727  1.00  0.00    -0.003 C 
ATOM      4  C   UNL     1      15.096 -34.797  20.322  1.00  0.00     0.004 C 
ENDBRANCH   2   3
ENDBRANCH   1   2
BRANCH   1   5
ATOM      5  C   UNL     1      13.639 -31.512  23.773  1.00  0.00    -0.023 C 
ATOM      6  C   UNL     1      13.001 -30.863  22.793  1.00  0.00     0.042 C 
BRANCH   6   7
ATOM      7  C   UNL     1      12.206 -29.645  23.038  1.00  0.00     0.152 C 
ATOM      8  O   UNL     1      11.146 -29.424  22.391  1.00  0.00    -0.295 OA
ATOM      9  C   UNL     1      12.660 -28.661  24.067  1.00  0.00     0.093 C 
ENDBRANCH   6   7
ENDBRANCH   1   5
TORSDOF 4
ENDMDL
MODEL 7
REMARK VINA RESULT:    -3.807      1.537      2.460
REMARK INTER + INTRA:          -4.895
REMARK INTER:                  -4.713
REMARK INTRA:                  -0.182
REMARK UNBOUND:                -0.198
REMARK SMILES CCCCC=CC(C)=O
REMARK SMILES IDX 4 1 3 2 2 3 1 4 5 5 6 6 7 7 9 8 8 9
REMARK H PARENT
REMARK Flexibility Score: inf
ROOT
ATOM      1  C   UNL     1      14.842 -33.085  23.737  1.00  0.00     0.027 C 
ENDROOT
BRANCH   1   2
ATOM      2  C   UNL     1      13.624 -32.275  24.201  1.00  0.00     0.004 C 
BRANCH   2   3
ATOM      3  C   UNL     1      13.122 -31.352  23.086  1.00  0.00    -0.003 C 
ATOM      4  C   UNL     1      13.357 -29.885  23.438  1.00  0.00     0.004 C 
ENDBRANCH   2   3
ENDBRANCH   1   2
BRANCH   1   5
ATOM      5  C   UNL     1      14.734 -33.444  22.283  1.00  0.00    -0.023 C 
ATOM      6  C   UNL     1      15.493 -34.403  21.741  1.00  0.00     0.042 C 
BRANCH   6   7
ATOM      7  C   UNL     1      15.393 -34.780  20.320  1.00  0.00     0.152 C 
ATOM      8  O   UNL     1      14.648 -34.136  19.531  1.00  0.00    -0.295 OA
ATOM      9  C   UNL     1      16.185 -35.937  19.803  1.00  0.00     0.093 C 
ENDBRANCH   6   7
ENDBRANCH   1   5
TORSDOF 4
ENDMDL
MODEL 8
REMARK VINA RESULT:    -3.774      2.285      5.598
REMARK INTER + INTRA:          -4.855
REMARK INTER:                  -4.685
REMARK INTRA:                  -0.169
REMARK UNBOUND:                -0.198
REMARK SMILES CCCCC=CC(C)=O
REMARK SMILES IDX 4 1 3 2 2 3 1 4 5 5 6 6 7 7 9 8 8 9
REMARK H PARENT
REMARK Flexibility Score: inf
ROOT
ATOM      1  C   UNL     1      14.765 -34.016  19.988  1.00  0.00     0.027 C 
ENDROOT
BRANCH   1   2
ATOM      2  C   UNL     1      15.750 -35.127  20.374  1.00  0.00     0.004 C 
BRANCH   2   3
ATOM      3  C   UNL     1      16.747 -35.393  19.241  1.00  0.00    -0.003 C 
ATOM      4  C   UNL     1      17.825 -34.313  19.190  1.00  0.00     0.004 C 
ENDBRANCH   2   3
ENDBRANCH   1   2
BRANCH   1   5
ATOM      5  C   UNL     1      14.422 -33.158  21.171  1.00  0.00    -0.023 C 
ATOM      6  C   UNL     1      13.555 -32.144  21.073  1.00  0.00     0.042 C 
BRANCH   6   7
ATOM      7  C   UNL     1      13.195 -31.298  22.225  1.00  0.00     0.152 C 
ATOM      8  O   UNL     1      12.374 -30.349  22.099  1.00  0.00    -0.295 OA
ATOM      9  C   UNL     1      13.810 -31.568  23.561  1.00  0.00     0.093 C 
ENDBRANCH   6   7
ENDBRANCH   1   5
TORSDOF 4
ENDMDL
MODEL 9
REMARK VINA RESULT:    -3.754      2.878      5.379
REMARK INTER + INTRA:          -4.830
REMARK INTER:                  -4.670
REMARK INTRA:                  -0.160
REMARK UNBOUND:                -0.198
REMARK SMILES CCCCC=CC(C)=O
REMARK SMILES IDX 4 1 3 2 2 3 1 4 5 5 6 6 7 7 9 8 8 9
REMARK H PARENT
REMARK Flexibility Score: inf
ROOT
ATOM      1  C   UNL     1      13.698 -31.720  23.367  1.00  0.00     0.027 C 
ENDROOT
BRANCH   1   2
ATOM      2  C   UNL     1      15.188 -31.846  23.026  1.00  0.00     0.004 C 
BRANCH   2   3
ATOM      3  C   UNL     1      15.387 -32.152  21.538  1.00  0.00    -0.003 C 
ATOM      4  C   UNL     1      14.324 -33.123  21.029  1.00  0.00     0.004 C 
ENDBRANCH   2   3
ENDBRANCH   1   2
BRANCH   1   5
ATOM      5  C   UNL     1      13.185 -30.343  23.060  1.00  0.00    -0.023 C 
ATOM      6  C   UNL     1      12.812 -29.503  24.033  1.00  0.00     0.042 C 
BRANCH   6   7
ATOM      7  C   UNL     1      12.318 -28.142  23.754  1.00  0.00     0.152 C 
ATOM      8  O   UNL     1      13.016 -27.130  24.038  1.00  0.00    -0.295 OA
ATOM      9  C   UNL     1      10.975 -27.957  23.125  1.00  0.00     0.093 C 
ENDBRANCH   6   7
ENDBRANCH   1   5
TORSDOF 4
ENDMDL
