MODEL 1
REMARK VINA RESULT:    -6.609      0.000      0.000
REMARK INTER + INTRA:          -7.261
REMARK INTER:                  -6.995
REMARK INTRA:                  -0.266
REMARK UNBOUND:                -0.266
REMARK SMILES O=c1cc(-c2ccccc2)oc2ccccc12
REMARK SMILES IDX 4 1 3 2 2 3 1 4 17 5 16 6 15 7 14 8 13 9 12 10 11 11 5 12
REMARK SMILES IDX 8 13 7 14 9 15 6 16 10 17
REMARK H PARENT
REMARK Flexibility Score: inf
ROOT
ATOM      1  C   UNL     1      20.162  -0.486 -19.653  1.00  0.00     0.138 A 
ATOM      2  C   UNL     1      19.676  -1.809 -19.614  1.00  0.00     0.100 A 
ATOM      3  C   UNL     1      19.028  -2.271 -18.465  1.00  0.00     0.193 A 
ATOM      4  O   UNL     1      18.594  -3.454 -18.430  1.00  0.00    -0.289 OA
ATOM      5  C   UNL     1      18.870  -1.411 -17.369  1.00  0.00     0.065 A 
ATOM      6  C   UNL     1      18.228  -1.813 -16.183  1.00  0.00     0.016 A 
ATOM      7  C   UNL     1      18.097  -0.915 -15.119  1.00  0.00     0.001 A 
ATOM      8  C   UNL     1      18.604   0.383 -15.229  1.00  0.00     0.004 A 
ATOM      9  C   UNL     1      19.244   0.790 -16.403  1.00  0.00     0.048 A 
ATOM     10  C   UNL     1      19.380  -0.099 -17.475  1.00  0.00     0.138 A 
ATOM     11  O   UNL     1      19.989   0.297 -18.586  1.00  0.00    -0.456 OA
ENDROOT
BRANCH   1  12
ATOM     12  C   UNL     1      20.867   0.088 -20.841  1.00  0.00     0.017 A 
ATOM     13  C   UNL     1      22.193   1.083 -23.125  1.00  0.00     0.000 A 
ATOM     14  C   UNL     1      21.814  -0.258 -23.066  1.00  0.00     0.001 A 
ATOM     15  C   UNL     1      21.916   1.932 -22.054  1.00  0.00     0.001 A 
ATOM     16  C   UNL     1      21.158  -0.752 -21.936  1.00  0.00     0.012 A 
ATOM     17  C   UNL     1      21.259   1.445 -20.919  1.00  0.00     0.012 A 
ENDBRANCH   1  12
TORSDOF 1
ENDMDL
MODEL 2
REMARK VINA RESULT:    -6.115     12.712     16.142
REMARK INTER + INTRA:          -6.738
REMARK INTER:                  -6.472
REMARK INTRA:                  -0.266
REMARK UNBOUND:                -0.266
REMARK SMILES O=c1cc(-c2ccccc2)oc2ccccc12
REMARK SMILES IDX 4 1 3 2 2 3 1 4 17 5 16 6 15 7 14 8 13 9 12 10 11 11 5 12
REMARK SMILES IDX 8 13 7 14 9 15 6 16 10 17
REMARK H PARENT
REMARK Flexibility Score: inf
ROOT
ATOM      1  C   UNL     1      10.649  -7.031  -8.871  1.00  0.00     0.138 A 
ATOM      2  C   UNL     1      10.419  -5.989  -7.949  1.00  0.00     0.100 A 
ATOM      3  C   UNL     1       9.410  -6.128  -6.992  1.00  0.00     0.193 A 
ATOM      4  O   UNL     1       9.203  -5.196  -6.168  1.00  0.00    -0.289 OA
ATOM      5  C   UNL     1       8.642  -7.300  -6.964  1.00  0.00     0.065 A 
ATOM      6  C   UNL     1       7.611  -7.503  -6.027  1.00  0.00     0.016 A 
ATOM      7  C   UNL     1       6.876  -8.692  -6.042  1.00  0.00     0.001 A 
ATOM      8  C   UNL     1       7.160  -9.682  -6.987  1.00  0.00     0.004 A 
ATOM      9  C   UNL     1       8.181  -9.489  -7.921  1.00  0.00     0.048 A 
ATOM     10  C   UNL     1       8.925  -8.303  -7.915  1.00  0.00     0.138 A 
ATOM     11  O   UNL     1       9.894  -8.129  -8.807  1.00  0.00    -0.456 OA
ENDROOT
BRANCH   1  12
ATOM     12  C   UNL     1      11.708  -6.965  -9.926  1.00  0.00     0.017 A 
ATOM     13  C   UNL     1      13.729  -6.752 -11.885  1.00  0.00     0.000 A 
ATOM     14  C   UNL     1      13.528  -5.716 -10.973  1.00  0.00     0.001 A 
ATOM     15  C   UNL     1      12.930  -7.894 -11.827  1.00  0.00     0.001 A 
ATOM     16  C   UNL     1      12.527  -5.819 -10.003  1.00  0.00     0.012 A 
ATOM     17  C   UNL     1      11.927  -8.005 -10.859  1.00  0.00     0.012 A 
ENDBRANCH   1  12
TORSDOF 1
ENDMDL
MODEL 3
REMARK VINA RESULT:    -6.085     12.113     15.444
REMARK INTER + INTRA:          -6.707
REMARK INTER:                  -6.441
REMARK INTRA:                  -0.266
REMARK UNBOUND:                -0.266
REMARK SMILES O=c1cc(-c2ccccc2)oc2ccccc12
REMARK SMILES IDX 4 1 3 2 2 3 1 4 17 5 16 6 15 7 14 8 13 9 12 10 11 11 5 12
REMARK SMILES IDX 8 13 7 14 9 15 6 16 10 17
REMARK H PARENT
REMARK Flexibility Score: inf
ROOT
ATOM      1  C   UNL     1      11.008  -7.174  -9.244  1.00  0.00     0.138 A 
ATOM      2  C   UNL     1      10.303  -8.396  -9.279  1.00  0.00     0.100 A 
ATOM      3  C   UNL     1       9.268  -8.620  -8.369  1.00  0.00     0.193 A 
ATOM      4  O   UNL     1       8.639  -9.712  -8.400  1.00  0.00    -0.289 OA
ATOM      5  C   UNL     1       8.944  -7.628  -7.434  1.00  0.00     0.065 A 
ATOM      6  C   UNL     1       7.913  -7.789  -6.489  1.00  0.00     0.016 A 
ATOM      7  C   UNL     1       7.631  -6.767  -5.579  1.00  0.00     0.001 A 
ATOM      8  C   UNL     1       8.371  -5.582  -5.602  1.00  0.00     0.004 A 
ATOM      9  C   UNL     1       9.397  -5.412  -6.535  1.00  0.00     0.048 A 
ATOM     10  C   UNL     1       9.688  -6.428  -7.453  1.00  0.00     0.138 A 
ATOM     11  O   UNL     1      10.665  -6.258  -8.337  1.00  0.00    -0.456 OA
ENDROOT
BRANCH   1  12
ATOM     12  C   UNL     1      12.129  -6.853 -10.181  1.00  0.00     0.017 A 
ATOM     13  C   UNL     1      14.255  -6.162 -11.903  1.00  0.00     0.000 A 
ATOM     14  C   UNL     1      13.867  -5.289 -10.888  1.00  0.00     0.001 A 
ATOM     15  C   UNL     1      13.591  -7.378 -12.066  1.00  0.00     0.001 A 
ATOM     16  C   UNL     1      12.814  -5.628 -10.035  1.00  0.00     0.012 A 
ATOM     17  C   UNL     1      12.537  -7.726 -11.216  1.00  0.00     0.012 A 
ENDBRANCH   1  12
TORSDOF 1
ENDMDL
MODEL 4
REMARK VINA RESULT:    -6.020      2.465      4.186
REMARK INTER + INTRA:          -6.638
REMARK INTER:                  -6.410
REMARK INTRA:                  -0.228
REMARK UNBOUND:                -0.266
REMARK SMILES O=c1cc(-c2ccccc2)oc2ccccc12
REMARK SMILES IDX 4 1 3 2 2 3 1 4 17 5 16 6 15 7 14 8 13 9 12 10 11 11 5 12
REMARK SMILES IDX 8 13 7 14 9 15 6 16 10 17
REMARK H PARENT
REMARK Flexibility Score: inf
ROOT
ATOM      1  C   UNL     1      18.458  -0.882 -16.608  1.00  0.00     0.138 A 
ATOM      2  C   UNL     1      17.755  -0.027 -15.734  1.00  0.00     0.100 A 
ATOM      3  C   UNL     1      16.998  -0.575 -14.695  1.00  0.00     0.193 A 
ATOM      4  O   UNL     1      16.370   0.190 -13.914  1.00  0.00    -0.289 OA
ATOM      5  C   UNL     1      16.948  -1.967 -14.538  1.00  0.00     0.065 A 
ATOM      6  C   UNL     1      16.205  -2.583 -13.513  1.00  0.00     0.016 A 
ATOM      7  C   UNL     1      16.189  -3.976 -13.401  1.00  0.00     0.001 A 
ATOM      8  C   UNL     1      16.910  -4.762 -14.304  1.00  0.00     0.004 A 
ATOM      9  C   UNL     1      17.650  -4.159 -15.325  1.00  0.00     0.048 A 
ATOM     10  C   UNL     1      17.674  -2.765 -15.447  1.00  0.00     0.138 A 
ATOM     11  O   UNL     1      18.381  -2.201 -16.420  1.00  0.00    -0.456 OA
ENDROOT
BRANCH   1  12
ATOM     12  C   UNL     1      19.291  -0.379 -17.744  1.00  0.00     0.017 A 
ATOM     13  C   UNL     1      20.799   0.530 -19.949  1.00  0.00     0.000 A 
ATOM     14  C   UNL     1      19.614  -0.177 -20.157  1.00  0.00     0.001 A 
ATOM     15  C   UNL     1      21.237   0.787 -18.651  1.00  0.00     0.001 A 
ATOM     16  C   UNL     1      18.867  -0.628 -19.066  1.00  0.00     0.012 A 
ATOM     17  C   UNL     1      20.494   0.339 -17.554  1.00  0.00     0.012 A 
ENDBRANCH   1  12
TORSDOF 1
ENDMDL
MODEL 5
REMARK VINA RESULT:    -5.971      2.380      3.446
REMARK INTER + INTRA:          -6.585
REMARK INTER:                  -6.341
REMARK INTRA:                  -0.245
REMARK UNBOUND:                -0.266
REMARK SMILES O=c1cc(-c2ccccc2)oc2ccccc12
REMARK SMILES IDX 4 1 3 2 2 3 1 4 17 5 16 6 15 7 14 8 13 9 12 10 11 11 5 12
REMARK SMILES IDX 8 13 7 14 9 15 6 16 10 17
REMARK H PARENT
REMARK Flexibility Score: inf
ROOT
ATOM      1  C   UNL     1      20.785   0.625 -18.125  1.00  0.00     0.138 A 
ATOM      2  C   UNL     1      19.590   0.400 -17.410  1.00  0.00     0.100 A 
ATOM      3  C   UNL     1      19.540   0.692 -16.044  1.00  0.00     0.193 A 
ATOM      4  O   UNL     1      18.472   0.490 -15.406  1.00  0.00    -0.289 OA
ATOM      5  C   UNL     1      20.677   1.204 -15.406  1.00  0.00     0.065 A 
ATOM      6  C   UNL     1      20.694   1.519 -14.034  1.00  0.00     0.016 A 
ATOM      7  C   UNL     1      21.856   2.028 -13.447  1.00  0.00     0.001 A 
ATOM      8  C   UNL     1      23.005   2.225 -14.218  1.00  0.00     0.004 A 
ATOM      9  C   UNL     1      22.998   1.915 -15.580  1.00  0.00     0.048 A 
ATOM     10  C   UNL     1      21.840   1.406 -16.180  1.00  0.00     0.138 A 
ATOM     11  O   UNL     1      21.843   1.114 -17.476  1.00  0.00    -0.456 OA
ENDROOT
BRANCH   1  12
ATOM     12  C   UNL     1      20.925   0.341 -19.587  1.00  0.00     0.017 A 
ATOM     13  C   UNL     1      21.232  -0.111 -22.356  1.00  0.00     0.000 A 
ATOM     14  C   UNL     1      21.696   1.074 -21.786  1.00  0.00     0.001 A 
ATOM     15  C   UNL     1      20.616  -1.073 -21.556  1.00  0.00     0.001 A 
ATOM     16  C   UNL     1      21.544   1.300 -20.415  1.00  0.00     0.012 A 
ATOM     17  C   UNL     1      20.461  -0.855 -20.183  1.00  0.00     0.012 A 
ENDBRANCH   1  12
TORSDOF 1
ENDMDL
MODEL 6
REMARK VINA RESULT:    -5.958     12.659     16.410
REMARK INTER + INTRA:          -6.572
REMARK INTER:                  -6.307
REMARK INTRA:                  -0.265
REMARK UNBOUND:                -0.266
REMARK SMILES O=c1cc(-c2ccccc2)oc2ccccc12
REMARK SMILES IDX 4 1 3 2 2 3 1 4 17 5 16 6 15 7 14 8 13 9 12 10 11 11 5 12
REMARK SMILES IDX 8 13 7 14 9 15 6 16 10 17
REMARK H PARENT
REMARK Flexibility Score: inf
ROOT
ATOM      1  C   UNL     1      10.478  -7.104  -8.755  1.00  0.00     0.138 A 
ATOM      2  C   UNL     1      11.239  -6.008  -9.212  1.00  0.00     0.100 A 
ATOM      3  C   UNL     1      12.147  -6.189 -10.258  1.00  0.00     0.193 A 
ATOM      4  O   UNL     1      12.828  -5.210 -10.666  1.00  0.00    -0.289 OA
ATOM      5  C   UNL     1      12.287  -7.458 -10.839  1.00  0.00     0.065 A 
ATOM      6  C   UNL     1      13.182  -7.708 -11.896  1.00  0.00     0.016 A 
ATOM      7  C   UNL     1      13.282  -8.993 -12.438  1.00  0.00     0.001 A 
ATOM      8  C   UNL     1      12.495 -10.032 -11.935  1.00  0.00     0.004 A 
ATOM      9  C   UNL     1      11.604  -9.793 -10.885  1.00  0.00     0.048 A 
ATOM     10  C   UNL     1      11.494  -8.511 -10.334  1.00  0.00     0.138 A 
ATOM     11  O   UNL     1      10.644  -8.293  -9.337  1.00  0.00    -0.456 OA
ENDROOT
BRANCH   1  12
ATOM     12  C   UNL     1       9.485  -6.998  -7.640  1.00  0.00     0.017 A 
ATOM     13  C   UNL     1       7.643  -6.706  -5.523  1.00  0.00     0.000 A 
ATOM     14  C   UNL     1       8.483  -5.648  -5.868  1.00  0.00     0.001 A 
ATOM     15  C   UNL     1       7.714  -7.909  -6.225  1.00  0.00     0.001 A 
ATOM     16  C   UNL     1       9.396  -5.791  -6.916  1.00  0.00     0.012 A 
ATOM     17  C   UNL     1       8.625  -8.059  -7.276  1.00  0.00     0.012 A 
ENDBRANCH   1  12
TORSDOF 1
ENDMDL
MODEL 7
REMARK VINA RESULT:    -5.897     11.889     16.192
REMARK INTER + INTRA:          -6.508
REMARK INTER:                  -6.242
REMARK INTRA:                  -0.265
REMARK UNBOUND:                -0.266
REMARK SMILES O=c1cc(-c2ccccc2)oc2ccccc12
REMARK SMILES IDX 4 1 3 2 2 3 1 4 17 5 16 6 15 7 14 8 13 9 12 10 11 11 5 12
REMARK SMILES IDX 8 13 7 14 9 15 6 16 10 17
REMARK H PARENT
REMARK Flexibility Score: inf
ROOT
ATOM      1  C   UNL     1      10.377  -7.416  -8.731  1.00  0.00     0.138 A 
ATOM      2  C   UNL     1      10.379  -8.592  -9.510  1.00  0.00     0.100 A 
ATOM      3  C   UNL     1      11.302  -8.727 -10.550  1.00  0.00     0.193 A 
ATOM      4  O   UNL     1      11.305  -9.778 -11.245  1.00  0.00    -0.289 OA
ATOM      5  C   UNL     1      12.212  -7.692 -10.804  1.00  0.00     0.065 A 
ATOM      6  C   UNL     1      13.168  -7.764 -11.835  1.00  0.00     0.016 A 
ATOM      7  C   UNL     1      14.052  -6.702 -12.045  1.00  0.00     0.001 A 
ATOM      8  C   UNL     1      13.991  -5.565 -11.234  1.00  0.00     0.004 A 
ATOM      9  C   UNL     1      13.046  -5.485 -10.208  1.00  0.00     0.048 A 
ATOM     10  C   UNL     1      12.156  -6.542  -9.987  1.00  0.00     0.138 A 
ATOM     11  O   UNL     1      11.261  -6.456  -9.009  1.00  0.00    -0.456 OA
ENDROOT
BRANCH   1  12
ATOM     12  C   UNL     1       9.423  -7.190  -7.601  1.00  0.00     0.017 A 
ATOM     13  C   UNL     1       7.659  -6.674  -5.459  1.00  0.00     0.000 A 
ATOM     14  C   UNL     1       8.527  -5.677  -5.905  1.00  0.00     0.001 A 
ATOM     15  C   UNL     1       7.664  -7.926  -6.073  1.00  0.00     0.001 A 
ATOM     16  C   UNL     1       9.401  -5.931  -6.965  1.00  0.00     0.012 A 
ATOM     17  C   UNL     1       8.536  -8.188  -7.135  1.00  0.00     0.012 A 
ENDBRANCH   1  12
TORSDOF 1
ENDMDL
MODEL 8
REMARK VINA RESULT:    -5.816     11.468     14.442
REMARK INTER + INTRA:          -6.422
REMARK INTER:                  -6.202
REMARK INTRA:                  -0.220
REMARK UNBOUND:                -0.266
REMARK SMILES O=c1cc(-c2ccccc2)oc2ccccc12
REMARK SMILES IDX 4 1 3 2 2 3 1 4 17 5 16 6 15 7 14 8 13 9 12 10 11 11 5 12
REMARK SMILES IDX 8 13 7 14 9 15 6 16 10 17
REMARK H PARENT
REMARK Flexibility Score: inf
ROOT
ATOM      1  C   UNL     1      10.882  -5.888 -10.421  1.00  0.00     0.138 A 
ATOM      2  C   UNL     1       9.777  -5.378 -11.134  1.00  0.00     0.100 A 
ATOM      3  C   UNL     1       8.571  -5.155 -10.465  1.00  0.00     0.193 A 
ATOM      4  O   UNL     1       7.583  -4.699 -11.102  1.00  0.00    -0.289 OA
ATOM      5  C   UNL     1       8.477  -5.441  -9.096  1.00  0.00     0.065 A 
ATOM      6  C   UNL     1       7.292  -5.240  -8.363  1.00  0.00     0.016 A 
ATOM      7  C   UNL     1       7.253  -5.542  -6.999  1.00  0.00     0.001 A 
ATOM      8  C   UNL     1       8.388  -6.045  -6.358  1.00  0.00     0.004 A 
ATOM      9  C   UNL     1       9.569  -6.249  -7.077  1.00  0.00     0.048 A 
ATOM     10  C   UNL     1       9.621  -5.949  -8.444  1.00  0.00     0.138 A 
ATOM     11  O   UNL     1      10.747  -6.146  -9.119  1.00  0.00    -0.456 OA
ENDROOT
BRANCH   1  12
ATOM     12  C   UNL     1      12.209  -6.156 -11.059  1.00  0.00     0.017 A 
ATOM     13  C   UNL     1      14.681  -6.750 -12.284  1.00  0.00     0.000 A 
ATOM     14  C   UNL     1      13.666  -7.707 -12.258  1.00  0.00     0.001 A 
ATOM     15  C   UNL     1      14.472  -5.499 -11.705  1.00  0.00     0.001 A 
ATOM     16  C   UNL     1      12.442  -7.415 -11.651  1.00  0.00     0.012 A 
ATOM     17  C   UNL     1      13.249  -5.198 -11.096  1.00  0.00     0.012 A 
ENDBRANCH   1  12
TORSDOF 1
ENDMDL
MODEL 9
REMARK VINA RESULT:    -5.798      2.336      3.830
REMARK INTER + INTRA:          -6.403
REMARK INTER:                  -6.168
REMARK INTRA:                  -0.235
REMARK UNBOUND:                -0.266
REMARK SMILES O=c1cc(-c2ccccc2)oc2ccccc12
REMARK SMILES IDX 4 1 3 2 2 3 1 4 17 5 16 6 15 7 14 8 13 9 12 10 11 11 5 12
REMARK SMILES IDX 8 13 7 14 9 15 6 16 10 17
REMARK H PARENT
REMARK Flexibility Score: inf
ROOT
ATOM      1  C   UNL     1      21.076   0.808 -17.524  1.00  0.00     0.138 A 
ATOM      2  C   UNL     1      22.291   1.134 -16.887  1.00  0.00     0.100 A 
ATOM      3  C   UNL     1      22.287   1.485 -15.535  1.00  0.00     0.193 A 
ATOM      4  O   UNL     1      23.373   1.777 -14.965  1.00  0.00    -0.289 OA
ATOM      5  C   UNL     1      21.075   1.506 -14.831  1.00  0.00     0.065 A 
ATOM      6  C   UNL     1      21.000   1.850 -13.468  1.00  0.00     0.016 A 
ATOM      7  C   UNL     1      19.764   1.855 -12.814  1.00  0.00     0.001 A 
ATOM      8  C   UNL     1      18.600   1.520 -13.510  1.00  0.00     0.004 A 
ATOM      9  C   UNL     1      18.664   1.178 -14.863  1.00  0.00     0.048 A 
ATOM     10  C   UNL     1      19.895   1.168 -15.528  1.00  0.00     0.138 A 
ATOM     11  O   UNL     1      19.946   0.841 -16.815  1.00  0.00    -0.456 OA
ENDROOT
BRANCH   1  12
ATOM     12  C   UNL     1      20.991   0.422 -18.967  1.00  0.00     0.017 A 
ATOM     13  C   UNL     1      20.872  -0.221 -21.712  1.00  0.00     0.000 A 
ATOM     14  C   UNL     1      21.427   0.991 -21.302  1.00  0.00     0.001 A 
ATOM     15  C   UNL     1      20.377  -1.115 -20.764  1.00  0.00     0.001 A 
ATOM     16  C   UNL     1      21.486   1.311 -19.944  1.00  0.00     0.012 A 
ATOM     17  C   UNL     1      20.433  -0.802 -19.402  1.00  0.00     0.012 A 
ENDBRANCH   1  12
TORSDOF 1
ENDMDL
