MODEL 1
REMARK VINA RESULT:    -4.268      0.000      0.000
REMARK INTER + INTRA:         -16.106
REMARK INTER:                 -11.255
REMARK INTRA:                  -4.851
REMARK UNBOUND:                -4.851
REMARK SMILES CCCCCCCCCCCCCCCCCCCCCCCCCCCCCC(=O)[O-]
REMARK SMILES IDX 16 1 17 2 18 3 19 4 20 5 21 6 22 7 23 8 24 9 25 10 26 11
REMARK SMILES IDX 27 12 28 13 29 14 30 15 31 16 32 17 15 18 14 19 13 20 12 21
REMARK SMILES IDX 11 22 10 23 9 24 8 25 7 26 6 27 5 28 4 29 3 30 2 31 1 32
REMARK H PARENT
REMARK Flexibility Score: inf
ROOT
ATOM      1  C   UNL     1       7.012  -9.650 -23.648  1.00  0.00     0.000 C 
ENDROOT
BRANCH   1   2
ATOM      2  C   UNL     1       6.692 -11.107 -24.013  1.00  0.00     0.000 C 
BRANCH   2   3
ATOM      3  C   UNL     1       5.285 -11.533 -23.562  1.00  0.00     0.000 C 
BRANCH   3   4
ATOM      4  C   UNL     1       5.304 -12.807 -22.701  1.00  0.00     0.000 C 
BRANCH   4   5
ATOM      5  C   UNL     1       4.098 -12.897 -21.750  1.00  0.00     0.000 C 
BRANCH   5   6
ATOM      6  C   UNL     1       3.496 -11.541 -21.337  1.00  0.00     0.000 C 
BRANCH   6   7
ATOM      7  C   UNL     1       2.002 -11.394 -21.694  1.00  0.00     0.000 C 
BRANCH   7   8
ATOM      8  C   UNL     1       1.620 -12.201 -22.946  1.00  0.00     0.000 C 
BRANCH   8   9
ATOM      9  C   UNL     1       1.078 -11.315 -24.078  1.00  0.00     0.000 C 
BRANCH   9  10
ATOM     10  C   UNL     1       1.662  -9.892 -24.041  1.00  0.00     0.000 C 
BRANCH  10  11
ATOM     11  C   UNL     1       1.007  -8.956 -25.071  1.00  0.00     0.000 C 
BRANCH  11  12
ATOM     12  C   UNL     1      -0.051  -9.627 -25.968  1.00  0.00     0.000 C 
BRANCH  12  13
ATOM     13  C   UNL     1       0.098  -9.284 -27.466  1.00  0.00     0.006 C 
BRANCH  13  14
ATOM     14  C   UNL     1       1.442  -8.611 -27.777  1.00  0.00     0.053 C 
BRANCH  14  15
ATOM     15  C   UNL     1       1.231  -7.224 -28.294  1.00  0.00     0.041 C 
ATOM     16  O   UNL     1       1.412  -6.968 -29.515  1.00  0.00    -0.550 OA
ATOM     17  O   UNL     1       0.875  -6.203 -27.422  1.00  0.00    -0.550 OA
ENDBRANCH  14  15
ENDBRANCH  13  14
ENDBRANCH  12  13
ENDBRANCH  11  12
ENDBRANCH  10  11
ENDBRANCH   9  10
ENDBRANCH   8   9
ENDBRANCH   7   8
ENDBRANCH   6   7
ENDBRANCH   5   6
ENDBRANCH   4   5
ENDBRANCH   3   4
ENDBRANCH   2   3
ENDBRANCH   1   2
BRANCH   1  18
ATOM     18  C   UNL     1       6.109  -9.156 -22.511  1.00  0.00     0.000 C 
BRANCH  18  19
ATOM     19  C   UNL     1       6.012  -7.623 -22.513  1.00  0.00     0.000 C 
BRANCH  19  20
ATOM     20  C   UNL     1       4.897  -7.092 -21.597  1.00  0.00     0.000 C 
BRANCH  20  21
ATOM     21  C   UNL     1       3.573  -7.885 -21.636  1.00  0.00     0.000 C 
BRANCH  21  22
ATOM     22  C   UNL     1       2.739  -7.860 -20.338  1.00  0.00     0.000 C 
BRANCH  22  23
ATOM     23  C   UNL     1       1.704  -6.715 -20.257  1.00  0.00     0.000 C 
BRANCH  23  24
ATOM     24  C   UNL     1       2.083  -5.606 -19.256  1.00  0.00    -0.000 C 
BRANCH  24  25
ATOM     25  C   UNL     1       3.427  -5.819 -18.534  1.00  0.00    -0.000 C 
BRANCH  25  26
ATOM     26  C   UNL     1       4.475  -4.709 -18.759  1.00  0.00    -0.000 C 
BRANCH  26  27
ATOM     27  C   UNL     1       3.908  -3.279 -18.822  1.00  0.00    -0.000 C 
BRANCH  27  28
ATOM     28  C   UNL     1       4.304  -2.536 -20.107  1.00  0.00    -0.000 C 
BRANCH  28  29
ATOM     29  C   UNL     1       4.398  -3.502 -21.293  1.00  0.00    -0.000 C 
BRANCH  29  30
ATOM     30  C   UNL     1       3.088  -3.515 -22.098  1.00  0.00    -0.000 C 
BRANCH  30  31
ATOM     31  C   UNL     1       3.144  -4.468 -23.301  1.00  0.00    -0.003 C 
ATOM     32  C   UNL     1       1.807  -5.158 -23.571  1.00  0.00     0.004 C 
ENDBRANCH  30  31
ENDBRANCH  29  30
ENDBRANCH  28  29
ENDBRANCH  27  28
ENDBRANCH  26  27
ENDBRANCH  25  26
ENDBRANCH  24  25
ENDBRANCH  23  24
ENDBRANCH  22  23
ENDBRANCH  21  22
ENDBRANCH  20  21
ENDBRANCH  19  20
ENDBRANCH  18  19
ENDBRANCH   1  18
TORSDOF 28
ENDMDL
MODEL 2
REMARK VINA RESULT:    -4.256      3.015      7.933
REMARK INTER + INTRA:         -16.072
REMARK INTER:                 -10.992
REMARK INTRA:                  -5.080
REMARK UNBOUND:                -4.851
REMARK SMILES CCCCCCCCCCCCCCCCCCCCCCCCCCCCCC(=O)[O-]
REMARK SMILES IDX 16 1 17 2 18 3 19 4 20 5 21 6 22 7 23 8 24 9 25 10 26 11
REMARK SMILES IDX 27 12 28 13 29 14 30 15 31 16 32 17 15 18 14 19 13 20 12 21
REMARK SMILES IDX 11 22 10 23 9 24 8 25 7 26 6 27 5 28 4 29 3 30 2 31 1 32
REMARK H PARENT
REMARK Flexibility Score: inf
ROOT
ATOM      1  C   UNL     1       5.032  -6.227 -21.846  1.00  0.00     0.000 C 
ENDROOT
BRANCH   1   2
ATOM      2  C   UNL     1       3.781  -5.847 -22.652  1.00  0.00     0.000 C 
BRANCH   2   3
ATOM      3  C   UNL     1       3.730  -4.348 -22.991  1.00  0.00     0.000 C 
BRANCH   3   4
ATOM      4  C   UNL     1       4.693  -3.516 -22.127  1.00  0.00     0.000 C 
BRANCH   4   5
ATOM      5  C   UNL     1       3.960  -2.524 -21.209  1.00  0.00     0.000 C 
BRANCH   5   6
ATOM      6  C   UNL     1       4.624  -2.299 -19.838  1.00  0.00     0.000 C 
BRANCH   6   7
ATOM      7  C   UNL     1       5.370  -3.539 -19.301  1.00  0.00     0.000 C 
BRANCH   7   8
ATOM      8  C   UNL     1       4.708  -4.115 -18.038  1.00  0.00     0.000 C 
BRANCH   8   9
ATOM      9  C   UNL     1       4.116  -5.515 -18.269  1.00  0.00     0.000 C 
BRANCH   9  10
ATOM     10  C   UNL     1       2.825  -5.478 -19.104  1.00  0.00     0.000 C 
BRANCH  10  11
ATOM     11  C   UNL     1       1.821  -4.430 -18.596  1.00  0.00     0.000 C 
BRANCH  11  12
ATOM     12  C   UNL     1       0.910  -3.831 -19.685  1.00  0.00     0.000 C 
BRANCH  12  13
ATOM     13  C   UNL     1       0.442  -4.859 -20.737  1.00  0.00     0.006 C 
BRANCH  13  14
ATOM     14  C   UNL     1      -1.089  -4.946 -20.823  1.00  0.00     0.053 C 
BRANCH  14  15
ATOM     15  C   UNL     1      -1.719  -3.695 -20.300  1.00  0.00     0.041 C 
ATOM     16  O   UNL     1      -2.190  -3.664 -19.131  1.00  0.00    -0.550 OA
ATOM     17  O   UNL     1      -1.825  -2.576 -21.115  1.00  0.00    -0.550 OA
ENDBRANCH  14  15
ENDBRANCH  13  14
ENDBRANCH  12  13
ENDBRANCH  11  12
ENDBRANCH  10  11
ENDBRANCH   9  10
ENDBRANCH   8   9
ENDBRANCH   7   8
ENDBRANCH   6   7
ENDBRANCH   5   6
ENDBRANCH   4   5
ENDBRANCH   3   4
ENDBRANCH   2   3
ENDBRANCH   1   2
BRANCH   1  18
ATOM     18  C   UNL     1       5.812  -7.351 -22.538  1.00  0.00     0.000 C 
BRANCH  18  19
ATOM     19  C   UNL     1       5.456  -8.718 -21.934  1.00  0.00     0.000 C 
BRANCH  19  20
ATOM     20  C   UNL     1       4.607  -8.606 -20.656  1.00  0.00     0.000 C 
BRANCH  20  21
ATOM     21  C   UNL     1       3.287  -9.407 -20.665  1.00  0.00     0.000 C 
BRANCH  21  22
ATOM     22  C   UNL     1       1.995  -8.569 -20.571  1.00  0.00     0.000 C 
BRANCH  22  23
ATOM     23  C   UNL     1       1.272  -8.343 -21.918  1.00  0.00     0.000 C 
BRANCH  23  24
ATOM     24  C   UNL     1       1.763  -9.269 -23.048  1.00  0.00    -0.000 C 
BRANCH  24  25
ATOM     25  C   UNL     1       1.064 -10.640 -23.109  1.00  0.00    -0.000 C 
BRANCH  25  26
ATOM     26  C   UNL     1       1.602 -11.602 -24.190  1.00  0.00    -0.000 C 
BRANCH  26  27
ATOM     27  C   UNL     1       2.858 -12.397 -23.789  1.00  0.00    -0.000 C 
BRANCH  27  28
ATOM     28  C   UNL     1       4.149 -11.573 -23.903  1.00  0.00    -0.000 C 
BRANCH  28  29
ATOM     29  C   UNL     1       5.230 -12.112 -22.961  1.00  0.00    -0.000 C 
BRANCH  29  30
ATOM     30  C   UNL     1       4.603 -12.874 -21.782  1.00  0.00    -0.000 C 
BRANCH  30  31
ATOM     31  C   UNL     1       5.322 -14.199 -21.486  1.00  0.00    -0.003 C 
ATOM     32  C   UNL     1       4.596 -15.409 -22.072  1.00  0.00     0.004 C 
ENDBRANCH  30  31
ENDBRANCH  29  30
ENDBRANCH  28  29
ENDBRANCH  27  28
ENDBRANCH  26  27
ENDBRANCH  25  26
ENDBRANCH  24  25
ENDBRANCH  23  24
ENDBRANCH  22  23
ENDBRANCH  21  22
ENDBRANCH  20  21
ENDBRANCH  19  20
ENDBRANCH  18  19
ENDBRANCH   1  18
TORSDOF 28
ENDMDL
MODEL 3
REMARK VINA RESULT:    -4.217      2.969      4.848
REMARK INTER + INTRA:         -15.970
REMARK INTER:                 -10.515
REMARK INTRA:                  -5.455
REMARK UNBOUND:                -4.851
REMARK SMILES CCCCCCCCCCCCCCCCCCCCCCCCCCCCCC(=O)[O-]
REMARK SMILES IDX 16 1 17 2 18 3 19 4 20 5 21 6 22 7 23 8 24 9 25 10 26 11
REMARK SMILES IDX 27 12 28 13 29 14 30 15 31 16 32 17 15 18 14 19 13 20 12 21
REMARK SMILES IDX 11 22 10 23 9 24 8 25 7 26 6 27 5 28 4 29 3 30 2 31 1 32
REMARK H PARENT
REMARK Flexibility Score: inf
ROOT
ATOM      1  C   UNL     1       4.532  -7.811 -20.616  1.00  0.00     0.000 C 
ENDROOT
BRANCH   1   2
ATOM      2  C   UNL     1       5.123  -7.187 -21.889  1.00  0.00     0.000 C 
BRANCH   2   3
ATOM      3  C   UNL     1       6.230  -8.053 -22.511  1.00  0.00     0.000 C 
BRANCH   3   4
ATOM      4  C   UNL     1       5.926  -9.557 -22.415  1.00  0.00     0.000 C 
BRANCH   4   5
ATOM      5  C   UNL     1       6.513 -10.358 -23.589  1.00  0.00     0.000 C 
BRANCH   5   6
ATOM      6  C   UNL     1       5.753 -11.653 -23.934  1.00  0.00     0.000 C 
BRANCH   6   7
ATOM      7  C   UNL     1       5.139 -12.355 -22.704  1.00  0.00     0.000 C 
BRANCH   7   8
ATOM      8  C   UNL     1       3.607 -12.223 -22.663  1.00  0.00     0.000 C 
BRANCH   8   9
ATOM      9  C   UNL     1       3.001 -11.941 -24.046  1.00  0.00     0.000 C 
BRANCH   9  10
ATOM     10  C   UNL     1       1.982 -10.789 -24.019  1.00  0.00     0.000 C 
BRANCH  10  11
ATOM     11  C   UNL     1       2.398  -9.654 -23.068  1.00  0.00     0.000 C 
BRANCH  11  12
ATOM     12  C   UNL     1       1.331  -9.264 -22.026  1.00  0.00     0.000 C 
BRANCH  12  13
ATOM     13  C   UNL     1       1.625  -9.801 -20.609  1.00  0.00     0.006 C 
BRANCH  13  14
ATOM     14  C   UNL     1       0.909 -11.131 -20.331  1.00  0.00     0.053 C 
BRANCH  14  15
ATOM     15  C   UNL     1      -0.564 -10.992 -20.545  1.00  0.00     0.041 C 
ATOM     16  O   UNL     1      -1.248 -10.252 -19.787  1.00  0.00    -0.550 OA
ATOM     17  O   UNL     1      -1.192 -11.712 -21.554  1.00  0.00    -0.550 OA
ENDBRANCH  14  15
ENDBRANCH  13  14
ENDBRANCH  12  13
ENDBRANCH  11  12
ENDBRANCH  10  11
ENDBRANCH   9  10
ENDBRANCH   8   9
ENDBRANCH   7   8
ENDBRANCH   6   7
ENDBRANCH   5   6
ENDBRANCH   4   5
ENDBRANCH   3   4
ENDBRANCH   2   3
ENDBRANCH   1   2
BRANCH   1  18
ATOM     18  C   UNL     1       4.228  -6.736 -19.566  1.00  0.00     0.000 C 
BRANCH  18  19
ATOM     19  C   UNL     1       4.889  -5.401 -19.939  1.00  0.00     0.000 C 
BRANCH  19  20
ATOM     20  C   UNL     1       4.865  -4.378 -18.790  1.00  0.00     0.000 C 
BRANCH  20  21
ATOM     21  C   UNL     1       4.459  -2.943 -19.190  1.00  0.00     0.000 C 
BRANCH  21  22
ATOM     22  C   UNL     1       2.942  -2.668 -19.248  1.00  0.00     0.000 C 
BRANCH  22  23
ATOM     23  C   UNL     1       2.124  -3.312 -18.106  1.00  0.00     0.000 C 
BRANCH  23  24
ATOM     24  C   UNL     1       0.633  -3.504 -18.442  1.00  0.00    -0.000 C 
BRANCH  24  25
ATOM     25  C   UNL     1       0.289  -3.399 -19.940  1.00  0.00    -0.000 C 
BRANCH  25  26
ATOM     26  C   UNL     1      -0.640  -4.507 -20.478  1.00  0.00    -0.000 C 
BRANCH  26  27
ATOM     27  C   UNL     1       0.005  -5.461 -21.500  1.00  0.00    -0.000 C 
BRANCH  27  28
ATOM     28  C   UNL     1       1.534  -5.526 -21.373  1.00  0.00    -0.000 C 
BRANCH  28  29
ATOM     29  C   UNL     1       2.210  -5.238 -22.718  1.00  0.00    -0.000 C 
BRANCH  29  30
ATOM     30  C   UNL     1       2.755  -3.801 -22.763  1.00  0.00    -0.000 C 
BRANCH  30  31
ATOM     31  C   UNL     1       4.274  -3.753 -22.991  1.00  0.00    -0.003 C 
ATOM     32  C   UNL     1       4.701  -4.468 -24.272  1.00  0.00     0.004 C 
ENDBRANCH  30  31
ENDBRANCH  29  30
ENDBRANCH  28  29
ENDBRANCH  27  28
ENDBRANCH  26  27
ENDBRANCH  25  26
ENDBRANCH  24  25
ENDBRANCH  23  24
ENDBRANCH  22  23
ENDBRANCH  21  22
ENDBRANCH  20  21
ENDBRANCH  19  20
ENDBRANCH  18  19
ENDBRANCH   1  18
TORSDOF 28
ENDMDL
MODEL 4
REMARK VINA RESULT:    -4.201      3.024      5.310
REMARK INTER + INTRA:         -15.929
REMARK INTER:                  -9.404
REMARK INTRA:                  -6.525
REMARK UNBOUND:                -4.851
REMARK SMILES CCCCCCCCCCCCCCCCCCCCCCCCCCCCCC(=O)[O-]
REMARK SMILES IDX 16 1 17 2 18 3 19 4 20 5 21 6 22 7 23 8 24 9 25 10 26 11
REMARK SMILES IDX 27 12 28 13 29 14 30 15 31 16 32 17 15 18 14 19 13 20 12 21
REMARK SMILES IDX 11 22 10 23 9 24 8 25 7 26 6 27 5 28 4 29 3 30 2 31 1 32
REMARK H PARENT
REMARK Flexibility Score: inf
ROOT
ATOM      1  C   UNL     1       0.532  -9.302 -24.330  1.00  0.00     0.000 C 
ENDROOT
BRANCH   1   2
ATOM      2  C   UNL     1       1.828 -10.116 -24.201  1.00  0.00     0.000 C 
BRANCH   2   3
ATOM      3  C   UNL     1       1.565 -11.621 -24.023  1.00  0.00     0.000 C 
BRANCH   3   4
ATOM      4  C   UNL     1       2.773 -12.364 -23.430  1.00  0.00     0.000 C 
BRANCH   4   5
ATOM      5  C   UNL     1       4.117 -11.771 -23.887  1.00  0.00     0.000 C 
BRANCH   5   6
ATOM      6  C   UNL     1       5.119 -11.488 -22.752  1.00  0.00     0.000 C 
BRANCH   6   7
ATOM      7  C   UNL     1       5.910 -10.176 -22.937  1.00  0.00     0.000 C 
BRANCH   7   8
ATOM      8  C   UNL     1       5.154  -8.958 -22.379  1.00  0.00     0.000 C 
BRANCH   8   9
ATOM      9  C   UNL     1       4.352  -9.290 -21.111  1.00  0.00     0.000 C 
BRANCH   9  10
ATOM     10  C   UNL     1       3.098  -8.412 -20.961  1.00  0.00     0.000 C 
BRANCH  10  11
ATOM     11  C   UNL     1       1.887  -9.196 -20.427  1.00  0.00     0.000 C 
BRANCH  11  12
ATOM     12  C   UNL     1       2.073 -10.725 -20.395  1.00  0.00     0.000 C 
BRANCH  12  13
ATOM     13  C   UNL     1       0.746 -11.511 -20.337  1.00  0.00     0.006 C 
BRANCH  13  14
ATOM     14  C   UNL     1      -0.466 -10.631 -20.676  1.00  0.00     0.053 C 
BRANCH  14  15
ATOM     15  C   UNL     1      -1.377 -10.510 -19.495  1.00  0.00     0.041 C 
ATOM     16  O   UNL     1      -1.110 -11.119 -18.424  1.00  0.00    -0.550 OA
ATOM     17  O   UNL     1      -2.542  -9.760 -19.590  1.00  0.00    -0.550 OA
ENDBRANCH  14  15
ENDBRANCH  13  14
ENDBRANCH  12  13
ENDBRANCH  11  12
ENDBRANCH  10  11
ENDBRANCH   9  10
ENDBRANCH   8   9
ENDBRANCH   7   8
ENDBRANCH   6   7
ENDBRANCH   5   6
ENDBRANCH   4   5
ENDBRANCH   3   4
ENDBRANCH   2   3
ENDBRANCH   1   2
BRANCH   1  18
ATOM     18  C   UNL     1       0.727  -7.871 -23.815  1.00  0.00     0.000 C 
BRANCH  18  19
ATOM     19  C   UNL     1       0.959  -6.896 -24.979  1.00  0.00     0.000 C 
BRANCH  19  20
ATOM     20  C   UNL     1       2.033  -5.838 -24.670  1.00  0.00     0.000 C 
BRANCH  20  21
ATOM     21  C   UNL     1       2.801  -6.041 -23.345  1.00  0.00     0.000 C 
BRANCH  21  22
ATOM     22  C   UNL     1       3.554  -4.804 -22.813  1.00  0.00     0.000 C 
BRANCH  22  23
ATOM     23  C   UNL     1       5.086  -4.976 -22.706  1.00  0.00     0.000 C 
BRANCH  23  24
ATOM     24  C   UNL     1       5.549  -5.601 -21.376  1.00  0.00    -0.000 C 
BRANCH  24  25
ATOM     25  C   UNL     1       4.993  -4.918 -20.113  1.00  0.00    -0.000 C 
BRANCH  25  26
ATOM     26  C   UNL     1       4.481  -5.879 -19.019  1.00  0.00    -0.000 C 
BRANCH  26  27
ATOM     27  C   UNL     1       3.076  -5.561 -18.476  1.00  0.00    -0.000 C 
BRANCH  27  28
ATOM     28  C   UNL     1       2.626  -4.126 -18.786  1.00  0.00    -0.000 C 
BRANCH  28  29
ATOM     29  C   UNL     1       1.341  -4.121 -19.621  1.00  0.00    -0.000 C 
BRANCH  29  30
ATOM     30  C   UNL     1       1.047  -5.520 -20.187  1.00  0.00    -0.000 C 
BRANCH  30  31
ATOM     31  C   UNL     1      -0.206  -5.546 -21.075  1.00  0.00    -0.003 C 
ATOM     32  C   UNL     1      -1.005  -6.841 -20.932  1.00  0.00     0.004 C 
ENDBRANCH  30  31
ENDBRANCH  29  30
ENDBRANCH  28  29
ENDBRANCH  27  28
ENDBRANCH  26  27
ENDBRANCH  25  26
ENDBRANCH  24  25
ENDBRANCH  23  24
ENDBRANCH  22  23
ENDBRANCH  21  22
ENDBRANCH  20  21
ENDBRANCH  19  20
ENDBRANCH  18  19
ENDBRANCH   1  18
TORSDOF 28
ENDMDL
MODEL 5
REMARK VINA RESULT:    -4.195      2.626      4.022
REMARK INTER + INTRA:         -15.914
REMARK INTER:                 -10.637
REMARK INTRA:                  -5.277
REMARK UNBOUND:                -4.851
REMARK SMILES CCCCCCCCCCCCCCCCCCCCCCCCCCCCCC(=O)[O-]
REMARK SMILES IDX 16 1 17 2 18 3 19 4 20 5 21 6 22 7 23 8 24 9 25 10 26 11
REMARK SMILES IDX 27 12 28 13 29 14 30 15 31 16 32 17 15 18 14 19 13 20 12 21
REMARK SMILES IDX 11 22 10 23 9 24 8 25 7 26 6 27 5 28 4 29 3 30 2 31 1 32
REMARK H PARENT
REMARK Flexibility Score: inf
ROOT
ATOM      1  C   UNL     1       5.876  -7.576 -22.498  1.00  0.00     0.000 C 
ENDROOT
BRANCH   1   2
ATOM      2  C   UNL     1       6.206  -9.076 -22.506  1.00  0.00     0.000 C 
BRANCH   2   3
ATOM      3  C   UNL     1       7.200  -9.456 -23.616  1.00  0.00     0.000 C 
BRANCH   3   4
ATOM      4  C   UNL     1       6.944 -10.864 -24.179  1.00  0.00     0.000 C 
BRANCH   4   5
ATOM      5  C   UNL     1       5.654 -11.497 -23.630  1.00  0.00     0.000 C 
BRANCH   5   6
ATOM      6  C   UNL     1       5.860 -12.804 -22.841  1.00  0.00     0.000 C 
BRANCH   6   7
ATOM      7  C   UNL     1       4.646 -13.202 -21.976  1.00  0.00     0.000 C 
BRANCH   7   8
ATOM      8  C   UNL     1       3.671 -12.031 -21.766  1.00  0.00     0.000 C 
BRANCH   8   9
ATOM      9  C   UNL     1       2.240 -12.367 -22.211  1.00  0.00     0.000 C 
BRANCH   9  10
ATOM     10  C   UNL     1       2.057 -12.260 -23.735  1.00  0.00     0.000 C 
BRANCH  10  11
ATOM     11  C   UNL     1       2.082 -10.806 -24.234  1.00  0.00     0.000 C 
BRANCH  11  12
ATOM     12  C   UNL     1       1.180  -9.839 -23.444  1.00  0.00     0.000 C 
BRANCH  12  13
ATOM     13  C   UNL     1      -0.325 -10.018 -23.733  1.00  0.00     0.006 C 
BRANCH  13  14
ATOM     14  C   UNL     1      -1.072 -10.658 -22.554  1.00  0.00     0.053 C 
BRANCH  14  15
ATOM     15  C   UNL     1      -1.182  -9.696 -21.414  1.00  0.00     0.041 C 
ATOM     16  O   UNL     1      -0.584  -9.927 -20.329  1.00  0.00    -0.550 OA
ATOM     17  O   UNL     1      -1.978  -8.564 -21.534  1.00  0.00    -0.550 OA
ENDBRANCH  14  15
ENDBRANCH  13  14
ENDBRANCH  12  13
ENDBRANCH  11  12
ENDBRANCH  10  11
ENDBRANCH   9  10
ENDBRANCH   8   9
ENDBRANCH   7   8
ENDBRANCH   6   7
ENDBRANCH   5   6
ENDBRANCH   4   5
ENDBRANCH   3   4
ENDBRANCH   2   3
ENDBRANCH   1   2
BRANCH   1  18
ATOM     18  C   UNL     1       4.638  -7.290 -21.640  1.00  0.00     0.000 C 
BRANCH  18  19
ATOM     19  C   UNL     1       4.305  -8.488 -20.738  1.00  0.00     0.000 C 
BRANCH  19  20
ATOM     20  C   UNL     1       2.793  -8.690 -20.543  1.00  0.00     0.000 C 
BRANCH  20  21
ATOM     21  C   UNL     1       1.988  -7.409 -20.235  1.00  0.00     0.000 C 
BRANCH  21  22
ATOM     22  C   UNL     1       1.137  -6.858 -21.398  1.00  0.00     0.000 C 
BRANCH  22  23
ATOM     23  C   UNL     1       0.330  -5.584 -21.061  1.00  0.00     0.000 C 
BRANCH  23  24
ATOM     24  C   UNL     1       0.902  -4.301 -21.695  1.00  0.00    -0.000 C 
BRANCH  24  25
ATOM     25  C   UNL     1       2.388  -4.384 -22.091  1.00  0.00    -0.000 C 
BRANCH  25  26
ATOM     26  C   UNL     1       3.200  -3.091 -21.863  1.00  0.00    -0.000 C 
BRANCH  26  27
ATOM     27  C   UNL     1       4.363  -3.218 -20.862  1.00  0.00    -0.000 C 
BRANCH  27  28
ATOM     28  C   UNL     1       4.135  -4.323 -19.819  1.00  0.00    -0.000 C 
BRANCH  28  29
ATOM     29  C   UNL     1       3.580  -3.741 -18.515  1.00  0.00    -0.000 C 
BRANCH  29  30
ATOM     30  C   UNL     1       2.240  -4.397 -18.146  1.00  0.00    -0.000 C 
BRANCH  30  31
ATOM     31  C   UNL     1       1.080  -3.390 -18.108  1.00  0.00    -0.003 C 
ATOM     32  C   UNL     1       1.443  -2.047 -18.740  1.00  0.00     0.004 C 
ENDBRANCH  30  31
ENDBRANCH  29  30
ENDBRANCH  28  29
ENDBRANCH  27  28
ENDBRANCH  26  27
ENDBRANCH  25  26
ENDBRANCH  24  25
ENDBRANCH  23  24
ENDBRANCH  22  23
ENDBRANCH  21  22
ENDBRANCH  20  21
ENDBRANCH  19  20
ENDBRANCH  18  19
ENDBRANCH   1  18
TORSDOF 28
ENDMDL
MODEL 6
REMARK VINA RESULT:    -4.194      2.851      4.522
REMARK INTER + INTRA:         -15.909
REMARK INTER:                 -10.281
REMARK INTRA:                  -5.627
REMARK UNBOUND:                -4.851
REMARK SMILES CCCCCCCCCCCCCCCCCCCCCCCCCCCCCC(=O)[O-]
REMARK SMILES IDX 16 1 17 2 18 3 19 4 20 5 21 6 22 7 23 8 24 9 25 10 26 11
REMARK SMILES IDX 27 12 28 13 29 14 30 15 31 16 32 17 15 18 14 19 13 20 12 21
REMARK SMILES IDX 11 22 10 23 9 24 8 25 7 26 6 27 5 28 4 29 3 30 2 31 1 32
REMARK H PARENT
REMARK Flexibility Score: inf
ROOT
ATOM      1  C   UNL     1       5.873  -7.305 -22.418  1.00  0.00     0.000 C 
ENDROOT
BRANCH   1   2
ATOM      2  C   UNL     1       5.948  -8.823 -22.202  1.00  0.00     0.000 C 
BRANCH   2   3
ATOM      3  C   UNL     1       6.918  -9.510 -23.177  1.00  0.00     0.000 C 
BRANCH   3   4
ATOM      4  C   UNL     1       6.399 -10.874 -23.661  1.00  0.00     0.000 C 
BRANCH   4   5
ATOM      5  C   UNL     1       4.889 -11.050 -23.430  1.00  0.00     0.000 C 
BRANCH   5   6
ATOM      6  C   UNL     1       4.505 -12.239 -22.529  1.00  0.00     0.000 C 
BRANCH   6   7
ATOM      7  C   UNL     1       3.180 -12.919 -22.932  1.00  0.00     0.000 C 
BRANCH   7   8
ATOM      8  C   UNL     1       2.499 -12.212 -24.116  1.00  0.00     0.000 C 
BRANCH   8   9
ATOM      9  C   UNL     1       0.977 -12.099 -23.940  1.00  0.00     0.000 C 
BRANCH   9  10
ATOM     10  C   UNL     1       0.505 -10.640 -23.821  1.00  0.00     0.000 C 
BRANCH  10  11
ATOM     11  C   UNL     1       1.670  -9.636 -23.846  1.00  0.00     0.000 C 
BRANCH  11  12
ATOM     12  C   UNL     1       1.935  -8.926 -22.505  1.00  0.00     0.000 C 
BRANCH  12  13
ATOM     13  C   UNL     1       1.074  -9.458 -21.340  1.00  0.00     0.006 C 
BRANCH  13  14
ATOM     14  C   UNL     1       1.876 -10.357 -20.388  1.00  0.00     0.053 C 
BRANCH  14  15
ATOM     15  C   UNL     1       1.008 -11.437 -19.826  1.00  0.00     0.041 C 
ATOM     16  O   UNL     1       0.577 -12.357 -20.573  1.00  0.00    -0.550 OA
ATOM     17  O   UNL     1       0.640 -11.408 -18.487  1.00  0.00    -0.550 OA
ENDBRANCH  14  15
ENDBRANCH  13  14
ENDBRANCH  12  13
ENDBRANCH  11  12
ENDBRANCH  10  11
ENDBRANCH   9  10
ENDBRANCH   8   9
ENDBRANCH   7   8
ENDBRANCH   6   7
ENDBRANCH   5   6
ENDBRANCH   4   5
ENDBRANCH   3   4
ENDBRANCH   2   3
ENDBRANCH   1   2
BRANCH   1  18
ATOM     18  C   UNL     1       4.640  -6.710 -21.726  1.00  0.00     0.000 C 
BRANCH  18  19
ATOM     19  C   UNL     1       4.391  -7.389 -20.371  1.00  0.00     0.000 C 
BRANCH  19  20
ATOM     20  C   UNL     1       4.039  -6.390 -19.255  1.00  0.00     0.000 C 
BRANCH  20  21
ATOM     21  C   UNL     1       2.540  -6.048 -19.121  1.00  0.00     0.000 C 
BRANCH  21  22
ATOM     22  C   UNL     1       2.186  -4.548 -19.194  1.00  0.00     0.000 C 
BRANCH  22  23
ATOM     23  C   UNL     1       3.175  -3.614 -18.462  1.00  0.00     0.000 C 
BRANCH  23  24
ATOM     24  C   UNL     1       3.897  -2.622 -19.395  1.00  0.00    -0.000 C 
BRANCH  24  25
ATOM     25  C   UNL     1       4.311  -3.203 -20.760  1.00  0.00    -0.000 C 
BRANCH  25  26
ATOM     26  C   UNL     1       3.622  -2.559 -21.982  1.00  0.00    -0.000 C 
BRANCH  26  27
ATOM     27  C   UNL     1       3.083  -3.554 -23.026  1.00  0.00    -0.000 C 
BRANCH  27  28
ATOM     28  C   UNL     1       1.651  -4.019 -22.724  1.00  0.00    -0.000 C 
BRANCH  28  29
ATOM     29  C   UNL     1       1.408  -5.433 -23.264  1.00  0.00    -0.000 C 
BRANCH  29  30
ATOM     30  C   UNL     1       2.349  -5.743 -24.439  1.00  0.00    -0.000 C 
BRANCH  30  31
ATOM     31  C   UNL     1       1.589  -6.141 -25.714  1.00  0.00    -0.003 C 
ATOM     32  C   UNL     1       0.197  -6.700 -25.422  1.00  0.00     0.004 C 
ENDBRANCH  30  31
ENDBRANCH  29  30
ENDBRANCH  28  29
ENDBRANCH  27  28
ENDBRANCH  26  27
ENDBRANCH  25  26
ENDBRANCH  24  25
ENDBRANCH  23  24
ENDBRANCH  22  23
ENDBRANCH  21  22
ENDBRANCH  20  21
ENDBRANCH  19  20
ENDBRANCH  18  19
ENDBRANCH   1  18
TORSDOF 28
ENDMDL
MODEL 7
REMARK VINA RESULT:    -4.170      1.808      7.048
REMARK INTER + INTRA:         -15.846
REMARK INTER:                 -10.308
REMARK INTRA:                  -5.538
REMARK UNBOUND:                -4.851
REMARK SMILES CCCCCCCCCCCCCCCCCCCCCCCCCCCCCC(=O)[O-]
REMARK SMILES IDX 16 1 17 2 18 3 19 4 20 5 21 6 22 7 23 8 24 9 25 10 26 11
REMARK SMILES IDX 27 12 28 13 29 14 30 15 31 16 32 17 15 18 14 19 13 20 12 21
REMARK SMILES IDX 11 22 10 23 9 24 8 25 7 26 6 27 5 28 4 29 3 30 2 31 1 32
REMARK H PARENT
REMARK Flexibility Score: inf
ROOT
ATOM      1  C   UNL     1       3.648  -4.470 -22.617  1.00  0.00     0.000 C 
ENDROOT
BRANCH   1   2
ATOM      2  C   UNL     1       3.192  -3.188 -21.905  1.00  0.00     0.000 C 
BRANCH   2   3
ATOM      3  C   UNL     1       4.371  -2.370 -21.352  1.00  0.00     0.000 C 
BRANCH   3   4
ATOM      4  C   UNL     1       4.336  -2.250 -19.819  1.00  0.00     0.000 C 
BRANCH   4   5
ATOM      5  C   UNL     1       5.517  -2.965 -19.141  1.00  0.00     0.000 C 
BRANCH   5   6
ATOM      6  C   UNL     1       5.120  -3.988 -18.060  1.00  0.00     0.000 C 
BRANCH   6   7
ATOM      7  C   UNL     1       4.412  -5.239 -18.623  1.00  0.00     0.000 C 
BRANCH   7   8
ATOM      8  C   UNL     1       2.896  -5.217 -18.364  1.00  0.00     0.000 C 
BRANCH   8   9
ATOM      9  C   UNL     1       2.086  -5.760 -19.551  1.00  0.00     0.000 C 
BRANCH   9  10
ATOM     10  C   UNL     1       2.367  -7.248 -19.823  1.00  0.00     0.000 C 
BRANCH  10  11
ATOM     11  C   UNL     1       1.374  -7.866 -20.821  1.00  0.00     0.000 C 
BRANCH  11  12
ATOM     12  C   UNL     1       1.092  -7.003 -22.066  1.00  0.00     0.000 C 
BRANCH  12  13
ATOM     13  C   UNL     1       1.698  -7.574 -23.366  1.00  0.00     0.006 C 
BRANCH  13  14
ATOM     14  C   UNL     1       1.429  -6.671 -24.578  1.00  0.00     0.053 C 
BRANCH  14  15
ATOM     15  C   UNL     1       0.078  -6.950 -25.156  1.00  0.00     0.041 C 
ATOM     16  O   UNL     1      -0.597  -6.018 -25.671  1.00  0.00    -0.550 OA
ATOM     17  O   UNL     1      -0.456  -8.231 -25.088  1.00  0.00    -0.550 OA
ENDBRANCH  14  15
ENDBRANCH  13  14
ENDBRANCH  12  13
ENDBRANCH  11  12
ENDBRANCH  10  11
ENDBRANCH   9  10
ENDBRANCH   8   9
ENDBRANCH   7   8
ENDBRANCH   6   7
ENDBRANCH   5   6
ENDBRANCH   4   5
ENDBRANCH   3   4
ENDBRANCH   2   3
ENDBRANCH   1   2
BRANCH   1  18
ATOM     18  C   UNL     1       5.178  -4.563 -22.660  1.00  0.00     0.000 C 
BRANCH  18  19
ATOM     19  C   UNL     1       5.676  -5.779 -21.865  1.00  0.00     0.000 C 
BRANCH  19  20
ATOM     20  C   UNL     1       5.221  -7.118 -22.470  1.00  0.00     0.000 C 
BRANCH  20  21
ATOM     21  C   UNL     1       5.172  -8.308 -21.487  1.00  0.00     0.000 C 
BRANCH  21  22
ATOM     22  C   UNL     1       4.822  -9.676 -22.108  1.00  0.00     0.000 C 
BRANCH  22  23
ATOM     23  C   UNL     1       5.838 -10.189 -23.154  1.00  0.00     0.000 C 
BRANCH  23  24
ATOM     24  C   UNL     1       5.619 -11.659 -23.561  1.00  0.00    -0.000 C 
BRANCH  24  25
ATOM     25  C   UNL     1       4.797 -12.491 -22.560  1.00  0.00    -0.000 C 
BRANCH  25  26
ATOM     26  C   UNL     1       3.346 -12.791 -22.993  1.00  0.00    -0.000 C 
BRANCH  26  27
ATOM     27  C   UNL     1       2.935 -12.197 -24.353  1.00  0.00    -0.000 C 
BRANCH  27  28
ATOM     28  C   UNL     1       1.948 -11.028 -24.220  1.00  0.00    -0.000 C 
BRANCH  28  29
ATOM     29  C   UNL     1       0.537 -11.534 -23.901  1.00  0.00    -0.000 C 
BRANCH  29  30
ATOM     30  C   UNL     1      -0.048 -10.801 -22.684  1.00  0.00    -0.000 C 
BRANCH  30  31
ATOM     31  C   UNL     1       0.397 -11.423 -21.351  1.00  0.00    -0.003 C 
ATOM     32  C   UNL     1      -0.519 -11.045 -20.187  1.00  0.00     0.004 C 
ENDBRANCH  30  31
ENDBRANCH  29  30
ENDBRANCH  28  29
ENDBRANCH  27  28
ENDBRANCH  26  27
ENDBRANCH  25  26
ENDBRANCH  24  25
ENDBRANCH  23  24
ENDBRANCH  22  23
ENDBRANCH  21  22
ENDBRANCH  20  21
ENDBRANCH  19  20
ENDBRANCH  18  19
ENDBRANCH   1  18
TORSDOF 28
ENDMDL
MODEL 8
REMARK VINA RESULT:    -4.163      3.453      4.984
REMARK INTER + INTRA:         -15.829
REMARK INTER:                 -10.422
REMARK INTRA:                  -5.407
REMARK UNBOUND:                -4.851
REMARK SMILES CCCCCCCCCCCCCCCCCCCCCCCCCCCCCC(=O)[O-]
REMARK SMILES IDX 16 1 17 2 18 3 19 4 20 5 21 6 22 7 23 8 24 9 25 10 26 11
REMARK SMILES IDX 27 12 28 13 29 14 30 15 31 16 32 17 15 18 14 19 13 20 12 21
REMARK SMILES IDX 11 22 10 23 9 24 8 25 7 26 6 27 5 28 4 29 3 30 2 31 1 32
REMARK H PARENT
REMARK Flexibility Score: inf
ROOT
ATOM      1  C   UNL     1       5.884  -7.487 -22.500  1.00  0.00     0.000 C 
ENDROOT
BRANCH   1   2
ATOM      2  C   UNL     1       5.843  -9.001 -22.245  1.00  0.00     0.000 C 
BRANCH   2   3
ATOM      3  C   UNL     1       6.656  -9.796 -23.280  1.00  0.00     0.000 C 
BRANCH   3   4
ATOM      4  C   UNL     1       5.990 -11.130 -23.654  1.00  0.00     0.000 C 
BRANCH   4   5
ATOM      5  C   UNL     1       4.581 -11.279 -23.054  1.00  0.00     0.000 C 
BRANCH   5   6
ATOM      6  C   UNL     1       3.500 -11.741 -24.049  1.00  0.00     0.000 C 
BRANCH   6   7
ATOM      7  C   UNL     1       2.224 -10.872 -24.023  1.00  0.00     0.000 C 
BRANCH   7   8
ATOM      8  C   UNL     1       2.305  -9.750 -22.975  1.00  0.00     0.000 C 
BRANCH   8   9
ATOM      9  C   UNL     1       0.920  -9.222 -22.568  1.00  0.00     0.000 C 
BRANCH   9  10
ATOM     10  C   UNL     1       0.713  -9.228 -21.043  1.00  0.00     0.000 C 
BRANCH  10  11
ATOM     11  C   UNL     1       1.552 -10.305 -20.336  1.00  0.00     0.000 C 
BRANCH  11  12
ATOM     12  C   UNL     1       0.746 -11.511 -19.816  1.00  0.00     0.000 C 
BRANCH  12  13
ATOM     13  C   UNL     1       0.517 -12.608 -20.876  1.00  0.00     0.006 C 
BRANCH  13  14
ATOM     14  C   UNL     1       1.827 -13.285 -21.304  1.00  0.00     0.053 C 
BRANCH  14  15
ATOM     15  C   UNL     1       1.680 -14.774 -21.291  1.00  0.00     0.041 C 
ATOM     16  O   UNL     1       2.699 -15.512 -21.373  1.00  0.00    -0.550 OA
ATOM     17  O   UNL     1       0.417 -15.348 -21.231  1.00  0.00    -0.550 OA
ENDBRANCH  14  15
ENDBRANCH  13  14
ENDBRANCH  12  13
ENDBRANCH  11  12
ENDBRANCH  10  11
ENDBRANCH   9  10
ENDBRANCH   8   9
ENDBRANCH   7   8
ENDBRANCH   6   7
ENDBRANCH   5   6
ENDBRANCH   4   5
ENDBRANCH   3   4
ENDBRANCH   2   3
ENDBRANCH   1   2
BRANCH   1  18
ATOM     18  C   UNL     1       4.569  -6.822 -22.075  1.00  0.00     0.000 C 
BRANCH  18  19
ATOM     19  C   UNL     1       4.000  -7.488 -20.813  1.00  0.00     0.000 C 
BRANCH  19  20
ATOM     20  C   UNL     1       4.413  -6.767 -19.518  1.00  0.00     0.000 C 
BRANCH  20  21
ATOM     21  C   UNL     1       3.264  -6.083 -18.745  1.00  0.00     0.000 C 
BRANCH  21  22
ATOM     22  C   UNL     1       3.583  -4.686 -18.171  1.00  0.00     0.000 C 
BRANCH  22  23
ATOM     23  C   UNL     1       4.893  -4.056 -18.694  1.00  0.00     0.000 C 
BRANCH  23  24
ATOM     24  C   UNL     1       4.678  -2.776 -19.525  1.00  0.00    -0.000 C 
BRANCH  24  25
ATOM     25  C   UNL     1       3.629  -2.902 -20.645  1.00  0.00    -0.000 C 
BRANCH  25  26
ATOM     26  C   UNL     1       2.384  -2.005 -20.479  1.00  0.00    -0.000 C 
BRANCH  26  27
ATOM     27  C   UNL     1       1.051  -2.654 -20.896  1.00  0.00    -0.000 C 
BRANCH  27  28
ATOM     28  C   UNL     1       0.597  -3.758 -19.931  1.00  0.00    -0.000 C 
BRANCH  28  29
ATOM     29  C   UNL     1       0.115  -4.994 -20.698  1.00  0.00    -0.000 C 
BRANCH  29  30
ATOM     30  C   UNL     1       1.153  -5.434 -21.742  1.00  0.00    -0.000 C 
BRANCH  30  31
ATOM     31  C   UNL     1       0.556  -5.558 -23.153  1.00  0.00    -0.003 C 
ATOM     32  C   UNL     1       1.580  -6.020 -24.189  1.00  0.00     0.004 C 
ENDBRANCH  30  31
ENDBRANCH  29  30
ENDBRANCH  28  29
ENDBRANCH  27  28
ENDBRANCH  26  27
ENDBRANCH  25  26
ENDBRANCH  24  25
ENDBRANCH  23  24
ENDBRANCH  22  23
ENDBRANCH  21  22
ENDBRANCH  20  21
ENDBRANCH  19  20
ENDBRANCH  18  19
ENDBRANCH   1  18
TORSDOF 28
ENDMDL
MODEL 9
REMARK VINA RESULT:    -4.115      2.219      6.822
REMARK INTER + INTRA:         -15.700
REMARK INTER:                 -10.052
REMARK INTRA:                  -5.648
REMARK UNBOUND:                -4.851
REMARK SMILES CCCCCCCCCCCCCCCCCCCCCCCCCCCCCC(=O)[O-]
REMARK SMILES IDX 16 1 17 2 18 3 19 4 20 5 21 6 22 7 23 8 24 9 25 10 26 11
REMARK SMILES IDX 27 12 28 13 29 14 30 15 31 16 32 17 15 18 14 19 13 20 12 21
REMARK SMILES IDX 11 22 10 23 9 24 8 25 7 26 6 27 5 28 4 29 3 30 2 31 1 32
REMARK H PARENT
REMARK Flexibility Score: inf
ROOT
ATOM      1  C   UNL     1       5.878  -8.992 -22.154  1.00  0.00     0.000 C 
ENDROOT
BRANCH   1   2
ATOM      2  C   UNL     1       5.837  -7.489 -22.465  1.00  0.00     0.000 C 
BRANCH   2   3
ATOM      3  C   UNL     1       4.796  -6.739 -21.617  1.00  0.00     0.000 C 
BRANCH   3   4
ATOM      4  C   UNL     1       4.415  -7.506 -20.339  1.00  0.00     0.000 C 
BRANCH   4   5
ATOM      5  C   UNL     1       3.257  -6.844 -19.573  1.00  0.00     0.000 C 
BRANCH   5   6
ATOM      6  C   UNL     1       2.220  -6.128 -20.458  1.00  0.00     0.000 C 
BRANCH   6   7
ATOM      7  C   UNL     1       1.500  -4.962 -19.749  1.00  0.00     0.000 C 
BRANCH   7   8
ATOM      8  C   UNL     1       2.101  -4.662 -18.365  1.00  0.00     0.000 C 
BRANCH   8   9
ATOM      9  C   UNL     1       2.960  -3.389 -18.358  1.00  0.00     0.000 C 
BRANCH   9  10
ATOM     10  C   UNL     1       4.468  -3.696 -18.357  1.00  0.00     0.000 C 
BRANCH  10  11
ATOM     11  C   UNL     1       5.099  -3.568 -19.754  1.00  0.00     0.000 C 
BRANCH  11  12
ATOM     12  C   UNL     1       4.341  -2.637 -20.719  1.00  0.00     0.000 C 
BRANCH  12  13
ATOM     13  C   UNL     1       4.522  -3.007 -22.207  1.00  0.00     0.006 C 
BRANCH  13  14
ATOM     14  C   UNL     1       3.254  -3.629 -22.810  1.00  0.00     0.053 C 
BRANCH  14  15
ATOM     15  C   UNL     1       2.255  -2.569 -23.148  1.00  0.00     0.041 C 
ATOM     16  O   UNL     1       2.395  -1.876 -24.192  1.00  0.00    -0.550 OA
ATOM     17  O   UNL     1       1.192  -2.317 -22.290  1.00  0.00    -0.550 OA
ENDBRANCH  14  15
ENDBRANCH  13  14
ENDBRANCH  12  13
ENDBRANCH  11  12
ENDBRANCH  10  11
ENDBRANCH   9  10
ENDBRANCH   8   9
ENDBRANCH   7   8
ENDBRANCH   6   7
ENDBRANCH   5   6
ENDBRANCH   4   5
ENDBRANCH   3   4
ENDBRANCH   2   3
ENDBRANCH   1   2
BRANCH   1  18
ATOM     18  C   UNL     1       6.631  -9.760 -23.247  1.00  0.00     0.000 C 
BRANCH  18  19
ATOM     19  C   UNL     1       5.893 -11.057 -23.613  1.00  0.00     0.000 C 
BRANCH  19  20
ATOM     20  C   UNL     1       4.637 -11.295 -22.757  1.00  0.00     0.000 C 
BRANCH  20  21
ATOM     21  C   UNL     1       3.663 -12.366 -23.292  1.00  0.00     0.000 C 
BRANCH  21  22
ATOM     22  C   UNL     1       3.227 -13.441 -22.275  1.00  0.00     0.000 C 
BRANCH  22  23
ATOM     23  C   UNL     1       1.704 -13.511 -22.022  1.00  0.00     0.000 C 
BRANCH  23  24
ATOM     24  C   UNL     1       1.208 -12.526 -20.946  1.00  0.00    -0.000 C 
BRANCH  24  25
ATOM     25  C   UNL     1       0.076 -11.587 -21.403  1.00  0.00    -0.000 C 
BRANCH  25  26
ATOM     26  C   UNL     1       0.353 -10.082 -21.205  1.00  0.00    -0.000 C 
BRANCH  26  27
ATOM     27  C   UNL     1       1.800  -9.641 -21.494  1.00  0.00    -0.000 C 
BRANCH  27  28
ATOM     28  C   UNL     1       1.936  -8.867 -22.813  1.00  0.00    -0.000 C 
BRANCH  28  29
ATOM     29  C   UNL     1       0.559  -8.512 -23.387  1.00  0.00    -0.000 C 
BRANCH  29  30
ATOM     30  C   UNL     1       0.417  -9.020 -24.830  1.00  0.00    -0.000 C 
BRANCH  30  31
ATOM     31  C   UNL     1       1.180 -10.332 -25.072  1.00  0.00    -0.003 C 
ATOM     32  C   UNL     1       0.282 -11.564 -24.967  1.00  0.00     0.004 C 
ENDBRANCH  30  31
ENDBRANCH  29  30
ENDBRANCH  28  29
ENDBRANCH  27  28
ENDBRANCH  26  27
ENDBRANCH  25  26
ENDBRANCH  24  25
ENDBRANCH  23  24
ENDBRANCH  22  23
ENDBRANCH  21  22
ENDBRANCH  20  21
ENDBRANCH  19  20
ENDBRANCH  18  19
ENDBRANCH   1  18
TORSDOF 28
ENDMDL
