MODEL 1
REMARK VINA RESULT:    -4.971      0.000      0.000
REMARK INTER + INTRA:          -5.439
REMARK INTER:                  -5.262
REMARK INTRA:                  -0.178
REMARK UNBOUND:                -0.178
REMARK SMILES C=C(C)[C@H]1CC=C(C)C(=O)C1
REMARK SMILES IDX 8 1 7 2 6 3 5 4 4 5 11 6 9 7 10 8 2 9 1 10 3 11
REMARK H PARENT
REMARK Flexibility Score: inf
ROOT
ATOM      1  C   UNL     1       8.541 -11.034  55.770  1.00  0.00     0.048 C 
ATOM      2  C   UNL     1       8.241  -9.581  55.521  1.00  0.00    -0.012 C 
ATOM      3  C   UNL     1       8.818  -8.643  56.287  1.00  0.00    -0.019 C 
ATOM      4  C   UNL     1       8.590  -7.171  56.074  1.00  0.00     0.036 C 
ATOM      5  C   UNL     1       7.207  -6.842  55.473  1.00  0.00     0.025 C 
ATOM      6  C   UNL     1       6.869  -7.759  54.279  1.00  0.00     0.089 C 
ATOM      7  C   UNL     1       7.199  -9.202  54.538  1.00  0.00     0.158 C 
ATOM      8  O   UNL     1       6.601 -10.093  53.878  1.00  0.00    -0.295 OA
ENDROOT
BRANCH   5   9
ATOM      9  C   UNL     1       6.098  -6.797  56.525  1.00  0.00    -0.077 C 
ATOM     10  C   UNL     1       4.889  -7.348  56.321  1.00  0.00     0.008 C 
ATOM     11  C   UNL     1       6.347  -6.113  57.847  1.00  0.00     0.039 C 
ENDBRANCH   5   9
TORSDOF 1
ENDMDL
MODEL 2
REMARK VINA RESULT:    -4.894     14.582     15.997
REMARK INTER + INTRA:          -5.358
REMARK INTER:                  -5.136
REMARK INTRA:                  -0.222
REMARK UNBOUND:                -0.178
REMARK SMILES C=C(C)[C@H]1CC=C(C)C(=O)C1
REMARK SMILES IDX 8 1 7 2 6 3 5 4 4 5 11 6 9 7 10 8 2 9 1 10 3 11
REMARK H PARENT
REMARK Flexibility Score: inf
ROOT
ATOM      1  C   UNL     1      20.608  -9.798  63.889  1.00  0.00     0.048 C 
ATOM      2  C   UNL     1      19.569  -9.885  64.974  1.00  0.00    -0.012 C 
ATOM      3  C   UNL     1      19.847  -9.413  66.199  1.00  0.00    -0.019 C 
ATOM      4  C   UNL     1      18.845  -9.437  67.322  1.00  0.00     0.036 C 
ATOM      5  C   UNL     1      17.835 -10.599  67.223  1.00  0.00     0.025 C 
ATOM      6  C   UNL     1      17.258 -10.737  65.799  1.00  0.00     0.089 C 
ATOM      7  C   UNL     1      18.308 -10.623  64.730  1.00  0.00     0.158 C 
ATOM      8  O   UNL     1      18.086 -11.135  63.600  1.00  0.00    -0.295 OA
ENDROOT
BRANCH   5   9
ATOM      9  C   UNL     1      18.389 -11.914  67.775  1.00  0.00    -0.077 C 
ATOM     10  C   UNL     1      17.969 -13.112  67.333  1.00  0.00     0.008 C 
ATOM     11  C   UNL     1      19.443 -11.889  68.854  1.00  0.00     0.039 C 
ENDBRANCH   5   9
TORSDOF 1
ENDMDL
MODEL 3
REMARK VINA RESULT:    -4.850     15.606     17.127
REMARK INTER + INTRA:          -5.312
REMARK INTER:                  -5.106
REMARK INTRA:                  -0.205
REMARK UNBOUND:                -0.178
REMARK SMILES C=C(C)[C@H]1CC=C(C)C(=O)C1
REMARK SMILES IDX 8 1 7 2 6 3 5 4 4 5 11 6 9 7 10 8 2 9 1 10 3 11
REMARK H PARENT
REMARK Flexibility Score: inf
ROOT
ATOM      1  C   UNL     1      15.860 -11.632  66.482  1.00  0.00     0.048 C 
ATOM      2  C   UNL     1      17.103 -11.204  67.214  1.00  0.00    -0.012 C 
ATOM      3  C   UNL     1      17.623  -9.989  66.988  1.00  0.00    -0.019 C 
ATOM      4  C   UNL     1      18.843  -9.483  67.709  1.00  0.00     0.036 C 
ATOM      5  C   UNL     1      19.818 -10.603  68.131  1.00  0.00     0.025 C 
ATOM      6  C   UNL     1      19.081 -11.783  68.796  1.00  0.00     0.089 C 
ATOM      7  C   UNL     1      17.830 -12.178  68.063  1.00  0.00     0.158 C 
ATOM      8  O   UNL     1      17.380 -13.346  68.209  1.00  0.00    -0.295 OA
ENDROOT
BRANCH   5   9
ATOM      9  C   UNL     1      20.747 -11.039  66.997  1.00  0.00    -0.077 C 
ATOM     10  C   UNL     1      21.028 -10.243  65.951  1.00  0.00     0.008 C 
ATOM     11  C   UNL     1      21.381 -12.408  67.033  1.00  0.00     0.039 C 
ENDBRANCH   5   9
TORSDOF 1
ENDMDL
MODEL 4
REMARK VINA RESULT:    -4.834     14.311     15.772
REMARK INTER + INTRA:          -5.295
REMARK INTER:                  -5.113
REMARK INTRA:                  -0.182
REMARK UNBOUND:                -0.178
REMARK SMILES C=C(C)[C@H]1CC=C(C)C(=O)C1
REMARK SMILES IDX 8 1 7 2 6 3 5 4 4 5 11 6 9 7 10 8 2 9 1 10 3 11
REMARK H PARENT
REMARK Flexibility Score: inf
ROOT
ATOM      1  C   UNL     1      20.619  -9.664  63.693  1.00  0.00     0.048 C 
ATOM      2  C   UNL     1      19.563  -9.776  64.760  1.00  0.00    -0.012 C 
ATOM      3  C   UNL     1      19.846  -9.400  66.016  1.00  0.00    -0.019 C 
ATOM      4  C   UNL     1      18.830  -9.453  67.124  1.00  0.00     0.036 C 
ATOM      5  C   UNL     1      17.771 -10.560  66.938  1.00  0.00     0.025 C 
ATOM      6  C   UNL     1      17.206 -10.576  65.502  1.00  0.00     0.089 C 
ATOM      7  C   UNL     1      18.274 -10.439  64.453  1.00  0.00     0.158 C 
ATOM      8  O   UNL     1      18.044 -10.864  63.289  1.00  0.00    -0.295 OA
ENDROOT
BRANCH   5   9
ATOM      9  C   UNL     1      18.258 -11.932  67.405  1.00  0.00    -0.077 C 
ATOM     10  C   UNL     1      18.954 -12.098  68.543  1.00  0.00     0.008 C 
ATOM     11  C   UNL     1      17.960 -13.157  66.575  1.00  0.00     0.039 C 
ENDBRANCH   5   9
TORSDOF 1
ENDMDL
MODEL 5
REMARK VINA RESULT:    -4.824     15.666     17.070
REMARK INTER + INTRA:          -5.283
REMARK INTER:                  -5.232
REMARK INTRA:                  -0.051
REMARK UNBOUND:                -0.178
REMARK SMILES C=C(C)[C@H]1CC=C(C)C(=O)C1
REMARK SMILES IDX 8 1 7 2 6 3 5 4 4 5 11 6 9 7 10 8 2 9 1 10 3 11
REMARK H PARENT
REMARK Flexibility Score: inf
ROOT
ATOM      1  C   UNL     1      20.563 -12.633  69.284  1.00  0.00     0.048 C 
ATOM      2  C   UNL     1      19.493 -11.977  68.454  1.00  0.00    -0.012 C 
ATOM      3  C   UNL     1      19.014 -12.606  67.370  1.00  0.00    -0.019 C 
ATOM      4  C   UNL     1      17.921 -12.024  66.514  1.00  0.00     0.036 C 
ATOM      5  C   UNL     1      17.899 -10.481  66.506  1.00  0.00     0.025 C 
ATOM      6  C   UNL     1      18.026  -9.899  67.928  1.00  0.00     0.089 C 
ATOM      7  C   UNL     1      19.083 -10.583  68.748  1.00  0.00     0.158 C 
ATOM      8  O   UNL     1      19.596  -9.967  69.721  1.00  0.00    -0.295 OA
ENDROOT
BRANCH   5   9
ATOM      9  C   UNL     1      18.903  -9.880  65.520  1.00  0.00    -0.077 C 
ATOM     10  C   UNL     1      19.975  -9.178  65.926  1.00  0.00     0.008 C 
ATOM     11  C   UNL     1      18.700 -10.066  64.037  1.00  0.00     0.039 C 
ENDBRANCH   5   9
TORSDOF 1
ENDMDL
MODEL 6
REMARK VINA RESULT:    -4.717     14.413     15.782
REMARK INTER + INTRA:          -5.170
REMARK INTER:                  -4.949
REMARK INTRA:                  -0.221
REMARK UNBOUND:                -0.178
REMARK SMILES C=C(C)[C@H]1CC=C(C)C(=O)C1
REMARK SMILES IDX 8 1 7 2 6 3 5 4 4 5 11 6 9 7 10 8 2 9 1 10 3 11
REMARK H PARENT
REMARK Flexibility Score: inf
ROOT
ATOM      1  C   UNL     1      19.251 -10.039  69.100  1.00  0.00     0.048 C 
ATOM      2  C   UNL     1      19.048 -10.623  67.728  1.00  0.00    -0.012 C 
ATOM      3  C   UNL     1      19.332  -9.885  66.644  1.00  0.00    -0.019 C 
ATOM      4  C   UNL     1      19.184 -10.416  65.243  1.00  0.00     0.036 C 
ATOM      5  C   UNL     1      18.083 -11.487  65.103  1.00  0.00     0.025 C 
ATOM      6  C   UNL     1      18.168 -12.546  66.221  1.00  0.00     0.089 C 
ATOM      7  C   UNL     1      18.395 -11.945  67.579  1.00  0.00     0.158 C 
ATOM      8  O   UNL     1      18.056 -12.600  68.601  1.00  0.00    -0.295 OA
ENDROOT
BRANCH   5   9
ATOM      9  C   UNL     1      16.685 -10.885  64.953  1.00  0.00    -0.077 C 
ATOM     10  C   UNL     1      15.580 -11.517  65.385  1.00  0.00     0.008 C 
ATOM     11  C   UNL     1      16.516  -9.535  64.299  1.00  0.00     0.039 C 
ENDBRANCH   5   9
TORSDOF 1
ENDMDL
MODEL 7
REMARK VINA RESULT:    -4.676     11.615     13.161
REMARK INTER + INTRA:          -5.127
REMARK INTER:                  -4.962
REMARK INTRA:                  -0.165
REMARK UNBOUND:                -0.178
REMARK SMILES C=C(C)[C@H]1CC=C(C)C(=O)C1
REMARK SMILES IDX 8 1 7 2 6 3 5 4 4 5 11 6 9 7 10 8 2 9 1 10 3 11
REMARK H PARENT
REMARK Flexibility Score: inf
ROOT
ATOM      1  C   UNL     1      14.683 -10.825  61.508  1.00  0.00     0.048 C 
ATOM      2  C   UNL     1      15.163 -11.439  62.796  1.00  0.00    -0.012 C 
ATOM      3  C   UNL     1      14.596 -11.077  63.956  1.00  0.00    -0.019 C 
ATOM      4  C   UNL     1      15.003 -11.673  65.276  1.00  0.00     0.036 C 
ATOM      5  C   UNL     1      16.477 -12.128  65.320  1.00  0.00     0.025 C 
ATOM      6  C   UNL     1      16.863 -12.937  64.065  1.00  0.00     0.089 C 
ATOM      7  C   UNL     1      16.354 -12.321  62.792  1.00  0.00     0.158 C 
ATOM      8  O   UNL     1      16.933 -12.594  61.707  1.00  0.00    -0.295 OA
ENDROOT
BRANCH   5   9
ATOM      9  C   UNL     1      17.443 -10.980  65.614  1.00  0.00    -0.077 C 
ATOM     10  C   UNL     1      17.219 -10.083  66.590  1.00  0.00     0.008 C 
ATOM     11  C   UNL     1      18.699 -10.827  64.790  1.00  0.00     0.039 C 
ENDBRANCH   5   9
TORSDOF 1
ENDMDL
MODEL 8
REMARK VINA RESULT:    -4.672      2.293      3.701
REMARK INTER + INTRA:          -5.122
REMARK INTER:                  -4.915
REMARK INTRA:                  -0.208
REMARK UNBOUND:                -0.178
REMARK SMILES C=C(C)[C@H]1CC=C(C)C(=O)C1
REMARK SMILES IDX 8 1 7 2 6 3 5 4 4 5 11 6 9 7 10 8 2 9 1 10 3 11
REMARK H PARENT
REMARK Flexibility Score: inf
ROOT
ATOM      1  C   UNL     1       6.259  -9.025  59.487  1.00  0.00     0.048 C 
ATOM      2  C   UNL     1       6.797  -8.085  58.442  1.00  0.00    -0.012 C 
ATOM      3  C   UNL     1       5.946  -7.371  57.691  1.00  0.00    -0.019 C 
ATOM      4  C   UNL     1       6.413  -6.388  56.651  1.00  0.00     0.036 C 
ATOM      5  C   UNL     1       7.776  -6.753  56.026  1.00  0.00     0.025 C 
ATOM      6  C   UNL     1       8.812  -7.145  57.099  1.00  0.00     0.089 C 
ATOM      7  C   UNL     1       8.248  -8.064  58.146  1.00  0.00     0.158 C 
ATOM      8  O   UNL     1       9.036  -8.798  58.802  1.00  0.00    -0.295 OA
ENDROOT
BRANCH   5   9
ATOM      9  C   UNL     1       7.656  -7.785  54.904  1.00  0.00    -0.077 C 
ATOM     10  C   UNL     1       6.623  -7.795  54.043  1.00  0.00     0.008 C 
ATOM     11  C   UNL     1       8.723  -8.840  54.738  1.00  0.00     0.039 C 
ENDBRANCH   5   9
TORSDOF 1
ENDMDL
MODEL 9
REMARK VINA RESULT:    -4.610     13.429     14.922
REMARK INTER + INTRA:          -5.057
REMARK INTER:                  -4.840
REMARK INTRA:                  -0.217
REMARK UNBOUND:                -0.178
REMARK SMILES C=C(C)[C@H]1CC=C(C)C(=O)C1
REMARK SMILES IDX 8 1 7 2 6 3 5 4 4 5 11 6 9 7 10 8 2 9 1 10 3 11
REMARK H PARENT
REMARK Flexibility Score: inf
ROOT
ATOM      1  C   UNL     1      14.938 -10.750  63.995  1.00  0.00     0.048 C 
ATOM      2  C   UNL     1      16.081 -11.279  64.819  1.00  0.00    -0.012 C 
ATOM      3  C   UNL     1      15.952 -11.373  66.151  1.00  0.00    -0.019 C 
ATOM      4  C   UNL     1      17.041 -11.923  67.033  1.00  0.00     0.036 C 
ATOM      5  C   UNL     1      18.461 -11.698  66.472  1.00  0.00     0.025 C 
ATOM      6  C   UNL     1      18.551 -12.067  64.977  1.00  0.00     0.089 C 
ATOM      7  C   UNL     1      17.389 -11.550  64.177  1.00  0.00     0.158 C 
ATOM      8  O   UNL     1      17.528 -11.384  62.935  1.00  0.00    -0.295 OA
ENDROOT
BRANCH   5   9
ATOM      9  C   UNL     1      19.006 -10.303  66.779  1.00  0.00    -0.077 C 
ATOM     10  C   UNL     1      18.686  -9.638  67.903  1.00  0.00     0.008 C 
ATOM     11  C   UNL     1      19.937  -9.629  65.801  1.00  0.00     0.039 C 
ENDBRANCH   5   9
TORSDOF 1
ENDMDL
