MODEL 1
REMARK VINA RESULT:    -1.565      0.000      0.000
REMARK INTER + INTRA:          -2.570
REMARK INTER:                  -3.028
REMARK INTRA:                   0.458
REMARK UNBOUND:                 0.458
REMARK SMILES CCCCCCCCCCCCCCCCCC(=O)[O-]
REMARK SMILES IDX 10 1 11 2 12 3 13 4 14 5 15 6 16 7 17 8 18 9 19 10 20 11
REMARK SMILES IDX 9 12 8 13 7 14 6 15 5 16 4 17 3 18 2 19 1 20
REMARK H PARENT
REMARK Flexibility Score: inf
ROOT
ATOM      1  C   UNL     1       2.676 -38.036  19.548  1.00  0.00     0.000 C 
ENDROOT
BRANCH   1   2
ATOM      2  C   UNL     1       3.937 -37.493  18.849  1.00  0.00     0.000 C 
BRANCH   2   3
ATOM      3  C   UNL     1       5.077 -37.076  19.798  1.00  0.00     0.000 C 
BRANCH   3   4
ATOM      4  C   UNL     1       5.115 -35.574  20.139  1.00  0.00     0.000 C 
BRANCH   4   5
ATOM      5  C   UNL     1       4.803 -35.266  21.621  1.00  0.00     0.000 C 
BRANCH   5   6
ATOM      6  C   UNL     1       4.462 -36.523  22.450  1.00  0.00     0.000 C 
BRANCH   6   7
ATOM      7  C   UNL     1       5.117 -36.551  23.844  1.00  0.00     0.006 C 
BRANCH   7   8
ATOM      8  C   UNL     1       4.759 -37.792  24.683  1.00  0.00     0.053 C 
BRANCH   8   9
ATOM      9  C   UNL     1       4.981 -39.077  23.944  1.00  0.00     0.041 C 
ATOM     10  O   UNL     1       5.113 -39.071  22.691  1.00  0.00    -0.550 OA
ATOM     11  O   UNL     1       5.112 -40.273  24.639  1.00  0.00    -0.550 OA
ENDBRANCH   8   9
ENDBRANCH   7   8
ENDBRANCH   6   7
ENDBRANCH   5   6
ENDBRANCH   4   5
ENDBRANCH   3   4
ENDBRANCH   2   3
ENDBRANCH   1   2
BRANCH   1  12
ATOM     12  C   UNL     1       1.477 -37.080  19.451  1.00  0.00     0.000 C 
BRANCH  12  13
ATOM     13  C   UNL     1       0.751 -37.249  18.107  1.00  0.00    -0.000 C 
BRANCH  13  14
ATOM     14  C   UNL     1       1.718 -37.338  16.916  1.00  0.00    -0.000 C 
BRANCH  14  15
ATOM     15  C   UNL     1       2.333 -35.976  16.550  1.00  0.00    -0.000 C 
BRANCH  15  16
ATOM     16  C   UNL     1       2.023 -35.566  15.093  1.00  0.00    -0.000 C 
BRANCH  16  17
ATOM     17  C   UNL     1       2.686 -36.474  14.040  1.00  0.00    -0.000 C 
BRANCH  17  18
ATOM     18  C   UNL     1       4.069 -37.024  14.433  1.00  0.00    -0.000 C 
BRANCH  18  19
ATOM     19  C   UNL     1       4.088 -38.522  14.791  1.00  0.00    -0.003 C 
ATOM     20  C   UNL     1       5.019 -39.338  13.896  1.00  0.00     0.004 C 
ENDBRANCH  18  19
ENDBRANCH  17  18
ENDBRANCH  16  17
ENDBRANCH  15  16
ENDBRANCH  14  15
ENDBRANCH  13  14
ENDBRANCH  12  13
ENDBRANCH   1  12
TORSDOF 16
ENDMDL
MODEL 2
REMARK VINA RESULT:    -0.452      2.338      3.854
REMARK INTER + INTRA:          -0.417
REMARK INTER:                  -0.526
REMARK INTRA:                   0.110
REMARK UNBOUND:                 0.458
REMARK SMILES CCCCCCCCCCCCCCCCCC(=O)[O-]
REMARK SMILES IDX 10 1 11 2 12 3 13 4 14 5 15 6 16 7 17 8 18 9 19 10 20 11
REMARK SMILES IDX 9 12 8 13 7 14 6 15 5 16 4 17 3 18 2 19 1 20
REMARK H PARENT
REMARK Flexibility Score: inf
ROOT
ATOM      1  C   UNL     1       4.274 -35.685  21.720  1.00  0.00     0.000 C 
ENDROOT
BRANCH   1   2
ATOM      2  C   UNL     1       5.125 -36.576  22.644  1.00  0.00     0.000 C 
BRANCH   2   3
ATOM      3  C   UNL     1       5.072 -38.082  22.322  1.00  0.00     0.000 C 
BRANCH   3   4
ATOM      4  C   UNL     1       4.396 -38.949  23.401  1.00  0.00     0.000 C 
BRANCH   4   5
ATOM      5  C   UNL     1       4.991 -38.757  24.814  1.00  0.00     0.000 C 
BRANCH   5   6
ATOM      6  C   UNL     1       5.123 -37.275  25.227  1.00  0.00     0.000 C 
BRANCH   6   7
ATOM      7  C   UNL     1       4.089 -36.822  26.275  1.00  0.00     0.006 C 
BRANCH   7   8
ATOM      8  C   UNL     1       2.840 -37.719  26.355  1.00  0.00     0.053 C 
BRANCH   8   9
ATOM      9  C   UNL     1       1.835 -37.229  27.355  1.00  0.00     0.041 C 
ATOM     10  O   UNL     1       0.925 -37.997  27.764  1.00  0.00    -0.550 OA
ATOM     11  O   UNL     1       1.942 -35.951  27.888  1.00  0.00    -0.550 OA
ENDBRANCH   8   9
ENDBRANCH   7   8
ENDBRANCH   6   7
ENDBRANCH   5   6
ENDBRANCH   4   5
ENDBRANCH   3   4
ENDBRANCH   2   3
ENDBRANCH   1   2
BRANCH   1  12
ATOM     12  C   UNL     1       5.098 -34.999  20.621  1.00  0.00     0.000 C 
BRANCH  12  13
ATOM     13  C   UNL     1       4.903 -35.704  19.270  1.00  0.00    -0.000 C 
BRANCH  13  14
ATOM     14  C   UNL     1       3.998 -36.943  19.371  1.00  0.00    -0.000 C 
BRANCH  14  15
ATOM     15  C   UNL     1       3.480 -37.411  18.001  1.00  0.00    -0.000 C 
BRANCH  15  16
ATOM     16  C   UNL     1       2.301 -36.552  17.495  1.00  0.00    -0.000 C 
BRANCH  16  17
ATOM     17  C   UNL     1       2.639 -35.704  16.254  1.00  0.00    -0.000 C 
BRANCH  17  18
ATOM     18  C   UNL     1       1.981 -36.176  14.944  1.00  0.00    -0.000 C 
BRANCH  18  19
ATOM     19  C   UNL     1       2.961 -36.745  13.901  1.00  0.00    -0.003 C 
ATOM     20  C   UNL     1       4.178 -37.421  14.531  1.00  0.00     0.004 C 
ENDBRANCH  18  19
ENDBRANCH  17  18
ENDBRANCH  16  17
ENDBRANCH  15  16
ENDBRANCH  14  15
ENDBRANCH  13  14
ENDBRANCH  12  13
ENDBRANCH   1  12
TORSDOF 16
ENDMDL
MODEL 3
REMARK VINA RESULT:    -0.309      3.335      7.738
REMARK INTER + INTRA:          -0.140
REMARK INTER:                   1.057
REMARK INTRA:                  -1.197
REMARK UNBOUND:                 0.458
REMARK SMILES CCCCCCCCCCCCCCCCCC(=O)[O-]
REMARK SMILES IDX 10 1 11 2 12 3 13 4 14 5 15 6 16 7 17 8 18 9 19 10 20 11
REMARK SMILES IDX 9 12 8 13 7 14 6 15 5 16 4 17 3 18 2 19 1 20
REMARK H PARENT
REMARK Flexibility Score: inf
ROOT
ATOM      1  C   UNL     1       3.472 -38.054  21.371  1.00  0.00     0.000 C 
ENDROOT
BRANCH   1   2
ATOM      2  C   UNL     1       3.377 -37.577  19.910  1.00  0.00     0.000 C 
BRANCH   2   3
ATOM      3  C   UNL     1       4.726 -37.215  19.257  1.00  0.00     0.000 C 
BRANCH   3   4
ATOM      4  C   UNL     1       4.619 -36.296  18.025  1.00  0.00     0.000 C 
BRANCH   4   5
ATOM      5  C   UNL     1       3.196 -35.744  17.784  1.00  0.00     0.000 C 
BRANCH   5   6
ATOM      6  C   UNL     1       2.964 -35.255  16.338  1.00  0.00     0.000 C 
BRANCH   6   7
ATOM      7  C   UNL     1       2.422 -36.340  15.388  1.00  0.00     0.006 C 
BRANCH   7   8
ATOM      8  C   UNL     1       3.167 -37.684  15.478  1.00  0.00     0.053 C 
BRANCH   8   9
ATOM      9  C   UNL     1       4.218 -37.838  14.420  1.00  0.00     0.041 C 
ATOM     10  O   UNL     1       4.732 -36.820  13.887  1.00  0.00    -0.550 OA
ATOM     11  O   UNL     1       4.683 -39.101  14.071  1.00  0.00    -0.550 OA
ENDBRANCH   8   9
ENDBRANCH   7   8
ENDBRANCH   6   7
ENDBRANCH   5   6
ENDBRANCH   4   5
ENDBRANCH   3   4
ENDBRANCH   2   3
ENDBRANCH   1   2
BRANCH   1  12
ATOM     12  C   UNL     1       4.917 -38.305  21.829  1.00  0.00     0.000 C 
BRANCH  12  13
ATOM     13  C   UNL     1       5.002 -39.560  22.711  1.00  0.00    -0.000 C 
BRANCH  13  14
ATOM     14  C   UNL     1       4.198 -39.425  24.014  1.00  0.00    -0.000 C 
BRANCH  14  15
ATOM     15  C   UNL     1       4.971 -38.672  25.111  1.00  0.00    -0.000 C 
BRANCH  15  16
ATOM     16  C   UNL     1       4.434 -37.241  25.328  1.00  0.00    -0.000 C 
BRANCH  16  17
ATOM     17  C   UNL     1       5.118 -36.182  24.442  1.00  0.00    -0.000 C 
BRANCH  17  18
ATOM     18  C   UNL     1       4.204 -35.526  23.390  1.00  0.00    -0.000 C 
BRANCH  18  19
ATOM     19  C   UNL     1       4.945 -34.904  22.192  1.00  0.00    -0.003 C 
ATOM     20  C   UNL     1       4.020 -34.131  21.253  1.00  0.00     0.004 C 
ENDBRANCH  18  19
ENDBRANCH  17  18
ENDBRANCH  16  17
ENDBRANCH  15  16
ENDBRANCH  14  15
ENDBRANCH  13  14
ENDBRANCH  12  13
ENDBRANCH   1  12
TORSDOF 16
ENDMDL
MODEL 4
REMARK VINA RESULT:    -0.231      2.753      7.356
REMARK INTER + INTRA:           0.011
REMARK INTER:                   0.333
REMARK INTRA:                  -0.322
REMARK UNBOUND:                 0.458
REMARK SMILES CCCCCCCCCCCCCCCCCC(=O)[O-]
REMARK SMILES IDX 10 1 11 2 12 3 13 4 14 5 15 6 16 7 17 8 18 9 19 10 20 11
REMARK SMILES IDX 9 12 8 13 7 14 6 15 5 16 4 17 3 18 2 19 1 20
REMARK H PARENT
REMARK Flexibility Score: inf
ROOT
ATOM      1  C   UNL     1       1.663 -37.937  19.652  1.00  0.00     0.000 C 
ENDROOT
BRANCH   1   2
ATOM      2  C   UNL     1       0.676 -37.896  18.470  1.00  0.00     0.000 C 
BRANCH   2   3
ATOM      3  C   UNL     1       0.607 -36.546  17.730  1.00  0.00     0.000 C 
BRANCH   3   4
ATOM      4  C   UNL     1       1.144 -36.574  16.286  1.00  0.00     0.000 C 
BRANCH   4   5
ATOM      5  C   UNL     1       1.798 -35.246  15.842  1.00  0.00     0.000 C 
BRANCH   5   6
ATOM      6  C   UNL     1       3.238 -35.419  15.311  1.00  0.00     0.000 C 
BRANCH   6   7
ATOM      7  C   UNL     1       3.328 -36.193  13.983  1.00  0.00     0.006 C 
BRANCH   7   8
ATOM      8  C   UNL     1       4.488 -37.204  13.920  1.00  0.00     0.053 C 
BRANCH   8   9
ATOM      9  C   UNL     1       4.206 -38.461  14.688  1.00  0.00     0.041 C 
ATOM     10  O   UNL     1       4.799 -39.531  14.389  1.00  0.00    -0.550 OA
ATOM     11  O   UNL     1       3.344 -38.439  15.778  1.00  0.00    -0.550 OA
ENDBRANCH   8   9
ENDBRANCH   7   8
ENDBRANCH   6   7
ENDBRANCH   5   6
ENDBRANCH   4   5
ENDBRANCH   3   4
ENDBRANCH   2   3
ENDBRANCH   1   2
BRANCH   1  12
ATOM     12  C   UNL     1       3.133 -37.942  19.207  1.00  0.00     0.000 C 
BRANCH  12  13
ATOM     13  C   UNL     1       3.576 -36.539  18.766  1.00  0.00    -0.000 C 
BRANCH  13  14
ATOM     14  C   UNL     1       4.493 -35.855  19.793  1.00  0.00    -0.000 C 
BRANCH  14  15
ATOM     15  C   UNL     1       3.779 -35.565  21.124  1.00  0.00    -0.000 C 
BRANCH  15  16
ATOM     16  C   UNL     1       4.732 -34.966  22.181  1.00  0.00    -0.000 C 
BRANCH  16  17
ATOM     17  C   UNL     1       5.122 -35.956  23.296  1.00  0.00    -0.000 C 
BRANCH  17  18
ATOM     18  C   UNL     1       5.018 -37.443  22.911  1.00  0.00    -0.000 C 
BRANCH  18  19
ATOM     19  C   UNL     1       5.124 -38.423  24.094  1.00  0.00    -0.003 C 
ATOM     20  C   UNL     1       4.906 -39.879  23.684  1.00  0.00     0.004 C 
ENDBRANCH  18  19
ENDBRANCH  17  18
ENDBRANCH  16  17
ENDBRANCH  15  16
ENDBRANCH  14  15
ENDBRANCH  13  14
ENDBRANCH  12  13
ENDBRANCH   1  12
TORSDOF 16
ENDMDL
MODEL 5
REMARK VINA RESULT:     0.051      1.934      2.599
REMARK INTER + INTRA:           0.557
REMARK INTER:                   1.643
REMARK INTRA:                  -1.086
REMARK UNBOUND:                 0.458
REMARK SMILES CCCCCCCCCCCCCCCCCC(=O)[O-]
REMARK SMILES IDX 10 1 11 2 12 3 13 4 14 5 15 6 16 7 17 8 18 9 19 10 20 11
REMARK SMILES IDX 9 12 8 13 7 14 6 15 5 16 4 17 3 18 2 19 1 20
REMARK H PARENT
REMARK Flexibility Score: inf
ROOT
ATOM      1  C   UNL     1       1.597 -38.183  18.867  1.00  0.00     0.000 C 
ENDROOT
BRANCH   1   2
ATOM      2  C   UNL     1       2.795 -37.566  19.613  1.00  0.00     0.000 C 
BRANCH   2   3
ATOM      3  C   UNL     1       3.243 -38.337  20.870  1.00  0.00     0.000 C 
BRANCH   3   4
ATOM      4  C   UNL     1       4.726 -38.756  20.875  1.00  0.00     0.000 C 
BRANCH   4   5
ATOM      5  C   UNL     1       5.123 -39.614  22.097  1.00  0.00     0.000 C 
BRANCH   5   6
ATOM      6  C   UNL     1       4.163 -39.457  23.296  1.00  0.00     0.000 C 
BRANCH   6   7
ATOM      7  C   UNL     1       4.775 -38.712  24.496  1.00  0.00     0.006 C 
BRANCH   7   8
ATOM      8  C   UNL     1       5.023 -37.212  24.246  1.00  0.00     0.053 C 
BRANCH   8   9
ATOM      9  C   UNL     1       4.746 -36.369  25.454  1.00  0.00     0.041 C 
ATOM     10  O   UNL     1       5.121 -35.167  25.485  1.00  0.00    -0.550 OA
ATOM     11  O   UNL     1       4.015 -36.884  26.518  1.00  0.00    -0.550 OA
ENDBRANCH   8   9
ENDBRANCH   7   8
ENDBRANCH   6   7
ENDBRANCH   5   6
ENDBRANCH   4   5
ENDBRANCH   3   4
ENDBRANCH   2   3
ENDBRANCH   1   2
BRANCH   1  12
ATOM     12  C   UNL     1       1.291 -37.479  17.536  1.00  0.00     0.000 C 
BRANCH  12  13
ATOM     13  C   UNL     1       2.380 -36.448  17.199  1.00  0.00    -0.000 C 
BRANCH  13  14
ATOM     14  C   UNL     1       2.013 -35.568  15.994  1.00  0.00    -0.000 C 
BRANCH  14  15
ATOM     15  C   UNL     1       2.175 -36.303  14.653  1.00  0.00    -0.000 C 
BRANCH  15  16
ATOM     16  C   UNL     1       3.505 -35.954  13.950  1.00  0.00    -0.000 C 
BRANCH  16  17
ATOM     17  C   UNL     1       4.504 -37.126  13.898  1.00  0.00    -0.000 C 
BRANCH  17  18
ATOM     18  C   UNL     1       3.977 -38.456  14.465  1.00  0.00    -0.000 C 
BRANCH  18  19
ATOM     19  C   UNL     1       4.796 -39.697  14.063  1.00  0.00    -0.003 C 
ATOM     20  C   UNL     1       4.997 -40.679  15.216  1.00  0.00     0.004 C 
ENDBRANCH  18  19
ENDBRANCH  17  18
ENDBRANCH  16  17
ENDBRANCH  15  16
ENDBRANCH  14  15
ENDBRANCH  13  14
ENDBRANCH  12  13
ENDBRANCH   1  12
TORSDOF 16
ENDMDL
MODEL 6
REMARK VINA RESULT:     0.093      2.145      4.172
REMARK INTER + INTRA:           0.639
REMARK INTER:                   1.136
REMARK INTRA:                  -0.497
REMARK UNBOUND:                 0.458
REMARK SMILES CCCCCCCCCCCCCCCCCC(=O)[O-]
REMARK SMILES IDX 10 1 11 2 12 3 13 4 14 5 15 6 16 7 17 8 18 9 19 10 20 11
REMARK SMILES IDX 9 12 8 13 7 14 6 15 5 16 4 17 3 18 2 19 1 20
REMARK H PARENT
REMARK Flexibility Score: inf
ROOT
ATOM      1  C   UNL     1       4.264 -38.047  22.319  1.00  0.00     0.000 C 
ENDROOT
BRANCH   1   2
ATOM      2  C   UNL     1       4.933 -39.116  23.203  1.00  0.00     0.000 C 
BRANCH   2   3
ATOM      3  C   UNL     1       4.579 -39.033  24.700  1.00  0.00     0.000 C 
BRANCH   3   4
ATOM      4  C   UNL     1       5.100 -37.772  25.417  1.00  0.00     0.000 C 
BRANCH   4   5
ATOM      5  C   UNL     1       4.144 -36.562  25.316  1.00  0.00     0.000 C 
BRANCH   5   6
ATOM      6  C   UNL     1       4.830 -35.280  24.798  1.00  0.00     0.000 C 
BRANCH   6   7
ATOM      7  C   UNL     1       5.124 -35.293  23.286  1.00  0.00     0.006 C 
BRANCH   7   8
ATOM      8  C   UNL     1       4.815 -33.963  22.573  1.00  0.00     0.053 C 
BRANCH   8   9
ATOM      9  C   UNL     1       3.411 -33.897  22.050  1.00  0.00     0.041 C 
ATOM     10  O   UNL     1       2.754 -32.827  22.140  1.00  0.00    -0.550 OA
ATOM     11  O   UNL     1       2.852 -34.990  21.400  1.00  0.00    -0.550 OA
ENDBRANCH   8   9
ENDBRANCH   7   8
ENDBRANCH   6   7
ENDBRANCH   5   6
ENDBRANCH   4   5
ENDBRANCH   3   4
ENDBRANCH   2   3
ENDBRANCH   1   2
BRANCH   1  12
ATOM     12  C   UNL     1       4.609 -38.197  20.829  1.00  0.00     0.000 C 
BRANCH  12  13
ATOM     13  C   UNL     1       4.956 -36.835  20.209  1.00  0.00    -0.000 C 
BRANCH  13  14
ATOM     14  C   UNL     1       4.091 -36.503  18.983  1.00  0.00    -0.000 C 
BRANCH  14  15
ATOM     15  C   UNL     1       3.016 -37.569  18.710  1.00  0.00    -0.000 C 
BRANCH  15  16
ATOM     16  C   UNL     1       1.998 -37.115  17.641  1.00  0.00    -0.000 C 
BRANCH  16  17
ATOM     17  C   UNL     1       2.478 -35.918  16.797  1.00  0.00    -0.000 C 
BRANCH  17  18
ATOM     18  C   UNL     1       1.935 -35.879  15.357  1.00  0.00    -0.000 C 
BRANCH  18  19
ATOM     19  C   UNL     1       2.959 -36.265  14.273  1.00  0.00    -0.003 C 
ATOM     20  C   UNL     1       3.865 -37.422  14.692  1.00  0.00     0.004 C 
ENDBRANCH  18  19
ENDBRANCH  17  18
ENDBRANCH  16  17
ENDBRANCH  15  16
ENDBRANCH  14  15
ENDBRANCH  13  14
ENDBRANCH  12  13
ENDBRANCH   1  12
TORSDOF 16
ENDMDL
MODEL 7
REMARK VINA RESULT:     0.282      3.144      8.660
REMARK INTER + INTRA:           1.005
REMARK INTER:                   0.867
REMARK INTRA:                   0.137
REMARK UNBOUND:                 0.458
REMARK SMILES CCCCCCCCCCCCCCCCCC(=O)[O-]
REMARK SMILES IDX 10 1 11 2 12 3 13 4 14 5 15 6 16 7 17 8 18 9 19 10 20 11
REMARK SMILES IDX 9 12 8 13 7 14 6 15 5 16 4 17 3 18 2 19 1 20
REMARK H PARENT
REMARK Flexibility Score: inf
ROOT
ATOM      1  C   UNL     1       4.580 -36.373  21.855  1.00  0.00     0.000 C 
ENDROOT
BRANCH   1   2
ATOM      2  C   UNL     1       4.160 -35.281  20.854  1.00  0.00     0.000 C 
BRANCH   2   3
ATOM      3  C   UNL     1       5.106 -35.106  19.650  1.00  0.00     0.000 C 
BRANCH   3   4
ATOM      4  C   UNL     1       4.537 -35.601  18.305  1.00  0.00     0.000 C 
BRANCH   4   5
ATOM      5  C   UNL     1       3.429 -36.667  18.456  1.00  0.00     0.000 C 
BRANCH   5   6
ATOM      6  C   UNL     1       2.909 -37.207  17.106  1.00  0.00     0.000 C 
BRANCH   6   7
ATOM      7  C   UNL     1       2.326 -36.123  16.180  1.00  0.00     0.006 C 
BRANCH   7   8
ATOM      8  C   UNL     1       2.940 -36.104  14.768  1.00  0.00     0.053 C 
BRANCH   8   9
ATOM      9  C   UNL     1       3.930 -37.208  14.550  1.00  0.00     0.041 C 
ATOM     10  O   UNL     1       5.021 -36.973  13.966  1.00  0.00    -0.550 OA
ATOM     11  O   UNL     1       3.683 -38.481  15.050  1.00  0.00    -0.550 OA
ENDBRANCH   8   9
ENDBRANCH   7   8
ENDBRANCH   6   7
ENDBRANCH   5   6
ENDBRANCH   4   5
ENDBRANCH   3   4
ENDBRANCH   2   3
ENDBRANCH   1   2
BRANCH   1  12
ATOM     12  C   UNL     1       4.961 -37.697  21.176  1.00  0.00     0.000 C 
BRANCH  12  13
ATOM     13  C   UNL     1       5.124 -38.817  22.214  1.00  0.00    -0.000 C 
BRANCH  13  14
ATOM     14  C   UNL     1       5.058 -38.301  23.661  1.00  0.00    -0.000 C 
BRANCH  14  15
ATOM     15  C   UNL     1       4.862 -39.433  24.685  1.00  0.00    -0.000 C 
BRANCH  15  16
ATOM     16  C   UNL     1       4.981 -38.931  26.141  1.00  0.00    -0.000 C 
BRANCH  16  17
ATOM     17  C   UNL     1       4.958 -37.396  26.272  1.00  0.00    -0.000 C 
BRANCH  17  18
ATOM     18  C   UNL     1       3.560 -36.757  26.182  1.00  0.00    -0.000 C 
BRANCH  18  19
ATOM     19  C   UNL     1       2.657 -37.009  27.404  1.00  0.00    -0.003 C 
ATOM     20  C   UNL     1       1.359 -37.733  27.049  1.00  0.00     0.004 C 
ENDBRANCH  18  19
ENDBRANCH  17  18
ENDBRANCH  16  17
ENDBRANCH  15  16
ENDBRANCH  14  15
ENDBRANCH  13  14
ENDBRANCH  12  13
ENDBRANCH   1  12
TORSDOF 16
ENDMDL
MODEL 8
REMARK VINA RESULT:     0.408      3.780      5.387
REMARK INTER + INTRA:           1.248
REMARK INTER:                   1.401
REMARK INTRA:                  -0.153
REMARK UNBOUND:                 0.458
REMARK SMILES CCCCCCCCCCCCCCCCCC(=O)[O-]
REMARK SMILES IDX 10 1 11 2 12 3 13 4 14 5 15 6 16 7 17 8 18 9 19 10 20 11
REMARK SMILES IDX 9 12 8 13 7 14 6 15 5 16 4 17 3 18 2 19 1 20
REMARK H PARENT
REMARK Flexibility Score: inf
ROOT
ATOM      1  C   UNL     1       5.002 -36.598  23.649  1.00  0.00     0.000 C 
ENDROOT
BRANCH   1   2
ATOM      2  C   UNL     1       5.084 -38.129  23.803  1.00  0.00     0.000 C 
BRANCH   2   3
ATOM      3  C   UNL     1       4.941 -38.643  25.248  1.00  0.00     0.000 C 
BRANCH   3   4
ATOM      4  C   UNL     1       4.951 -37.544  26.328  1.00  0.00     0.000 C 
BRANCH   4   5
ATOM      5  C   UNL     1       3.639 -36.730  26.396  1.00  0.00     0.000 C 
BRANCH   5   6
ATOM      6  C   UNL     1       2.487 -37.481  27.098  1.00  0.00     0.000 C 
BRANCH   6   7
ATOM      7  C   UNL     1       1.537 -36.567  27.895  1.00  0.00     0.006 C 
BRANCH   7   8
ATOM      8  C   UNL     1       2.128 -35.187  28.235  1.00  0.00     0.053 C 
BRANCH   8   9
ATOM      9  C   UNL     1       1.324 -34.446  29.260  1.00  0.00     0.041 C 
ATOM     10  O   UNL     1       1.883 -33.985  30.290  1.00  0.00    -0.550 OA
ATOM     11  O   UNL     1      -0.028 -34.201  29.049  1.00  0.00    -0.550 OA
ENDBRANCH   8   9
ENDBRANCH   7   8
ENDBRANCH   6   7
ENDBRANCH   5   6
ENDBRANCH   4   5
ENDBRANCH   3   4
ENDBRANCH   2   3
ENDBRANCH   1   2
BRANCH   1  12
ATOM     12  C   UNL     1       5.124 -36.134  22.190  1.00  0.00     0.000 C 
BRANCH  12  13
ATOM     13  C   UNL     1       4.501 -37.164  21.234  1.00  0.00    -0.000 C 
BRANCH  13  14
ATOM     14  C   UNL     1       4.508 -36.696  19.770  1.00  0.00    -0.000 C 
BRANCH  14  15
ATOM     15  C   UNL     1       3.237 -37.113  19.010  1.00  0.00    -0.000 C 
BRANCH  15  16
ATOM     16  C   UNL     1       3.488 -37.277  17.495  1.00  0.00    -0.000 C 
BRANCH  16  17
ATOM     17  C   UNL     1       3.267 -35.984  16.686  1.00  0.00    -0.000 C 
BRANCH  17  18
ATOM     18  C   UNL     1       2.185 -36.076  15.594  1.00  0.00    -0.000 C 
BRANCH  18  19
ATOM     19  C   UNL     1       2.726 -36.321  14.173  1.00  0.00    -0.003 C 
ATOM     20  C   UNL     1       4.016 -37.140  14.158  1.00  0.00     0.004 C 
ENDBRANCH  18  19
ENDBRANCH  17  18
ENDBRANCH  16  17
ENDBRANCH  15  16
ENDBRANCH  14  15
ENDBRANCH  13  14
ENDBRANCH  12  13
ENDBRANCH   1  12
TORSDOF 16
ENDMDL
MODEL 9
REMARK VINA RESULT:     0.469      2.299      4.567
REMARK INTER + INTRA:           1.366
REMARK INTER:                  -1.019
REMARK INTRA:                   2.385
REMARK UNBOUND:                 0.458
REMARK SMILES CCCCCCCCCCCCCCCCCC(=O)[O-]
REMARK SMILES IDX 10 1 11 2 12 3 13 4 14 5 15 6 16 7 17 8 18 9 19 10 20 11
REMARK SMILES IDX 9 12 8 13 7 14 6 15 5 16 4 17 3 18 2 19 1 20
REMARK H PARENT
REMARK Flexibility Score: inf
ROOT
ATOM      1  C   UNL     1       5.060 -36.039  22.824  1.00  0.00     0.000 C 
ENDROOT
BRANCH   1   2
ATOM      2  C   UNL     1       5.113 -36.109  24.362  1.00  0.00     0.000 C 
BRANCH   2   3
ATOM      3  C   UNL     1       5.116 -37.535  24.947  1.00  0.00     0.000 C 
BRANCH   3   4
ATOM      4  C   UNL     1       4.560 -38.619  24.004  1.00  0.00     0.000 C 
BRANCH   4   5
ATOM      5  C   UNL     1       5.125 -38.541  22.568  1.00  0.00     0.000 C 
BRANCH   5   6
ATOM      6  C   UNL     1       4.091 -38.907  21.480  1.00  0.00     0.000 C 
BRANCH   6   7
ATOM      7  C   UNL     1       3.635 -37.712  20.622  1.00  0.00     0.006 C 
BRANCH   7   8
ATOM      8  C   UNL     1       2.112 -37.639  20.403  1.00  0.00     0.053 C 
BRANCH   8   9
ATOM      9  C   UNL     1       1.722 -37.816  18.967  1.00  0.00     0.041 C 
ATOM     10  O   UNL     1       0.569 -37.488  18.580  1.00  0.00    -0.550 OA
ATOM     11  O   UNL     1       2.649 -38.275  18.039  1.00  0.00    -0.550 OA
ENDBRANCH   8   9
ENDBRANCH   7   8
ENDBRANCH   6   7
ENDBRANCH   5   6
ENDBRANCH   4   5
ENDBRANCH   3   4
ENDBRANCH   2   3
ENDBRANCH   1   2
BRANCH   1  12
ATOM     12  C   UNL     1       4.334 -34.789  22.304  1.00  0.00     0.000 C 
BRANCH  12  13
ATOM     13  C   UNL     1       4.867 -34.383  20.922  1.00  0.00    -0.000 C 
BRANCH  13  14
ATOM     14  C   UNL     1       5.124 -35.590  20.005  1.00  0.00    -0.000 C 
BRANCH  14  15
ATOM     15  C   UNL     1       5.076 -35.221  18.512  1.00  0.00    -0.000 C 
BRANCH  15  16
ATOM     16  C   UNL     1       3.939 -35.951  17.765  1.00  0.00    -0.000 C 
BRANCH  16  17
ATOM     17  C   UNL     1       3.506 -35.254  16.462  1.00  0.00    -0.000 C 
BRANCH  17  18
ATOM     18  C   UNL     1       2.567 -36.079  15.563  1.00  0.00    -0.000 C 
BRANCH  18  19
ATOM     19  C   UNL     1       3.162 -36.470  14.197  1.00  0.00    -0.003 C 
ATOM     20  C   UNL     1       4.031 -37.725  14.261  1.00  0.00     0.004 C 
ENDBRANCH  18  19
ENDBRANCH  17  18
ENDBRANCH  16  17
ENDBRANCH  15  16
ENDBRANCH  14  15
ENDBRANCH  13  14
ENDBRANCH  12  13
ENDBRANCH   1  12
TORSDOF 16
ENDMDL
