MODEL 1
REMARK VINA RESULT:    -6.250      0.000      0.000
REMARK INTER + INTRA:          -7.908
REMARK INTER:                  -7.712
REMARK INTRA:                  -0.196
REMARK UNBOUND:                -0.196
REMARK SMILES COc1cc(-c2oc3cc(O)cc(O)c3c(=O)c2O)ccc1O
REMARK SMILES IDX 6 1 18 2 16 3 17 4 15 5 13 6 12 7 10 8 9 9 8 10 7 11 5 12
REMARK SMILES IDX 3 13 22 14 4 15 21 16 20 17 2 18 1 19 23 20 19 22 14 24
REMARK SMILES IDX 11 26
REMARK H PARENT 23 21 19 23 14 25 11 27
REMARK Flexibility Score: inf
ROOT
ATOM      1  C   UNL     1      56.004 -40.600 -25.881  1.00  0.00     0.180 A 
ATOM      2  C   UNL     1      56.234 -41.986 -25.917  1.00  0.00     0.208 A 
ATOM      3  C   UNL     1      56.467 -42.606 -27.155  1.00  0.00     0.238 A 
ATOM      4  O   UNL     1      56.617 -43.856 -27.187  1.00  0.00    -0.285 OA
ATOM      5  C   UNL     1      56.484 -41.830 -28.339  1.00  0.00     0.111 A 
ATOM      6  C   UNL     1      56.749 -42.347 -29.643  1.00  0.00     0.134 A 
ATOM      7  C   UNL     1      56.612 -41.511 -30.758  1.00  0.00     0.093 A 
ATOM      8  C   UNL     1      56.282 -40.165 -30.613  1.00  0.00     0.123 A 
ATOM      9  C   UNL     1      56.078 -39.634 -29.338  1.00  0.00     0.094 A 
ATOM     10  C   UNL     1      56.173 -40.451 -28.210  1.00  0.00     0.146 A 
ATOM     11  O   UNL     1      55.962 -39.910 -27.015  1.00  0.00    -0.452 OA
ENDROOT
BRANCH   1  12
ATOM     12  C   UNL     1      55.775 -39.872 -24.611  1.00  0.00     0.025 A 
ATOM     13  C   UNL     1      54.374 -39.462 -22.649  1.00  0.00     0.161 A 
ATOM     14  C   UNL     1      55.273 -38.466 -22.226  1.00  0.00     0.157 A 
ATOM     15  C   UNL     1      54.630 -40.155 -23.850  1.00  0.00     0.062 A 
ATOM     16  C   UNL     1      56.401 -38.170 -22.996  1.00  0.00     0.051 A 
ATOM     17  C   UNL     1      56.650 -38.860 -24.183  1.00  0.00     0.016 A 
BRANCH  13  18
ATOM     18  O   UNL     1      53.244 -39.734 -21.860  1.00  0.00    -0.493 OA
ATOM     19  C   UNL     1      52.079 -40.408 -22.324  1.00  0.00     0.278 C 
ENDBRANCH  13  18
BRANCH  14  20
ATOM     20  O   UNL     1      55.059 -37.756 -21.045  1.00  0.00    -0.504 OA
ATOM     21  H   UNL     1      55.492 -38.024 -20.169  1.00  0.00     0.293 HD
ENDBRANCH  14  20
ENDBRANCH   1  12
BRANCH   2  22
ATOM     22  O   UNL     1      56.192 -42.736 -24.738  1.00  0.00    -0.502 OA
ATOM     23  H   UNL     1      55.321 -43.033 -24.313  1.00  0.00     0.293 HD
ENDBRANCH   2  22
BRANCH   6  24
ATOM     24  O   UNL     1      57.175 -43.655 -29.892  1.00  0.00    -0.507 OA
ATOM     25  H   UNL     1      56.928 -44.457 -29.331  1.00  0.00     0.293 HD
ENDBRANCH   6  24
BRANCH   8  26
ATOM     26  O   UNL     1      56.169 -39.359 -31.744  1.00  0.00    -0.508 OA
ATOM     27  H   UNL     1      56.435 -39.694 -32.663  1.00  0.00     0.293 HD
ENDBRANCH   8  26
TORSDOF 6
ENDMDL
MODEL 2
REMARK VINA RESULT:    -6.070     14.345     15.899
REMARK INTER + INTRA:          -7.686
REMARK INTER:                  -7.382
REMARK INTRA:                  -0.304
REMARK UNBOUND:                -0.196
REMARK SMILES COc1cc(-c2oc3cc(O)cc(O)c3c(=O)c2O)ccc1O
REMARK SMILES IDX 6 1 18 2 16 3 17 4 15 5 13 6 12 7 10 8 9 9 8 10 7 11 5 12
REMARK SMILES IDX 3 13 22 14 4 15 21 16 20 17 2 18 1 19 23 20 19 22 14 24
REMARK SMILES IDX 11 26
REMARK H PARENT 23 21 19 23 14 25 11 27
REMARK Flexibility Score: inf
ROOT
ATOM      1  C   UNL     1      47.657 -28.168 -30.742  1.00  0.00     0.180 A 
ATOM      2  C   UNL     1      48.049 -27.764 -32.030  1.00  0.00     0.208 A 
ATOM      3  C   UNL     1      49.355 -28.047 -32.464  1.00  0.00     0.238 A 
ATOM      4  O   UNL     1      49.717 -27.635 -33.598  1.00  0.00    -0.285 OA
ATOM      5  C   UNL     1      50.245 -28.743 -31.612  1.00  0.00     0.111 A 
ATOM      6  C   UNL     1      51.577 -29.116 -31.964  1.00  0.00     0.134 A 
ATOM      7  C   UNL     1      52.412 -29.688 -30.996  1.00  0.00     0.093 A 
ATOM      8  C   UNL     1      51.946 -29.957 -29.710  1.00  0.00     0.123 A 
ATOM      9  C   UNL     1      50.626 -29.650 -29.373  1.00  0.00     0.094 A 
ATOM     10  C   UNL     1      49.781 -29.047 -30.306  1.00  0.00     0.146 A 
ATOM     11  O   UNL     1      48.535 -28.761 -29.942  1.00  0.00    -0.452 OA
ENDROOT
BRANCH   1  12
ATOM     12  C   UNL     1      46.291 -27.927 -30.223  1.00  0.00     0.025 A 
ATOM     13  C   UNL     1      43.898 -28.430 -30.295  1.00  0.00     0.161 A 
ATOM     14  C   UNL     1      43.672 -27.453 -29.308  1.00  0.00     0.157 A 
ATOM     15  C   UNL     1      45.213 -28.654 -30.753  1.00  0.00     0.062 A 
ATOM     16  C   UNL     1      44.743 -26.716 -28.796  1.00  0.00     0.051 A 
ATOM     17  C   UNL     1      46.042 -26.943 -29.253  1.00  0.00     0.016 A 
BRANCH  13  18
ATOM     18  O   UNL     1      42.803 -29.151 -30.798  1.00  0.00    -0.493 OA
ATOM     19  C   UNL     1      42.066 -28.793 -31.963  1.00  0.00     0.278 C 
ENDBRANCH  13  18
BRANCH  14  20
ATOM     20  O   UNL     1      42.388 -27.200 -28.826  1.00  0.00    -0.504 OA
ATOM     21  H   UNL     1      42.169 -26.373 -28.283  1.00  0.00     0.293 HD
ENDBRANCH  14  20
ENDBRANCH   1  12
BRANCH   2  22
ATOM     22  O   UNL     1      47.160 -27.059 -32.847  1.00  0.00    -0.502 OA
ATOM     23  H   UNL     1      47.250 -27.037 -33.856  1.00  0.00     0.293 HD
ENDBRANCH   2  22
BRANCH   6  24
ATOM     24  O   UNL     1      52.114 -28.976 -33.247  1.00  0.00    -0.507 OA
ATOM     25  H   UNL     1      53.082 -28.772 -33.446  1.00  0.00     0.293 HD
ENDBRANCH   6  24
BRANCH   8  26
ATOM     26  O   UNL     1      52.800 -30.540 -28.777  1.00  0.00    -0.508 OA
ATOM     27  H   UNL     1      52.881 -30.178 -27.833  1.00  0.00     0.293 HD
ENDBRANCH   8  26
TORSDOF 6
ENDMDL
MODEL 3
REMARK VINA RESULT:    -6.056      0.919      2.109
REMARK INTER + INTRA:          -7.669
REMARK INTER:                  -7.769
REMARK INTRA:                   0.101
REMARK UNBOUND:                -0.196
REMARK SMILES COc1cc(-c2oc3cc(O)cc(O)c3c(=O)c2O)ccc1O
REMARK SMILES IDX 6 1 18 2 16 3 17 4 15 5 13 6 12 7 10 8 9 9 8 10 7 11 5 12
REMARK SMILES IDX 3 13 22 14 4 15 21 16 20 17 2 18 1 19 23 20 19 22 14 24
REMARK SMILES IDX 11 26
REMARK H PARENT 23 21 19 23 14 25 11 27
REMARK Flexibility Score: inf
ROOT
ATOM      1  C   UNL     1      55.965 -40.495 -25.964  1.00  0.00     0.180 A 
ATOM      2  C   UNL     1      56.212 -41.878 -25.946  1.00  0.00     0.208 A 
ATOM      3  C   UNL     1      56.444 -42.545 -27.161  1.00  0.00     0.238 A 
ATOM      4  O   UNL     1      56.610 -43.792 -27.144  1.00  0.00    -0.285 OA
ATOM      5  C   UNL     1      56.442 -41.816 -28.375  1.00  0.00     0.111 A 
ATOM      6  C   UNL     1      56.705 -42.382 -29.658  1.00  0.00     0.134 A 
ATOM      7  C   UNL     1      56.549 -41.593 -30.805  1.00  0.00     0.093 A 
ATOM      8  C   UNL     1      56.203 -40.246 -30.711  1.00  0.00     0.123 A 
ATOM      9  C   UNL     1      56.002 -39.667 -29.457  1.00  0.00     0.094 A 
ATOM     10  C   UNL     1      56.115 -40.438 -28.298  1.00  0.00     0.146 A 
ATOM     11  O   UNL     1      55.905 -39.852 -27.124  1.00  0.00    -0.452 OA
ENDROOT
BRANCH   1  12
ATOM     12  C   UNL     1      55.735 -39.720 -24.722  1.00  0.00     0.025 A 
ATOM     13  C   UNL     1      56.159 -37.712 -23.392  1.00  0.00     0.161 A 
ATOM     14  C   UNL     1      55.375 -38.245 -22.353  1.00  0.00     0.157 A 
ATOM     15  C   UNL     1      56.340 -38.462 -24.572  1.00  0.00     0.062 A 
ATOM     16  C   UNL     1      54.790 -39.507 -22.495  1.00  0.00     0.051 A 
ATOM     17  C   UNL     1      54.972 -40.244 -23.666  1.00  0.00     0.016 A 
BRANCH  13  18
ATOM     18  O   UNL     1      56.741 -36.445 -23.219  1.00  0.00    -0.493 OA
ATOM     19  C   UNL     1      57.434 -35.729 -24.236  1.00  0.00     0.278 C 
ENDBRANCH  13  18
BRANCH  14  20
ATOM     20  O   UNL     1      55.168 -37.538 -21.169  1.00  0.00    -0.504 OA
ATOM     21  H   UNL     1      55.653 -37.769 -20.310  1.00  0.00     0.293 HD
ENDBRANCH  14  20
ENDBRANCH   1  12
BRANCH   2  22
ATOM     22  O   UNL     1      56.187 -42.582 -24.738  1.00  0.00    -0.502 OA
ATOM     23  H   UNL     1      55.832 -43.528 -24.667  1.00  0.00     0.293 HD
ENDBRANCH   2  22
BRANCH   6  24
ATOM     24  O   UNL     1      57.146 -43.693 -29.859  1.00  0.00    -0.507 OA
ATOM     25  H   UNL     1      57.312 -44.112 -30.761  1.00  0.00     0.293 HD
ENDBRANCH   6  24
BRANCH   8  26
ATOM     26  O   UNL     1      56.071 -39.487 -31.873  1.00  0.00    -0.508 OA
ATOM     27  H   UNL     1      56.251 -38.490 -31.877  1.00  0.00     0.293 HD
ENDBRANCH   8  26
TORSDOF 6
ENDMDL
MODEL 4
REMARK VINA RESULT:    -5.956     12.858     15.028
REMARK INTER + INTRA:          -7.544
REMARK INTER:                  -7.165
REMARK INTRA:                  -0.380
REMARK UNBOUND:                -0.196
REMARK SMILES COc1cc(-c2oc3cc(O)cc(O)c3c(=O)c2O)ccc1O
REMARK SMILES IDX 6 1 18 2 16 3 17 4 15 5 13 6 12 7 10 8 9 9 8 10 7 11 5 12
REMARK SMILES IDX 3 13 22 14 4 15 21 16 20 17 2 18 1 19 23 20 19 22 14 24
REMARK SMILES IDX 11 26
REMARK H PARENT 23 21 19 23 14 25 11 27
REMARK Flexibility Score: inf
ROOT
ATOM      1  C   UNL     1      51.984 -28.054 -31.017  1.00  0.00     0.180 A 
ATOM      2  C   UNL     1      51.341 -28.349 -32.232  1.00  0.00     0.208 A 
ATOM      3  C   UNL     1      50.010 -27.942 -32.416  1.00  0.00     0.238 A 
ATOM      4  O   UNL     1      49.423 -28.257 -33.484  1.00  0.00    -0.285 OA
ATOM      5  C   UNL     1      49.344 -27.230 -31.389  1.00  0.00     0.111 A 
ATOM      6  C   UNL     1      48.009 -26.733 -31.483  1.00  0.00     0.134 A 
ATOM      7  C   UNL     1      47.406 -26.157 -30.358  1.00  0.00     0.093 A 
ATOM      8  C   UNL     1      48.109 -26.000 -29.165  1.00  0.00     0.123 A 
ATOM      9  C   UNL     1      49.435 -26.428 -29.080  1.00  0.00     0.094 A 
ATOM     10  C   UNL     1      50.052 -27.039 -30.174  1.00  0.00     0.146 A 
ATOM     11  O   UNL     1      51.312 -27.442 -30.050  1.00  0.00    -0.452 OA
ENDROOT
BRANCH   1  12
ATOM     12  C   UNL     1      53.393 -28.430 -30.760  1.00  0.00     0.025 A 
ATOM     13  C   UNL     1      55.006 -29.929 -29.695  1.00  0.00     0.161 A 
ATOM     14  C   UNL     1      56.057 -29.140 -30.196  1.00  0.00     0.157 A 
ATOM     15  C   UNL     1      53.674 -29.560 -29.976  1.00  0.00     0.062 A 
ATOM     16  C   UNL     1      55.776 -28.003 -30.959  1.00  0.00     0.051 A 
ATOM     17  C   UNL     1      54.455 -27.644 -31.234  1.00  0.00     0.016 A 
BRANCH  13  18
ATOM     18  O   UNL     1      55.317 -31.061 -28.924  1.00  0.00    -0.493 OA
ATOM     19  C   UNL     1      54.369 -31.809 -28.169  1.00  0.00     0.278 C 
ENDBRANCH  13  18
BRANCH  14  20
ATOM     20  O   UNL     1      57.388 -29.468 -29.943  1.00  0.00    -0.504 OA
ATOM     21  H   UNL     1      58.090 -28.764 -29.747  1.00  0.00     0.293 HD
ENDBRANCH  14  20
ENDBRANCH   1  12
BRANCH   2  22
ATOM     22  O   UNL     1      52.011 -29.073 -33.224  1.00  0.00    -0.502 OA
ATOM     23  H   UNL     1      52.764 -29.717 -33.013  1.00  0.00     0.293 HD
ENDBRANCH   2  22
BRANCH   6  24
ATOM     24  O   UNL     1      47.248 -26.757 -32.655  1.00  0.00    -0.507 OA
ATOM     25  H   UNL     1      46.816 -25.949 -33.077  1.00  0.00     0.293 HD
ENDBRANCH   6  24
BRANCH   8  26
ATOM     26  O   UNL     1      47.483 -25.407 -28.070  1.00  0.00    -0.508 OA
ATOM     27  H   UNL     1      46.652 -25.810 -27.653  1.00  0.00     0.293 HD
ENDBRANCH   8  26
TORSDOF 6
ENDMDL
MODEL 5
REMARK VINA RESULT:    -5.820      4.992      6.226
REMARK INTER + INTRA:          -7.377
REMARK INTER:                  -7.003
REMARK INTRA:                  -0.374
REMARK UNBOUND:                -0.196
REMARK SMILES COc1cc(-c2oc3cc(O)cc(O)c3c(=O)c2O)ccc1O
REMARK SMILES IDX 6 1 18 2 16 3 17 4 15 5 13 6 12 7 10 8 9 9 8 10 7 11 5 12
REMARK SMILES IDX 3 13 22 14 4 15 21 16 20 17 2 18 1 19 23 20 19 22 14 24
REMARK SMILES IDX 11 26
REMARK H PARENT 23 21 19 23 14 25 11 27
REMARK Flexibility Score: inf
ROOT
ATOM      1  C   UNL     1      52.163 -41.978 -29.437  1.00  0.00     0.180 A 
ATOM      2  C   UNL     1      53.338 -42.040 -28.669  1.00  0.00     0.208 A 
ATOM      3  C   UNL     1      54.546 -41.600 -29.234  1.00  0.00     0.238 A 
ATOM      4  O   UNL     1      55.604 -41.709 -28.560  1.00  0.00    -0.285 OA
ATOM      5  C   UNL     1      54.560 -41.090 -30.555  1.00  0.00     0.111 A 
ATOM      6  C   UNL     1      55.720 -40.580 -31.212  1.00  0.00     0.134 A 
ATOM      7  C   UNL     1      55.644 -40.221 -32.564  1.00  0.00     0.093 A 
ATOM      8  C   UNL     1      54.440 -40.292 -33.262  1.00  0.00     0.123 A 
ATOM      9  C   UNL     1      53.286 -40.732 -32.611  1.00  0.00     0.094 A 
ATOM     10  C   UNL     1      53.338 -41.131 -31.274  1.00  0.00     0.146 A 
ATOM     11  O   UNL     1      52.220 -41.554 -30.694  1.00  0.00    -0.452 OA
ENDROOT
BRANCH   1  12
ATOM     12  C   UNL     1      50.848 -42.400 -28.901  1.00  0.00     0.025 A 
ATOM     13  C   UNL     1      48.884 -41.910 -27.528  1.00  0.00     0.161 A 
ATOM     14  C   UNL     1      48.376 -43.190 -27.812  1.00  0.00     0.157 A 
ATOM     15  C   UNL     1      50.127 -41.526 -28.071  1.00  0.00     0.062 A 
ATOM     16  C   UNL     1      49.104 -44.067 -28.621  1.00  0.00     0.051 A 
ATOM     17  C   UNL     1      50.334 -43.681 -29.157  1.00  0.00     0.016 A 
BRANCH  13  18
ATOM     18  O   UNL     1      48.135 -41.051 -26.706  1.00  0.00    -0.493 OA
ATOM     19  C   UNL     1      47.284 -40.014 -27.184  1.00  0.00     0.278 C 
ENDBRANCH  13  18
BRANCH  14  20
ATOM     20  O   UNL     1      47.150 -43.611 -27.297  1.00  0.00    -0.504 OA
ATOM     21  H   UNL     1      47.083 -44.196 -26.473  1.00  0.00     0.293 HD
ENDBRANCH  14  20
ENDBRANCH   1  12
BRANCH   2  22
ATOM     22  O   UNL     1      53.305 -42.568 -27.374  1.00  0.00    -0.502 OA
ATOM     23  H   UNL     1      54.113 -42.563 -26.764  1.00  0.00     0.293 HD
ENDBRANCH   2  22
BRANCH   6  24
ATOM     24  O   UNL     1      56.952 -40.382 -30.583  1.00  0.00    -0.507 OA
ATOM     25  H   UNL     1      57.080 -40.289 -29.586  1.00  0.00     0.293 HD
ENDBRANCH   6  24
BRANCH   8  26
ATOM     26  O   UNL     1      54.397 -39.911 -34.602  1.00  0.00    -0.508 OA
ATOM     27  H   UNL     1      53.560 -39.518 -35.015  1.00  0.00     0.293 HD
ENDBRANCH   8  26
TORSDOF 6
ENDMDL
MODEL 6
REMARK VINA RESULT:    -5.762     12.359     13.985
REMARK INTER + INTRA:          -7.305
REMARK INTER:                  -6.896
REMARK INTRA:                  -0.410
REMARK UNBOUND:                -0.196
REMARK SMILES COc1cc(-c2oc3cc(O)cc(O)c3c(=O)c2O)ccc1O
REMARK SMILES IDX 6 1 18 2 16 3 17 4 15 5 13 6 12 7 10 8 9 9 8 10 7 11 5 12
REMARK SMILES IDX 3 13 22 14 4 15 21 16 20 17 2 18 1 19 23 20 19 22 14 24
REMARK SMILES IDX 11 26
REMARK H PARENT 23 21 19 23 14 25 11 27
REMARK Flexibility Score: inf
ROOT
ATOM      1  C   UNL     1      47.178 -31.050 -29.391  1.00  0.00     0.180 A 
ATOM      2  C   UNL     1      46.124 -30.217 -29.802  1.00  0.00     0.208 A 
ATOM      3  C   UNL     1      46.424 -29.001 -30.438  1.00  0.00     0.238 A 
ATOM      4  O   UNL     1      45.477 -28.235 -30.755  1.00  0.00    -0.285 OA
ATOM      5  C   UNL     1      47.774 -28.641 -30.668  1.00  0.00     0.111 A 
ATOM      6  C   UNL     1      48.191 -27.453 -31.339  1.00  0.00     0.134 A 
ATOM      7  C   UNL     1      49.554 -27.136 -31.395  1.00  0.00     0.093 A 
ATOM      8  C   UNL     1      50.516 -27.993 -30.864  1.00  0.00     0.123 A 
ATOM      9  C   UNL     1      50.122 -29.187 -30.258  1.00  0.00     0.094 A 
ATOM     10  C   UNL     1      48.768 -29.513 -30.155  1.00  0.00     0.146 A 
ATOM     11  O   UNL     1      48.434 -30.654 -29.562  1.00  0.00    -0.452 OA
ENDROOT
BRANCH   1  12
ATOM     12  C   UNL     1      46.940 -32.357 -28.736  1.00  0.00     0.025 A 
ATOM     13  C   UNL     1      46.768 -33.678 -26.685  1.00  0.00     0.161 A 
ATOM     14  C   UNL     1      46.555 -34.834 -27.458  1.00  0.00     0.157 A 
ATOM     15  C   UNL     1      46.969 -32.443 -27.335  1.00  0.00     0.062 A 
ATOM     16  C   UNL     1      46.548 -34.751 -28.853  1.00  0.00     0.051 A 
ATOM     17  C   UNL     1      46.745 -33.525 -29.490  1.00  0.00     0.016 A 
BRANCH  13  18
ATOM     18  O   UNL     1      46.779 -33.792 -25.285  1.00  0.00    -0.493 OA
ATOM     19  C   UNL     1      47.957 -33.898 -24.492  1.00  0.00     0.278 C 
ENDBRANCH  13  18
BRANCH  14  20
ATOM     20  O   UNL     1      46.352 -36.076 -26.857  1.00  0.00    -0.504 OA
ATOM     21  H   UNL     1      46.496 -36.947 -27.355  1.00  0.00     0.293 HD
ENDBRANCH  14  20
ENDBRANCH   1  12
BRANCH   2  22
ATOM     22  O   UNL     1      44.798 -30.582 -29.546  1.00  0.00    -0.502 OA
ATOM     23  H   UNL     1      44.176 -30.915 -30.272  1.00  0.00     0.293 HD
ENDBRANCH   2  22
BRANCH   6  24
ATOM     24  O   UNL     1      47.319 -26.573 -31.985  1.00  0.00    -0.507 OA
ATOM     25  H   UNL     1      47.187 -25.605 -31.732  1.00  0.00     0.293 HD
ENDBRANCH   6  24
BRANCH   8  26
ATOM     26  O   UNL     1      51.865 -27.652 -30.952  1.00  0.00    -0.508 OA
ATOM     27  H   UNL     1      52.231 -26.817 -30.509  1.00  0.00     0.293 HD
ENDBRANCH   8  26
TORSDOF 6
ENDMDL
MODEL 7
REMARK VINA RESULT:    -5.754     13.561     15.234
REMARK INTER + INTRA:          -7.296
REMARK INTER:                  -7.538
REMARK INTRA:                   0.242
REMARK UNBOUND:                -0.196
REMARK SMILES COc1cc(-c2oc3cc(O)cc(O)c3c(=O)c2O)ccc1O
REMARK SMILES IDX 6 1 18 2 16 3 17 4 15 5 13 6 12 7 10 8 9 9 8 10 7 11 5 12
REMARK SMILES IDX 3 13 22 14 4 15 21 16 20 17 2 18 1 19 23 20 19 22 14 24
REMARK SMILES IDX 11 26
REMARK H PARENT 23 21 19 23 14 25 11 27
REMARK Flexibility Score: inf
ROOT
ATOM      1  C   UNL     1      48.023 -29.280 -30.692  1.00  0.00     0.180 A 
ATOM      2  C   UNL     1      48.315 -28.571 -31.870  1.00  0.00     0.208 A 
ATOM      3  C   UNL     1      49.656 -28.315 -32.197  1.00  0.00     0.238 A 
ATOM      4  O   UNL     1      49.909 -27.632 -33.224  1.00  0.00    -0.285 OA
ATOM      5  C   UNL     1      50.689 -28.785 -31.350  1.00  0.00     0.111 A 
ATOM      6  C   UNL     1      52.083 -28.618 -31.605  1.00  0.00     0.134 A 
ATOM      7  C   UNL     1      53.014 -29.010 -30.634  1.00  0.00     0.093 A 
ATOM      8  C   UNL     1      52.605 -29.619 -29.449  1.00  0.00     0.123 A 
ATOM      9  C   UNL     1      51.247 -29.842 -29.216  1.00  0.00     0.094 A 
ATOM     10  C   UNL     1      50.294 -29.430 -30.150  1.00  0.00     0.146 A 
ATOM     11  O   UNL     1      49.010 -29.651 -29.886  1.00  0.00    -0.452 OA
ENDROOT
BRANCH   1  12
ATOM     12  C   UNL     1      46.635 -29.608 -30.294  1.00  0.00     0.025 A 
ATOM     13  C   UNL     1      44.269 -28.990 -30.218  1.00  0.00     0.161 A 
ATOM     14  C   UNL     1      43.993 -30.167 -29.499  1.00  0.00     0.157 A 
ATOM     15  C   UNL     1      45.597 -28.714 -30.604  1.00  0.00     0.062 A 
ATOM     16  C   UNL     1      45.030 -31.046 -29.173  1.00  0.00     0.051 A 
ATOM     17  C   UNL     1      46.342 -30.768 -29.559  1.00  0.00     0.016 A 
BRANCH  13  18
ATOM     18  O   UNL     1      43.210 -28.120 -30.526  1.00  0.00    -0.493 OA
ATOM     19  C   UNL     1      42.431 -28.186 -31.716  1.00  0.00     0.278 C 
ENDBRANCH  13  18
BRANCH  14  20
ATOM     20  O   UNL     1      42.695 -30.479 -29.098  1.00  0.00    -0.504 OA
ATOM     21  H   UNL     1      42.061 -31.007 -29.686  1.00  0.00     0.293 HD
ENDBRANCH  14  20
ENDBRANCH   1  12
BRANCH   2  22
ATOM     22  O   UNL     1      47.279 -28.097 -32.681  1.00  0.00    -0.502 OA
ATOM     23  H   UNL     1      46.313 -28.082 -32.376  1.00  0.00     0.293 HD
ENDBRANCH   2  22
BRANCH   6  24
ATOM     24  O   UNL     1      52.604 -28.103 -32.795  1.00  0.00    -0.507 OA
ATOM     25  H   UNL     1      52.376 -27.198 -33.178  1.00  0.00     0.293 HD
ENDBRANCH   6  24
BRANCH   8  26
ATOM     26  O   UNL     1      53.560 -30.011 -28.512  1.00  0.00    -0.508 OA
ATOM     27  H   UNL     1      53.321 -30.613 -27.733  1.00  0.00     0.293 HD
ENDBRANCH   8  26
TORSDOF 6
ENDMDL
MODEL 8
REMARK VINA RESULT:    -5.753     15.806     17.279
REMARK INTER + INTRA:          -7.295
REMARK INTER:                  -6.926
REMARK INTRA:                  -0.369
REMARK UNBOUND:                -0.196
REMARK SMILES COc1cc(-c2oc3cc(O)cc(O)c3c(=O)c2O)ccc1O
REMARK SMILES IDX 6 1 18 2 16 3 17 4 15 5 13 6 12 7 10 8 9 9 8 10 7 11 5 12
REMARK SMILES IDX 3 13 22 14 4 15 21 16 20 17 2 18 1 19 23 20 19 22 14 24
REMARK SMILES IDX 11 26
REMARK H PARENT 23 21 19 23 14 25 11 27
REMARK Flexibility Score: inf
ROOT
ATOM      1  C   UNL     1      45.662 -28.182 -30.145  1.00  0.00     0.180 A 
ATOM      2  C   UNL     1      46.268 -27.514 -29.067  1.00  0.00     0.208 A 
ATOM      3  C   UNL     1      47.594 -27.070 -29.200  1.00  0.00     0.238 A 
ATOM      4  O   UNL     1      48.150 -26.522 -28.212  1.00  0.00    -0.285 OA
ATOM      5  C   UNL     1      48.290 -27.285 -30.414  1.00  0.00     0.111 A 
ATOM      6  C   UNL     1      49.622 -26.842 -30.672  1.00  0.00     0.134 A 
ATOM      7  C   UNL     1      50.257 -27.223 -31.861  1.00  0.00     0.093 A 
ATOM      8  C   UNL     1      49.589 -27.975 -32.826  1.00  0.00     0.123 A 
ATOM      9  C   UNL     1      48.266 -28.363 -32.609  1.00  0.00     0.094 A 
ATOM     10  C   UNL     1      47.618 -28.028 -31.418  1.00  0.00     0.146 A 
ATOM     11  O   UNL     1      46.362 -28.425 -31.246  1.00  0.00    -0.452 OA
ENDROOT
BRANCH   1  12
ATOM     12  C   UNL     1      44.260 -28.657 -30.088  1.00  0.00     0.025 A 
ATOM     13  C   UNL     1      41.869 -28.176 -30.277  1.00  0.00     0.161 A 
ATOM     14  C   UNL     1      41.582 -29.508 -29.928  1.00  0.00     0.157 A 
ATOM     15  C   UNL     1      43.214 -27.757 -30.346  1.00  0.00     0.062 A 
ATOM     16  C   UNL     1      42.623 -30.398 -29.651  1.00  0.00     0.051 A 
ATOM     17  C   UNL     1      43.952 -29.978 -29.722  1.00  0.00     0.016 A 
BRANCH  13  18
ATOM     18  O   UNL     1      40.804 -27.300 -30.543  1.00  0.00    -0.493 OA
ATOM     19  C   UNL     1      40.896 -25.880 -30.503  1.00  0.00     0.278 C 
ENDBRANCH  13  18
BRANCH  14  20
ATOM     20  O   UNL     1      40.267 -29.965 -29.849  1.00  0.00    -0.504 OA
ATOM     21  H   UNL     1      39.859 -30.561 -30.560  1.00  0.00     0.293 HD
ENDBRANCH  14  20
ENDBRANCH   1  12
BRANCH   2  22
ATOM     22  O   UNL     1      45.570 -27.332 -27.869  1.00  0.00    -0.502 OA
ATOM     23  H   UNL     1      46.033 -27.095 -27.000  1.00  0.00     0.293 HD
ENDBRANCH   2  22
BRANCH   6  24
ATOM     24  O   UNL     1      50.349 -26.011 -29.816  1.00  0.00    -0.507 OA
ATOM     25  H   UNL     1      50.666 -26.271 -28.894  1.00  0.00     0.293 HD
ENDBRANCH   6  24
BRANCH   8  26
ATOM     26  O   UNL     1      50.247 -28.323 -34.004  1.00  0.00    -0.508 OA
ATOM     27  H   UNL     1      50.988 -27.747 -34.388  1.00  0.00     0.293 HD
ENDBRANCH   8  26
TORSDOF 6
ENDMDL
MODEL 9
REMARK VINA RESULT:    -5.664     12.210     14.275
REMARK INTER + INTRA:          -7.184
REMARK INTER:                  -6.782
REMARK INTRA:                  -0.403
REMARK UNBOUND:                -0.196
REMARK SMILES COc1cc(-c2oc3cc(O)cc(O)c3c(=O)c2O)ccc1O
REMARK SMILES IDX 6 1 18 2 16 3 17 4 15 5 13 6 12 7 10 8 9 9 8 10 7 11 5 12
REMARK SMILES IDX 3 13 22 14 4 15 21 16 20 17 2 18 1 19 23 20 19 22 14 24
REMARK SMILES IDX 11 26
REMARK H PARENT 23 21 19 23 14 25 11 27
REMARK Flexibility Score: inf
ROOT
ATOM      1  C   UNL     1      51.665 -28.550 -30.551  1.00  0.00     0.180 A 
ATOM      2  C   UNL     1      51.297 -28.008 -31.795  1.00  0.00     0.208 A 
ATOM      3  C   UNL     1      49.956 -28.089 -32.205  1.00  0.00     0.238 A 
ATOM      4  O   UNL     1      49.644 -27.651 -33.343  1.00  0.00    -0.285 OA
ATOM      5  C   UNL     1      48.997 -28.697 -31.358  1.00  0.00     0.111 A 
ATOM      6  C   UNL     1      47.605 -28.798 -31.655  1.00  0.00     0.134 A 
ATOM      7  C   UNL     1      46.771 -29.534 -30.804  1.00  0.00     0.093 A 
ATOM      8  C   UNL     1      47.264 -30.117 -29.638  1.00  0.00     0.123 A 
ATOM      9  C   UNL     1      48.612 -29.973 -29.308  1.00  0.00     0.094 A 
ATOM     10  C   UNL     1      49.476 -29.275 -30.155  1.00  0.00     0.146 A 
ATOM     11  O   UNL     1      50.755 -29.170 -29.810  1.00  0.00    -0.452 OA
ENDROOT
BRANCH   1  12
ATOM     12  C   UNL     1      53.054 -28.481 -30.041  1.00  0.00     0.025 A 
ATOM     13  C   UNL     1      55.212 -29.570 -29.674  1.00  0.00     0.161 A 
ATOM     14  C   UNL     1      55.678 -28.410 -29.029  1.00  0.00     0.157 A 
ATOM     15  C   UNL     1      53.893 -29.599 -30.170  1.00  0.00     0.062 A 
ATOM     16  C   UNL     1      54.835 -27.305 -28.883  1.00  0.00     0.051 A 
ATOM     17  C   UNL     1      53.530 -27.339 -29.377  1.00  0.00     0.016 A 
BRANCH  13  18
ATOM     18  O   UNL     1      56.078 -30.669 -29.799  1.00  0.00    -0.493 OA
ATOM     19  C   UNL     1      55.920 -31.905 -29.110  1.00  0.00     0.278 C 
ENDBRANCH  13  18
BRANCH  14  20
ATOM     20  O   UNL     1      56.976 -28.338 -28.523  1.00  0.00    -0.504 OA
ATOM     21  H   UNL     1      57.268 -28.864 -27.708  1.00  0.00     0.293 HD
ENDBRANCH  14  20
ENDBRANCH   1  12
BRANCH   2  22
ATOM     22  O   UNL     1      52.264 -27.432 -32.624  1.00  0.00    -0.502 OA
ATOM     23  H   UNL     1      53.202 -27.807 -32.709  1.00  0.00     0.293 HD
ENDBRANCH   2  22
BRANCH   6  24
ATOM     24  O   UNL     1      46.992 -28.176 -32.746  1.00  0.00    -0.507 OA
ATOM     25  H   UNL     1      46.001 -28.002 -32.827  1.00  0.00     0.293 HD
ENDBRANCH   6  24
BRANCH   8  26
ATOM     26  O   UNL     1      46.401 -30.829 -28.807  1.00  0.00    -0.508 OA
ATOM     27  H   UNL     1      46.493 -30.800 -27.798  1.00  0.00     0.293 HD
ENDBRANCH   8  26
TORSDOF 6
ENDMDL
