MODEL 1
REMARK VINA RESULT:    -5.471      0.000      0.000
REMARK INTER + INTRA:          -8.461
REMARK INTER:                  -7.390
REMARK INTRA:                  -1.070
REMARK UNBOUND:                -1.070
REMARK SMILES O=c1c(-c2ccc(O)cc2)coc2c([C@H]3O[C@H](CO)[C@@H](O)[C@@H](O)[C@H]3O)c(O)ccc12
REMARK SMILES IDX 3 1 11 2 12 3 13 4 30 5 2 6 1 7 29 8 28 9 26 10 14 11 4 12
REMARK SMILES IDX 5 13 6 14 7 15 10 16 9 17 8 18 15 20 24 21 16 22 22 23 17 24
REMARK SMILES IDX 20 25 25 26 23 28 18 30 19 31 21 33 27 35
REMARK H PARENT 8 19 25 27 23 29 19 32 21 34 27 36
REMARK Flexibility Score: inf
ROOT
ATOM      1  C   UNL     1      22.686  -0.821  29.989  1.00  0.00     0.065 A 
ATOM      2  C   UNL     1      23.471  -0.680  28.841  1.00  0.00     0.208 A 
ATOM      3  O   UNL     1      23.934   0.515  28.483  1.00  0.00    -0.463 OA
ATOM      4  C   UNL     1      23.703   1.629  29.167  1.00  0.00     0.147 A 
ATOM      5  C   UNL     1      23.138   1.503  30.465  1.00  0.00     0.066 A 
ATOM      6  C   UNL     1      22.569   0.275  30.846  1.00  0.00     0.200 A 
ATOM      7  O   UNL     1      21.909   0.188  31.919  1.00  0.00    -0.288 OA
ATOM      8  C   UNL     1      23.091   2.601  31.320  1.00  0.00     0.020 A 
ATOM      9  C   UNL     1      23.617   3.810  30.911  1.00  0.00     0.047 A 
ATOM     10  C   UNL     1      24.072   3.987  29.608  1.00  0.00     0.125 A 
ATOM     11  C   UNL     1      24.007   2.920  28.654  1.00  0.00     0.069 A 
ENDROOT
BRANCH   1  12
ATOM     12  C   UNL     1      21.662  -1.881  30.038  1.00  0.00    -0.011 A 
ATOM     13  C   UNL     1      20.898  -2.105  28.881  1.00  0.00     0.013 A 
ATOM     14  C   UNL     1      19.962  -3.138  28.825  1.00  0.00     0.047 A 
ATOM     15  C   UNL     1      19.752  -3.944  29.951  1.00  0.00     0.115 A 
ATOM     16  C   UNL     1      21.439  -2.669  31.176  1.00  0.00     0.013 A 
ATOM     17  C   UNL     1      20.454  -3.673  31.147  1.00  0.00     0.047 A 
BRANCH  15  18
ATOM     18  O   UNL     1      18.866  -5.019  29.872  1.00  0.00    -0.508 OA
ATOM     19  H   UNL     1      17.922  -4.973  30.245  1.00  0.00     0.293 HD
ENDBRANCH  15  18
ENDBRANCH   1  12
BRANCH  11  20
ATOM     20  C   UNL     1      23.872   3.318  27.154  1.00  0.00     0.188 C 
ATOM     21  C   UNL     1      25.069   3.443  26.138  1.00  0.00     0.179 C 
ATOM     22  O   UNL     1      22.957   4.408  27.019  1.00  0.00    -0.362 OA
ATOM     23  C   UNL     1      25.032   4.826  25.410  1.00  0.00     0.177 C 
ATOM     24  C   UNL     1      22.501   4.599  25.672  1.00  0.00     0.176 C 
ATOM     25  C   UNL     1      23.673   4.956  24.700  1.00  0.00     0.177 C 
BRANCH  21  26
ATOM     26  O   UNL     1      26.334   3.074  26.608  1.00  0.00    -0.387 OA
ATOM     27  H   UNL     1      26.253   2.390  27.322  1.00  0.00     0.211 HD
ENDBRANCH  21  26
BRANCH  23  28
ATOM     28  O   UNL     1      25.157   5.902  26.296  1.00  0.00    -0.387 OA
ATOM     29  H   UNL     1      25.766   5.632  27.034  1.00  0.00     0.211 HD
ENDBRANCH  23  28
BRANCH  24  30
ATOM     30  C   UNL     1      21.644   3.421  25.143  1.00  0.00     0.191 C 
BRANCH  30  31
ATOM     31  O   UNL     1      20.322   3.833  24.880  1.00  0.00    -0.394 OA
ATOM     32  H   UNL     1      20.369   4.548  24.186  1.00  0.00     0.210 HD
ENDBRANCH  30  31
ENDBRANCH  24  30
BRANCH  25  33
ATOM     33  O   UNL     1      23.502   6.262  24.196  1.00  0.00    -0.388 OA
ATOM     34  H   UNL     1      23.457   6.874  24.973  1.00  0.00     0.211 HD
ENDBRANCH  25  33
ENDBRANCH  11  20
BRANCH  10  35
ATOM     35  O   UNL     1      24.545   5.259  29.296  1.00  0.00    -0.507 OA
ATOM     36  H   UNL     1      24.852   5.923  29.996  1.00  0.00     0.293 HD
ENDBRANCH  10  35
TORSDOF 9
ENDMDL
MODEL 2
REMARK VINA RESULT:    -5.430      1.533      1.788
REMARK INTER + INTRA:          -8.405
REMARK INTER:                  -7.510
REMARK INTRA:                  -0.896
REMARK UNBOUND:                -1.070
REMARK SMILES O=c1c(-c2ccc(O)cc2)coc2c([C@H]3O[C@H](CO)[C@@H](O)[C@@H](O)[C@H]3O)c(O)ccc12
REMARK SMILES IDX 3 1 11 2 12 3 13 4 30 5 2 6 1 7 29 8 28 9 26 10 14 11 4 12
REMARK SMILES IDX 5 13 6 14 7 15 10 16 9 17 8 18 15 20 24 21 16 22 22 23 17 24
REMARK SMILES IDX 20 25 25 26 23 28 18 30 19 31 21 33 27 35
REMARK H PARENT 8 19 25 27 23 29 19 32 21 34 27 36
REMARK Flexibility Score: inf
ROOT
ATOM      1  C   UNL     1      21.135  -1.547  29.781  1.00  0.00     0.065 A 
ATOM      2  C   UNL     1      22.303  -1.318  29.049  1.00  0.00     0.208 A 
ATOM      3  O   UNL     1      22.715  -0.075  28.807  1.00  0.00    -0.463 OA
ATOM      4  C   UNL     1      22.077   1.008  29.234  1.00  0.00     0.147 A 
ATOM      5  C   UNL     1      21.042   0.831  30.192  1.00  0.00     0.066 A 
ATOM      6  C   UNL     1      20.530  -0.459  30.414  1.00  0.00     0.200 A 
ATOM      7  O   UNL     1      19.499  -0.617  31.125  1.00  0.00    -0.288 OA
ATOM      8  C   UNL     1      20.501   1.932  30.851  1.00  0.00     0.020 A 
ATOM      9  C   UNL     1      20.988   3.196  30.588  1.00  0.00     0.047 A 
ATOM     10  C   UNL     1      21.920   3.406  29.576  1.00  0.00     0.125 A 
ATOM     11  C   UNL     1      22.399   2.316  28.778  1.00  0.00     0.069 A 
ENDROOT
BRANCH   1  12
ATOM     12  C   UNL     1      20.331  -2.750  29.501  1.00  0.00    -0.011 A 
ATOM     13  C   UNL     1      19.798  -2.892  28.210  1.00  0.00     0.013 A 
ATOM     14  C   UNL     1      19.089  -4.038  27.845  1.00  0.00     0.047 A 
ATOM     15  C   UNL     1      18.873  -5.048  28.791  1.00  0.00     0.115 A 
ATOM     16  C   UNL     1      20.096  -3.747  30.459  1.00  0.00     0.013 A 
ATOM     17  C   UNL     1      19.331  -4.876  30.116  1.00  0.00     0.047 A 
BRANCH  15  18
ATOM     18  O   UNL     1      18.223  -6.223  28.406  1.00  0.00    -0.508 OA
ATOM     19  H   UNL     1      17.294  -6.219  27.998  1.00  0.00     0.293 HD
ENDBRANCH  15  18
ENDBRANCH   1  12
BRANCH  11  20
ATOM     20  C   UNL     1      22.854   2.648  27.325  1.00  0.00     0.188 C 
ATOM     21  C   UNL     1      24.207   2.179  26.670  1.00  0.00     0.179 C 
ATOM     22  O   UNL     1      22.577   4.019  27.028  1.00  0.00    -0.362 OA
ATOM     23  C   UNL     1      24.970   3.396  26.053  1.00  0.00     0.177 C 
ATOM     24  C   UNL     1      22.624   4.312  25.625  1.00  0.00     0.176 C 
ATOM     25  C   UNL     1      24.046   4.066  25.021  1.00  0.00     0.177 C 
BRANCH  21  26
ATOM     26  O   UNL     1      25.010   1.322  27.431  1.00  0.00    -0.387 OA
ATOM     27  H   UNL     1      24.811   0.375  27.212  1.00  0.00     0.211 HD
ENDBRANCH  21  26
BRANCH  23  28
ATOM     28  O   UNL     1      25.311   4.357  27.011  1.00  0.00    -0.387 OA
ATOM     29  H   UNL     1      26.301   4.383  27.092  1.00  0.00     0.211 HD
ENDBRANCH  23  28
BRANCH  24  30
ATOM     30  C   UNL     1      21.515   3.600  24.812  1.00  0.00     0.191 C 
BRANCH  30  31
ATOM     31  O   UNL     1      20.238   4.088  25.158  1.00  0.00    -0.394 OA
ATOM     32  H   UNL     1      19.743   4.246  24.307  1.00  0.00     0.210 HD
ENDBRANCH  30  31
ENDBRANCH  24  30
BRANCH  25  33
ATOM     33  O   UNL     1      24.602   5.285  24.579  1.00  0.00    -0.388 OA
ATOM     34  H   UNL     1      25.318   5.065  23.932  1.00  0.00     0.211 HD
ENDBRANCH  25  33
ENDBRANCH  11  20
BRANCH  10  35
ATOM     35  O   UNL     1      22.311   4.727  29.372  1.00  0.00    -0.507 OA
ATOM     36  H   UNL     1      21.784   5.520  29.717  1.00  0.00     0.293 HD
ENDBRANCH  10  35
TORSDOF 9
ENDMDL
MODEL 3
REMARK VINA RESULT:    -5.173      1.220      2.343
REMARK INTER + INTRA:          -8.058
REMARK INTER:                  -7.645
REMARK INTRA:                  -0.413
REMARK UNBOUND:                -1.070
REMARK SMILES O=c1c(-c2ccc(O)cc2)coc2c([C@H]3O[C@H](CO)[C@@H](O)[C@@H](O)[C@H]3O)c(O)ccc12
REMARK SMILES IDX 3 1 11 2 12 3 13 4 30 5 2 6 1 7 29 8 28 9 26 10 14 11 4 12
REMARK SMILES IDX 5 13 6 14 7 15 10 16 9 17 8 18 15 20 24 21 16 22 22 23 17 24
REMARK SMILES IDX 20 25 25 26 23 28 18 30 19 31 21 33 27 35
REMARK H PARENT 8 19 25 27 23 29 19 32 21 34 27 36
REMARK Flexibility Score: inf
ROOT
ATOM      1  C   UNL     1      22.234  -0.362  29.733  1.00  0.00     0.065 A 
ATOM      2  C   UNL     1      22.943  -0.121  28.552  1.00  0.00     0.208 A 
ATOM      3  O   UNL     1      23.508   1.064  28.335  1.00  0.00    -0.463 OA
ATOM      4  C   UNL     1      23.453   2.075  29.194  1.00  0.00     0.147 A 
ATOM      5  C   UNL     1      22.976   1.803  30.504  1.00  0.00     0.066 A 
ATOM      6  C   UNL     1      22.304   0.592  30.750  1.00  0.00     0.200 A 
ATOM      7  O   UNL     1      21.720   0.404  31.853  1.00  0.00    -0.288 OA
ATOM      8  C   UNL     1      23.115   2.753  31.513  1.00  0.00     0.020 A 
ATOM      9  C   UNL     1      23.740   3.953  31.242  1.00  0.00     0.047 A 
ATOM     10  C   UNL     1      24.114   4.287  29.944  1.00  0.00     0.125 A 
ATOM     11  C   UNL     1      23.860   3.394  28.852  1.00  0.00     0.069 A 
ENDROOT
BRANCH   1  12
ATOM     12  C   UNL     1      21.106  -1.310  29.717  1.00  0.00    -0.011 A 
ATOM     13  C   UNL     1      21.264  -2.501  28.990  1.00  0.00     0.013 A 
ATOM     14  C   UNL     1      20.272  -3.482  28.988  1.00  0.00     0.047 A 
ATOM     15  C   UNL     1      19.081  -3.262  29.693  1.00  0.00     0.115 A 
ATOM     16  C   UNL     1      19.906  -1.075  30.404  1.00  0.00     0.013 A 
ATOM     17  C   UNL     1      18.877  -2.032  30.356  1.00  0.00     0.047 A 
BRANCH  15  18
ATOM     18  O   UNL     1      18.117  -4.271  29.746  1.00  0.00    -0.508 OA
ATOM     19  H   UNL     1      18.362  -5.256  29.715  1.00  0.00     0.293 HD
ENDBRANCH  15  18
ENDBRANCH   1  12
BRANCH  11  20
ATOM     20  C   UNL     1      23.659   4.034  27.446  1.00  0.00     0.188 C 
ATOM     21  C   UNL     1      22.289   4.113  26.673  1.00  0.00     0.179 C 
ATOM     22  O   UNL     1      24.727   3.648  26.577  1.00  0.00    -0.362 OA
ATOM     23  C   UNL     1      22.441   3.549  25.223  1.00  0.00     0.177 C 
ATOM     24  C   UNL     1      24.820   4.463  25.400  1.00  0.00     0.176 C 
ATOM     25  C   UNL     1      23.539   4.356  24.510  1.00  0.00     0.177 C 
BRANCH  21  26
ATOM     26  O   UNL     1      21.156   3.654  27.355  1.00  0.00    -0.387 OA
ATOM     27  H   UNL     1      20.337   4.082  26.995  1.00  0.00     0.211 HD
ENDBRANCH  21  26
BRANCH  23  28
ATOM     28  O   UNL     1      22.822   2.202  25.209  1.00  0.00    -0.387 OA
ATOM     29  H   UNL     1      23.232   1.983  26.088  1.00  0.00     0.211 HD
ENDBRANCH  23  28
BRANCH  24  30
ATOM     30  C   UNL     1      25.197   5.934  25.703  1.00  0.00     0.191 C 
BRANCH  30  31
ATOM     31  O   UNL     1      26.574   6.159  25.496  1.00  0.00    -0.394 OA
ATOM     32  H   UNL     1      26.853   6.879  26.127  1.00  0.00     0.210 HD
ENDBRANCH  30  31
ENDBRANCH  24  30
BRANCH  25  33
ATOM     33  O   UNL     1      23.860   3.764  23.270  1.00  0.00    -0.388 OA
ATOM     34  H   UNL     1      23.967   4.497  22.612  1.00  0.00     0.211 HD
ENDBRANCH  25  33
ENDBRANCH  11  20
BRANCH  10  35
ATOM     35  O   UNL     1      24.701   5.539  29.782  1.00  0.00    -0.507 OA
ATOM     36  H   UNL     1      25.621   5.671  29.382  1.00  0.00     0.293 HD
ENDBRANCH  10  35
TORSDOF 9
ENDMDL
MODEL 4
REMARK VINA RESULT:    -5.032      1.532      2.637
REMARK INTER + INTRA:          -7.868
REMARK INTER:                  -6.999
REMARK INTRA:                  -0.868
REMARK UNBOUND:                -1.070
REMARK SMILES O=c1c(-c2ccc(O)cc2)coc2c([C@H]3O[C@H](CO)[C@@H](O)[C@@H](O)[C@H]3O)c(O)ccc12
REMARK SMILES IDX 3 1 11 2 12 3 13 4 30 5 2 6 1 7 29 8 28 9 26 10 14 11 4 12
REMARK SMILES IDX 5 13 6 14 7 15 10 16 9 17 8 18 15 20 24 21 16 22 22 23 17 24
REMARK SMILES IDX 20 25 25 26 23 28 18 30 19 31 21 33 27 35
REMARK H PARENT 8 19 25 27 23 29 19 32 21 34 27 36
REMARK Flexibility Score: inf
ROOT
ATOM      1  C   UNL     1      21.937  -1.023  30.413  1.00  0.00     0.065 A 
ATOM      2  C   UNL     1      23.070  -0.746  29.642  1.00  0.00     0.208 A 
ATOM      3  O   UNL     1      23.576   0.484  29.604  1.00  0.00    -0.463 OA
ATOM      4  C   UNL     1      23.069   1.510  30.278  1.00  0.00     0.147 A 
ATOM      5  C   UNL     1      22.089   1.231  31.268  1.00  0.00     0.066 A 
ATOM      6  C   UNL     1      21.477  -0.035  31.287  1.00  0.00     0.200 A 
ATOM      7  O   UNL     1      20.486  -0.249  32.039  1.00  0.00    -0.288 OA
ATOM      8  C   UNL     1      21.695   2.221  32.165  1.00  0.00     0.020 A 
ATOM      9  C   UNL     1      22.278   3.471  32.104  1.00  0.00     0.047 A 
ATOM     10  C   UNL     1      23.154   3.801  31.075  1.00  0.00     0.125 A 
ATOM     11  C   UNL     1      23.478   2.853  30.050  1.00  0.00     0.069 A 
ENDROOT
BRANCH   1  12
ATOM     12  C   UNL     1      21.010  -2.083  29.980  1.00  0.00    -0.011 A 
ATOM     13  C   UNL     1      20.516  -2.022  28.667  1.00  0.00     0.013 A 
ATOM     14  C   UNL     1      19.693  -3.028  28.159  1.00  0.00     0.047 A 
ATOM     15  C   UNL     1      19.323  -4.100  28.981  1.00  0.00     0.115 A 
ATOM     16  C   UNL     1      20.623  -3.141  30.815  1.00  0.00     0.013 A 
ATOM     17  C   UNL     1      19.745  -4.127  30.329  1.00  0.00     0.047 A 
BRANCH  15  18
ATOM     18  O   UNL     1      18.556  -5.140  28.452  1.00  0.00    -0.508 OA
ATOM     19  H   UNL     1      18.173  -5.107  27.512  1.00  0.00     0.293 HD
ENDBRANCH  15  18
ENDBRANCH   1  12
BRANCH  11  20
ATOM     20  C   UNL     1      23.863   3.424  28.653  1.00  0.00     0.188 C 
ATOM     21  C   UNL     1      22.914   3.464  27.397  1.00  0.00     0.179 C 
ATOM     22  O   UNL     1      25.181   2.998  28.298  1.00  0.00    -0.362 OA
ATOM     23  C   UNL     1      23.619   2.831  26.153  1.00  0.00     0.177 C 
ATOM     24  C   UNL     1      25.748   3.756  27.220  1.00  0.00     0.176 C 
ATOM     25  C   UNL     1      24.924   3.605  25.899  1.00  0.00     0.177 C 
BRANCH  21  26
ATOM     26  O   UNL     1      21.595   3.037  27.591  1.00  0.00    -0.387 OA
ATOM     27  H   UNL     1      21.359   2.330  26.937  1.00  0.00     0.211 HD
ENDBRANCH  21  26
BRANCH  23  28
ATOM     28  O   UNL     1      23.950   1.486  26.352  1.00  0.00    -0.387 OA
ATOM     29  H   UNL     1      23.493   0.944  25.654  1.00  0.00     0.211 HD
ENDBRANCH  23  28
BRANCH  24  30
ATOM     30  C   UNL     1      26.000   5.241  27.582  1.00  0.00     0.191 C 
BRANCH  30  31
ATOM     31  O   UNL     1      26.494   5.958  26.472  1.00  0.00    -0.394 OA
ATOM     32  H   UNL     1      25.766   5.983  25.791  1.00  0.00     0.210 HD
ENDBRANCH  30  31
ENDBRANCH  24  30
BRANCH  25  33
ATOM     33  O   UNL     1      25.700   2.954  24.917  1.00  0.00    -0.388 OA
ATOM     34  H   UNL     1      25.082   2.417  24.361  1.00  0.00     0.211 HD
ENDBRANCH  25  33
ENDBRANCH  11  20
BRANCH  10  35
ATOM     35  O   UNL     1      23.651   5.102  31.091  1.00  0.00    -0.507 OA
ATOM     36  H   UNL     1      24.182   5.482  31.865  1.00  0.00     0.293 HD
ENDBRANCH  10  35
TORSDOF 9
ENDMDL
MODEL 5
REMARK VINA RESULT:    -4.919      2.647      8.081
REMARK INTER + INTRA:          -7.715
REMARK INTER:                  -7.181
REMARK INTRA:                  -0.533
REMARK UNBOUND:                -1.070
REMARK SMILES O=c1c(-c2ccc(O)cc2)coc2c([C@H]3O[C@H](CO)[C@@H](O)[C@@H](O)[C@H]3O)c(O)ccc12
REMARK SMILES IDX 3 1 11 2 12 3 13 4 30 5 2 6 1 7 29 8 28 9 26 10 14 11 4 12
REMARK SMILES IDX 5 13 6 14 7 15 10 16 9 17 8 18 15 20 24 21 16 22 22 23 17 24
REMARK SMILES IDX 20 25 25 26 23 28 18 30 19 31 21 33 27 35
REMARK H PARENT 8 19 25 27 23 29 19 32 21 34 27 36
REMARK Flexibility Score: inf
ROOT
ATOM      1  C   UNL     1      23.075   4.443  24.398  1.00  0.00     0.065 A 
ATOM      2  C   UNL     1      22.994   3.139  24.896  1.00  0.00     0.208 A 
ATOM      3  O   UNL     1      22.358   2.891  26.038  1.00  0.00    -0.463 OA
ATOM      4  C   UNL     1      21.763   3.828  26.768  1.00  0.00     0.147 A 
ATOM      5  C   UNL     1      21.593   5.112  26.184  1.00  0.00     0.066 A 
ATOM      6  C   UNL     1      22.311   5.434  25.018  1.00  0.00     0.200 A 
ATOM      7  O   UNL     1      22.312   6.618  24.582  1.00  0.00    -0.288 OA
ATOM      8  C   UNL     1      20.775   6.058  26.796  1.00  0.00     0.020 A 
ATOM      9  C   UNL     1      20.111   5.738  27.962  1.00  0.00     0.047 A 
ATOM     10  C   UNL     1      20.350   4.531  28.611  1.00  0.00     0.125 A 
ATOM     11  C   UNL     1      21.292   3.586  28.088  1.00  0.00     0.069 A 
ENDROOT
BRANCH   1  12
ATOM     12  C   UNL     1      24.248   4.839  23.598  1.00  0.00    -0.011 A 
ATOM     13  C   UNL     1      24.815   6.099  23.852  1.00  0.00     0.013 A 
ATOM     14  C   UNL     1      25.971   6.515  23.190  1.00  0.00     0.047 A 
ATOM     15  C   UNL     1      26.556   5.681  22.229  1.00  0.00     0.115 A 
ATOM     16  C   UNL     1      24.815   4.011  22.619  1.00  0.00     0.013 A 
ATOM     17  C   UNL     1      25.944   4.450  21.904  1.00  0.00     0.047 A 
BRANCH  15  18
ATOM     18  O   UNL     1      27.749   6.069  21.616  1.00  0.00    -0.508 OA
ATOM     19  H   UNL     1      27.914   5.942  20.622  1.00  0.00     0.293 HD
ENDBRANCH  15  18
ENDBRANCH   1  12
BRANCH  11  20
ATOM     20  C   UNL     1      22.001   2.650  29.111  1.00  0.00     0.188 C 
ATOM     21  C   UNL     1      23.552   2.382  29.171  1.00  0.00     0.179 C 
ATOM     22  O   UNL     1      21.255   1.440  29.265  1.00  0.00    -0.362 OA
ATOM     23  C   UNL     1      23.845   0.846  29.174  1.00  0.00     0.177 C 
ATOM     24  C   UNL     1      21.627   0.693  30.432  1.00  0.00     0.176 C 
ATOM     25  C   UNL     1      23.118   0.223  30.378  1.00  0.00     0.177 C 
BRANCH  21  26
ATOM     26  O   UNL     1      24.352   3.119  28.291  1.00  0.00    -0.387 OA
ATOM     27  H   UNL     1      25.211   2.653  28.128  1.00  0.00     0.211 HD
ENDBRANCH  21  26
BRANCH  23  28
ATOM     28  O   UNL     1      23.381   0.210  28.017  1.00  0.00    -0.387 OA
ATOM     29  H   UNL     1      22.387   0.230  28.025  1.00  0.00     0.211 HD
ENDBRANCH  23  28
BRANCH  24  30
ATOM     30  C   UNL     1      21.293   1.420  31.757  1.00  0.00     0.191 C 
BRANCH  30  31
ATOM     31  O   UNL     1      19.981   1.939  31.736  1.00  0.00    -0.394 OA
ATOM     32  H   UNL     1      20.050   2.919  31.911  1.00  0.00     0.210 HD
ENDBRANCH  30  31
ENDBRANCH  24  30
BRANCH  25  33
ATOM     33  O   UNL     1      23.179  -1.185  30.318  1.00  0.00    -0.388 OA
ATOM     34  H   UNL     1      22.792  -1.460  29.448  1.00  0.00     0.211 HD
ENDBRANCH  25  33
ENDBRANCH  11  20
BRANCH  10  35
ATOM     35  O   UNL     1      19.654   4.330  29.801  1.00  0.00    -0.507 OA
ATOM     36  H   UNL     1      18.890   4.923  30.102  1.00  0.00     0.293 HD
ENDBRANCH  10  35
TORSDOF 9
ENDMDL
MODEL 6
REMARK VINA RESULT:    -4.890      4.011      6.803
REMARK INTER + INTRA:          -7.675
REMARK INTER:                  -6.618
REMARK INTRA:                  -1.057
REMARK UNBOUND:                -1.070
REMARK SMILES O=c1c(-c2ccc(O)cc2)coc2c([C@H]3O[C@H](CO)[C@@H](O)[C@@H](O)[C@H]3O)c(O)ccc12
REMARK SMILES IDX 3 1 11 2 12 3 13 4 30 5 2 6 1 7 29 8 28 9 26 10 14 11 4 12
REMARK SMILES IDX 5 13 6 14 7 15 10 16 9 17 8 18 15 20 24 21 16 22 22 23 17 24
REMARK SMILES IDX 20 25 25 26 23 28 18 30 19 31 21 33 27 35
REMARK H PARENT 8 19 25 27 23 29 19 32 21 34 27 36
REMARK Flexibility Score: inf
ROOT
ATOM      1  C   UNL     1      26.695   5.309  30.392  1.00  0.00     0.065 A 
ATOM      2  C   UNL     1      26.271   5.783  29.147  1.00  0.00     0.208 A 
ATOM      3  O   UNL     1      25.033   5.544  28.721  1.00  0.00    -0.463 OA
ATOM      4  C   UNL     1      24.131   4.867  29.421  1.00  0.00     0.147 A 
ATOM      5  C   UNL     1      24.422   4.592  30.784  1.00  0.00     0.066 A 
ATOM      6  C   UNL     1      25.739   4.760  31.249  1.00  0.00     0.200 A 
ATOM      7  O   UNL     1      26.059   4.358  32.402  1.00  0.00    -0.288 OA
ATOM      8  C   UNL     1      23.430   4.102  31.629  1.00  0.00     0.020 A 
ATOM      9  C   UNL     1      22.153   3.904  31.143  1.00  0.00     0.047 A 
ATOM     10  C   UNL     1      21.872   4.058  29.789  1.00  0.00     0.125 A 
ATOM     11  C   UNL     1      22.900   4.426  28.861  1.00  0.00     0.069 A 
ENDROOT
BRANCH   1  12
ATOM     12  C   UNL     1      28.114   4.964  30.589  1.00  0.00    -0.011 A 
ATOM     13  C   UNL     1      28.915   5.874  31.298  1.00  0.00     0.013 A 
ATOM     14  C   UNL     1      30.248   5.585  31.590  1.00  0.00     0.047 A 
ATOM     15  C   UNL     1      30.811   4.385  31.138  1.00  0.00     0.115 A 
ATOM     16  C   UNL     1      28.679   3.773  30.113  1.00  0.00     0.013 A 
ATOM     17  C   UNL     1      30.039   3.502  30.351  1.00  0.00     0.047 A 
BRANCH  15  18
ATOM     18  O   UNL     1      32.125   4.066  31.489  1.00  0.00    -0.508 OA
ATOM     19  H   UNL     1      32.386   3.809  32.436  1.00  0.00     0.293 HD
ENDBRANCH  15  18
ENDBRANCH   1  12
BRANCH  11  20
ATOM     20  C   UNL     1      22.733   3.941  27.390  1.00  0.00     0.188 C 
ATOM     21  C   UNL     1      23.337   2.611  26.800  1.00  0.00     0.179 C 
ATOM     22  O   UNL     1      22.910   5.038  26.491  1.00  0.00    -0.362 OA
ATOM     23  C   UNL     1      24.141   2.904  25.492  1.00  0.00     0.177 C 
ATOM     24  C   UNL     1      22.425   4.768  25.168  1.00  0.00     0.176 C 
ATOM     25  C   UNL     1      23.193   3.585  24.491  1.00  0.00     0.177 C 
BRANCH  21  26
ATOM     26  O   UNL     1      23.991   1.764  27.702  1.00  0.00    -0.387 OA
ATOM     27  H   UNL     1      24.151   2.229  28.562  1.00  0.00     0.211 HD
ENDBRANCH  21  26
BRANCH  23  28
ATOM     28  O   UNL     1      25.224   3.762  25.710  1.00  0.00    -0.387 OA
ATOM     29  H   UNL     1      25.531   3.649  26.649  1.00  0.00     0.211 HD
ENDBRANCH  23  28
BRANCH  24  30
ATOM     30  C   UNL     1      20.889   4.575  25.107  1.00  0.00     0.191 C 
BRANCH  30  31
ATOM     31  O   UNL     1      20.555   3.335  24.524  1.00  0.00    -0.394 OA
ATOM     32  H   UNL     1      21.275   2.691  24.771  1.00  0.00     0.210 HD
ENDBRANCH  30  31
ENDBRANCH  24  30
BRANCH  25  33
ATOM     33  O   UNL     1      23.912   4.054  23.371  1.00  0.00    -0.388 OA
ATOM     34  H   UNL     1      24.706   4.538  23.712  1.00  0.00     0.211 HD
ENDBRANCH  25  33
ENDBRANCH  11  20
BRANCH  10  35
ATOM     35  O   UNL     1      20.560   3.794  29.405  1.00  0.00    -0.507 OA
ATOM     36  H   UNL     1      19.835   3.525  30.059  1.00  0.00     0.293 HD
ENDBRANCH  10  35
TORSDOF 9
ENDMDL
MODEL 7
REMARK VINA RESULT:    -4.879      5.663      9.637
REMARK INTER + INTRA:          -7.660
REMARK INTER:                  -6.559
REMARK INTRA:                  -1.101
REMARK UNBOUND:                -1.070
REMARK SMILES O=c1c(-c2ccc(O)cc2)coc2c([C@H]3O[C@H](CO)[C@@H](O)[C@@H](O)[C@H]3O)c(O)ccc12
REMARK SMILES IDX 3 1 11 2 12 3 13 4 30 5 2 6 1 7 29 8 28 9 26 10 14 11 4 12
REMARK SMILES IDX 5 13 6 14 7 15 10 16 9 17 8 18 15 20 24 21 16 22 22 23 17 24
REMARK SMILES IDX 20 25 25 26 23 28 18 30 19 31 21 33 27 35
REMARK H PARENT 8 19 25 27 23 29 19 32 21 34 27 36
REMARK Flexibility Score: inf
ROOT
ATOM      1  C   UNL     1      17.208  -7.675  28.229  1.00  0.00     0.065 A 
ATOM      2  C   UNL     1      18.500  -7.212  28.495  1.00  0.00     0.208 A 
ATOM      3  O   UNL     1      18.708  -6.303  29.445  1.00  0.00    -0.463 OA
ATOM      4  C   UNL     1      17.741  -5.787  30.194  1.00  0.00     0.147 A 
ATOM      5  C   UNL     1      16.464  -6.406  30.144  1.00  0.00     0.066 A 
ATOM      6  C   UNL     1      16.184  -7.313  29.107  1.00  0.00     0.200 A 
ATOM      7  O   UNL     1      15.008  -7.740  28.938  1.00  0.00    -0.288 OA
ATOM      8  C   UNL     1      15.483  -6.067  31.072  1.00  0.00     0.020 A 
ATOM      9  C   UNL     1      15.762  -5.143  32.058  1.00  0.00     0.047 A 
ATOM     10  C   UNL     1      16.964  -4.442  32.060  1.00  0.00     0.125 A 
ATOM     11  C   UNL     1      17.946  -4.660  31.038  1.00  0.00     0.069 A 
ENDROOT
BRANCH   1  12
ATOM     12  C   UNL     1      16.861  -8.101  26.861  1.00  0.00    -0.011 A 
ATOM     13  C   UNL     1      16.931  -9.473  26.567  1.00  0.00     0.013 A 
ATOM     14  C   UNL     1      16.547  -9.963  25.319  1.00  0.00     0.047 A 
ATOM     15  C   UNL     1      16.118  -9.071  24.328  1.00  0.00     0.115 A 
ATOM     16  C   UNL     1      16.456  -7.202  25.865  1.00  0.00     0.013 A 
ATOM     17  C   UNL     1      16.125  -7.682  24.585  1.00  0.00     0.047 A 
BRANCH  15  18
ATOM     18  O   UNL     1      15.669  -9.568  23.103  1.00  0.00    -0.508 OA
ATOM     19  H   UNL     1      14.693  -9.792  22.933  1.00  0.00     0.293 HD
ENDBRANCH  15  18
ENDBRANCH   1  12
BRANCH  11  20
ATOM     20  C   UNL     1      18.883  -3.466  30.690  1.00  0.00     0.188 C 
ATOM     21  C   UNL     1      18.879  -2.677  29.327  1.00  0.00     0.179 C 
ATOM     22  O   UNL     1      20.216  -3.749  31.125  1.00  0.00    -0.362 OA
ATOM     23  C   UNL     1      20.321  -2.604  28.727  1.00  0.00     0.177 C 
ATOM     24  C   UNL     1      21.052  -2.584  31.175  1.00  0.00     0.176 C 
ATOM     25  C   UNL     1      21.236  -1.932  29.765  1.00  0.00     0.177 C 
BRANCH  21  26
ATOM     26  O   UNL     1      17.887  -3.025  28.402  1.00  0.00    -0.387 OA
ATOM     27  H   UNL     1      17.150  -3.513  28.852  1.00  0.00     0.211 HD
ENDBRANCH  21  26
BRANCH  23  28
ATOM     28  O   UNL     1      20.848  -3.869  28.446  1.00  0.00    -0.387 OA
ATOM     29  H   UNL     1      20.769  -4.032  27.469  1.00  0.00     0.211 HD
ENDBRANCH  23  28
BRANCH  24  30
ATOM     30  C   UNL     1      20.602  -1.552  32.239  1.00  0.00     0.191 C 
BRANCH  30  31
ATOM     31  O   UNL     1      20.307  -0.307  31.647  1.00  0.00    -0.394 OA
ATOM     32  H   UNL     1      20.052  -0.485  30.699  1.00  0.00     0.210 HD
ENDBRANCH  30  31
ENDBRANCH  24  30
BRANCH  25  33
ATOM     33  O   UNL     1      22.586  -2.021  29.364  1.00  0.00    -0.388 OA
ATOM     34  H   UNL     1      23.143  -1.847  30.164  1.00  0.00     0.211 HD
ENDBRANCH  25  33
ENDBRANCH  11  20
BRANCH  10  35
ATOM     35  O   UNL     1      17.123  -3.506  33.079  1.00  0.00    -0.507 OA
ATOM     36  H   UNL     1      16.362  -3.200  33.673  1.00  0.00     0.293 HD
ENDBRANCH  10  35
TORSDOF 9
ENDMDL
MODEL 8
REMARK VINA RESULT:    -4.873      1.841      2.866
REMARK INTER + INTRA:          -7.653
REMARK INTER:                  -6.529
REMARK INTRA:                  -1.123
REMARK UNBOUND:                -1.070
REMARK SMILES O=c1c(-c2ccc(O)cc2)coc2c([C@H]3O[C@H](CO)[C@@H](O)[C@@H](O)[C@H]3O)c(O)ccc12
REMARK SMILES IDX 3 1 11 2 12 3 13 4 30 5 2 6 1 7 29 8 28 9 26 10 14 11 4 12
REMARK SMILES IDX 5 13 6 14 7 15 10 16 9 17 8 18 15 20 24 21 16 22 22 23 17 24
REMARK SMILES IDX 20 25 25 26 23 28 18 30 19 31 21 33 27 35
REMARK H PARENT 8 19 25 27 23 29 19 32 21 34 27 36
REMARK Flexibility Score: inf
ROOT
ATOM      1  C   UNL     1      20.564  -2.521  29.938  1.00  0.00     0.065 A 
ATOM      2  C   UNL     1      21.534  -2.253  28.968  1.00  0.00     0.208 A 
ATOM      3  O   UNL     1      22.274  -1.148  29.041  1.00  0.00    -0.463 OA
ATOM      4  C   UNL     1      22.159  -0.249  30.011  1.00  0.00     0.147 A 
ATOM      5  C   UNL     1      21.381  -0.597  31.147  1.00  0.00     0.066 A 
ATOM      6  C   UNL     1      20.529  -1.714  31.077  1.00  0.00     0.200 A 
ATOM      7  O   UNL     1      19.703  -1.940  32.004  1.00  0.00    -0.288 OA
ATOM      8  C   UNL     1      21.415   0.196  32.291  1.00  0.00     0.020 A 
ATOM      9  C   UNL     1      22.226   1.313  32.326  1.00  0.00     0.047 A 
ATOM     10  C   UNL     1      22.908   1.736  31.190  1.00  0.00     0.125 A 
ATOM     11  C   UNL     1      22.788   1.026  29.951  1.00  0.00     0.069 A 
ENDROOT
BRANCH   1  12
ATOM     12  C   UNL     1      19.359  -3.282  29.562  1.00  0.00    -0.011 A 
ATOM     13  C   UNL     1      19.367  -4.669  29.783  1.00  0.00     0.013 A 
ATOM     14  C   UNL     1      18.237  -5.446  29.524  1.00  0.00     0.047 A 
ATOM     15  C   UNL     1      17.087  -4.842  29.001  1.00  0.00     0.115 A 
ATOM     16  C   UNL     1      18.219  -2.676  29.016  1.00  0.00     0.013 A 
ATOM     17  C   UNL     1      17.097  -3.463  28.695  1.00  0.00     0.047 A 
BRANCH  15  18
ATOM     18  O   UNL     1      15.936  -5.608  28.806  1.00  0.00    -0.508 OA
ATOM     19  H   UNL     1      15.944  -6.622  28.863  1.00  0.00     0.293 HD
ENDBRANCH  15  18
ENDBRANCH   1  12
BRANCH  11  20
ATOM     20  C   UNL     1      22.974   1.848  28.641  1.00  0.00     0.188 C 
ATOM     21  C   UNL     1      24.010   1.516  27.502  1.00  0.00     0.179 C 
ATOM     22  O   UNL     1      22.954   3.247  28.936  1.00  0.00    -0.362 OA
ATOM     23  C   UNL     1      24.871   2.774  27.157  1.00  0.00     0.177 C 
ATOM     24  C   UNL     1      22.755   4.066  27.775  1.00  0.00     0.176 C 
ATOM     25  C   UNL     1      23.917   3.906  26.740  1.00  0.00     0.177 C 
BRANCH  21  26
ATOM     26  O   UNL     1      24.747   0.335  27.647  1.00  0.00    -0.387 OA
ATOM     27  H   UNL     1      25.271   0.150  26.826  1.00  0.00     0.211 HD
ENDBRANCH  21  26
BRANCH  23  28
ATOM     28  O   UNL     1      25.621   3.226  28.248  1.00  0.00    -0.387 OA
ATOM     29  H   UNL     1      25.534   2.564  28.985  1.00  0.00     0.211 HD
ENDBRANCH  23  28
BRANCH  24  30
ATOM     30  C   UNL     1      21.363   3.876  27.122  1.00  0.00     0.191 C 
BRANCH  30  31
ATOM     31  O   UNL     1      21.480   3.341  25.823  1.00  0.00    -0.394 OA
ATOM     32  H   UNL     1      21.438   4.106  25.185  1.00  0.00     0.210 HD
ENDBRANCH  30  31
ENDBRANCH  24  30
BRANCH  25  33
ATOM     33  O   UNL     1      24.620   5.123  26.611  1.00  0.00    -0.388 OA
ATOM     34  H   UNL     1      23.973   5.806  26.302  1.00  0.00     0.211 HD
ENDBRANCH  25  33
ENDBRANCH  11  20
BRANCH  10  35
ATOM     35  O   UNL     1      23.664   2.897  31.330  1.00  0.00    -0.507 OA
ATOM     36  H   UNL     1      23.387   3.789  30.940  1.00  0.00     0.293 HD
ENDBRANCH  10  35
TORSDOF 9
ENDMDL
MODEL 9
REMARK VINA RESULT:    -4.805      7.608     13.958
REMARK INTER + INTRA:          -7.560
REMARK INTER:                  -6.446
REMARK INTRA:                  -1.114
REMARK UNBOUND:                -1.070
REMARK SMILES O=c1c(-c2ccc(O)cc2)coc2c([C@H]3O[C@H](CO)[C@@H](O)[C@@H](O)[C@H]3O)c(O)ccc12
REMARK SMILES IDX 3 1 11 2 12 3 13 4 30 5 2 6 1 7 29 8 28 9 26 10 14 11 4 12
REMARK SMILES IDX 5 13 6 14 7 15 10 16 9 17 8 18 15 20 24 21 16 22 22 23 17 24
REMARK SMILES IDX 20 25 25 26 23 28 18 30 19 31 21 33 27 35
REMARK H PARENT 8 19 25 27 23 29 19 32 21 34 27 36
REMARK Flexibility Score: inf
ROOT
ATOM      1  C   UNL     1      15.944  -6.134  28.233  1.00  0.00     0.065 A 
ATOM      2  C   UNL     1      15.251  -6.247  27.024  1.00  0.00     0.208 A 
ATOM      3  O   UNL     1      14.647  -7.387  26.696  1.00  0.00    -0.463 OA
ATOM      4  C   UNL     1      14.647  -8.468  27.467  1.00  0.00     0.147 A 
ATOM      5  C   UNL     1      15.108  -8.327  28.804  1.00  0.00     0.066 A 
ATOM      6  C   UNL     1      15.819  -7.168  29.163  1.00  0.00     0.200 A 
ATOM      7  O   UNL     1      16.387  -7.096  30.289  1.00  0.00    -0.288 OA
ATOM      8  C   UNL     1      14.913  -9.353  29.725  1.00  0.00     0.020 A 
ATOM      9  C   UNL     1      14.250 -10.501  29.342  1.00  0.00     0.047 A 
ATOM     10  C   UNL     1      13.891 -10.709  28.014  1.00  0.00     0.125 A 
ATOM     11  C   UNL     1      14.199  -9.737  27.007  1.00  0.00     0.069 A 
ENDROOT
BRANCH   1  12
ATOM     12  C   UNL     1      17.107  -5.232  28.318  1.00  0.00    -0.011 A 
ATOM     13  C   UNL     1      18.345  -5.721  27.871  1.00  0.00     0.013 A 
ATOM     14  C   UNL     1      19.476  -4.904  27.849  1.00  0.00     0.047 A 
ATOM     15  C   UNL     1      19.387  -3.585  28.314  1.00  0.00     0.115 A 
ATOM     16  C   UNL     1      17.017  -3.922  28.807  1.00  0.00     0.013 A 
ATOM     17  C   UNL     1      18.167  -3.112  28.845  1.00  0.00     0.047 A 
BRANCH  15  18
ATOM     18  O   UNL     1      20.501  -2.749  28.229  1.00  0.00    -0.508 OA
ATOM     19  H   UNL     1      21.149  -2.787  27.447  1.00  0.00     0.293 HD
ENDBRANCH  15  18
ENDBRANCH   1  12
BRANCH  11  20
ATOM     20  C   UNL     1      14.405 -10.263  25.555  1.00  0.00     0.188 C 
ATOM     21  C   UNL     1      15.776 -10.273  24.780  1.00  0.00     0.179 C 
ATOM     22  O   UNL     1      13.336  -9.815  24.718  1.00  0.00    -0.362 OA
ATOM     23  C   UNL     1      15.622  -9.597  23.379  1.00  0.00     0.177 C 
ATOM     24  C   UNL     1      13.249 -10.536  23.480  1.00  0.00     0.176 C 
ATOM     25  C   UNL     1      14.530 -10.352  22.602  1.00  0.00     0.177 C 
BRANCH  21  26
ATOM     26  O   UNL     1      16.906  -9.863  25.497  1.00  0.00    -0.387 OA
ATOM     27  H   UNL     1      16.653  -9.588  26.416  1.00  0.00     0.211 HD
ENDBRANCH  21  26
BRANCH  23  28
ATOM     28  O   UNL     1      15.235  -8.256  23.471  1.00  0.00    -0.387 OA
ATOM     29  H   UNL     1      15.844  -7.795  24.107  1.00  0.00     0.211 HD
ENDBRANCH  23  28
BRANCH  24  30
ATOM     30  C   UNL     1      12.879 -12.028  23.665  1.00  0.00     0.191 C 
BRANCH  30  31
ATOM     31  O   UNL     1      13.856 -12.869  23.093  1.00  0.00    -0.394 OA
ATOM     32  H   UNL     1      14.649 -12.853  23.698  1.00  0.00     0.210 HD
ENDBRANCH  30  31
ENDBRANCH  24  30
BRANCH  25  33
ATOM     33  O   UNL     1      14.206  -9.665  21.413  1.00  0.00    -0.388 OA
ATOM     34  H   UNL     1      14.204  -8.697  21.623  1.00  0.00     0.211 HD
ENDBRANCH  25  33
ENDBRANCH  11  20
BRANCH  10  35
ATOM     35  O   UNL     1      13.261 -11.919  27.735  1.00  0.00    -0.507 OA
ATOM     36  H   UNL     1      12.451 -12.252  28.243  1.00  0.00     0.293 HD
ENDBRANCH  10  35
TORSDOF 9
ENDMDL
