MODEL 1
REMARK VINA RESULT:    -5.672      0.000      0.000
REMARK INTER + INTRA:          -6.097
REMARK INTER:                  -6.004
REMARK INTRA:                  -0.093
REMARK UNBOUND:                -0.093
REMARK SMILES C=C(C)[C@@H]1CC=C(C)C(=O)C1
REMARK SMILES IDX 8 1 7 2 6 3 5 4 4 5 11 6 9 7 10 8 2 9 1 10 3 11
REMARK H PARENT
REMARK Flexibility Score: inf
ROOT
ATOM      1  C   UNL     1     -12.482 -20.658  31.787  1.00  0.00     0.048 C 
ATOM      2  C   UNL     1     -12.783 -19.540  30.828  1.00  0.00    -0.012 C 
ATOM      3  C   UNL     1     -13.163 -19.822  29.570  1.00  0.00    -0.019 C 
ATOM      4  C   UNL     1     -13.494 -18.742  28.575  1.00  0.00     0.036 C 
ATOM      5  C   UNL     1     -12.639 -17.483  28.818  1.00  0.00     0.025 C 
ATOM      6  C   UNL     1     -12.796 -17.004  30.272  1.00  0.00     0.089 C 
ATOM      7  C   UNL     1     -12.538 -18.133  31.233  1.00  0.00     0.158 C 
ATOM      8  O   UNL     1     -12.147 -17.868  32.401  1.00  0.00    -0.295 OA
ENDROOT
BRANCH   5   9
ATOM      9  C   UNL     1     -12.980 -16.378  27.828  1.00  0.00    -0.077 C 
ATOM     10  C   UNL     1     -12.916 -16.615  26.507  1.00  0.00     0.008 C 
ATOM     11  C   UNL     1     -13.393 -15.004  28.294  1.00  0.00     0.039 C 
ENDBRANCH   5   9
TORSDOF 1
ENDMDL
MODEL 2
REMARK VINA RESULT:    -5.672      0.148      1.055
REMARK INTER + INTRA:          -6.097
REMARK INTER:                  -5.998
REMARK INTRA:                  -0.099
REMARK UNBOUND:                -0.093
REMARK SMILES C=C(C)[C@@H]1CC=C(C)C(=O)C1
REMARK SMILES IDX 8 1 7 2 6 3 5 4 4 5 11 6 9 7 10 8 2 9 1 10 3 11
REMARK H PARENT
REMARK Flexibility Score: inf
ROOT
ATOM      1  C   UNL     1     -12.490 -20.536  31.922  1.00  0.00     0.048 C 
ATOM      2  C   UNL     1     -12.770 -19.446  30.924  1.00  0.00    -0.012 C 
ATOM      3  C   UNL     1     -13.075 -19.763  29.654  1.00  0.00    -0.019 C 
ATOM      4  C   UNL     1     -13.381 -18.713  28.620  1.00  0.00     0.036 C 
ATOM      5  C   UNL     1     -12.574 -17.427  28.881  1.00  0.00     0.025 C 
ATOM      6  C   UNL     1     -12.821 -16.923  30.314  1.00  0.00     0.089 C 
ATOM      7  C   UNL     1     -12.585 -18.025  31.311  1.00  0.00     0.158 C 
ATOM      8  O   UNL     1     -12.263 -17.726  32.492  1.00  0.00    -0.295 OA
ENDROOT
BRANCH   5   9
ATOM      9  C   UNL     1     -12.892 -16.351  27.851  1.00  0.00    -0.077 C 
ATOM     10  C   UNL     1     -13.269 -15.126  28.252  1.00  0.00     0.008 C 
ATOM     11  C   UNL     1     -12.796 -16.626  26.371  1.00  0.00     0.039 C 
ENDBRANCH   5   9
TORSDOF 1
ENDMDL
MODEL 3
REMARK VINA RESULT:    -5.661      2.914      4.464
REMARK INTER + INTRA:          -6.086
REMARK INTER:                  -5.988
REMARK INTRA:                  -0.097
REMARK UNBOUND:                -0.093
REMARK SMILES C=C(C)[C@@H]1CC=C(C)C(=O)C1
REMARK SMILES IDX 8 1 7 2 6 3 5 4 4 5 11 6 9 7 10 8 2 9 1 10 3 11
REMARK H PARENT
REMARK Flexibility Score: inf
ROOT
ATOM      1  C   UNL     1     -11.302 -17.336  26.005  1.00  0.00     0.048 C 
ATOM      2  C   UNL     1     -11.618 -16.876  27.401  1.00  0.00    -0.012 C 
ATOM      3  C   UNL     1     -10.804 -17.212  28.417  1.00  0.00    -0.019 C 
ATOM      4  C   UNL     1     -11.063 -16.763  29.830  1.00  0.00     0.036 C 
ATOM      5  C   UNL     1     -12.574 -16.650  30.108  1.00  0.00     0.025 C 
ATOM      6  C   UNL     1     -13.240 -15.727  29.072  1.00  0.00     0.089 C 
ATOM      7  C   UNL     1     -12.889 -16.160  27.674  1.00  0.00     0.158 C 
ATOM      8  O   UNL     1     -13.671 -15.875  26.728  1.00  0.00    -0.295 OA
ENDROOT
BRANCH   5   9
ATOM      9  C   UNL     1     -12.846 -16.178  31.530  1.00  0.00    -0.077 C 
ATOM     10  C   UNL     1     -14.043 -15.657  31.848  1.00  0.00     0.008 C 
ATOM     11  C   UNL     1     -11.794 -16.276  32.607  1.00  0.00     0.039 C 
ENDBRANCH   5   9
TORSDOF 1
ENDMDL
MODEL 4
REMARK VINA RESULT:    -5.619      1.733      2.855
REMARK INTER + INTRA:          -6.041
REMARK INTER:                  -5.950
REMARK INTRA:                  -0.090
REMARK UNBOUND:                -0.093
REMARK SMILES C=C(C)[C@@H]1CC=C(C)C(=O)C1
REMARK SMILES IDX 8 1 7 2 6 3 5 4 4 5 11 6 9 7 10 8 2 9 1 10 3 11
REMARK H PARENT
REMARK Flexibility Score: inf
ROOT
ATOM      1  C   UNL     1     -11.154 -16.254  32.886  1.00  0.00     0.048 C 
ATOM      2  C   UNL     1     -11.398 -16.493  31.422  1.00  0.00    -0.012 C 
ATOM      3  C   UNL     1     -10.636 -15.871  30.505  1.00  0.00    -0.019 C 
ATOM      4  C   UNL     1     -10.826 -16.088  29.028  1.00  0.00     0.036 C 
ATOM      5  C   UNL     1     -12.306 -16.355  28.692  1.00  0.00     0.025 C 
ATOM      6  C   UNL     1     -12.839 -17.532  29.528  1.00  0.00     0.089 C 
ATOM      7  C   UNL     1     -12.556 -17.315  30.990  1.00  0.00     0.158 C 
ATOM      8  O   UNL     1     -13.293 -17.871  31.847  1.00  0.00    -0.295 OA
ENDROOT
BRANCH   5   9
ATOM      9  C   UNL     1     -12.505 -16.595  27.202  1.00  0.00    -0.077 C 
ATOM     10  C   UNL     1     -13.658 -16.240  26.611  1.00  0.00     0.008 C 
ATOM     11  C   UNL     1     -11.429 -17.232  26.357  1.00  0.00     0.039 C 
ENDBRANCH   5   9
TORSDOF 1
ENDMDL
MODEL 5
REMARK VINA RESULT:    -5.499      2.143      3.641
REMARK INTER + INTRA:          -5.914
REMARK INTER:                  -5.816
REMARK INTRA:                  -0.097
REMARK UNBOUND:                -0.093
REMARK SMILES C=C(C)[C@@H]1CC=C(C)C(=O)C1
REMARK SMILES IDX 8 1 7 2 6 3 5 4 4 5 11 6 9 7 10 8 2 9 1 10 3 11
REMARK H PARENT
REMARK Flexibility Score: inf
ROOT
ATOM      1  C   UNL     1     -13.708 -20.684  28.614  1.00  0.00     0.048 C 
ATOM      2  C   UNL     1     -13.327 -19.583  29.563  1.00  0.00    -0.012 C 
ATOM      3  C   UNL     1     -13.245 -19.834  30.882  1.00  0.00    -0.019 C 
ATOM      4  C   UNL     1     -12.851 -18.773  31.874  1.00  0.00     0.036 C 
ATOM      5  C   UNL     1     -13.337 -17.382  31.421  1.00  0.00     0.025 C 
ATOM      6  C   UNL     1     -12.825 -17.073  30.003  1.00  0.00     0.089 C 
ATOM      7  C   UNL     1     -13.167 -18.195  29.060  1.00  0.00     0.158 C 
ATOM      8  O   UNL     1     -13.279 -17.951  27.830  1.00  0.00    -0.295 OA
ENDROOT
BRANCH   5   9
ATOM      9  C   UNL     1     -12.926 -16.299  32.409  1.00  0.00    -0.077 C 
ATOM     10  C   UNL     1     -11.659 -16.236  32.849  1.00  0.00     0.008 C 
ATOM     11  C   UNL     1     -13.917 -15.281  32.918  1.00  0.00     0.039 C 
ENDBRANCH   5   9
TORSDOF 1
ENDMDL
MODEL 6
REMARK VINA RESULT:    -5.143      1.783      2.376
REMARK INTER + INTRA:          -5.536
REMARK INTER:                  -5.438
REMARK INTRA:                  -0.098
REMARK UNBOUND:                -0.093
REMARK SMILES C=C(C)[C@@H]1CC=C(C)C(=O)C1
REMARK SMILES IDX 8 1 7 2 6 3 5 4 4 5 11 6 9 7 10 8 2 9 1 10 3 11
REMARK H PARENT
REMARK Flexibility Score: inf
ROOT
ATOM      1  C   UNL     1     -12.486 -21.005  31.962  1.00  0.00     0.048 C 
ATOM      2  C   UNL     1     -12.230 -19.784  31.123  1.00  0.00    -0.012 C 
ATOM      3  C   UNL     1     -11.313 -18.882  31.515  1.00  0.00    -0.019 C 
ATOM      4  C   UNL     1     -11.004 -17.652  30.705  1.00  0.00     0.036 C 
ATOM      5  C   UNL     1     -12.257 -17.148  29.963  1.00  0.00     0.025 C 
ATOM      6  C   UNL     1     -12.858 -18.276  29.104  1.00  0.00     0.089 C 
ATOM      7  C   UNL     1     -13.074 -19.514  29.933  1.00  0.00     0.158 C 
ATOM      8  O   UNL     1     -13.959 -20.340  29.583  1.00  0.00    -0.295 OA
ENDROOT
BRANCH   5   9
ATOM      9  C   UNL     1     -11.950 -15.915  29.124  1.00  0.00    -0.077 C 
ATOM     10  C   UNL     1     -10.686 -15.472  29.018  1.00  0.00     0.008 C 
ATOM     11  C   UNL     1     -13.039 -15.165  28.399  1.00  0.00     0.039 C 
ENDBRANCH   5   9
TORSDOF 1
ENDMDL
MODEL 7
REMARK VINA RESULT:    -5.103      2.122      4.216
REMARK INTER + INTRA:          -5.494
REMARK INTER:                  -5.400
REMARK INTRA:                  -0.095
REMARK UNBOUND:                -0.093
REMARK SMILES C=C(C)[C@@H]1CC=C(C)C(=O)C1
REMARK SMILES IDX 8 1 7 2 6 3 5 4 4 5 11 6 9 7 10 8 2 9 1 10 3 11
REMARK H PARENT
REMARK Flexibility Score: inf
ROOT
ATOM      1  C   UNL     1     -11.786 -17.024  26.237  1.00  0.00     0.048 C 
ATOM      2  C   UNL     1     -12.450 -16.721  27.551  1.00  0.00    -0.012 C 
ATOM      3  C   UNL     1     -12.891 -15.477  27.807  1.00  0.00    -0.019 C 
ATOM      4  C   UNL     1     -13.578 -15.123  29.099  1.00  0.00     0.036 C 
ATOM      5  C   UNL     1     -13.025 -15.960  30.268  1.00  0.00     0.025 C 
ATOM      6  C   UNL     1     -13.128 -17.462  29.946  1.00  0.00     0.089 C 
ATOM      7  C   UNL     1     -12.503 -17.760  28.610  1.00  0.00     0.158 C 
ATOM      8  O   UNL     1     -12.057 -18.917  28.385  1.00  0.00    -0.295 OA
ENDROOT
BRANCH   5   9
ATOM      9  C   UNL     1     -13.728 -15.623  31.576  1.00  0.00    -0.077 C 
ATOM     10  C   UNL     1     -13.341 -16.213  32.719  1.00  0.00     0.008 C 
ATOM     11  C   UNL     1     -14.864 -14.632  31.626  1.00  0.00     0.039 C 
ENDBRANCH   5   9
TORSDOF 1
ENDMDL
MODEL 8
REMARK VINA RESULT:    -5.036      1.886      4.529
REMARK INTER + INTRA:          -5.424
REMARK INTER:                  -5.327
REMARK INTRA:                  -0.096
REMARK UNBOUND:                -0.093
REMARK SMILES C=C(C)[C@@H]1CC=C(C)C(=O)C1
REMARK SMILES IDX 8 1 7 2 6 3 5 4 4 5 11 6 9 7 10 8 2 9 1 10 3 11
REMARK H PARENT
REMARK Flexibility Score: inf
ROOT
ATOM      1  C   UNL     1     -13.642 -14.701  28.270  1.00  0.00     0.048 C 
ATOM      2  C   UNL     1     -13.041 -15.700  29.220  1.00  0.00    -0.012 C 
ATOM      3  C   UNL     1     -12.168 -16.615  28.765  1.00  0.00    -0.019 C 
ATOM      4  C   UNL     1     -11.523 -17.626  29.675  1.00  0.00     0.036 C 
ATOM      5  C   UNL     1     -12.473 -18.025  30.821  1.00  0.00     0.025 C 
ATOM      6  C   UNL     1     -12.947 -16.774  31.582  1.00  0.00     0.089 C 
ATOM      7  C   UNL     1     -13.508 -15.754  30.628  1.00  0.00     0.158 C 
ATOM      8  O   UNL     1     -14.354 -14.920  31.048  1.00  0.00    -0.295 OA
ENDROOT
BRANCH   5   9
ATOM      9  C   UNL     1     -11.822 -19.033  31.759  1.00  0.00    -0.077 C 
ATOM     10  C   UNL     1     -10.777 -18.668  32.518  1.00  0.00     0.008 C 
ATOM     11  C   UNL     1     -12.325 -20.452  31.859  1.00  0.00     0.039 C 
ENDBRANCH   5   9
TORSDOF 1
ENDMDL
MODEL 9
REMARK VINA RESULT:    -4.986      2.225      4.591
REMARK INTER + INTRA:          -5.371
REMARK INTER:                  -5.274
REMARK INTRA:                  -0.097
REMARK UNBOUND:                -0.093
REMARK SMILES C=C(C)[C@@H]1CC=C(C)C(=O)C1
REMARK SMILES IDX 8 1 7 2 6 3 5 4 4 5 11 6 9 7 10 8 2 9 1 10 3 11
REMARK H PARENT
REMARK Flexibility Score: inf
ROOT
ATOM      1  C   UNL     1     -12.014 -17.000  26.419  1.00  0.00     0.048 C 
ATOM      2  C   UNL     1     -11.926 -16.866  27.914  1.00  0.00    -0.012 C 
ATOM      3  C   UNL     1     -10.964 -16.103  28.462  1.00  0.00    -0.019 C 
ATOM      4  C   UNL     1     -10.841 -15.919  29.950  1.00  0.00     0.036 C 
ATOM      5  C   UNL     1     -11.292 -17.185  30.704  1.00  0.00     0.025 C 
ATOM      6  C   UNL     1     -12.718 -17.579  30.281  1.00  0.00     0.089 C 
ATOM      7  C   UNL     1     -12.820 -17.672  28.783  1.00  0.00     0.158 C 
ATOM      8  O   UNL     1     -13.699 -18.415  28.271  1.00  0.00    -0.295 OA
ENDROOT
BRANCH   5   9
ATOM      9  C   UNL     1     -11.190 -17.002  32.213  1.00  0.00    -0.077 C 
ATOM     10  C   UNL     1     -12.014 -16.149  32.844  1.00  0.00     0.008 C 
ATOM     11  C   UNL     1     -10.174 -17.760  33.031  1.00  0.00     0.039 C 
ENDBRANCH   5   9
TORSDOF 1
ENDMDL
