MODEL 1
REMARK VINA RESULT:    -6.255      0.000      0.000
REMARK INTER + INTRA:         -10.656
REMARK INTER:                  -9.545
REMARK INTRA:                  -1.111
REMARK UNBOUND:                -1.111
REMARK SMILES CC(=O)CCC=C(C)CCC=C(C)CCC=C(C)C
REMARK SMILES IDX 10 1 11 2 12 3 13 4 14 5 15 6 16 7 18 8 17 9 19 10 9 11 7 12
REMARK SMILES IDX 6 13 8 14 5 15 4 16 2 17 3 18 1 19
REMARK H PARENT
REMARK Flexibility Score: inf
ROOT
ATOM      1  C   UNL     1      -0.991  27.497  32.062  1.00  0.00     0.032 C 
ENDROOT
BRANCH   1   2
ATOM      2  C   UNL     1      -0.348  28.841  32.305  1.00  0.00    -0.028 C 
ATOM      3  C   UNL     1       0.155  29.211  33.503  1.00  0.00    -0.077 C 
ATOM      4  C   UNL     1       0.114  28.284  34.695  1.00  0.00     0.039 C 
BRANCH   3   5
ATOM      5  C   UNL     1       0.785  30.580  33.648  1.00  0.00     0.034 C 
BRANCH   5   6
ATOM      6  C   UNL     1       2.152  30.627  32.956  1.00  0.00     0.032 C 
BRANCH   6   7
ATOM      7  C   UNL     1       3.003  29.456  33.373  1.00  0.00    -0.028 C 
ATOM      8  C   UNL     1       4.195  27.321  33.121  1.00  0.00     0.039 C 
ATOM      9  C   UNL     1       3.373  28.449  32.551  1.00  0.00    -0.080 C 
ATOM     10  C   UNL     1       3.002  28.435  31.086  1.00  0.00     0.039 C 
ENDBRANCH   6   7
ENDBRANCH   5   6
ENDBRANCH   3   5
ENDBRANCH   1   2
BRANCH   1  11
ATOM     11  C   UNL     1      -1.205  27.246  30.565  1.00  0.00     0.034 C 
BRANCH  11  12
ATOM     12  C   UNL     1      -2.330  26.260  30.339  1.00  0.00    -0.077 C 
ATOM     13  C   UNL     1      -3.313  26.156  31.261  1.00  0.00    -0.028 C 
ATOM     14  C   UNL     1      -2.329  25.406  29.092  1.00  0.00     0.039 C 
BRANCH  13  15
ATOM     15  C   UNL     1      -4.477  25.205  31.121  1.00  0.00     0.035 C 
BRANCH  15  16
ATOM     16  C   UNL     1      -4.229  23.908  31.898  1.00  0.00     0.079 C 
BRANCH  16  17
ATOM     17  C   UNL     1      -5.431  23.547  32.730  1.00  0.00     0.130 C 
ATOM     18  O   UNL     1      -5.702  22.370  32.918  1.00  0.00    -0.300 OA
ATOM     19  C   UNL     1      -6.317  24.603  33.325  1.00  0.00     0.087 C 
ENDBRANCH  16  17
ENDBRANCH  15  16
ENDBRANCH  13  15
ENDBRANCH  11  12
ENDBRANCH   1  11
TORSDOF 9
ENDMDL
MODEL 2
REMARK VINA RESULT:    -6.230      4.690      6.971
REMARK INTER + INTRA:         -10.619
REMARK INTER:                  -9.349
REMARK INTRA:                  -1.269
REMARK UNBOUND:                -1.111
REMARK SMILES CC(=O)CCC=C(C)CCC=C(C)CCC=C(C)C
REMARK SMILES IDX 10 1 11 2 12 3 13 4 14 5 15 6 16 7 18 8 17 9 19 10 9 11 7 12
REMARK SMILES IDX 6 13 8 14 5 15 4 16 2 17 3 18 1 19
REMARK H PARENT
REMARK Flexibility Score: inf
ROOT
ATOM      1  C   UNL     1       2.382  28.488  29.145  1.00  0.00     0.032 C 
ENDROOT
BRANCH   1   2
ATOM      2  C   UNL     1       3.637  27.973  29.805  1.00  0.00    -0.028 C 
ATOM      3  C   UNL     1       3.923  26.657  29.920  1.00  0.00    -0.077 C 
ATOM      4  C   UNL     1       2.992  25.599  29.379  1.00  0.00     0.039 C 
BRANCH   3   5
ATOM      5  C   UNL     1       5.211  26.239  30.597  1.00  0.00     0.034 C 
BRANCH   5   6
ATOM      6  C   UNL     1       6.268  25.844  29.560  1.00  0.00     0.032 C 
BRANCH   6   7
ATOM      7  C   UNL     1       7.079  24.669  30.044  1.00  0.00    -0.028 C 
ATOM      8  C   UNL     1       7.685  22.306  30.341  1.00  0.00     0.039 C 
ATOM      9  C   UNL     1       6.806  23.379  29.751  1.00  0.00    -0.080 C 
ATOM     10  C   UNL     1       5.664  22.990  28.842  1.00  0.00     0.039 C 
ENDBRANCH   6   7
ENDBRANCH   5   6
ENDBRANCH   3   5
ENDBRANCH   1   2
BRANCH   1  11
ATOM     11  C   UNL     1       2.189  29.986  29.407  1.00  0.00     0.034 C 
BRANCH  11  12
ATOM     12  C   UNL     1       1.578  30.221  30.771  1.00  0.00    -0.077 C 
ATOM     13  C   UNL     1       2.369  30.632  31.788  1.00  0.00    -0.028 C 
ATOM     14  C   UNL     1       0.099  29.983  30.972  1.00  0.00     0.039 C 
BRANCH  13  15
ATOM     15  C   UNL     1       1.850  30.894  33.181  1.00  0.00     0.035 C 
BRANCH  15  16
ATOM     16  C   UNL     1       2.405  29.874  34.181  1.00  0.00     0.079 C 
BRANCH  16  17
ATOM     17  C   UNL     1       1.559  28.629  34.197  1.00  0.00     0.130 C 
ATOM     18  O   UNL     1       2.050  27.564  33.852  1.00  0.00    -0.300 OA
ATOM     19  C   UNL     1       0.119  28.667  34.615  1.00  0.00     0.087 C 
ENDBRANCH  16  17
ENDBRANCH  15  16
ENDBRANCH  13  15
ENDBRANCH  11  12
ENDBRANCH   1  11
TORSDOF 9
ENDMDL
MODEL 3
REMARK VINA RESULT:    -6.036      1.257      1.730
REMARK INTER + INTRA:         -10.322
REMARK INTER:                  -8.994
REMARK INTRA:                  -1.329
REMARK UNBOUND:                -1.111
REMARK SMILES CC(=O)CCC=C(C)CCC=C(C)CCC=C(C)C
REMARK SMILES IDX 10 1 11 2 12 3 13 4 14 5 15 6 16 7 18 8 17 9 19 10 9 11 7 12
REMARK SMILES IDX 6 13 8 14 5 15 4 16 2 17 3 18 1 19
REMARK H PARENT
REMARK Flexibility Score: inf
ROOT
ATOM      1  C   UNL     1      -1.036  27.711  32.048  1.00  0.00     0.032 C 
ENDROOT
BRANCH   1   2
ATOM      2  C   UNL     1      -0.271  28.989  32.292  1.00  0.00    -0.028 C 
ATOM      3  C   UNL     1       0.206  29.342  33.506  1.00  0.00    -0.077 C 
ATOM      4  C   UNL     1       0.009  28.461  34.716  1.00  0.00     0.039 C 
BRANCH   3   5
ATOM      5  C   UNL     1       0.966  30.643  33.650  1.00  0.00     0.034 C 
BRANCH   5   6
ATOM      6  C   UNL     1       2.293  30.588  32.886  1.00  0.00     0.032 C 
BRANCH   6   7
ATOM      7  C   UNL     1       3.110  29.398  33.320  1.00  0.00    -0.028 C 
ATOM      8  C   UNL     1       4.227  27.220  33.102  1.00  0.00     0.039 C 
ATOM      9  C   UNL     1       3.436  28.362  32.517  1.00  0.00    -0.080 C 
ATOM     10  C   UNL     1       3.047  28.327  31.057  1.00  0.00     0.039 C 
ENDBRANCH   6   7
ENDBRANCH   5   6
ENDBRANCH   3   5
ENDBRANCH   1   2
BRANCH   1  11
ATOM     11  C   UNL     1      -0.907  27.255  30.590  1.00  0.00     0.034 C 
BRANCH  11  12
ATOM     12  C   UNL     1      -2.125  26.467  30.162  1.00  0.00    -0.077 C 
ATOM     13  C   UNL     1      -2.006  25.548  29.178  1.00  0.00    -0.028 C 
ATOM     14  C   UNL     1      -3.452  26.728  30.836  1.00  0.00     0.039 C 
BRANCH  13  15
ATOM     15  C   UNL     1      -3.163  24.712  28.685  1.00  0.00     0.035 C 
BRANCH  15  16
ATOM     16  C   UNL     1      -3.160  23.324  29.334  1.00  0.00     0.079 C 
BRANCH  16  17
ATOM     17  C   UNL     1      -4.286  23.197  30.326  1.00  0.00     0.130 C 
ATOM     18  O   UNL     1      -5.434  23.416  29.965  1.00  0.00    -0.300 OA
ATOM     19  C   UNL     1      -4.031  22.820  31.756  1.00  0.00     0.087 C 
ENDBRANCH  16  17
ENDBRANCH  15  16
ENDBRANCH  13  15
ENDBRANCH  11  12
ENDBRANCH   1  11
TORSDOF 9
ENDMDL
MODEL 4
REMARK VINA RESULT:    -5.939      2.784      5.106
REMARK INTER + INTRA:         -10.174
REMARK INTER:                  -8.979
REMARK INTRA:                  -1.195
REMARK UNBOUND:                -1.111
REMARK SMILES CC(=O)CCC=C(C)CCC=C(C)CCC=C(C)C
REMARK SMILES IDX 10 1 11 2 12 3 13 4 14 5 15 6 16 7 18 8 17 9 19 10 9 11 7 12
REMARK SMILES IDX 6 13 8 14 5 15 4 16 2 17 3 18 1 19
REMARK H PARENT
REMARK Flexibility Score: inf
ROOT
ATOM      1  C   UNL     1       2.392  30.428  32.462  1.00  0.00     0.032 C 
ENDROOT
BRANCH   1   2
ATOM      2  C   UNL     1       3.189  29.147  32.514  1.00  0.00    -0.028 C 
ATOM      3  C   UNL     1       3.306  28.309  31.461  1.00  0.00    -0.077 C 
ATOM      4  C   UNL     1       2.641  28.608  30.138  1.00  0.00     0.039 C 
BRANCH   3   5
ATOM      5  C   UNL     1       4.131  27.048  31.610  1.00  0.00     0.034 C 
BRANCH   5   6
ATOM      6  C   UNL     1       4.394  26.404  30.244  1.00  0.00     0.032 C 
BRANCH   6   7
ATOM      7  C   UNL     1       5.049  25.056  30.406  1.00  0.00    -0.028 C 
ATOM      8  C   UNL     1       6.789  23.340  30.147  1.00  0.00     0.039 C 
ATOM      9  C   UNL     1       6.279  24.744  29.945  1.00  0.00    -0.080 C 
ATOM     10  C   UNL     1       7.157  25.763  29.255  1.00  0.00     0.039 C 
ENDBRANCH   6   7
ENDBRANCH   5   6
ENDBRANCH   3   5
ENDBRANCH   1   2
BRANCH   1  11
ATOM     11  C   UNL     1       1.319  30.461  33.556  1.00  0.00     0.034 C 
BRANCH  11  12
ATOM     12  C   UNL     1       0.442  29.230  33.489  1.00  0.00    -0.077 C 
ATOM     13  C   UNL     1      -0.238  28.963  32.351  1.00  0.00    -0.028 C 
ATOM     14  C   UNL     1       0.337  28.328  34.697  1.00  0.00     0.039 C 
BRANCH  13  15
ATOM     15  C   UNL     1      -1.133  27.759  32.189  1.00  0.00     0.035 C 
BRANCH  15  16
ATOM     16  C   UNL     1      -1.093  27.227  30.753  1.00  0.00     0.079 C 
BRANCH  16  17
ATOM     17  C   UNL     1      -2.455  26.750  30.323  1.00  0.00     0.130 C 
ATOM     18  O   UNL     1      -2.830  26.953  29.177  1.00  0.00    -0.300 OA
ATOM     19  C   UNL     1      -3.372  26.039  31.275  1.00  0.00     0.087 C 
ENDBRANCH  16  17
ENDBRANCH  15  16
ENDBRANCH  13  15
ENDBRANCH  11  12
ENDBRANCH   1  11
TORSDOF 9
ENDMDL
MODEL 5
REMARK VINA RESULT:    -5.938      2.695      7.333
REMARK INTER + INTRA:         -10.173
REMARK INTER:                  -8.871
REMARK INTRA:                  -1.303
REMARK UNBOUND:                -1.111
REMARK SMILES CC(=O)CCC=C(C)CCC=C(C)CCC=C(C)C
REMARK SMILES IDX 10 1 11 2 12 3 13 4 14 5 15 6 16 7 18 8 17 9 19 10 9 11 7 12
REMARK SMILES IDX 6 13 8 14 5 15 4 16 2 17 3 18 1 19
REMARK H PARENT
REMARK Flexibility Score: inf
ROOT
ATOM      1  C   UNL     1       0.449  27.158  29.365  1.00  0.00     0.032 C 
ENDROOT
BRANCH   1   2
ATOM      2  C   UNL     1      -1.032  26.879  29.286  1.00  0.00    -0.028 C 
ATOM      3  C   UNL     1      -1.851  26.938  30.358  1.00  0.00    -0.077 C 
ATOM      4  C   UNL     1      -1.331  27.302  31.728  1.00  0.00     0.039 C 
BRANCH   3   5
ATOM      5  C   UNL     1      -3.325  26.645  30.177  1.00  0.00     0.034 C 
BRANCH   5   6
ATOM      6  C   UNL     1      -3.873  25.847  31.365  1.00  0.00     0.032 C 
BRANCH   6   7
ATOM      7  C   UNL     1      -3.700  24.366  31.139  1.00  0.00    -0.028 C 
ATOM      8  C   UNL     1      -4.005  21.963  31.555  1.00  0.00     0.039 C 
ATOM      9  C   UNL     1      -4.304  23.406  31.873  1.00  0.00    -0.080 C 
ATOM     10  C   UNL     1      -5.277  23.739  32.980  1.00  0.00     0.039 C 
ENDBRANCH   6   7
ENDBRANCH   5   6
ENDBRANCH   3   5
ENDBRANCH   1   2
BRANCH   1  11
ATOM     11  C   UNL     1       0.743  28.655  29.211  1.00  0.00     0.034 C 
BRANCH  11  12
ATOM     12  C   UNL     1       1.642  29.146  30.324  1.00  0.00    -0.077 C 
ATOM     13  C   UNL     1       1.249  30.197  31.077  1.00  0.00    -0.028 C 
ATOM     14  C   UNL     1       2.966  28.457  30.565  1.00  0.00     0.039 C 
BRANCH  13  15
ATOM     15  C   UNL     1       2.076  30.755  32.209  1.00  0.00     0.035 C 
BRANCH  15  16
ATOM     16  C   UNL     1       1.320  30.678  33.540  1.00  0.00     0.079 C 
BRANCH  16  17
ATOM     17  C   UNL     1       1.345  29.276  34.087  1.00  0.00     0.130 C 
ATOM     18  O   UNL     1       2.381  28.629  34.040  1.00  0.00    -0.300 OA
ATOM     19  C   UNL     1       0.119  28.644  34.679  1.00  0.00     0.087 C 
ENDBRANCH  16  17
ENDBRANCH  15  16
ENDBRANCH  13  15
ENDBRANCH  11  12
ENDBRANCH   1  11
TORSDOF 9
ENDMDL
MODEL 6
REMARK VINA RESULT:    -5.937      3.132      7.988
REMARK INTER + INTRA:         -10.171
REMARK INTER:                  -8.939
REMARK INTRA:                  -1.232
REMARK UNBOUND:                -1.111
REMARK SMILES CC(=O)CCC=C(C)CCC=C(C)CCC=C(C)C
REMARK SMILES IDX 10 1 11 2 12 3 13 4 14 5 15 6 16 7 18 8 17 9 19 10 9 11 7 12
REMARK SMILES IDX 6 13 8 14 5 15 4 16 2 17 3 18 1 19
REMARK H PARENT
REMARK Flexibility Score: inf
ROOT
ATOM      1  C   UNL     1      -2.713  26.959  30.889  1.00  0.00     0.032 C 
ENDROOT
BRANCH   1   2
ATOM      2  C   UNL     1      -3.067  25.662  31.574  1.00  0.00    -0.028 C 
ATOM      3  C   UNL     1      -4.322  25.163  31.604  1.00  0.00    -0.077 C 
ATOM      4  C   UNL     1      -5.471  25.880  30.935  1.00  0.00     0.039 C 
BRANCH   3   5
ATOM      5  C   UNL     1      -4.578  23.851  32.314  1.00  0.00     0.034 C 
BRANCH   5   6
ATOM      6  C   UNL     1      -5.302  22.864  31.392  1.00  0.00     0.032 C 
BRANCH   6   7
ATOM      7  C   UNL     1      -4.470  21.626  31.176  1.00  0.00    -0.028 C 
ATOM      8  C   UNL     1      -2.900  20.129  30.022  1.00  0.00     0.039 C 
ATOM      9  C   UNL     1      -3.640  21.437  30.127  1.00  0.00    -0.080 C 
ATOM     10  C   UNL     1      -3.423  22.502  29.076  1.00  0.00     0.039 C 
ENDBRANCH   6   7
ENDBRANCH   5   6
ENDBRANCH   3   5
ENDBRANCH   1   2
BRANCH   1  11
ATOM     11  C   UNL     1      -1.196  27.104  30.722  1.00  0.00     0.034 C 
BRANCH  11  12
ATOM     12  C   UNL     1      -0.653  28.182  31.635  1.00  0.00    -0.077 C 
ATOM     13  C   UNL     1      -0.540  27.931  32.959  1.00  0.00    -0.028 C 
ATOM     14  C   UNL     1      -0.258  29.518  31.052  1.00  0.00     0.039 C 
BRANCH  13  15
ATOM     15  C   UNL     1      -0.008  28.942  33.946  1.00  0.00     0.035 C 
BRANCH  15  16
ATOM     16  C   UNL     1       1.394  28.558  34.432  1.00  0.00     0.079 C 
BRANCH  16  17
ATOM     17  C   UNL     1       2.440  29.418  33.773  1.00  0.00     0.130 C 
ATOM     18  O   UNL     1       3.549  28.953  33.551  1.00  0.00    -0.300 OA
ATOM     19  C   UNL     1       2.157  30.842  33.393  1.00  0.00     0.087 C 
ENDBRANCH  16  17
ENDBRANCH  15  16
ENDBRANCH  13  15
ENDBRANCH  11  12
ENDBRANCH   1  11
TORSDOF 9
ENDMDL
MODEL 7
REMARK VINA RESULT:    -5.906      3.406      5.073
REMARK INTER + INTRA:         -10.123
REMARK INTER:                  -8.126
REMARK INTRA:                  -1.997
REMARK UNBOUND:                -1.111
REMARK SMILES CC(=O)CCC=C(C)CCC=C(C)CCC=C(C)C
REMARK SMILES IDX 10 1 11 2 12 3 13 4 14 5 15 6 16 7 18 8 17 9 19 10 9 11 7 12
REMARK SMILES IDX 6 13 8 14 5 15 4 16 2 17 3 18 1 19
REMARK H PARENT
REMARK Flexibility Score: inf
ROOT
ATOM      1  C   UNL     1      -0.942  27.392  32.070  1.00  0.00     0.032 C 
ENDROOT
BRANCH   1   2
ATOM      2  C   UNL     1      -0.454  28.767  32.454  1.00  0.00    -0.028 C 
ATOM      3  C   UNL     1       0.263  29.009  33.574  1.00  0.00    -0.077 C 
ATOM      4  C   UNL     1       0.636  27.897  34.526  1.00  0.00     0.039 C 
BRANCH   3   5
ATOM      5  C   UNL     1       0.712  30.424  33.871  1.00  0.00     0.034 C 
BRANCH   5   6
ATOM      6  C   UNL     1       2.146  30.655  33.384  1.00  0.00     0.032 C 
BRANCH   6   7
ATOM      7  C   UNL     1       2.172  30.895  31.895  1.00  0.00    -0.028 C 
ATOM      8  C   UNL     1       2.618  30.397  29.531  1.00  0.00     0.039 C 
ATOM      9  C   UNL     1       2.615  30.001  30.985  1.00  0.00    -0.080 C 
ATOM     10  C   UNL     1       3.086  28.621  31.382  1.00  0.00     0.039 C 
ENDBRANCH   6   7
ENDBRANCH   5   6
ENDBRANCH   3   5
ENDBRANCH   1   2
BRANCH   1  11
ATOM     11  C   UNL     1      -1.652  27.412  30.711  1.00  0.00     0.034 C 
BRANCH  11  12
ATOM     12  C   UNL     1      -0.665  27.654  29.590  1.00  0.00    -0.077 C 
ATOM     13  C   UNL     1       0.280  26.723  29.329  1.00  0.00    -0.028 C 
ATOM     14  C   UNL     1      -0.750  28.933  28.791  1.00  0.00     0.039 C 
BRANCH  13  15
ATOM     15  C   UNL     1       1.305  26.874  28.231  1.00  0.00     0.035 C 
BRANCH  15  16
ATOM     16  C   UNL     1       2.722  26.623  28.756  1.00  0.00     0.079 C 
BRANCH  16  17
ATOM     17  C   UNL     1       3.018  25.148  28.806  1.00  0.00     0.130 C 
ATOM     18  O   UNL     1       3.168  24.600  29.889  1.00  0.00    -0.300 OA
ATOM     19  C   UNL     1       3.149  24.333  27.552  1.00  0.00     0.087 C 
ENDBRANCH  16  17
ENDBRANCH  15  16
ENDBRANCH  13  15
ENDBRANCH  11  12
ENDBRANCH   1  11
TORSDOF 9
ENDMDL
MODEL 8
REMARK VINA RESULT:    -5.901      2.882      8.241
REMARK INTER + INTRA:         -10.116
REMARK INTER:                  -9.065
REMARK INTRA:                  -1.051
REMARK UNBOUND:                -1.111
REMARK SMILES CC(=O)CCC=C(C)CCC=C(C)CCC=C(C)C
REMARK SMILES IDX 10 1 11 2 12 3 13 4 14 5 15 6 16 7 18 8 17 9 19 10 9 11 7 12
REMARK SMILES IDX 6 13 8 14 5 15 4 16 2 17 3 18 1 19
REMARK H PARENT
REMARK Flexibility Score: inf
ROOT
ATOM      1  C   UNL     1      -2.354  27.349  30.563  1.00  0.00     0.032 C 
ENDROOT
BRANCH   1   2
ATOM      2  C   UNL     1      -2.962  26.186  31.307  1.00  0.00    -0.028 C 
ATOM      3  C   UNL     1      -3.235  24.999  30.723  1.00  0.00    -0.077 C 
ATOM      4  C   UNL     1      -2.938  24.752  29.263  1.00  0.00     0.039 C 
BRANCH   3   5
ATOM      5  C   UNL     1      -3.841  23.889  31.555  1.00  0.00     0.034 C 
BRANCH   5   6
ATOM      6  C   UNL     1      -5.234  24.283  32.059  1.00  0.00     0.032 C 
BRANCH   6   7
ATOM      7  C   UNL     1      -5.652  23.409  33.214  1.00  0.00    -0.028 C 
ATOM      8  C   UNL     1      -6.832  22.805  35.283  1.00  0.00     0.039 C 
ATOM      9  C   UNL     1      -6.540  23.772  34.164  1.00  0.00    -0.080 C 
ATOM     10  C   UNL     1      -7.256  25.103  34.124  1.00  0.00     0.039 C 
ENDBRANCH   6   7
ENDBRANCH   5   6
ENDBRANCH   3   5
ENDBRANCH   1   2
BRANCH   1  11
ATOM     11  C   UNL     1      -0.830  27.382  30.728  1.00  0.00     0.034 C 
BRANCH  11  12
ATOM     12  C   UNL     1      -0.416  28.463  31.701  1.00  0.00    -0.077 C 
ATOM     13  C   UNL     1      -0.260  28.153  33.008  1.00  0.00    -0.028 C 
ATOM     14  C   UNL     1      -0.195  29.870  31.195  1.00  0.00     0.039 C 
BRANCH  13  15
ATOM     15  C   UNL     1       0.153  29.163  34.051  1.00  0.00     0.035 C 
BRANCH  15  16
ATOM     16  C   UNL     1       1.536  28.835  34.625  1.00  0.00     0.079 C 
BRANCH  16  17
ATOM     17  C   UNL     1       2.620  29.217  33.653  1.00  0.00     0.130 C 
ATOM     18  O   UNL     1       2.685  30.368  33.245  1.00  0.00    -0.300 OA
ATOM     19  C   UNL     1       3.620  28.212  33.161  1.00  0.00     0.087 C 
ENDBRANCH  16  17
ENDBRANCH  15  16
ENDBRANCH  13  15
ENDBRANCH  11  12
ENDBRANCH   1  11
TORSDOF 9
ENDMDL
MODEL 9
REMARK VINA RESULT:    -5.783      5.005      7.665
REMARK INTER + INTRA:          -9.936
REMARK INTER:                  -8.428
REMARK INTRA:                  -1.508
REMARK UNBOUND:                -1.111
REMARK SMILES CC(=O)CCC=C(C)CCC=C(C)CCC=C(C)C
REMARK SMILES IDX 10 1 11 2 12 3 13 4 14 5 15 6 16 7 18 8 17 9 19 10 9 11 7 12
REMARK SMILES IDX 6 13 8 14 5 15 4 16 2 17 3 18 1 19
REMARK H PARENT
REMARK Flexibility Score: inf
ROOT
ATOM      1  C   UNL     1       3.471  27.019  30.022  1.00  0.00     0.032 C 
ENDROOT
BRANCH   1   2
ATOM      2  C   UNL     1       3.153  28.469  30.291  1.00  0.00    -0.028 C 
ATOM      3  C   UNL     1       1.916  28.992  30.147  1.00  0.00    -0.077 C 
ATOM      4  C   UNL     1       0.748  28.141  29.707  1.00  0.00     0.039 C 
BRANCH   3   5
ATOM      5  C   UNL     1       1.695  30.459  30.446  1.00  0.00     0.034 C 
BRANCH   5   6
ATOM      6  C   UNL     1       2.063  30.781  31.899  1.00  0.00     0.032 C 
BRANCH   6   7
ATOM      7  C   UNL     1       1.014  30.254  32.845  1.00  0.00    -0.028 C 
ATOM      8  C   UNL     1       0.059  28.799  34.580  1.00  0.00     0.039 C 
ATOM      9  C   UNL     1       1.215  29.247  33.722  1.00  0.00    -0.080 C 
ATOM     10  C   UNL     1       2.561  28.577  33.878  1.00  0.00     0.039 C 
ENDBRANCH   6   7
ENDBRANCH   5   6
ENDBRANCH   3   5
ENDBRANCH   1   2
BRANCH   1  11
ATOM     11  C   UNL     1       4.547  26.497  30.981  1.00  0.00     0.034 C 
BRANCH  11  12
ATOM     12  C   UNL     1       5.557  25.643  30.246  1.00  0.00    -0.077 C 
ATOM     13  C   UNL     1       5.546  24.303  30.427  1.00  0.00    -0.028 C 
ATOM     14  C   UNL     1       6.561  26.305  29.332  1.00  0.00     0.039 C 
BRANCH  13  15
ATOM     15  C   UNL     1       6.512  23.371  29.736  1.00  0.00     0.035 C 
BRANCH  15  16
ATOM     16  C   UNL     1       5.771  22.356  28.859  1.00  0.00     0.079 C 
BRANCH  16  17
ATOM     17  C   UNL     1       5.507  22.925  27.490  1.00  0.00     0.130 C 
ATOM     18  O   UNL     1       6.429  23.417  26.855  1.00  0.00    -0.300 OA
ATOM     19  C   UNL     1       4.131  22.917  26.891  1.00  0.00     0.087 C 
ENDBRANCH  16  17
ENDBRANCH  15  16
ENDBRANCH  13  15
ENDBRANCH  11  12
ENDBRANCH   1  11
TORSDOF 9
ENDMDL
