MODEL 1
REMARK VINA RESULT:    36.644      0.000      0.000
REMARK INTER + INTRA:          41.678
REMARK INTER:                  41.999
REMARK INTRA:                  -0.321
REMARK UNBOUND:                -0.321
REMARK SMILES O=C1C[C@@H](c2ccc(O)cc2)Oc2cc(O)cc(O)c21
REMARK SMILES IDX 3 1 4 2 12 3 13 4 14 5 15 6 17 7 18 8 20 9 2 10 1 11 5 12
REMARK SMILES IDX 6 13 11 14 7 15 10 16 8 17 9 18 19 20 16 22
REMARK H PARENT 9 19 19 21 16 23
REMARK Flexibility Score: inf
ROOT
ATOM      1  C   UNL     1     -31.864  40.185 -24.597  1.00  0.00     0.131 C 
ATOM      2  C   UNL     1     -32.290  41.082 -23.427  1.00  0.00     0.211 C 
ATOM      3  O   UNL     1     -31.368  40.962 -22.340  1.00  0.00    -0.484 OA
ATOM      4  C   UNL     1     -29.983  40.858 -22.530  1.00  0.00     0.138 A 
ATOM      5  C   UNL     1     -29.134  41.024 -21.434  1.00  0.00     0.093 A 
ATOM      6  C   UNL     1     -27.748  40.939 -21.596  1.00  0.00     0.123 A 
ATOM      7  C   UNL     1     -27.214  40.659 -22.855  1.00  0.00     0.093 A 
ATOM      8  C   UNL     1     -28.047  40.449 -23.960  1.00  0.00     0.133 A 
ATOM      9  C   UNL     1     -29.452  40.581 -23.810  1.00  0.00     0.102 A 
ATOM     10  C   UNL     1     -30.425  40.451 -24.923  1.00  0.00     0.174 C 
ATOM     11  O   UNL     1     -30.083  40.612 -26.125  1.00  0.00    -0.294 OA
ENDROOT
BRANCH   2  12
ATOM     12  C   UNL     1     -33.683  40.733 -22.965  1.00  0.00    -0.007 A 
ATOM     13  C   UNL     1     -34.692  40.459 -23.904  1.00  0.00     0.011 A 
ATOM     14  C   UNL     1     -33.975  40.622 -21.593  1.00  0.00     0.011 A 
ATOM     15  C   UNL     1     -35.977  40.105 -23.478  1.00  0.00     0.046 A 
ATOM     16  C   UNL     1     -35.260  40.268 -21.171  1.00  0.00     0.046 A 
ATOM     17  C   UNL     1     -36.265  40.010 -22.113  1.00  0.00     0.115 A 
BRANCH  17  18
ATOM     18  O   UNL     1     -37.548  39.657 -21.704  1.00  0.00    -0.508 OA
ATOM     19  H   UNL     1     -38.371  40.007 -22.181  1.00  0.00     0.293 HD
ENDBRANCH  17  18
ENDBRANCH   2  12
BRANCH   8  20
ATOM     20  O   UNL     1     -27.439  40.081 -25.162  1.00  0.00    -0.507 OA
ATOM     21  H   UNL     1     -27.269  40.718 -25.927  1.00  0.00     0.293 HD
ENDBRANCH   8  20
BRANCH   6  22
ATOM     22  O   UNL     1     -26.894  41.124 -20.512  1.00  0.00    -0.508 OA
ATOM     23  H   UNL     1     -27.251  41.242 -19.570  1.00  0.00     0.293 HD
ENDBRANCH   6  22
TORSDOF 4
ENDMDL
