MODEL 1
REMARK VINA RESULT:    -4.739      0.000      0.000
REMARK INTER + INTRA:          -5.421
REMARK INTER:                  -5.293
REMARK INTRA:                  -0.128
REMARK UNBOUND:                -0.128
REMARK SMILES O=C([O-])C=Cc1ccccc1
REMARK SMILES IDX 4 1 5 2 2 3 1 4 3 5 6 6 7 7 11 8 8 9 10 10 9 11
REMARK H PARENT
REMARK Flexibility Score: inf
ROOT
ATOM      1  C   UNL     1      17.617  55.394  53.476  1.00  0.00     0.025 C 
ATOM      2  C   UNL     1      16.960  54.376  54.053  1.00  0.00     0.010 C 
ENDROOT
BRANCH   1   3
ATOM      3  C   UNL     1      18.325  56.418  54.263  1.00  0.00     0.064 C 
ATOM      4  O   UNL     1      18.078  57.644  54.109  1.00  0.00    -0.545 OA
ATOM      5  O   UNL     1      19.280  56.026  55.192  1.00  0.00    -0.545 OA
ENDBRANCH   1   3
BRANCH   2   6
ATOM      6  C   UNL     1      16.226  53.311  53.317  1.00  0.00    -0.026 A 
ATOM      7  C   UNL     1      16.805  52.071  52.966  1.00  0.00     0.008 A 
ATOM      8  C   UNL     1      14.889  53.555  52.955  1.00  0.00     0.008 A 
ATOM      9  C   UNL     1      16.059  51.112  52.273  1.00  0.00     0.001 A 
ATOM     10  C   UNL     1      14.149  52.593  52.262  1.00  0.00     0.001 A 
ATOM     11  C   UNL     1      14.733  51.371  51.921  1.00  0.00     0.000 A 
ENDBRANCH   2   6
TORSDOF 2
ENDMDL
MODEL 2
REMARK VINA RESULT:    -4.728      0.128      1.464
REMARK INTER + INTRA:          -5.409
REMARK INTER:                  -5.281
REMARK INTRA:                  -0.128
REMARK UNBOUND:                -0.128
REMARK SMILES O=C([O-])C=Cc1ccccc1
REMARK SMILES IDX 4 1 5 2 2 3 1 4 3 5 6 6 7 7 11 8 8 9 10 10 9 11
REMARK H PARENT
REMARK Flexibility Score: inf
ROOT
ATOM      1  C   UNL     1      17.437  55.542  53.460  1.00  0.00     0.025 C 
ATOM      2  C   UNL     1      17.093  54.350  53.973  1.00  0.00     0.010 C 
ENDROOT
BRANCH   1   3
ATOM      3  C   UNL     1      18.262  56.508  54.205  1.00  0.00     0.064 C 
ATOM      4  O   UNL     1      18.170  57.746  53.989  1.00  0.00    -0.545 OA
ATOM      5  O   UNL     1      19.155  56.047  55.162  1.00  0.00    -0.545 OA
ENDBRANCH   1   3
BRANCH   2   6
ATOM      6  C   UNL     1      16.264  53.331  53.274  1.00  0.00    -0.026 A 
ATOM      7  C   UNL     1      14.925  53.555  52.882  1.00  0.00     0.008 A 
ATOM      8  C   UNL     1      16.846  52.082  52.992  1.00  0.00     0.008 A 
ATOM      9  C   UNL     1      14.201  52.553  52.229  1.00  0.00     0.001 A 
ATOM     10  C   UNL     1      16.117  51.084  52.339  1.00  0.00     0.001 A 
ATOM     11  C   UNL     1      14.795  51.319  51.957  1.00  0.00     0.000 A 
ENDBRANCH   2   6
TORSDOF 2
ENDMDL
MODEL 3
REMARK VINA RESULT:    -4.555      3.318      5.359
REMARK INTER + INTRA:          -5.215
REMARK INTER:                  -5.082
REMARK INTRA:                  -0.133
REMARK UNBOUND:                -0.128
REMARK SMILES O=C([O-])C=Cc1ccccc1
REMARK SMILES IDX 4 1 5 2 2 3 1 4 3 5 6 6 7 7 11 8 8 9 10 10 9 11
REMARK H PARENT
REMARK Flexibility Score: inf
ROOT
ATOM      1  C   UNL     1      16.067  52.736  52.490  1.00  0.00     0.025 C 
ATOM      2  C   UNL     1      15.964  53.767  53.342  1.00  0.00     0.010 C 
ENDROOT
BRANCH   1   3
ATOM      3  C   UNL     1      14.886  52.033  51.961  1.00  0.00     0.064 C 
ATOM      4  O   UNL     1      13.723  52.474  52.158  1.00  0.00    -0.545 OA
ATOM      5  O   UNL     1      15.058  50.864  51.231  1.00  0.00    -0.545 OA
ENDBRANCH   1   3
BRANCH   2   6
ATOM      6  C   UNL     1      17.115  54.519  53.913  1.00  0.00    -0.026 A 
ATOM      7  C   UNL     1      17.422  55.853  53.562  1.00  0.00     0.008 A 
ATOM      8  C   UNL     1      17.937  53.864  54.848  1.00  0.00     0.008 A 
ATOM      9  C   UNL     1      18.520  56.501  54.136  1.00  0.00     0.001 A 
ATOM     10  C   UNL     1      19.033  54.518  55.418  1.00  0.00     0.001 A 
ATOM     11  C   UNL     1      19.325  55.836  55.062  1.00  0.00     0.000 A 
ENDBRANCH   2   6
TORSDOF 2
ENDMDL
MODEL 4
REMARK VINA RESULT:    -4.367     10.674     11.145
REMARK INTER + INTRA:          -5.005
REMARK INTER:                  -4.861
REMARK INTRA:                  -0.144
REMARK UNBOUND:                -0.128
REMARK SMILES O=C([O-])C=Cc1ccccc1
REMARK SMILES IDX 4 1 5 2 2 3 1 4 3 5 6 6 7 7 11 8 8 9 10 10 9 11
REMARK H PARENT
REMARK Flexibility Score: inf
ROOT
ATOM      1  C   UNL     1      18.282  57.367  44.316  1.00  0.00     0.025 C 
ATOM      2  C   UNL     1      16.946  57.365  44.195  1.00  0.00     0.010 C 
ENDROOT
BRANCH   1   3
ATOM      3  C   UNL     1      18.964  56.815  45.499  1.00  0.00     0.064 C 
ATOM      4  O   UNL     1      20.167  56.445  45.445  1.00  0.00    -0.545 OA
ATOM      5  O   UNL     1      18.269  56.702  46.696  1.00  0.00    -0.545 OA
ENDBRANCH   1   3
BRANCH   2   6
ATOM      6  C   UNL     1      16.196  57.906  43.029  1.00  0.00    -0.026 A 
ATOM      7  C   UNL     1      14.857  58.349  43.104  1.00  0.00     0.008 A 
ATOM      8  C   UNL     1      16.858  57.978  41.790  1.00  0.00     0.008 A 
ATOM      9  C   UNL     1      14.210  58.846  41.969  1.00  0.00     0.001 A 
ATOM     10  C   UNL     1      16.207  58.476  40.658  1.00  0.00     0.001 A 
ATOM     11  C   UNL     1      14.883  58.910  40.747  1.00  0.00     0.000 A 
ENDBRANCH   2   6
TORSDOF 2
ENDMDL
MODEL 5
REMARK VINA RESULT:    -4.215      4.489      6.025
REMARK INTER + INTRA:          -4.836
REMARK INTER:                  -4.689
REMARK INTRA:                  -0.146
REMARK UNBOUND:                -0.128
REMARK SMILES O=C([O-])C=Cc1ccccc1
REMARK SMILES IDX 4 1 5 2 2 3 1 4 3 5 6 6 7 7 11 8 8 9 10 10 9 11
REMARK H PARENT
REMARK Flexibility Score: inf
ROOT
ATOM      1  C   UNL     1      16.918  48.482  52.610  1.00  0.00     0.025 C 
ATOM      2  C   UNL     1      17.350  49.711  52.930  1.00  0.00     0.010 C 
ENDROOT
BRANCH   1   3
ATOM      3  C   UNL     1      17.761  47.286  52.778  1.00  0.00     0.064 C 
ATOM      4  O   UNL     1      19.006  47.334  52.594  1.00  0.00    -0.545 OA
ATOM      5  O   UNL     1      17.172  46.083  53.148  1.00  0.00    -0.545 OA
ENDBRANCH   1   3
BRANCH   2   6
ATOM      6  C   UNL     1      16.550  50.959  52.784  1.00  0.00    -0.026 A 
ATOM      7  C   UNL     1      16.972  52.213  53.278  1.00  0.00     0.008 A 
ATOM      8  C   UNL     1      15.312  50.879  52.121  1.00  0.00     0.008 A 
ATOM      9  C   UNL     1      16.171  53.347  53.107  1.00  0.00     0.001 A 
ATOM     10  C   UNL     1      14.516  52.016  51.954  1.00  0.00     0.001 A 
ATOM     11  C   UNL     1      14.945  53.250  52.447  1.00  0.00     0.000 A 
ENDBRANCH   2   6
TORSDOF 2
ENDMDL
MODEL 6
REMARK VINA RESULT:    -4.153      7.995      8.920
REMARK INTER + INTRA:          -4.766
REMARK INTER:                  -4.631
REMARK INTRA:                  -0.135
REMARK UNBOUND:                -0.128
REMARK SMILES O=C([O-])C=Cc1ccccc1
REMARK SMILES IDX 4 1 5 2 2 3 1 4 3 5 6 6 7 7 11 8 8 9 10 10 9 11
REMARK H PARENT
REMARK Flexibility Score: inf
ROOT
ATOM      1  C   UNL     1      19.185  54.970  47.242  1.00  0.00     0.025 C 
ATOM      2  C   UNL     1      19.437  55.777  46.201  1.00  0.00     0.010 C 
ENDROOT
BRANCH   1   3
ATOM      3  C   UNL     1      19.921  53.713  47.458  1.00  0.00     0.064 C 
ATOM      4  O   UNL     1      20.130  53.269  48.618  1.00  0.00    -0.545 OA
ATOM      5  O   UNL     1      20.392  53.002  46.361  1.00  0.00    -0.545 OA
ENDBRANCH   1   3
BRANCH   2   6
ATOM      6  C   UNL     1      18.731  57.059  45.927  1.00  0.00    -0.026 A 
ATOM      7  C   UNL     1      18.102  57.351  44.696  1.00  0.00     0.008 A 
ATOM      8  C   UNL     1      18.691  58.026  46.948  1.00  0.00     0.008 A 
ATOM      9  C   UNL     1      17.456  58.576  44.504  1.00  0.00     0.001 A 
ATOM     10  C   UNL     1      18.044  59.248  46.750  1.00  0.00     0.001 A 
ATOM     11  C   UNL     1      17.426  59.524  45.528  1.00  0.00     0.000 A 
ENDBRANCH   2   6
TORSDOF 2
ENDMDL
MODEL 7
REMARK VINA RESULT:    -4.098      3.957      5.252
REMARK INTER + INTRA:          -4.704
REMARK INTER:                  -4.575
REMARK INTRA:                  -0.130
REMARK UNBOUND:                -0.128
REMARK SMILES O=C([O-])C=Cc1ccccc1
REMARK SMILES IDX 4 1 5 2 2 3 1 4 3 5 6 6 7 7 11 8 8 9 10 10 9 11
REMARK H PARENT
REMARK Flexibility Score: inf
ROOT
ATOM      1  C   UNL     1      16.463  50.745  52.780  1.00  0.00     0.025 C 
ATOM      2  C   UNL     1      17.060  49.785  53.502  1.00  0.00     0.010 C 
ENDROOT
BRANCH   1   3
ATOM      3  C   UNL     1      16.918  52.146  52.808  1.00  0.00     0.064 C 
ATOM      4  O   UNL     1      18.097  52.455  52.488  1.00  0.00    -0.545 OA
ATOM      5  O   UNL     1      16.032  53.143  53.192  1.00  0.00    -0.545 OA
ENDBRANCH   1   3
BRANCH   2   6
ATOM      6  C   UNL     1      16.651  48.354  53.519  1.00  0.00    -0.026 A 
ATOM      7  C   UNL     1      17.372  47.332  52.862  1.00  0.00     0.008 A 
ATOM      8  C   UNL     1      15.486  48.005  54.227  1.00  0.00     0.008 A 
ATOM      9  C   UNL     1      16.931  46.006  52.917  1.00  0.00     0.001 A 
ATOM     10  C   UNL     1      15.051  46.678  54.278  1.00  0.00     0.001 A 
ATOM     11  C   UNL     1      15.773  45.679  53.624  1.00  0.00     0.000 A 
ENDBRANCH   2   6
TORSDOF 2
ENDMDL
MODEL 8
REMARK VINA RESULT:    -4.094      9.336      9.960
REMARK INTER + INTRA:          -4.700
REMARK INTER:                  -4.573
REMARK INTRA:                  -0.127
REMARK UNBOUND:                -0.128
REMARK SMILES O=C([O-])C=Cc1ccccc1
REMARK SMILES IDX 4 1 5 2 2 3 1 4 3 5 6 6 7 7 11 8 8 9 10 10 9 11
REMARK H PARENT
REMARK Flexibility Score: inf
ROOT
ATOM      1  C   UNL     1      18.634  56.701  46.130  1.00  0.00     0.025 C 
ATOM      2  C   UNL     1      18.459  57.063  44.849  1.00  0.00     0.010 C 
ENDROOT
BRANCH   1   3
ATOM      3  C   UNL     1      19.712  55.790  46.548  1.00  0.00     0.064 C 
ATOM      4  O   UNL     1      19.467  54.757  47.226  1.00  0.00    -0.545 OA
ATOM      5  O   UNL     1      21.023  56.073  46.187  1.00  0.00    -0.545 OA
ENDBRANCH   1   3
BRANCH   2   6
ATOM      6  C   UNL     1      17.391  57.978  44.362  1.00  0.00    -0.026 A 
ATOM      7  C   UNL     1      17.417  59.377  44.561  1.00  0.00     0.008 A 
ATOM      8  C   UNL     1      16.304  57.418  43.667  1.00  0.00     0.008 A 
ATOM      9  C   UNL     1      16.380  60.180  44.076  1.00  0.00     0.001 A 
ATOM     10  C   UNL     1      15.271  58.227  43.185  1.00  0.00     0.001 A 
ATOM     11  C   UNL     1      15.308  59.607  43.390  1.00  0.00     0.000 A 
ENDBRANCH   2   6
TORSDOF 2
ENDMDL
