MODEL 1
REMARK VINA RESULT:    -6.620      0.000      0.000
REMARK INTER + INTRA:         -13.876
REMARK INTER:                 -10.489
REMARK INTRA:                  -3.387
REMARK UNBOUND:                -3.387
REMARK SMILES C[C@H]1O[C@H](O[C@@H]2[C@@H](Oc3cc(O)c4c(c3)O[C@@H](c3ccc(O)cc3)CC4=O)O[C@H](CO)[C@@H](O)[C@@H]2O)[C@H](O)[C@H](O)[C@H]1O
REMARK SMILES IDX 6 1 34 2 32 3 29 4 28 5 7 6 5 7 4 8 1 9 2 10 40 11 3 12
REMARK SMILES IDX 38 13 36 14 41 15 39 17 37 19 35 21 8 23 9 24 10 25 15 26
REMARK SMILES IDX 11 27 14 28 13 29 16 30 26 31 17 32 27 33 25 34 12 35 18 37
REMARK SMILES IDX 19 38 24 39 20 40 23 41 21 42 22 43 33 45 30 47 31 48
REMARK H PARENT 41 16 39 18 37 20 35 22 12 36 22 44 33 46 31 49
REMARK Flexibility Score: inf
ROOT
ATOM      1  C   UNL     1     -20.480 -10.839  -5.977  1.00  0.00     0.221 C 
ATOM      2  C   UNL     1     -21.232  -9.443  -5.994  1.00  0.00     0.181 C 
ATOM      3  C   UNL     1     -21.396  -8.727  -7.389  1.00  0.00     0.177 C 
ATOM      4  C   UNL     1     -21.546  -9.884  -8.364  1.00  0.00     0.179 C 
ATOM      5  O   UNL     1     -20.257 -10.475  -8.469  1.00  0.00    -0.332 OA
ATOM      6  C   UNL     1     -19.996 -11.361  -7.367  1.00  0.00     0.339 C 
ENDROOT
BRANCH   1   7
ATOM      7  O   UNL     1     -19.489 -10.897  -4.937  1.00  0.00    -0.337 OA
BRANCH   7   8
ATOM      8  C   UNL     1     -18.170 -10.704  -5.482  1.00  0.00     0.282 C 
ATOM      9  C   UNL     1     -17.286  -7.553  -3.770  1.00  0.00     0.041 C 
ATOM     10  C   UNL     1     -17.410  -9.064  -4.017  1.00  0.00     0.150 C 
ATOM     11  C   UNL     1     -16.080  -9.731  -3.647  1.00  0.00     0.174 C 
ATOM     12  O   UNL     1     -17.759  -9.355  -5.358  1.00  0.00    -0.344 OA
ATOM     13  C   UNL     1     -16.217 -11.271  -3.742  1.00  0.00     0.179 C 
ATOM     14  C   UNL     1     -17.085 -11.736  -4.982  1.00  0.00     0.202 C 
BRANCH  11  15
ATOM     15  O   UNL     1     -15.026  -9.260  -4.473  1.00  0.00    -0.388 OA
ATOM     16  H   UNL     1     -15.233  -9.595  -5.406  1.00  0.00     0.211 HD
ENDBRANCH  11  15
BRANCH  13  17
ATOM     17  O   UNL     1     -16.747 -11.819  -2.550  1.00  0.00    -0.387 OA
ATOM     18  H   UNL     1     -16.868 -12.777  -2.672  1.00  0.00     0.211 HD
ENDBRANCH  13  17
BRANCH  14  19
ATOM     19  O   UNL     1     -17.692 -12.952  -4.700  1.00  0.00    -0.385 OA
ATOM     20  H   UNL     1     -18.257 -13.145  -5.515  1.00  0.00     0.211 HD
ENDBRANCH  14  19
ENDBRANCH   7   8
ENDBRANCH   1   7
BRANCH   2  21
ATOM     21  O   UNL     1     -20.728  -8.581  -4.990  1.00  0.00    -0.387 OA
ATOM     22  H   UNL     1     -21.419  -7.861  -4.877  1.00  0.00     0.211 HD
ENDBRANCH   2  21
BRANCH   6  23
ATOM     23  O   UNL     1     -20.658 -12.623  -7.648  1.00  0.00    -0.462 OA
BRANCH  23  24
ATOM     24  C   UNL     1     -19.964 -13.830  -7.714  1.00  0.00     0.130 A 
ATOM     25  C   UNL     1     -20.643 -15.076  -7.588  1.00  0.00     0.093 A 
ATOM     26  C   UNL     1     -18.584 -13.814  -7.926  1.00  0.00     0.094 A 
ATOM     27  C   UNL     1     -20.034 -16.261  -8.059  1.00  0.00     0.133 A 
ATOM     28  C   UNL     1     -17.943 -15.021  -8.236  1.00  0.00     0.138 A 
ATOM     29  C   UNL     1     -18.685 -16.184  -8.469  1.00  0.00     0.102 A 
ATOM     30  O   UNL     1     -16.531 -15.031  -8.369  1.00  0.00    -0.484 OA
ATOM     31  C   UNL     1     -17.968 -17.313  -9.093  1.00  0.00     0.174 C 
ATOM     32  C   UNL     1     -15.793 -16.251  -8.258  1.00  0.00     0.211 C 
ATOM     33  O   UNL     1     -18.510 -17.959 -10.064  1.00  0.00    -0.294 OA
ATOM     34  C   UNL     1     -16.533 -17.543  -8.758  1.00  0.00     0.131 C 
BRANCH  27  35
ATOM     35  O   UNL     1     -20.777 -17.433  -8.098  1.00  0.00    -0.507 OA
ATOM     36  H   UNL     1     -21.794 -17.365  -8.124  1.00  0.00     0.293 HD
ENDBRANCH  27  35
BRANCH  32  37
ATOM     37  C   UNL     1     -15.232 -16.333  -6.868  1.00  0.00    -0.007 A 
ATOM     38  C   UNL     1     -14.276 -15.345  -6.533  1.00  0.00     0.011 A 
ATOM     39  C   UNL     1     -15.996 -16.909  -5.802  1.00  0.00     0.011 A 
ATOM     40  C   UNL     1     -14.292 -14.729  -5.267  1.00  0.00     0.046 A 
ATOM     41  C   UNL     1     -15.994 -16.296  -4.559  1.00  0.00     0.046 A 
ATOM     42  C   UNL     1     -15.253 -15.144  -4.304  1.00  0.00     0.115 A 
BRANCH  42  43
ATOM     43  O   UNL     1     -15.368 -14.418  -3.082  1.00  0.00    -0.508 OA
ATOM     44  H   UNL     1     -16.095 -13.740  -2.949  1.00  0.00     0.293 HD
ENDBRANCH  42  43
ENDBRANCH  32  37
ENDBRANCH  23  24
ENDBRANCH   6  23
BRANCH   3  45
ATOM     45  O   UNL     1     -22.546  -7.885  -7.361  1.00  0.00    -0.387 OA
ATOM     46  H   UNL     1     -22.369  -7.098  -7.904  1.00  0.00     0.211 HD
ENDBRANCH   3  45
BRANCH   4  47
ATOM     47  C   UNL     1     -22.053  -9.413  -9.716  1.00  0.00     0.191 C 
BRANCH  47  48
ATOM     48  O   UNL     1     -23.487  -9.256  -9.697  1.00  0.00    -0.394 OA
ATOM     49  H   UNL     1     -23.697  -8.697  -8.907  1.00  0.00     0.210 HD
ENDBRANCH  47  48
ENDBRANCH   4  47
TORSDOF 14
ENDMDL
MODEL 2
REMARK VINA RESULT:    -6.407      1.336      2.055
REMARK INTER + INTRA:         -13.539
REMARK INTER:                 -10.869
REMARK INTRA:                  -2.670
REMARK UNBOUND:                -3.387
REMARK SMILES C[C@H]1O[C@H](O[C@@H]2[C@@H](Oc3cc(O)c4c(c3)O[C@@H](c3ccc(O)cc3)CC4=O)O[C@H](CO)[C@@H](O)[C@@H]2O)[C@H](O)[C@H](O)[C@H]1O
REMARK SMILES IDX 6 1 34 2 32 3 29 4 28 5 7 6 5 7 4 8 1 9 2 10 40 11 3 12
REMARK SMILES IDX 38 13 36 14 41 15 39 17 37 19 35 21 8 23 9 24 10 25 15 26
REMARK SMILES IDX 11 27 14 28 13 29 16 30 26 31 17 32 27 33 25 34 12 35 18 37
REMARK SMILES IDX 19 38 24 39 20 40 23 41 21 42 22 43 33 45 30 47 31 48
REMARK H PARENT 41 16 39 18 37 20 35 22 12 36 22 44 33 46 31 49
REMARK Flexibility Score: inf
ROOT
ATOM      1  C   UNL     1     -19.769 -10.177  -6.639  1.00  0.00     0.221 C 
ATOM      2  C   UNL     1     -20.537  -8.789  -6.644  1.00  0.00     0.181 C 
ATOM      3  C   UNL     1     -21.061  -8.258  -8.033  1.00  0.00     0.177 C 
ATOM      4  C   UNL     1     -21.420  -9.530  -8.785  1.00  0.00     0.179 C 
ATOM      5  O   UNL     1     -20.183 -10.139  -9.133  1.00  0.00    -0.332 OA
ATOM      6  C   UNL     1     -19.633 -10.877  -8.028  1.00  0.00     0.339 C 
ENDROOT
BRANCH   1   7
ATOM      7  O   UNL     1     -18.549 -10.108  -5.882  1.00  0.00    -0.337 OA
BRANCH   7   8
ATOM      8  C   UNL     1     -18.568 -11.060  -4.802  1.00  0.00     0.282 C 
ATOM      9  C   UNL     1     -15.002 -12.023  -4.810  1.00  0.00     0.041 C 
ATOM     10  C   UNL     1     -16.276 -11.246  -4.445  1.00  0.00     0.150 C 
ATOM     11  C   UNL     1     -16.294 -11.022  -2.928  1.00  0.00     0.174 C 
ATOM     12  O   UNL     1     -17.447 -11.924  -4.863  1.00  0.00    -0.344 OA
ATOM     13  C   UNL     1     -17.488 -10.114  -2.543  1.00  0.00     0.179 C 
ATOM     14  C   UNL     1     -18.799 -10.438  -3.369  1.00  0.00     0.202 C 
BRANCH  11  15
ATOM     15  O   UNL     1     -16.344 -12.257  -2.229  1.00  0.00    -0.388 OA
ATOM     16  H   UNL     1     -15.971 -12.069  -1.307  1.00  0.00     0.211 HD
ENDBRANCH  11  15
BRANCH  13  17
ATOM     17  O   UNL     1     -17.162  -8.744  -2.675  1.00  0.00    -0.387 OA
ATOM     18  H   UNL     1     -16.701  -8.611  -3.522  1.00  0.00     0.211 HD
ENDBRANCH  13  17
BRANCH  14  19
ATOM     19  O   UNL     1     -19.580  -9.297  -3.477  1.00  0.00    -0.385 OA
ATOM     20  H   UNL     1     -19.483  -9.016  -4.442  1.00  0.00     0.211 HD
ENDBRANCH  14  19
ENDBRANCH   7   8
ENDBRANCH   1   7
BRANCH   2  21
ATOM     21  O   UNL     1     -19.820  -7.808  -5.916  1.00  0.00    -0.387 OA
ATOM     22  H   UNL     1     -19.250  -7.330  -6.591  1.00  0.00     0.211 HD
ENDBRANCH   2  21
BRANCH   6  23
ATOM     23  O   UNL     1     -20.312 -12.161  -7.972  1.00  0.00    -0.462 OA
BRANCH  23  24
ATOM     24  C   UNL     1     -19.641 -13.347  -7.679  1.00  0.00     0.130 A 
ATOM     25  C   UNL     1     -20.358 -14.545  -7.397  1.00  0.00     0.093 A 
ATOM     26  C   UNL     1     -18.245 -13.360  -7.680  1.00  0.00     0.094 A 
ATOM     27  C   UNL     1     -19.710 -15.796  -7.512  1.00  0.00     0.133 A 
ATOM     28  C   UNL     1     -17.590 -14.598  -7.630  1.00  0.00     0.138 A 
ATOM     29  C   UNL     1     -18.313 -15.792  -7.722  1.00  0.00     0.102 A 
ATOM     30  O   UNL     1     -16.175 -14.620  -7.543  1.00  0.00    -0.484 OA
ATOM     31  C   UNL     1     -17.536 -17.019  -7.981  1.00  0.00     0.174 C 
ATOM     32  C   UNL     1     -15.488 -15.781  -7.069  1.00  0.00     0.211 C 
ATOM     33  O   UNL     1     -17.940 -17.861  -8.864  1.00  0.00    -0.294 OA
ATOM     34  C   UNL     1     -16.171 -17.158  -7.393  1.00  0.00     0.131 C 
BRANCH  27  35
ATOM     35  O   UNL     1     -20.463 -16.958  -7.416  1.00  0.00    -0.507 OA
ATOM     36  H   UNL     1     -21.216 -16.996  -6.728  1.00  0.00     0.293 HD
ENDBRANCH  27  35
BRANCH  32  37
ATOM     37  C   UNL     1     -15.142 -15.562  -5.625  1.00  0.00    -0.007 A 
ATOM     38  C   UNL     1     -16.008 -16.171  -4.688  1.00  0.00     0.011 A 
ATOM     39  C   UNL     1     -13.787 -15.326  -5.225  1.00  0.00     0.011 A 
ATOM     40  C   UNL     1     -15.495 -16.802  -3.538  1.00  0.00     0.046 A 
ATOM     41  C   UNL     1     -13.299 -15.946  -4.085  1.00  0.00     0.046 A 
ATOM     42  C   UNL     1     -14.092 -16.779  -3.300  1.00  0.00     0.115 A 
BRANCH  42  43
ATOM     43  O   UNL     1     -13.560 -17.545  -2.221  1.00  0.00    -0.508 OA
ATOM     44  H   UNL     1     -13.864 -18.486  -2.055  1.00  0.00     0.293 HD
ENDBRANCH  42  43
ENDBRANCH  32  37
ENDBRANCH  23  24
ENDBRANCH   6  23
BRANCH   3  45
ATOM     45  O   UNL     1     -22.189  -7.411  -7.825  1.00  0.00    -0.387 OA
ATOM     46  H   UNL     1     -22.790  -7.502  -8.584  1.00  0.00     0.211 HD
ENDBRANCH   3  45
BRANCH   4  47
ATOM     47  C   UNL     1     -22.259  -9.234 -10.015  1.00  0.00     0.191 C 
BRANCH  47  48
ATOM     48  O   UNL     1     -23.664  -9.244  -9.689  1.00  0.00    -0.394 OA
ATOM     49  H   UNL     1     -23.759  -8.736  -8.844  1.00  0.00     0.210 HD
ENDBRANCH  47  48
ENDBRANCH   4  47
TORSDOF 14
ENDMDL
MODEL 3
REMARK VINA RESULT:    -6.172      1.824      2.614
REMARK INTER + INTRA:         -13.167
REMARK INTER:                 -10.189
REMARK INTRA:                  -2.978
REMARK UNBOUND:                -3.387
REMARK SMILES C[C@H]1O[C@H](O[C@@H]2[C@@H](Oc3cc(O)c4c(c3)O[C@@H](c3ccc(O)cc3)CC4=O)O[C@H](CO)[C@@H](O)[C@@H]2O)[C@H](O)[C@H](O)[C@H]1O
REMARK SMILES IDX 6 1 34 2 32 3 29 4 28 5 7 6 5 7 4 8 1 9 2 10 40 11 3 12
REMARK SMILES IDX 38 13 36 14 41 15 39 17 37 19 35 21 8 23 9 24 10 25 15 26
REMARK SMILES IDX 11 27 14 28 13 29 16 30 26 31 17 32 27 33 25 34 12 35 18 37
REMARK SMILES IDX 19 38 24 39 20 40 23 41 21 42 22 43 33 45 30 47 31 48
REMARK H PARENT 41 16 39 18 37 20 35 22 12 36 22 44 33 46 31 49
REMARK Flexibility Score: inf
ROOT
ATOM      1  C   UNL     1     -19.602 -11.378  -5.574  1.00  0.00     0.221 C 
ATOM      2  C   UNL     1     -20.839 -10.387  -5.645  1.00  0.00     0.181 C 
ATOM      3  C   UNL     1     -21.458 -10.105  -7.067  1.00  0.00     0.177 C 
ATOM      4  C   UNL     1     -21.271 -11.423  -7.802  1.00  0.00     0.179 C 
ATOM      5  O   UNL     1     -19.880 -11.517  -8.083  1.00  0.00    -0.332 OA
ATOM      6  C   UNL     1     -19.145 -11.983  -6.938  1.00  0.00     0.339 C 
ENDROOT
BRANCH   1   7
ATOM      7  O   UNL     1     -18.538 -10.844  -4.768  1.00  0.00    -0.337 OA
BRANCH   7   8
ATOM      8  C   UNL     1     -18.162 -11.780  -3.740  1.00  0.00     0.282 C 
ATOM      9  C   UNL     1     -14.490 -11.567  -4.070  1.00  0.00     0.041 C 
ATOM     10  C   UNL     1     -15.905 -11.241  -3.569  1.00  0.00     0.150 C 
ATOM     11  C   UNL     1     -15.858 -11.071  -2.046  1.00  0.00     0.174 C 
ATOM     12  O   UNL     1     -16.838 -12.243  -3.930  1.00  0.00    -0.344 OA
ATOM     13  C   UNL     1     -17.237 -10.597  -1.525  1.00  0.00     0.179 C 
ATOM     14  C   UNL     1     -18.448 -11.298  -2.264  1.00  0.00     0.202 C 
BRANCH  11  15
ATOM     15  O   UNL     1     -15.457 -12.276  -1.409  1.00  0.00    -0.388 OA
ATOM     16  H   UNL     1     -16.085 -12.396  -0.624  1.00  0.00     0.211 HD
ENDBRANCH  11  15
BRANCH  13  17
ATOM     17  O   UNL     1     -17.369  -9.191  -1.611  1.00  0.00    -0.387 OA
ATOM     18  H   UNL     1     -17.985  -8.977  -2.334  1.00  0.00     0.211 HD
ENDBRANCH  13  17
BRANCH  14  19
ATOM     19  O   UNL     1     -19.554 -10.460  -2.253  1.00  0.00    -0.385 OA
ATOM     20  H   UNL     1     -19.395  -9.844  -1.468  1.00  0.00     0.211 HD
ENDBRANCH  14  19
ENDBRANCH   7   8
ENDBRANCH   1   7
BRANCH   2  21
ATOM     21  O   UNL     1     -20.584  -9.202  -4.911  1.00  0.00    -0.387 OA
ATOM     22  H   UNL     1     -19.619  -9.253  -4.639  1.00  0.00     0.211 HD
ENDBRANCH   2  21
BRANCH   6  23
ATOM     23  O   UNL     1     -19.287 -13.428  -6.879  1.00  0.00    -0.462 OA
BRANCH  23  24
ATOM     24  C   UNL     1     -18.207 -14.291  -7.055  1.00  0.00     0.130 A 
ATOM     25  C   UNL     1     -18.406 -15.649  -7.434  1.00  0.00     0.093 A 
ATOM     26  C   UNL     1     -16.909 -13.807  -6.874  1.00  0.00     0.094 A 
ATOM     27  C   UNL     1     -17.343 -16.385  -8.004  1.00  0.00     0.133 A 
ATOM     28  C   UNL     1     -15.836 -14.607  -7.291  1.00  0.00     0.138 A 
ATOM     29  C   UNL     1     -16.061 -15.792  -8.000  1.00  0.00     0.102 A 
ATOM     30  O   UNL     1     -14.513 -14.164  -7.033  1.00  0.00    -0.484 OA
ATOM     31  C   UNL     1     -14.893 -16.395  -8.669  1.00  0.00     0.174 C 
ATOM     32  C   UNL     1     -13.419 -15.084  -7.037  1.00  0.00     0.211 C 
ATOM     33  O   UNL     1     -14.992 -16.816  -9.879  1.00  0.00    -0.294 OA
ATOM     34  C   UNL     1     -13.550 -16.297  -8.026  1.00  0.00     0.131 C 
BRANCH  27  35
ATOM     35  O   UNL     1     -17.599 -17.642  -8.535  1.00  0.00    -0.507 OA
ATOM     36  H   UNL     1     -17.996 -18.357  -7.927  1.00  0.00     0.293 HD
ENDBRANCH  27  35
BRANCH  32  37
ATOM     37  C   UNL     1     -13.112 -15.450  -5.613  1.00  0.00    -0.007 A 
ATOM     38  C   UNL     1     -11.876 -14.981  -5.112  1.00  0.00     0.011 A 
ATOM     39  C   UNL     1     -14.168 -15.680  -4.673  1.00  0.00     0.011 A 
ATOM     40  C   UNL     1     -11.779 -14.464  -3.805  1.00  0.00     0.046 A 
ATOM     41  C   UNL     1     -14.053 -15.174  -3.388  1.00  0.00     0.046 A 
ATOM     42  C   UNL     1     -12.931 -14.462  -2.971  1.00  0.00     0.115 A 
BRANCH  42  43
ATOM     43  O   UNL     1     -12.871 -13.802  -1.708  1.00  0.00    -0.508 OA
ATOM     44  H   UNL     1     -13.662 -13.791  -1.092  1.00  0.00     0.293 HD
ENDBRANCH  42  43
ENDBRANCH  32  37
ENDBRANCH  23  24
ENDBRANCH   6  23
BRANCH   3  45
ATOM     45  O   UNL     1     -22.832  -9.750  -6.927  1.00  0.00    -0.387 OA
ATOM     46  H   UNL     1     -22.944  -9.256  -6.097  1.00  0.00     0.211 HD
ENDBRANCH   3  45
BRANCH   4  47
ATOM     47  C   UNL     1     -22.099 -11.477  -9.073  1.00  0.00     0.191 C 
BRANCH  47  48
ATOM     48  O   UNL     1     -22.212 -10.166  -9.664  1.00  0.00    -0.394 OA
ATOM     49  H   UNL     1     -23.155  -9.887  -9.548  1.00  0.00     0.210 HD
ENDBRANCH  47  48
ENDBRANCH   4  47
TORSDOF 14
ENDMDL
MODEL 4
REMARK VINA RESULT:    -6.037      2.180      6.921
REMARK INTER + INTRA:         -12.953
REMARK INTER:                 -10.283
REMARK INTRA:                  -2.670
REMARK UNBOUND:                -3.387
REMARK SMILES C[C@H]1O[C@H](O[C@@H]2[C@@H](Oc3cc(O)c4c(c3)O[C@@H](c3ccc(O)cc3)CC4=O)O[C@H](CO)[C@@H](O)[C@@H]2O)[C@H](O)[C@H](O)[C@H]1O
REMARK SMILES IDX 6 1 34 2 32 3 29 4 28 5 7 6 5 7 4 8 1 9 2 10 40 11 3 12
REMARK SMILES IDX 38 13 36 14 41 15 39 17 37 19 35 21 8 23 9 24 10 25 15 26
REMARK SMILES IDX 11 27 14 28 13 29 16 30 26 31 17 32 27 33 25 34 12 35 18 37
REMARK SMILES IDX 19 38 24 39 20 40 23 41 21 42 22 43 33 45 30 47 31 48
REMARK H PARENT 41 16 39 18 37 20 35 22 12 36 22 44 33 46 31 49
REMARK Flexibility Score: inf
ROOT
ATOM      1  C   UNL     1     -14.705 -13.624  -3.788  1.00  0.00     0.221 C 
ATOM      2  C   UNL     1     -13.427 -13.492  -2.858  1.00  0.00     0.181 C 
ATOM      3  C   UNL     1     -12.432 -14.714  -2.818  1.00  0.00     0.177 C 
ATOM      4  C   UNL     1     -12.510 -15.278  -4.229  1.00  0.00     0.179 C 
ATOM      5  O   UNL     1     -13.778 -15.914  -4.324  1.00  0.00    -0.332 OA
ATOM      6  C   UNL     1     -14.824 -14.962  -4.583  1.00  0.00     0.339 C 
ENDROOT
BRANCH   1   7
ATOM      7  O   UNL     1     -15.905 -13.226  -3.104  1.00  0.00    -0.337 OA
BRANCH   7   8
ATOM      8  C   UNL     1     -16.164 -11.824  -3.308  1.00  0.00     0.282 C 
ATOM      9  C   UNL     1     -18.830 -12.087  -5.850  1.00  0.00     0.041 C 
ATOM     10  C   UNL     1     -18.177 -11.994  -4.463  1.00  0.00     0.150 C 
ATOM     11  C   UNL     1     -18.977 -11.001  -3.612  1.00  0.00     0.174 C 
ATOM     12  O   UNL     1     -16.819 -11.601  -4.544  1.00  0.00    -0.344 OA
ATOM     13  C   UNL     1     -18.435 -10.993  -2.161  1.00  0.00     0.179 C 
ATOM     14  C   UNL     1     -16.857 -11.090  -2.094  1.00  0.00     0.202 C 
BRANCH  11  15
ATOM     15  O   UNL     1     -18.943  -9.699  -4.178  1.00  0.00    -0.388 OA
ATOM     16  H   UNL     1     -19.043  -9.057  -3.401  1.00  0.00     0.211 HD
ENDBRANCH  11  15
BRANCH  13  17
ATOM     17  O   UNL     1     -19.015 -12.024  -1.385  1.00  0.00    -0.387 OA
ATOM     18  H   UNL     1     -19.283 -12.749  -1.976  1.00  0.00     0.211 HD
ENDBRANCH  13  17
BRANCH  14  19
ATOM     19  O   UNL     1     -16.474 -11.694  -0.904  1.00  0.00    -0.385 OA
ATOM     20  H   UNL     1     -15.887 -12.465  -1.192  1.00  0.00     0.211 HD
ENDBRANCH  14  19
ENDBRANCH   7   8
ENDBRANCH   1   7
BRANCH   2  21
ATOM     21  O   UNL     1     -13.783 -13.031  -1.566  1.00  0.00    -0.387 OA
ATOM     22  H   UNL     1     -14.198 -13.820  -1.101  1.00  0.00     0.211 HD
ENDBRANCH   2  21
BRANCH   6  23
ATOM     23  O   UNL     1     -14.806 -14.663  -6.005  1.00  0.00    -0.462 OA
BRANCH  23  24
ATOM     24  C   UNL     1     -15.718 -15.225  -6.897  1.00  0.00     0.130 A 
ATOM     25  C   UNL     1     -15.279 -15.868  -8.089  1.00  0.00     0.093 A 
ATOM     26  C   UNL     1     -17.082 -15.169  -6.603  1.00  0.00     0.094 A 
ATOM     27  C   UNL     1     -16.134 -16.773  -8.757  1.00  0.00     0.133 A 
ATOM     28  C   UNL     1     -17.961 -15.946  -7.372  1.00  0.00     0.138 A 
ATOM     29  C   UNL     1     -17.472 -16.859  -8.311  1.00  0.00     0.102 A 
ATOM     30  O   UNL     1     -19.356 -15.832  -7.139  1.00  0.00    -0.484 OA
ATOM     31  C   UNL     1     -18.432 -17.848  -8.837  1.00  0.00     0.174 C 
ATOM     32  C   UNL     1     -20.300 -16.244  -8.131  1.00  0.00     0.211 C 
ATOM     33  O   UNL     1     -18.097 -19.085  -8.926  1.00  0.00    -0.294 OA
ATOM     34  C   UNL     1     -19.857 -17.449  -9.035  1.00  0.00     0.131 C 
BRANCH  27  35
ATOM     35  O   UNL     1     -15.630 -17.529  -9.807  1.00  0.00    -0.507 OA
ATOM     36  H   UNL     1     -15.192 -17.045 -10.590  1.00  0.00     0.293 HD
ENDBRANCH  27  35
BRANCH  32  37
ATOM     37  C   UNL     1     -20.761 -15.023  -8.873  1.00  0.00    -0.007 A 
ATOM     38  C   UNL     1     -21.561 -14.122  -8.133  1.00  0.00     0.011 A 
ATOM     39  C   UNL     1     -19.995 -14.495  -9.961  1.00  0.00     0.011 A 
ATOM     40  C   UNL     1     -21.375 -12.731  -8.251  1.00  0.00     0.046 A 
ATOM     41  C   UNL     1     -19.829 -13.123 -10.070  1.00  0.00     0.046 A 
ATOM     42  C   UNL     1     -20.402 -12.235  -9.163  1.00  0.00     0.115 A 
BRANCH  42  43
ATOM     43  O   UNL     1     -20.109 -10.839  -9.172  1.00  0.00    -0.508 OA
ATOM     44  H   UNL     1     -19.446 -10.446  -8.530  1.00  0.00     0.293 HD
ENDBRANCH  42  43
ENDBRANCH  32  37
ENDBRANCH  23  24
ENDBRANCH   6  23
BRANCH   3  45
ATOM     45  O   UNL     1     -11.124 -14.253  -2.488  1.00  0.00    -0.387 OA
ATOM     46  H   UNL     1     -10.825 -14.713  -1.685  1.00  0.00     0.211 HD
ENDBRANCH   3  45
BRANCH   4  47
ATOM     47  C   UNL     1     -11.378 -16.252  -4.505  1.00  0.00     0.191 C 
BRANCH  47  48
ATOM     48  O   UNL     1     -11.169 -17.124  -3.375  1.00  0.00    -0.394 OA
ATOM     49  H   UNL     1     -11.742 -16.779  -2.644  1.00  0.00     0.210 HD
ENDBRANCH  47  48
ENDBRANCH   4  47
TORSDOF 14
ENDMDL
MODEL 5
REMARK VINA RESULT:    -5.984     11.204     15.238
REMARK INTER + INTRA:         -12.870
REMARK INTER:                 -11.076
REMARK INTRA:                  -1.793
REMARK UNBOUND:                -3.387
REMARK SMILES C[C@H]1O[C@H](O[C@@H]2[C@@H](Oc3cc(O)c4c(c3)O[C@@H](c3ccc(O)cc3)CC4=O)O[C@H](CO)[C@@H](O)[C@@H]2O)[C@H](O)[C@H](O)[C@H]1O
REMARK SMILES IDX 6 1 34 2 32 3 29 4 28 5 7 6 5 7 4 8 1 9 2 10 40 11 3 12
REMARK SMILES IDX 38 13 36 14 41 15 39 17 37 19 35 21 8 23 9 24 10 25 15 26
REMARK SMILES IDX 11 27 14 28 13 29 16 30 26 31 17 32 27 33 25 34 12 35 18 37
REMARK SMILES IDX 19 38 24 39 20 40 23 41 21 42 22 43 33 45 30 47 31 48
REMARK H PARENT 41 16 39 18 37 20 35 22 12 36 22 44 33 46 31 49
REMARK Flexibility Score: inf
ROOT
ATOM      1  C   UNL     1     -17.758 -12.479   6.659  1.00  0.00     0.221 C 
ATOM      2  C   UNL     1     -18.199 -13.770   5.850  1.00  0.00     0.181 C 
ATOM      3  C   UNL     1     -18.089 -15.159   6.588  1.00  0.00     0.177 C 
ATOM      4  C   UNL     1     -18.391 -14.814   8.038  1.00  0.00     0.179 C 
ATOM      5  O   UNL     1     -17.249 -14.116   8.518  1.00  0.00    -0.332 OA
ATOM      6  C   UNL     1     -17.274 -12.734   8.122  1.00  0.00     0.339 C 
ENDROOT
BRANCH   1   7
ATOM      7  O   UNL     1     -16.895 -11.633   5.882  1.00  0.00    -0.337 OA
BRANCH   7   8
ATOM      8  C   UNL     1     -17.359 -10.270   5.913  1.00  0.00     0.282 C 
ATOM      9  C   UNL     1     -14.127  -8.542   5.460  1.00  0.00     0.041 C 
ATOM     10  C   UNL     1     -15.453  -9.221   5.088  1.00  0.00     0.150 C 
ATOM     11  C   UNL     1     -16.143  -8.385   4.003  1.00  0.00     0.174 C 
ATOM     12  O   UNL     1     -16.301  -9.377   6.211  1.00  0.00    -0.344 OA
ATOM     13  C   UNL     1     -17.410  -9.118   3.498  1.00  0.00     0.179 C 
ATOM     14  C   UNL     1     -18.214  -9.828   4.662  1.00  0.00     0.202 C 
BRANCH  11  15
ATOM     15  O   UNL     1     -16.459  -7.086   4.482  1.00  0.00    -0.388 OA
ATOM     16  H   UNL     1     -16.903  -6.606   3.709  1.00  0.00     0.211 HD
ENDBRANCH  11  15
BRANCH  13  17
ATOM     17  O   UNL     1     -17.100 -10.055   2.485  1.00  0.00    -0.387 OA
ATOM     18  H   UNL     1     -17.338  -9.676   1.622  1.00  0.00     0.211 HD
ENDBRANCH  13  17
BRANCH  14  19
ATOM     19  O   UNL     1     -18.902 -10.923   4.157  1.00  0.00    -0.385 OA
ATOM     20  H   UNL     1     -19.350 -11.332   4.965  1.00  0.00     0.211 HD
ENDBRANCH  14  19
ENDBRANCH   7   8
ENDBRANCH   1   7
BRANCH   2  21
ATOM     21  O   UNL     1     -17.615 -13.786   4.560  1.00  0.00    -0.387 OA
ATOM     22  H   UNL     1     -17.023 -14.597   4.539  1.00  0.00     0.211 HD
ENDBRANCH   2  21
BRANCH   6  23
ATOM     23  O   UNL     1     -18.158 -12.028   9.035  1.00  0.00    -0.462 OA
BRANCH  23  24
ATOM     24  C   UNL     1     -19.246 -11.280   8.590  1.00  0.00     0.130 A 
ATOM     25  C   UNL     1     -20.522 -11.883   8.396  1.00  0.00     0.093 A 
ATOM     26  C   UNL     1     -19.084  -9.914   8.349  1.00  0.00     0.094 A 
ATOM     27  C   UNL     1     -21.683 -11.079   8.355  1.00  0.00     0.133 A 
ATOM     28  C   UNL     1     -20.230  -9.133   8.143  1.00  0.00     0.138 A 
ATOM     29  C   UNL     1     -21.506  -9.678   8.319  1.00  0.00     0.102 A 
ATOM     30  O   UNL     1     -20.073  -7.763   7.812  1.00  0.00    -0.484 OA
ATOM     31  C   UNL     1     -22.629  -8.723   8.397  1.00  0.00     0.174 C 
ATOM     32  C   UNL     1     -21.132  -7.034   7.188  1.00  0.00     0.211 C 
ATOM     33  O   UNL     1     -23.526  -8.860   9.308  1.00  0.00    -0.294 OA
ATOM     34  C   UNL     1     -22.588  -7.477   7.578  1.00  0.00     0.131 C 
BRANCH  27  35
ATOM     35  O   UNL     1     -22.929 -11.690   8.350  1.00  0.00    -0.507 OA
ATOM     36  H   UNL     1     -23.065 -12.525   8.919  1.00  0.00     0.293 HD
ENDBRANCH  27  35
BRANCH  32  37
ATOM     37  C   UNL     1     -20.854  -6.977   5.713  1.00  0.00    -0.007 A 
ATOM     38  C   UNL     1     -21.991  -7.010   4.873  1.00  0.00     0.011 A 
ATOM     39  C   UNL     1     -19.676  -6.333   5.215  1.00  0.00     0.011 A 
ATOM     40  C   UNL     1     -22.070  -6.182   3.737  1.00  0.00     0.046 A 
ATOM     41  C   UNL     1     -19.767  -5.529   4.090  1.00  0.00     0.046 A 
ATOM     42  C   UNL     1     -20.969  -5.341   3.411  1.00  0.00     0.115 A 
BRANCH  42  43
ATOM     43  O   UNL     1     -21.109  -4.395   2.353  1.00  0.00    -0.508 OA
ATOM     44  H   UNL     1     -20.563  -3.554   2.335  1.00  0.00     0.293 HD
ENDBRANCH  42  43
ENDBRANCH  32  37
ENDBRANCH  23  24
ENDBRANCH   6  23
BRANCH   3  45
ATOM     45  O   UNL     1     -19.037 -16.070   6.036  1.00  0.00    -0.387 OA
ATOM     46  H   UNL     1     -18.852 -16.959   6.382  1.00  0.00     0.211 HD
ENDBRANCH   3  45
BRANCH   4  47
ATOM     47  C   UNL     1     -18.669 -16.057   8.863  1.00  0.00     0.191 C 
BRANCH  47  48
ATOM     48  O   UNL     1     -17.952 -17.192   8.333  1.00  0.00    -0.394 OA
ATOM     49  H   UNL     1     -17.897 -17.056   7.354  1.00  0.00     0.210 HD
ENDBRANCH  47  48
ENDBRANCH   4  47
TORSDOF 14
ENDMDL
MODEL 6
REMARK VINA RESULT:    -5.975      2.161      8.201
REMARK INTER + INTRA:         -12.855
REMARK INTER:                 -10.567
REMARK INTRA:                  -2.288
REMARK UNBOUND:                -3.387
REMARK SMILES C[C@H]1O[C@H](O[C@@H]2[C@@H](Oc3cc(O)c4c(c3)O[C@@H](c3ccc(O)cc3)CC4=O)O[C@H](CO)[C@@H](O)[C@@H]2O)[C@H](O)[C@H](O)[C@H]1O
REMARK SMILES IDX 6 1 34 2 32 3 29 4 28 5 7 6 5 7 4 8 1 9 2 10 40 11 3 12
REMARK SMILES IDX 38 13 36 14 41 15 39 17 37 19 35 21 8 23 9 24 10 25 15 26
REMARK SMILES IDX 11 27 14 28 13 29 16 30 26 31 17 32 27 33 25 34 12 35 18 37
REMARK SMILES IDX 19 38 24 39 20 40 23 41 21 42 22 43 33 45 30 47 31 48
REMARK H PARENT 41 16 39 18 37 20 35 22 12 36 22 44 33 46 31 49
REMARK Flexibility Score: inf
ROOT
ATOM      1  C   UNL     1     -14.811 -14.194  -7.354  1.00  0.00     0.221 C 
ATOM      2  C   UNL     1     -14.030 -15.165  -8.336  1.00  0.00     0.181 C 
ATOM      3  C   UNL     1     -14.802 -16.434  -8.864  1.00  0.00     0.177 C 
ATOM      4  C   UNL     1     -16.240 -15.952  -8.973  1.00  0.00     0.179 C 
ATOM      5  O   UNL     1     -16.714 -15.835  -7.636  1.00  0.00    -0.332 OA
ATOM      6  C   UNL     1     -16.283 -14.602  -7.034  1.00  0.00     0.339 C 
ENDROOT
BRANCH   1   7
ATOM      7  O   UNL     1     -14.021 -13.851  -6.204  1.00  0.00    -0.337 OA
BRANCH   7   8
ATOM      8  C   UNL     1     -14.363 -14.690  -5.085  1.00  0.00     0.282 C 
ATOM      9  C   UNL     1     -11.215 -16.600  -4.803  1.00  0.00     0.041 C 
ATOM     10  C   UNL     1     -12.238 -15.480  -4.563  1.00  0.00     0.150 C 
ATOM     11  C   UNL     1     -12.273 -15.163  -3.063  1.00  0.00     0.174 C 
ATOM     12  O   UNL     1     -13.527 -15.831  -5.029  1.00  0.00    -0.344 OA
ATOM     13  C   UNL     1     -13.183 -13.937  -2.804  1.00  0.00     0.179 C 
ATOM     14  C   UNL     1     -14.486 -13.938  -3.702  1.00  0.00     0.202 C 
BRANCH  11  15
ATOM     15  O   UNL     1     -12.704 -16.288  -2.313  1.00  0.00    -0.388 OA
ATOM     16  H   UNL     1     -12.133 -17.064  -2.624  1.00  0.00     0.211 HD
ENDBRANCH  11  15
BRANCH  13  17
ATOM     17  O   UNL     1     -12.480 -12.722  -2.977  1.00  0.00    -0.387 OA
ATOM     18  H   UNL     1     -11.538 -12.874  -2.787  1.00  0.00     0.211 HD
ENDBRANCH  13  17
BRANCH  14  19
ATOM     19  O   UNL     1     -14.910 -12.634  -3.916  1.00  0.00    -0.385 OA
ATOM     20  H   UNL     1     -14.801 -12.184  -3.018  1.00  0.00     0.211 HD
ENDBRANCH  14  19
ENDBRANCH   7   8
ENDBRANCH   1   7
BRANCH   2  21
ATOM     21  O   UNL     1     -12.745 -15.476  -7.826  1.00  0.00    -0.387 OA
ATOM     22  H   UNL     1     -12.255 -15.925  -8.580  1.00  0.00     0.211 HD
ENDBRANCH   2  21
BRANCH   6  23
ATOM     23  O   UNL     1     -17.172 -13.550  -7.499  1.00  0.00    -0.462 OA
BRANCH  23  24
ATOM     24  C   UNL     1     -17.775 -12.645  -6.627  1.00  0.00     0.130 A 
ATOM     25  C   UNL     1     -18.060 -13.004  -5.279  1.00  0.00     0.093 A 
ATOM     26  C   UNL     1     -18.088 -11.363  -7.082  1.00  0.00     0.094 A 
ATOM     27  C   UNL     1     -18.275 -11.996  -4.312  1.00  0.00     0.133 A 
ATOM     28  C   UNL     1     -18.462 -10.394  -6.140  1.00  0.00     0.138 A 
ATOM     29  C   UNL     1     -18.384 -10.664  -4.770  1.00  0.00     0.102 A 
ATOM     30  O   UNL     1     -18.864  -9.114  -6.599  1.00  0.00    -0.484 OA
ATOM     31  C   UNL     1     -18.486  -9.507  -3.860  1.00  0.00     0.174 C 
ATOM     32  C   UNL     1     -19.642  -8.249  -5.767  1.00  0.00     0.211 C 
ATOM     33  O   UNL     1     -17.666  -9.389  -2.877  1.00  0.00    -0.294 OA
ATOM     34  C   UNL     1     -19.377  -8.366  -4.224  1.00  0.00     0.131 C 
BRANCH  27  35
ATOM     35  O   UNL     1     -18.368 -12.352  -2.974  1.00  0.00    -0.507 OA
ATOM     36  H   UNL     1     -19.039 -13.071  -2.705  1.00  0.00     0.293 HD
ENDBRANCH  27  35
BRANCH  32  37
ATOM     37  C   UNL     1     -21.080  -8.373  -6.181  1.00  0.00    -0.007 A 
ATOM     38  C   UNL     1     -21.562  -7.357  -7.038  1.00  0.00     0.011 A 
ATOM     39  C   UNL     1     -21.716  -9.655  -6.245  1.00  0.00     0.011 A 
ATOM     40  C   UNL     1     -22.406  -7.669  -8.121  1.00  0.00     0.046 A 
ATOM     41  C   UNL     1     -22.552  -9.944  -7.312  1.00  0.00     0.046 A 
ATOM     42  C   UNL     1     -22.812  -9.018  -8.319  1.00  0.00     0.115 A 
BRANCH  42  43
ATOM     43  O   UNL     1     -23.539  -9.356  -9.498  1.00  0.00    -0.508 OA
ATOM     44  H   UNL     1     -24.522  -9.553  -9.462  1.00  0.00     0.293 HD
ENDBRANCH  42  43
ENDBRANCH  32  37
ENDBRANCH  23  24
ENDBRANCH   6  23
BRANCH   3  45
ATOM     45  O   UNL     1     -14.264 -16.830 -10.124  1.00  0.00    -0.387 OA
ATOM     46  H   UNL     1     -13.900 -17.727 -10.039  1.00  0.00     0.211 HD
ENDBRANCH   3  45
BRANCH   4  47
ATOM     47  C   UNL     1     -17.093 -16.913  -9.782  1.00  0.00     0.191 C 
BRANCH  47  48
ATOM     48  O   UNL     1     -16.879 -18.272  -9.348  1.00  0.00    -0.394 OA
ATOM     49  H   UNL     1     -17.607 -18.481  -8.710  1.00  0.00     0.210 HD
ENDBRANCH  47  48
ENDBRANCH   4  47
TORSDOF 14
ENDMDL
MODEL 7
REMARK VINA RESULT:    -5.701      1.710      5.954
REMARK INTER + INTRA:         -12.420
REMARK INTER:                  -9.126
REMARK INTRA:                  -3.294
REMARK UNBOUND:                -3.387
REMARK SMILES C[C@H]1O[C@H](O[C@@H]2[C@@H](Oc3cc(O)c4c(c3)O[C@@H](c3ccc(O)cc3)CC4=O)O[C@H](CO)[C@@H](O)[C@@H]2O)[C@H](O)[C@H](O)[C@H]1O
REMARK SMILES IDX 6 1 34 2 32 3 29 4 28 5 7 6 5 7 4 8 1 9 2 10 40 11 3 12
REMARK SMILES IDX 38 13 36 14 41 15 39 17 37 19 35 21 8 23 9 24 10 25 15 26
REMARK SMILES IDX 11 27 14 28 13 29 16 30 26 31 17 32 27 33 25 34 12 35 18 37
REMARK SMILES IDX 19 38 24 39 20 40 23 41 21 42 22 43 33 45 30 47 31 48
REMARK H PARENT 41 16 39 18 37 20 35 22 12 36 22 44 33 46 31 49
REMARK Flexibility Score: inf
ROOT
ATOM      1  C   UNL     1     -20.149 -11.864  -8.902  1.00  0.00     0.221 C 
ATOM      2  C   UNL     1     -21.503 -11.424  -9.603  1.00  0.00     0.181 C 
ATOM      3  C   UNL     1     -22.444 -10.444  -8.805  1.00  0.00     0.177 C 
ATOM      4  C   UNL     1     -21.469  -9.576  -8.023  1.00  0.00     0.179 C 
ATOM      5  O   UNL     1     -20.946 -10.409  -6.995  1.00  0.00    -0.332 OA
ATOM      6  C   UNL     1     -19.892 -11.252  -7.490  1.00  0.00     0.339 C 
ENDROOT
BRANCH   1   7
ATOM      7  O   UNL     1     -19.944 -13.284  -8.986  1.00  0.00    -0.337 OA
BRANCH   7   8
ATOM      8  C   UNL     1     -20.210 -13.911  -7.718  1.00  0.00     0.282 C 
ATOM      9  C   UNL     1     -23.084 -16.015  -8.697  1.00  0.00     0.041 C 
ATOM     10  C   UNL     1     -21.623 -15.611  -8.444  1.00  0.00     0.150 C 
ATOM     11  C   UNL     1     -20.908 -16.774  -7.746  1.00  0.00     0.174 C 
ATOM     12  O   UNL     1     -21.527 -14.429  -7.670  1.00  0.00    -0.344 OA
ATOM     13  C   UNL     1     -19.398 -16.459  -7.610  1.00  0.00     0.179 C 
ATOM     14  C   UNL     1     -19.116 -14.946  -7.243  1.00  0.00     0.202 C 
BRANCH  11  15
ATOM     15  O   UNL     1     -21.491 -17.045  -6.480  1.00  0.00    -0.388 OA
ATOM     16  H   UNL     1     -22.451 -16.731  -6.543  1.00  0.00     0.211 HD
ENDBRANCH  11  15
BRANCH  13  17
ATOM     17  O   UNL     1     -18.686 -16.812  -8.781  1.00  0.00    -0.387 OA
ATOM     18  H   UNL     1     -18.124 -16.063  -9.044  1.00  0.00     0.211 HD
ENDBRANCH  13  17
BRANCH  14  19
ATOM     19  O   UNL     1     -17.873 -14.568  -7.732  1.00  0.00    -0.385 OA
ATOM     20  H   UNL     1     -17.412 -14.139  -6.942  1.00  0.00     0.211 HD
ENDBRANCH  14  19
ENDBRANCH   7   8
ENDBRANCH   1   7
BRANCH   2  21
ATOM     21  O   UNL     1     -22.194 -12.546 -10.124  1.00  0.00    -0.387 OA
ATOM     22  H   UNL     1     -22.596 -12.239 -10.992  1.00  0.00     0.211 HD
ENDBRANCH   2  21
BRANCH   6  23
ATOM     23  O   UNL     1     -18.676 -10.457  -7.540  1.00  0.00    -0.462 OA
BRANCH  23  24
ATOM     24  C   UNL     1     -17.515 -10.826  -6.863  1.00  0.00     0.130 A 
ATOM     25  C   UNL     1     -16.272 -10.187  -7.134  1.00  0.00     0.093 A 
ATOM     26  C   UNL     1     -17.580 -11.828  -5.893  1.00  0.00     0.094 A 
ATOM     27  C   UNL     1     -15.222 -10.259  -6.191  1.00  0.00     0.133 A 
ATOM     28  C   UNL     1     -16.472 -12.016  -5.054  1.00  0.00     0.138 A 
ATOM     29  C   UNL     1     -15.390 -11.131  -5.093  1.00  0.00     0.102 A 
ATOM     30  O   UNL     1     -16.494 -13.086  -4.123  1.00  0.00    -0.484 OA
ATOM     31  C   UNL     1     -14.429 -11.211  -3.976  1.00  0.00     0.174 C 
ATOM     32  C   UNL     1     -15.280 -13.590  -3.559  1.00  0.00     0.211 C 
ATOM     33  O   UNL     1     -14.014 -10.135  -3.407  1.00  0.00    -0.294 OA
ATOM     34  C   UNL     1     -14.131 -12.538  -3.361  1.00  0.00     0.131 C 
BRANCH  27  35
ATOM     35  O   UNL     1     -14.088  -9.483  -6.382  1.00  0.00    -0.507 OA
ATOM     36  H   UNL     1     -13.214  -9.781  -5.950  1.00  0.00     0.293 HD
ENDBRANCH  27  35
BRANCH  32  37
ATOM     37  C   UNL     1     -14.892 -14.827  -4.316  1.00  0.00    -0.007 A 
ATOM     38  C   UNL     1     -15.782 -15.920  -4.203  1.00  0.00     0.011 A 
ATOM     39  C   UNL     1     -14.091 -14.739  -5.500  1.00  0.00     0.011 A 
ATOM     40  C   UNL     1     -16.101 -16.707  -5.326  1.00  0.00     0.046 A 
ATOM     41  C   UNL     1     -14.411 -15.527  -6.594  1.00  0.00     0.046 A 
ATOM     42  C   UNL     1     -15.479 -16.422  -6.574  1.00  0.00     0.115 A 
BRANCH  42  43
ATOM     43  O   UNL     1     -15.914 -17.118  -7.740  1.00  0.00    -0.508 OA
ATOM     44  H   UNL     1     -16.849 -17.012  -8.088  1.00  0.00     0.293 HD
ENDBRANCH  42  43
ENDBRANCH  32  37
ENDBRANCH  23  24
ENDBRANCH   6  23
BRANCH   3  45
ATOM     45  O   UNL     1     -23.232  -9.686  -9.721  1.00  0.00    -0.387 OA
ATOM     46  H   UNL     1     -23.698 -10.301 -10.312  1.00  0.00     0.211 HD
ENDBRANCH   3  45
BRANCH   4  47
ATOM     47  C   UNL     1     -22.150  -8.347  -7.449  1.00  0.00     0.191 C 
BRANCH  47  48
ATOM     48  O   UNL     1     -23.578  -8.543  -7.375  1.00  0.00    -0.394 OA
ATOM     49  H   UNL     1     -23.803  -8.605  -6.412  1.00  0.00     0.210 HD
ENDBRANCH  47  48
ENDBRANCH   4  47
TORSDOF 14
ENDMDL
MODEL 8
REMARK VINA RESULT:    -5.596      2.086      8.125
REMARK INTER + INTRA:         -12.253
REMARK INTER:                 -10.771
REMARK INTRA:                  -1.482
REMARK UNBOUND:                -3.387
REMARK SMILES C[C@H]1O[C@H](O[C@@H]2[C@@H](Oc3cc(O)c4c(c3)O[C@@H](c3ccc(O)cc3)CC4=O)O[C@H](CO)[C@@H](O)[C@@H]2O)[C@H](O)[C@H](O)[C@H]1O
REMARK SMILES IDX 6 1 34 2 32 3 29 4 28 5 7 6 5 7 4 8 1 9 2 10 40 11 3 12
REMARK SMILES IDX 38 13 36 14 41 15 39 17 37 19 35 21 8 23 9 24 10 25 15 26
REMARK SMILES IDX 11 27 14 28 13 29 16 30 26 31 17 32 27 33 25 34 12 35 18 37
REMARK SMILES IDX 19 38 24 39 20 40 23 41 21 42 22 43 33 45 30 47 31 48
REMARK H PARENT 41 16 39 18 37 20 35 22 12 36 22 44 33 46 31 49
REMARK Flexibility Score: inf
ROOT
ATOM      1  C   UNL     1     -16.405 -15.682  -8.028  1.00  0.00     0.221 C 
ATOM      2  C   UNL     1     -17.229 -16.780  -8.823  1.00  0.00     0.181 C 
ATOM      3  C   UNL     1     -18.732 -17.002  -8.402  1.00  0.00     0.177 C 
ATOM      4  C   UNL     1     -19.188 -15.615  -7.977  1.00  0.00     0.179 C 
ATOM      5  O   UNL     1     -18.552 -15.361  -6.730  1.00  0.00    -0.332 OA
ATOM      6  C   UNL     1     -17.194 -14.923  -6.915  1.00  0.00     0.339 C 
ENDROOT
BRANCH   1   7
ATOM      7  O   UNL     1     -15.118 -16.174  -7.620  1.00  0.00    -0.337 OA
BRANCH   7   8
ATOM      8  C   UNL     1     -14.216 -15.081  -7.361  1.00  0.00     0.282 C 
ATOM      9  C   UNL     1     -13.283 -15.904  -3.884  1.00  0.00     0.041 C 
ATOM     10  C   UNL     1     -13.221 -15.887  -5.418  1.00  0.00     0.150 C 
ATOM     11  C   UNL     1     -11.762 -15.686  -5.846  1.00  0.00     0.174 C 
ATOM     12  O   UNL     1     -14.046 -14.877  -5.970  1.00  0.00    -0.344 OA
ATOM     13  C   UNL     1     -11.641 -15.812  -7.385  1.00  0.00     0.179 C 
ATOM     14  C   UNL     1     -12.852 -15.142  -8.154  1.00  0.00     0.202 C 
BRANCH  11  15
ATOM     15  O   UNL     1     -11.265 -14.435  -5.395  1.00  0.00    -0.388 OA
ATOM     16  H   UNL     1     -10.918 -13.961  -6.219  1.00  0.00     0.211 HD
ENDBRANCH  11  15
BRANCH  13  17
ATOM     17  O   UNL     1     -11.504 -17.162  -7.786  1.00  0.00    -0.387 OA
ATOM     18  H   UNL     1     -10.625 -17.481  -7.517  1.00  0.00     0.211 HD
ENDBRANCH  13  17
BRANCH  14  19
ATOM     19  O   UNL     1     -13.047 -15.781  -9.370  1.00  0.00    -0.385 OA
ATOM     20  H   UNL     1     -13.665 -15.166  -9.881  1.00  0.00     0.211 HD
ENDBRANCH  14  19
ENDBRANCH   7   8
ENDBRANCH   1   7
BRANCH   2  21
ATOM     21  O   UNL     1     -16.501 -17.991  -8.919  1.00  0.00    -0.387 OA
ATOM     22  H   UNL     1     -15.551 -17.756  -8.692  1.00  0.00     0.211 HD
ENDBRANCH   2  21
BRANCH   6  23
ATOM     23  O   UNL     1     -17.228 -13.508  -7.248  1.00  0.00    -0.462 OA
BRANCH  23  24
ATOM     24  C   UNL     1     -17.819 -12.560  -6.415  1.00  0.00     0.130 A 
ATOM     25  C   UNL     1     -18.110 -12.859  -5.053  1.00  0.00     0.093 A 
ATOM     26  C   UNL     1     -18.113 -11.293  -6.923  1.00  0.00     0.094 A 
ATOM     27  C   UNL     1     -18.310 -11.809  -4.129  1.00  0.00     0.133 A 
ATOM     28  C   UNL     1     -18.473 -10.281  -6.021  1.00  0.00     0.138 A 
ATOM     29  C   UNL     1     -18.400 -10.496  -4.641  1.00  0.00     0.102 A 
ATOM     30  O   UNL     1     -18.857  -9.015  -6.533  1.00  0.00    -0.484 OA
ATOM     31  C   UNL     1     -18.486  -9.301  -3.780  1.00  0.00     0.174 C 
ATOM     32  C   UNL     1     -19.623  -8.106  -5.738  1.00  0.00     0.211 C 
ATOM     33  O   UNL     1     -17.665  -9.154  -2.801  1.00  0.00    -0.294 OA
ATOM     34  C   UNL     1     -19.360  -8.164  -4.191  1.00  0.00     0.131 C 
BRANCH  27  35
ATOM     35  O   UNL     1     -18.409 -12.109  -2.777  1.00  0.00    -0.507 OA
ATOM     36  H   UNL     1     -19.319 -12.376  -2.402  1.00  0.00     0.293 HD
ENDBRANCH  27  35
BRANCH  32  37
ATOM     37  C   UNL     1     -21.062  -8.226  -6.148  1.00  0.00    -0.007 A 
ATOM     38  C   UNL     1     -21.531  -7.234  -7.041  1.00  0.00     0.011 A 
ATOM     39  C   UNL     1     -21.714  -9.501  -6.167  1.00  0.00     0.011 A 
ATOM     40  C   UNL     1     -22.378  -7.574  -8.113  1.00  0.00     0.046 A 
ATOM     41  C   UNL     1     -22.553  -9.817  -7.224  1.00  0.00     0.046 A 
ATOM     42  C   UNL     1     -22.802  -8.924  -8.263  1.00  0.00     0.115 A 
BRANCH  42  43
ATOM     43  O   UNL     1     -23.533  -9.294  -9.430  1.00  0.00    -0.508 OA
ATOM     44  H   UNL     1     -24.301  -8.739  -9.758  1.00  0.00     0.293 HD
ENDBRANCH  42  43
ENDBRANCH  32  37
ENDBRANCH  23  24
ENDBRANCH   6  23
BRANCH   3  45
ATOM     45  O   UNL     1     -19.471 -17.500  -9.515  1.00  0.00    -0.387 OA
ATOM     46  H   UNL     1     -20.340 -17.064  -9.532  1.00  0.00     0.211 HD
ENDBRANCH   3  45
BRANCH   4  47
ATOM     47  C   UNL     1     -20.699 -15.536  -7.854  1.00  0.00     0.191 C 
BRANCH  47  48
ATOM     48  O   UNL     1     -21.218 -16.701  -7.179  1.00  0.00    -0.394 OA
ATOM     49  H   UNL     1     -20.437 -17.170  -6.790  1.00  0.00     0.210 HD
ENDBRANCH  47  48
ENDBRANCH   4  47
TORSDOF 14
ENDMDL
MODEL 9
REMARK VINA RESULT:    -5.588      1.853      5.755
REMARK INTER + INTRA:         -12.241
REMARK INTER:                  -9.422
REMARK INTRA:                  -2.819
REMARK UNBOUND:                -3.387
REMARK SMILES C[C@H]1O[C@H](O[C@@H]2[C@@H](Oc3cc(O)c4c(c3)O[C@@H](c3ccc(O)cc3)CC4=O)O[C@H](CO)[C@@H](O)[C@@H]2O)[C@H](O)[C@H](O)[C@H]1O
REMARK SMILES IDX 6 1 34 2 32 3 29 4 28 5 7 6 5 7 4 8 1 9 2 10 40 11 3 12
REMARK SMILES IDX 38 13 36 14 41 15 39 17 37 19 35 21 8 23 9 24 10 25 15 26
REMARK SMILES IDX 11 27 14 28 13 29 16 30 26 31 17 32 27 33 25 34 12 35 18 37
REMARK SMILES IDX 19 38 24 39 20 40 23 41 21 42 22 43 33 45 30 47 31 48
REMARK H PARENT 41 16 39 18 37 20 35 22 12 36 22 44 33 46 31 49
REMARK Flexibility Score: inf
ROOT
ATOM      1  C   UNL     1     -17.962 -10.647  -4.841  1.00  0.00     0.221 C 
ATOM      2  C   UNL     1     -17.688  -9.338  -3.988  1.00  0.00     0.181 C 
ATOM      3  C   UNL     1     -17.987  -9.407  -2.441  1.00  0.00     0.177 C 
ATOM      4  C   UNL     1     -17.654 -10.847  -2.081  1.00  0.00     0.179 C 
ATOM      5  O   UNL     1     -18.699 -11.638  -2.635  1.00  0.00    -0.332 OA
ATOM      6  C   UNL     1     -18.488 -11.878  -4.037  1.00  0.00     0.339 C 
ENDROOT
BRANCH   1   7
ATOM      7  O   UNL     1     -18.699 -10.356  -6.040  1.00  0.00    -0.337 OA
BRANCH   7   8
ATOM      8  C   UNL     1     -20.112 -10.538  -5.824  1.00  0.00     0.282 C 
ATOM      9  C   UNL     1     -21.281  -7.150  -6.713  1.00  0.00     0.041 C 
ATOM     10  C   UNL     1     -20.890  -8.624  -6.894  1.00  0.00     0.150 C 
ATOM     11  C   UNL     1     -21.946  -9.305  -7.773  1.00  0.00     0.174 C 
ATOM     12  O   UNL     1     -20.767  -9.295  -5.653  1.00  0.00    -0.344 OA
ATOM     13  C   UNL     1     -21.507 -10.754  -8.098  1.00  0.00     0.179 C 
ATOM     14  C   UNL     1     -20.829 -11.482  -6.867  1.00  0.00     0.202 C 
BRANCH  11  15
ATOM     15  O   UNL     1     -23.221  -9.285  -7.149  1.00  0.00    -0.388 OA
ATOM     16  H   UNL     1     -23.689  -8.460  -7.501  1.00  0.00     0.211 HD
ENDBRANCH  11  15
BRANCH  13  17
ATOM     17  O   UNL     1     -20.643 -10.796  -9.218  1.00  0.00    -0.387 OA
ATOM     18  H   UNL     1     -20.887 -11.556  -9.774  1.00  0.00     0.211 HD
ENDBRANCH  13  17
BRANCH  14  19
ATOM     19  O   UNL     1     -19.933 -12.439  -7.322  1.00  0.00    -0.385 OA
ATOM     20  H   UNL     1     -20.116 -13.249  -6.746  1.00  0.00     0.211 HD
ENDBRANCH  14  19
ENDBRANCH   7   8
ENDBRANCH   1   7
BRANCH   2  21
ATOM     21  O   UNL     1     -18.258  -8.199  -4.607  1.00  0.00    -0.387 OA
ATOM     22  H   UNL     1     -18.580  -8.510  -5.506  1.00  0.00     0.211 HD
ENDBRANCH   2  21
BRANCH   6  23
ATOM     23  O   UNL     1     -17.527 -12.961  -4.161  1.00  0.00    -0.462 OA
BRANCH  23  24
ATOM     24  C   UNL     1     -17.274 -13.598  -5.375  1.00  0.00     0.130 A 
ATOM     25  C   UNL     1     -16.312 -13.082  -6.289  1.00  0.00     0.093 A 
ATOM     26  C   UNL     1     -17.966 -14.770  -5.687  1.00  0.00     0.094 A 
ATOM     27  C   UNL     1     -15.769 -13.920  -7.288  1.00  0.00     0.133 A 
ATOM     28  C   UNL     1     -17.530 -15.529  -6.784  1.00  0.00     0.138 A 
ATOM     29  C   UNL     1     -16.350 -15.197  -7.457  1.00  0.00     0.102 A 
ATOM     30  O   UNL     1     -18.276 -16.674  -7.162  1.00  0.00    -0.484 OA
ATOM     31  C   UNL     1     -15.804 -16.214  -8.376  1.00  0.00     0.174 C 
ATOM     32  C   UNL     1     -18.153 -17.227  -8.475  1.00  0.00     0.211 C 
ATOM     33  O   UNL     1     -14.548 -16.488  -8.357  1.00  0.00    -0.294 OA
ATOM     34  C   UNL     1     -16.741 -17.082  -9.147  1.00  0.00     0.131 C 
BRANCH  27  35
ATOM     35  O   UNL     1     -14.704 -13.461  -8.050  1.00  0.00    -0.507 OA
ATOM     36  H   UNL     1     -13.782 -13.869  -7.897  1.00  0.00     0.293 HD
ENDBRANCH  27  35
BRANCH  32  37
ATOM     37  C   UNL     1     -19.307 -16.735  -9.299  1.00  0.00    -0.007 A 
ATOM     38  C   UNL     1     -20.593 -17.079  -8.821  1.00  0.00     0.011 A 
ATOM     39  C   UNL     1     -19.187 -15.550 -10.093  1.00  0.00     0.011 A 
ATOM     40  C   UNL     1     -21.646 -16.145  -8.851  1.00  0.00     0.046 A 
ATOM     41  C   UNL     1     -20.236 -14.644 -10.121  1.00  0.00     0.046 A 
ATOM     42  C   UNL     1     -21.417 -14.858  -9.415  1.00  0.00     0.115 A 
BRANCH  42  43
ATOM     43  O   UNL     1     -22.435 -13.865  -9.308  1.00  0.00    -0.508 OA
ATOM     44  H   UNL     1     -22.885 -13.677  -8.432  1.00  0.00     0.293 HD
ENDBRANCH  42  43
ENDBRANCH  32  37
ENDBRANCH  23  24
ENDBRANCH   6  23
BRANCH   3  45
ATOM     45  O   UNL     1     -17.163  -8.470  -1.753  1.00  0.00    -0.387 OA
ATOM     46  H   UNL     1     -16.977  -8.813  -0.863  1.00  0.00     0.211 HD
ENDBRANCH   3  45
BRANCH   4  47
ATOM     47  C   UNL     1     -17.549 -11.038  -0.579  1.00  0.00     0.191 C 
BRANCH  47  48
ATOM     48  O   UNL     1     -18.332 -10.046   0.117  1.00  0.00    -0.394 OA
ATOM     49  H   UNL     1     -18.931 -10.541   0.731  1.00  0.00     0.210 HD
ENDBRANCH  47  48
ENDBRANCH   4  47
TORSDOF 14
ENDMDL
