MODEL 1
REMARK VINA RESULT:    -7.463      0.000      0.000
REMARK INTER + INTRA:         -10.421
REMARK INTER:                  -9.426
REMARK INTRA:                  -0.995
REMARK UNBOUND:                -0.995
REMARK SMILES CC(C)[C@@H](C)C=C[C@@H](C)[C@@H]1CC[C@H]2C3=CC=C4C[C@H](O)CC[C@]4(C)[C@H]3CC[C@]21C
REMARK SMILES IDX 8 1 9 2 7 3 6 4 4 5 5 6 2 7 1 8 3 9 10 10 11 11 28 12 12 13
REMARK SMILES IDX 13 14 27 15 29 16 14 17 26 18 25 19 15 20 23 21 16 22 17 23
REMARK SMILES IDX 22 24 24 25 18 26 21 27 19 28 20 29
REMARK H PARENT 20 30
REMARK Flexibility Score: inf
ROOT
ATOM      1  C   UNL     1     181.871 180.107 184.706  1.00  0.00     0.012 C 
ATOM      2  C   UNL     1     181.496 179.522 186.081  1.00  0.00     0.012 C 
ENDROOT
BRANCH   1   3
ATOM      3  C   UNL     1     181.333 181.521 184.622  1.00  0.00    -0.028 C 
ATOM      4  C   UNL     1     180.015 181.784 184.577  1.00  0.00    -0.028 C 
BRANCH   4   5
ATOM      5  C   UNL     1     179.497 183.203 184.449  1.00  0.00     0.011 C 
ATOM      6  C   UNL     1     178.573 183.538 185.633  1.00  0.00     0.012 C 
BRANCH   5   7
ATOM      7  C   UNL     1     178.831 183.434 183.058  1.00  0.00    -0.011 C 
ATOM      8  C   UNL     1     179.642 184.361 182.136  1.00  0.00     0.008 C 
ATOM      9  C   UNL     1     178.529 182.108 182.343  1.00  0.00     0.008 C 
ENDBRANCH   5   7
ENDBRANCH   4   5
ENDBRANCH   1   3
BRANCH   1  10
ATOM     10  C   UNL     1     181.384 179.275 183.466  1.00  0.00     0.002 C 
ATOM     11  C   UNL     1     180.263 178.279 183.813  1.00  0.00     0.005 C 
ATOM     12  C   UNL     1     182.446 178.417 182.695  1.00  0.00    -0.023 C 
ATOM     13  C   UNL     1     180.885 176.885 183.817  1.00  0.00     0.009 C 
ATOM     14  C   UNL     1     182.339 177.022 183.335  1.00  0.00     0.021 C 
ATOM     15  C   UNL     1     182.010 178.325 181.205  1.00  0.00     0.008 C 
ATOM     16  C   UNL     1     183.888 178.982 182.781  1.00  0.00     0.012 C 
ATOM     17  C   UNL     1     182.748 175.860 182.443  1.00  0.00    -0.063 C 
ATOM     18  C   UNL     1     182.903 177.417 180.358  1.00  0.00     0.009 C 
ATOM     19  C   UNL     1     183.224 176.030 180.997  1.00  0.00     0.025 C 
ATOM     20  C   UNL     1     182.777 174.630 182.983  1.00  0.00    -0.000 C 
ATOM     21  C   UNL     1     182.788 174.796 180.117  1.00  0.00    -0.005 C 
ATOM     22  C   UNL     1     183.146 173.452 182.186  1.00  0.00    -0.000 C 
ATOM     23  C   UNL     1     183.196 173.512 180.846  1.00  0.00    -0.061 C 
ATOM     24  C   UNL     1     183.515 174.823 178.739  1.00  0.00     0.014 C 
ATOM     25  C   UNL     1     181.249 174.794 179.920  1.00  0.00     0.017 C 
ATOM     26  C   UNL     1     183.775 172.344 180.082  1.00  0.00     0.063 C 
ATOM     27  C   UNL     1     183.270 173.571 177.872  1.00  0.00     0.033 C 
ATOM     28  C   UNL     1     183.170 172.248 178.672  1.00  0.00     0.118 C 
BRANCH  28  29
ATOM     29  O   UNL     1     183.753 171.188 177.955  1.00  0.00    -0.393 OA
ATOM     30  H   UNL     1     183.317 171.152 177.063  1.00  0.00     0.210 HD
ENDBRANCH  28  29
ENDBRANCH   1  10
TORSDOF 5
ENDMDL
MODEL 2
REMARK VINA RESULT:    -7.409      2.315      4.466
REMARK INTER + INTRA:         -10.353
REMARK INTER:                  -9.346
REMARK INTRA:                  -1.007
REMARK UNBOUND:                -0.995
REMARK SMILES CC(C)[C@@H](C)C=C[C@@H](C)[C@@H]1CC[C@H]2C3=CC=C4C[C@H](O)CC[C@]4(C)[C@H]3CC[C@]21C
REMARK SMILES IDX 8 1 9 2 7 3 6 4 4 5 5 6 2 7 1 8 3 9 10 10 11 11 28 12 12 13
REMARK SMILES IDX 13 14 27 15 29 16 14 17 26 18 25 19 15 20 23 21 16 22 17 23
REMARK SMILES IDX 22 24 24 25 18 26 21 27 19 28 20 29
REMARK H PARENT 20 30
REMARK Flexibility Score: inf
ROOT
ATOM      1  C   UNL     1     180.325 184.014 183.383  1.00  0.00     0.012 C 
ATOM      2  C   UNL     1     178.903 184.019 183.976  1.00  0.00     0.012 C 
ENDROOT
BRANCH   1   3
ATOM      3  C   UNL     1     180.582 185.360 182.736  1.00  0.00    -0.028 C 
ATOM      4  C   UNL     1     180.691 185.504 181.404  1.00  0.00    -0.028 C 
BRANCH   4   5
ATOM      5  C   UNL     1     180.991 186.851 180.778  1.00  0.00     0.011 C 
ATOM      6  C   UNL     1     181.906 186.675 179.553  1.00  0.00     0.012 C 
BRANCH   5   7
ATOM      7  C   UNL     1     181.558 187.848 181.835  1.00  0.00    -0.011 C 
ATOM      8  C   UNL     1     183.062 188.128 181.670  1.00  0.00     0.008 C 
ATOM      9  C   UNL     1     180.773 189.169 181.852  1.00  0.00     0.008 C 
ENDBRANCH   5   7
ENDBRANCH   4   5
ENDBRANCH   1   3
BRANCH   1  10
ATOM     10  C   UNL     1     180.622 182.861 182.357  1.00  0.00     0.002 C 
ATOM     11  C   UNL     1     179.349 182.133 181.888  1.00  0.00     0.005 C 
ATOM     12  C   UNL     1     181.590 181.712 182.803  1.00  0.00    -0.023 C 
ATOM     13  C   UNL     1     179.330 180.772 182.579  1.00  0.00     0.009 C 
ATOM     14  C   UNL     1     180.652 180.621 183.349  1.00  0.00     0.021 C 
ATOM     15  C   UNL     1     182.317 181.170 181.541  1.00  0.00     0.008 C 
ATOM     16  C   UNL     1     182.638 182.152 183.859  1.00  0.00     0.012 C 
ATOM     17  C   UNL     1     181.189 179.200 183.273  1.00  0.00    -0.063 C 
ATOM     18  C   UNL     1     183.213 179.962 181.819  1.00  0.00     0.009 C 
ATOM     19  C   UNL     1     182.558 178.842 182.686  1.00  0.00     0.025 C 
ATOM     20  C   UNL     1     180.459 178.219 183.832  1.00  0.00    -0.000 C 
ATOM     21  C   UNL     1     182.515 177.428 181.990  1.00  0.00    -0.005 C 
ATOM     22  C   UNL     1     180.898 176.818 183.788  1.00  0.00    -0.000 C 
ATOM     23  C   UNL     1     181.883 176.427 182.965  1.00  0.00    -0.061 C 
ATOM     24  C   UNL     1     183.956 176.938 181.659  1.00  0.00     0.014 C 
ATOM     25  C   UNL     1     181.651 177.488 180.703  1.00  0.00     0.017 C 
ATOM     26  C   UNL     1     182.439 175.029 183.099  1.00  0.00     0.063 C 
ATOM     27  C   UNL     1     184.022 175.494 181.119  1.00  0.00     0.033 C 
ATOM     28  C   UNL     1     183.000 174.523 181.760  1.00  0.00     0.118 C 
BRANCH  28  29
ATOM     29  O   UNL     1     183.558 173.241 181.911  1.00  0.00    -0.393 OA
ATOM     30  H   UNL     1     183.761 173.112 182.874  1.00  0.00     0.210 HD
ENDBRANCH  28  29
ENDBRANCH   1  10
TORSDOF 5
ENDMDL
MODEL 3
REMARK VINA RESULT:    -7.405      3.204      9.165
REMARK INTER + INTRA:         -10.347
REMARK INTER:                  -9.258
REMARK INTRA:                  -1.090
REMARK UNBOUND:                -0.995
REMARK SMILES CC(C)[C@@H](C)C=C[C@@H](C)[C@@H]1CC[C@H]2C3=CC=C4C[C@H](O)CC[C@]4(C)[C@H]3CC[C@]21C
REMARK SMILES IDX 8 1 9 2 7 3 6 4 4 5 5 6 2 7 1 8 3 9 10 10 11 11 28 12 12 13
REMARK SMILES IDX 13 14 27 15 29 16 14 17 26 18 25 19 15 20 23 21 16 22 17 23
REMARK SMILES IDX 22 24 24 25 18 26 21 27 19 28 20 29
REMARK H PARENT 20 30
REMARK Flexibility Score: inf
ROOT
ATOM      1  C   UNL     1     182.015 172.703 179.798  1.00  0.00     0.012 C 
ATOM      2  C   UNL     1     181.590 171.572 180.754  1.00  0.00     0.012 C 
ENDROOT
BRANCH   1   3
ATOM      3  C   UNL     1     182.760 172.091 178.629  1.00  0.00    -0.028 C 
ATOM      4  C   UNL     1     184.026 172.430 178.331  1.00  0.00    -0.028 C 
BRANCH   4   5
ATOM      5  C   UNL     1     184.739 171.839 177.131  1.00  0.00     0.011 C 
ATOM      6  C   UNL     1     183.804 170.875 176.380  1.00  0.00     0.012 C 
BRANCH   5   7
ATOM      7  C   UNL     1     186.094 171.188 177.548  1.00  0.00    -0.011 C 
ATOM      8  C   UNL     1     187.256 171.528 176.599  1.00  0.00     0.008 C 
ATOM      9  C   UNL     1     186.474 171.539 178.995  1.00  0.00     0.008 C 
ENDBRANCH   5   7
ENDBRANCH   4   5
ENDBRANCH   1   3
BRANCH   1  10
ATOM     10  C   UNL     1     182.881 173.842 180.447  1.00  0.00     0.002 C 
ATOM     11  C   UNL     1     183.374 173.490 181.862  1.00  0.00     0.005 C 
ATOM     12  C   UNL     1     182.233 175.261 180.599  1.00  0.00    -0.023 C 
ATOM     13  C   UNL     1     182.543 174.312 182.845  1.00  0.00     0.009 C 
ATOM     14  C   UNL     1     181.652 175.259 182.024  1.00  0.00     0.021 C 
ATOM     15  C   UNL     1     183.363 176.326 180.514  1.00  0.00     0.008 C 
ATOM     16  C   UNL     1     181.146 175.570 179.535  1.00  0.00     0.012 C 
ATOM     17  C   UNL     1     181.528 176.625 182.682  1.00  0.00    -0.063 C 
ATOM     18  C   UNL     1     182.880 177.756 180.762  1.00  0.00     0.009 C 
ATOM     19  C   UNL     1     181.955 177.932 182.006  1.00  0.00     0.025 C 
ATOM     20  C   UNL     1     180.930 176.694 183.883  1.00  0.00    -0.000 C 
ATOM     21  C   UNL     1     182.494 178.961 183.072  1.00  0.00    -0.005 C 
ATOM     22  C   UNL     1     180.783 177.972 184.593  1.00  0.00    -0.000 C 
ATOM     23  C   UNL     1     181.474 179.058 184.212  1.00  0.00    -0.061 C 
ATOM     24  C   UNL     1     182.648 180.376 182.437  1.00  0.00     0.014 C 
ATOM     25  C   UNL     1     183.849 178.475 183.652  1.00  0.00     0.017 C 
ATOM     26  C   UNL     1     181.142 180.394 184.835  1.00  0.00     0.063 C 
ATOM     27  C   UNL     1     183.020 181.482 183.445  1.00  0.00     0.033 C 
ATOM     28  C   UNL     1     182.366 181.324 184.841  1.00  0.00     0.118 C 
BRANCH  28  29
ATOM     29  O   UNL     1     182.030 182.579 185.378  1.00  0.00    -0.393 OA
ATOM     30  H   UNL     1     182.316 183.272 184.727  1.00  0.00     0.210 HD
ENDBRANCH  28  29
ENDBRANCH   1  10
TORSDOF 5
ENDMDL
MODEL 4
REMARK VINA RESULT:    -7.348      2.055      4.011
REMARK INTER + INTRA:         -10.276
REMARK INTER:                  -9.115
REMARK INTRA:                  -1.160
REMARK UNBOUND:                -0.995
REMARK SMILES CC(C)[C@@H](C)C=C[C@@H](C)[C@@H]1CC[C@H]2C3=CC=C4C[C@H](O)CC[C@]4(C)[C@H]3CC[C@]21C
REMARK SMILES IDX 8 1 9 2 7 3 6 4 4 5 5 6 2 7 1 8 3 9 10 10 11 11 28 12 12 13
REMARK SMILES IDX 13 14 27 15 29 16 14 17 26 18 25 19 15 20 23 21 16 22 17 23
REMARK SMILES IDX 22 24 24 25 18 26 21 27 19 28 20 29
REMARK H PARENT 20 30
REMARK Flexibility Score: inf
ROOT
ATOM      1  C   UNL     1     181.824 180.437 184.178  1.00  0.00     0.012 C 
ATOM      2  C   UNL     1     182.259 181.670 183.363  1.00  0.00     0.012 C 
ENDROOT
BRANCH   1   3
ATOM      3  C   UNL     1     182.000 180.748 185.651  1.00  0.00    -0.028 C 
ATOM      4  C   UNL     1     182.662 179.925 186.482  1.00  0.00    -0.028 C 
BRANCH   4   5
ATOM      5  C   UNL     1     182.790 180.232 187.961  1.00  0.00     0.011 C 
ATOM      6  C   UNL     1     181.698 181.227 188.392  1.00  0.00     0.012 C 
BRANCH   5   7
ATOM      7  C   UNL     1     184.234 180.705 188.313  1.00  0.00    -0.011 C 
ATOM      8  C   UNL     1     185.273 180.358 187.233  1.00  0.00     0.008 C 
ATOM      9  C   UNL     1     184.280 182.208 188.627  1.00  0.00     0.008 C 
ENDBRANCH   5   7
ENDBRANCH   4   5
ENDBRANCH   1   3
BRANCH   1  10
ATOM     10  C   UNL     1     182.565 179.099 183.822  1.00  0.00     0.002 C 
ATOM     11  C   UNL     1     183.682 179.290 182.781  1.00  0.00     0.005 C 
ATOM     12  C   UNL     1     181.708 177.911 183.265  1.00  0.00    -0.023 C 
ATOM     13  C   UNL     1     183.169 178.719 181.461  1.00  0.00     0.009 C 
ATOM     14  C   UNL     1     181.807 178.060 181.736  1.00  0.00     0.021 C 
ATOM     15  C   UNL     1     182.386 176.578 183.689  1.00  0.00     0.008 C 
ATOM     16  C   UNL     1     180.233 177.922 183.749  1.00  0.00     0.012 C 
ATOM     17  C   UNL     1     181.634 176.775 180.941  1.00  0.00    -0.063 C 
ATOM     18  C   UNL     1     181.711 175.333 183.111  1.00  0.00     0.009 C 
ATOM     19  C   UNL     1     181.389 175.407 181.586  1.00  0.00     0.025 C 
ATOM     20  C   UNL     1     181.604 176.862 179.600  1.00  0.00    -0.000 C 
ATOM     21  C   UNL     1     182.050 174.260 180.729  1.00  0.00    -0.005 C 
ATOM     22  C   UNL     1     181.456 175.667 178.759  1.00  0.00    -0.000 C 
ATOM     23  C   UNL     1     181.621 174.436 179.268  1.00  0.00    -0.061 C 
ATOM     24  C   UNL     1     181.558 172.863 181.213  1.00  0.00     0.014 C 
ATOM     25  C   UNL     1     183.597 174.351 180.812  1.00  0.00     0.017 C 
ATOM     26  C   UNL     1     181.260 173.238 178.423  1.00  0.00     0.063 C 
ATOM     27  C   UNL     1     182.031 171.688 180.333  1.00  0.00     0.033 C 
ATOM     28  C   UNL     1     182.092 172.008 178.818  1.00  0.00     0.118 C 
BRANCH  28  29
ATOM     29  O   UNL     1     181.712 170.888 178.057  1.00  0.00    -0.393 OA
ATOM     30  H   UNL     1     181.287 171.221 177.224  1.00  0.00     0.210 HD
ENDBRANCH  28  29
ENDBRANCH   1  10
TORSDOF 5
ENDMDL
MODEL 5
REMARK VINA RESULT:    -7.286      4.034      9.059
REMARK INTER + INTRA:         -10.197
REMARK INTER:                  -9.126
REMARK INTRA:                  -1.071
REMARK UNBOUND:                -0.995
REMARK SMILES CC(C)[C@@H](C)C=C[C@@H](C)[C@@H]1CC[C@H]2C3=CC=C4C[C@H](O)CC[C@]4(C)[C@H]3CC[C@]21C
REMARK SMILES IDX 8 1 9 2 7 3 6 4 4 5 5 6 2 7 1 8 3 9 10 10 11 11 28 12 12 13
REMARK SMILES IDX 13 14 27 15 29 16 14 17 26 18 25 19 15 20 23 21 16 22 17 23
REMARK SMILES IDX 22 24 24 25 18 26 21 27 19 28 20 29
REMARK H PARENT 20 30
REMARK Flexibility Score: inf
ROOT
ATOM      1  C   UNL     1     180.589 178.688 183.986  1.00  0.00     0.012 C 
ATOM      2  C   UNL     1     180.432 178.837 185.511  1.00  0.00     0.012 C 
ENDROOT
BRANCH   1   3
ATOM      3  C   UNL     1     180.982 177.257 183.680  1.00  0.00    -0.028 C 
ATOM      4  C   UNL     1     182.135 176.949 183.061  1.00  0.00    -0.028 C 
BRANCH   4   5
ATOM      5  C   UNL     1     182.491 175.515 182.724  1.00  0.00     0.011 C 
ATOM      6  C   UNL     1     183.934 175.438 182.192  1.00  0.00     0.012 C 
BRANCH   5   7
ATOM      7  C   UNL     1     181.441 174.887 181.757  1.00  0.00    -0.011 C 
ATOM      8  C   UNL     1     181.462 175.502 180.346  1.00  0.00     0.008 C 
ATOM      9  C   UNL     1     181.586 173.360 181.670  1.00  0.00     0.008 C 
ENDBRANCH   5   7
ENDBRANCH   4   5
ENDBRANCH   1   3
BRANCH   1  10
ATOM     10  C   UNL     1     181.607 179.678 183.315  1.00  0.00     0.002 C 
ATOM     11  C   UNL     1     182.371 180.538 184.337  1.00  0.00     0.005 C 
ATOM     12  C   UNL     1     181.051 180.709 182.273  1.00  0.00    -0.023 C 
ATOM     13  C   UNL     1     181.790 181.948 184.263  1.00  0.00     0.009 C 
ATOM     14  C   UNL     1     180.779 181.975 183.104  1.00  0.00     0.021 C 
ATOM     15  C   UNL     1     182.172 181.012 181.240  1.00  0.00     0.008 C 
ATOM     16  C   UNL     1     179.777 180.223 181.531  1.00  0.00     0.012 C 
ATOM     17  C   UNL     1     180.838 183.287 182.336  1.00  0.00    -0.063 C 
ATOM     18  C   UNL     1     181.798 182.095 180.226  1.00  0.00     0.009 C 
ATOM     19  C   UNL     1     181.158 183.379 180.841  1.00  0.00     0.025 C 
ATOM     20  C   UNL     1     180.504 184.414 182.987  1.00  0.00    -0.000 C 
ATOM     21  C   UNL     1     181.939 184.709 180.518  1.00  0.00    -0.005 C 
ATOM     22  C   UNL     1     180.550 185.724 182.323  1.00  0.00    -0.000 C 
ATOM     23  C   UNL     1     181.181 185.882 181.149  1.00  0.00    -0.061 C 
ATOM     24  C   UNL     1     182.003 184.946 178.979  1.00  0.00     0.014 C 
ATOM     25  C   UNL     1     183.368 184.653 181.120  1.00  0.00     0.017 C 
ATOM     26  C   UNL     1     181.029 187.189 180.406  1.00  0.00     0.063 C 
ATOM     27  C   UNL     1     182.613 186.304 178.574  1.00  0.00     0.033 C 
ATOM     28  C   UNL     1     182.257 187.474 179.526  1.00  0.00     0.118 C 
BRANCH  28  29
ATOM     29  O   UNL     1     182.081 188.667 178.803  1.00  0.00    -0.393 OA
ATOM     30  H   UNL     1     181.118 188.906 178.845  1.00  0.00     0.210 HD
ENDBRANCH  28  29
ENDBRANCH   1  10
TORSDOF 5
ENDMDL
MODEL 6
REMARK VINA RESULT:    -7.196      3.240      8.850
REMARK INTER + INTRA:         -10.083
REMARK INTER:                  -9.192
REMARK INTRA:                  -0.891
REMARK UNBOUND:                -0.995
REMARK SMILES CC(C)[C@@H](C)C=C[C@@H](C)[C@@H]1CC[C@H]2C3=CC=C4C[C@H](O)CC[C@]4(C)[C@H]3CC[C@]21C
REMARK SMILES IDX 8 1 9 2 7 3 6 4 4 5 5 6 2 7 1 8 3 9 10 10 11 11 28 12 12 13
REMARK SMILES IDX 13 14 27 15 29 16 14 17 26 18 25 19 15 20 23 21 16 22 17 23
REMARK SMILES IDX 22 24 24 25 18 26 21 27 19 28 20 29
REMARK H PARENT 20 30
REMARK Flexibility Score: inf
ROOT
ATOM      1  C   UNL     1     181.756 172.978 179.929  1.00  0.00     0.012 C 
ATOM      2  C   UNL     1     181.601 171.671 180.728  1.00  0.00     0.012 C 
ENDROOT
BRANCH   1   3
ATOM      3  C   UNL     1     182.283 172.640 178.549  1.00  0.00    -0.028 C 
ATOM      4  C   UNL     1     181.495 172.127 177.588  1.00  0.00    -0.028 C 
BRANCH   4   5
ATOM      5  C   UNL     1     182.050 171.754 176.228  1.00  0.00     0.011 C 
ATOM      6  C   UNL     1     183.515 172.211 176.110  1.00  0.00     0.012 C 
BRANCH   5   7
ATOM      7  C   UNL     1     181.139 172.293 175.083  1.00  0.00    -0.011 C 
ATOM      8  C   UNL     1     179.664 171.878 175.225  1.00  0.00     0.008 C 
ATOM      9  C   UNL     1     181.246 173.819 174.940  1.00  0.00     0.008 C 
ENDBRANCH   5   7
ENDBRANCH   4   5
ENDBRANCH   1   3
BRANCH   1  10
ATOM     10  C   UNL     1     182.666 174.071 180.596  1.00  0.00     0.002 C 
ATOM     11  C   UNL     1     183.106 173.697 182.023  1.00  0.00     0.005 C 
ATOM     12  C   UNL     1     182.091 175.523 180.731  1.00  0.00    -0.023 C 
ATOM     13  C   UNL     1     182.298 174.564 182.985  1.00  0.00     0.009 C 
ATOM     14  C   UNL     1     181.478 175.555 182.142  1.00  0.00     0.021 C 
ATOM     15  C   UNL     1     183.278 176.525 180.671  1.00  0.00     0.008 C 
ATOM     16  C   UNL     1     181.048 175.887 179.641  1.00  0.00     0.012 C 
ATOM     17  C   UNL     1     181.412 176.928 182.795  1.00  0.00    -0.063 C 
ATOM     18  C   UNL     1     182.868 177.980 180.906  1.00  0.00     0.009 C 
ATOM     19  C   UNL     1     181.924 178.208 182.128  1.00  0.00     0.025 C 
ATOM     20  C   UNL     1     180.790 177.032 183.982  1.00  0.00    -0.000 C 
ATOM     21  C   UNL     1     182.492 179.210 183.205  1.00  0.00    -0.005 C 
ATOM     22  C   UNL     1     180.696 178.318 184.686  1.00  0.00    -0.000 C 
ATOM     23  C   UNL     1     181.452 179.365 184.320  1.00  0.00    -0.061 C 
ATOM     24  C   UNL     1     182.737 180.612 182.572  1.00  0.00     0.014 C 
ATOM     25  C   UNL     1     183.805 178.653 183.817  1.00  0.00     0.017 C 
ATOM     26  C   UNL     1     181.178 180.717 184.934  1.00  0.00     0.063 C 
ATOM     27  C   UNL     1     183.144 181.700 183.587  1.00  0.00     0.033 C 
ATOM     28  C   UNL     1     182.449 181.581 184.967  1.00  0.00     0.118 C 
BRANCH  28  29
ATOM     29  O   UNL     1     182.169 182.853 185.495  1.00  0.00    -0.393 OA
ATOM     30  H   UNL     1     181.239 183.088 185.238  1.00  0.00     0.210 HD
ENDBRANCH  28  29
ENDBRANCH   1  10
TORSDOF 5
ENDMDL
MODEL 7
REMARK VINA RESULT:    -7.149      3.401      8.932
REMARK INTER + INTRA:         -10.024
REMARK INTER:                  -8.904
REMARK INTRA:                  -1.120
REMARK UNBOUND:                -0.995
REMARK SMILES CC(C)[C@@H](C)C=C[C@@H](C)[C@@H]1CC[C@H]2C3=CC=C4C[C@H](O)CC[C@]4(C)[C@H]3CC[C@]21C
REMARK SMILES IDX 8 1 9 2 7 3 6 4 4 5 5 6 2 7 1 8 3 9 10 10 11 11 28 12 12 13
REMARK SMILES IDX 13 14 27 15 29 16 14 17 26 18 25 19 15 20 23 21 16 22 17 23
REMARK SMILES IDX 22 24 24 25 18 26 21 27 19 28 20 29
REMARK H PARENT 20 30
REMARK Flexibility Score: inf
ROOT
ATOM      1  C   UNL     1     184.746 174.475 179.496  1.00  0.00     0.012 C 
ATOM      2  C   UNL     1     185.856 174.974 178.551  1.00  0.00     0.012 C 
ENDROOT
BRANCH   1   3
ATOM      3  C   UNL     1     184.081 173.270 178.863  1.00  0.00    -0.028 C 
ATOM      4  C   UNL     1     183.837 172.142 179.552  1.00  0.00    -0.028 C 
BRANCH   4   5
ATOM      5  C   UNL     1     183.210 170.932 178.890  1.00  0.00     0.011 C 
ATOM      6  C   UNL     1     183.568 170.901 177.394  1.00  0.00     0.012 C 
BRANCH   5   7
ATOM      7  C   UNL     1     181.675 170.876 179.161  1.00  0.00    -0.011 C 
ATOM      8  C   UNL     1     181.248 171.634 180.431  1.00  0.00     0.008 C 
ATOM      9  C   UNL     1     180.865 171.370 177.953  1.00  0.00     0.008 C 
ENDBRANCH   5   7
ENDBRANCH   4   5
ENDBRANCH   1   3
BRANCH   1  10
ATOM     10  C   UNL     1     183.662 175.543 179.884  1.00  0.00     0.002 C 
ATOM     11  C   UNL     1     183.977 176.946 179.335  1.00  0.00     0.005 C 
ATOM     12  C   UNL     1     183.370 175.774 181.407  1.00  0.00    -0.023 C 
ATOM     13  C   UNL     1     184.448 177.795 180.514  1.00  0.00     0.009 C 
ATOM     14  C   UNL     1     184.282 176.953 181.790  1.00  0.00     0.021 C 
ATOM     15  C   UNL     1     181.886 176.211 181.559  1.00  0.00     0.008 C 
ATOM     16  C   UNL     1     183.638 174.527 182.291  1.00  0.00     0.012 C 
ATOM     17  C   UNL     1     183.803 177.796 182.962  1.00  0.00    -0.063 C 
ATOM     18  C   UNL     1     181.497 176.581 182.991  1.00  0.00     0.009 C 
ATOM     19  C   UNL     1     182.500 177.527 183.722  1.00  0.00     0.025 C 
ATOM     20  C   UNL     1     184.611 178.773 183.408  1.00  0.00    -0.000 C 
ATOM     21  C   UNL     1     181.862 178.876 184.231  1.00  0.00    -0.005 C 
ATOM     22  C   UNL     1     184.217 179.642 184.525  1.00  0.00    -0.000 C 
ATOM     23  C   UNL     1     182.946 179.682 184.956  1.00  0.00    -0.061 C 
ATOM     24  C   UNL     1     180.714 178.590 185.244  1.00  0.00     0.014 C 
ATOM     25  C   UNL     1     181.336 179.708 183.032  1.00  0.00     0.017 C 
ATOM     26  C   UNL     1     182.627 180.429 186.229  1.00  0.00     0.063 C 
ATOM     27  C   UNL     1     180.135 179.852 185.915  1.00  0.00     0.033 C 
ATOM     28  C   UNL     1     181.182 180.953 186.219  1.00  0.00     0.118 C 
BRANCH  28  29
ATOM     29  O   UNL     1     180.883 181.603 187.430  1.00  0.00    -0.393 OA
ATOM     30  H   UNL     1     181.045 180.957 188.166  1.00  0.00     0.210 HD
ENDBRANCH  28  29
ENDBRANCH   1  10
TORSDOF 5
ENDMDL
MODEL 8
REMARK VINA RESULT:    -7.026      2.001      3.803
REMARK INTER + INTRA:          -9.869
REMARK INTER:                  -8.833
REMARK INTRA:                  -1.036
REMARK UNBOUND:                -0.995
REMARK SMILES CC(C)[C@@H](C)C=C[C@@H](C)[C@@H]1CC[C@H]2C3=CC=C4C[C@H](O)CC[C@]4(C)[C@H]3CC[C@]21C
REMARK SMILES IDX 8 1 9 2 7 3 6 4 4 5 5 6 2 7 1 8 3 9 10 10 11 11 28 12 12 13
REMARK SMILES IDX 13 14 27 15 29 16 14 17 26 18 25 19 15 20 23 21 16 22 17 23
REMARK SMILES IDX 22 24 24 25 18 26 21 27 19 28 20 29
REMARK H PARENT 20 30
REMARK Flexibility Score: inf
ROOT
ATOM      1  C   UNL     1     180.488 178.700 183.814  1.00  0.00     0.012 C 
ATOM      2  C   UNL     1     179.720 179.872 183.173  1.00  0.00     0.012 C 
ENDROOT
BRANCH   1   3
ATOM      3  C   UNL     1     180.834 179.075 185.241  1.00  0.00    -0.028 C 
ATOM      4  C   UNL     1     182.072 179.456 185.601  1.00  0.00    -0.028 C 
BRANCH   4   5
ATOM      5  C   UNL     1     182.409 179.786 187.041  1.00  0.00     0.011 C 
ATOM      6  C   UNL     1     181.638 181.039 187.493  1.00  0.00     0.012 C 
BRANCH   5   7
ATOM      7  C   UNL     1     183.951 179.901 187.245  1.00  0.00    -0.011 C 
ATOM      8  C   UNL     1     184.704 180.359 185.983  1.00  0.00     0.008 C 
ATOM      9  C   UNL     1     184.303 180.813 188.430  1.00  0.00     0.008 C 
ENDBRANCH   5   7
ENDBRANCH   4   5
ENDBRANCH   1   3
BRANCH   1  10
ATOM     10  C   UNL     1     181.784 178.248 183.051  1.00  0.00     0.002 C 
ATOM     11  C   UNL     1     181.951 178.942 181.687  1.00  0.00     0.005 C 
ATOM     12  C   UNL     1     181.958 176.722 182.739  1.00  0.00    -0.023 C 
ATOM     13  C   UNL     1     181.617 177.909 180.614  1.00  0.00     0.009 C 
ATOM     14  C   UNL     1     181.388 176.561 181.319  1.00  0.00     0.021 C 
ATOM     15  C   UNL     1     183.478 176.398 182.714  1.00  0.00     0.008 C 
ATOM     16  C   UNL     1     181.244 175.791 183.754  1.00  0.00     0.012 C 
ATOM     17  C   UNL     1     181.956 175.402 180.513  1.00  0.00    -0.063 C 
ATOM     18  C   UNL     1     183.794 174.958 182.307  1.00  0.00     0.009 C 
ATOM     19  C   UNL     1     183.032 174.449 181.044  1.00  0.00     0.025 C 
ATOM     20  C   UNL     1     181.419 175.149 179.307  1.00  0.00    -0.000 C 
ATOM     21  C   UNL     1     183.971 173.961 179.876  1.00  0.00    -0.005 C 
ATOM     22  C   UNL     1     181.920 174.058 178.461  1.00  0.00    -0.000 C 
ATOM     23  C   UNL     1     183.091 173.458 178.725  1.00  0.00    -0.061 C 
ATOM     24  C   UNL     1     184.867 172.778 180.352  1.00  0.00     0.014 C 
ATOM     25  C   UNL     1     184.846 175.135 179.363  1.00  0.00     0.017 C 
ATOM     26  C   UNL     1     183.468 172.214 177.956  1.00  0.00     0.063 C 
ATOM     27  C   UNL     1     185.706 172.132 179.231  1.00  0.00     0.033 C 
ATOM     28  C   UNL     1     184.994 172.062 177.857  1.00  0.00     0.118 C 
BRANCH  28  29
ATOM     29  O   UNL     1     185.330 170.875 177.182  1.00  0.00    -0.393 OA
ATOM     30  H   UNL     1     185.528 171.111 176.238  1.00  0.00     0.210 HD
ENDBRANCH  28  29
ENDBRANCH   1  10
TORSDOF 5
ENDMDL
MODEL 9
REMARK VINA RESULT:    -6.144      3.319      8.811
REMARK INTER + INTRA:          -8.755
REMARK INTER:                  -7.767
REMARK INTRA:                  -0.988
REMARK UNBOUND:                -0.995
REMARK SMILES CC(C)[C@@H](C)C=C[C@@H](C)[C@@H]1CC[C@H]2C3=CC=C4C[C@H](O)CC[C@]4(C)[C@H]3CC[C@]21C
REMARK SMILES IDX 8 1 9 2 7 3 6 4 4 5 5 6 2 7 1 8 3 9 10 10 11 11 28 12 12 13
REMARK SMILES IDX 13 14 27 15 29 16 14 17 26 18 25 19 15 20 23 21 16 22 17 23
REMARK SMILES IDX 22 24 24 25 18 26 21 27 19 28 20 29
REMARK H PARENT 20 30
REMARK Flexibility Score: inf
ROOT
ATOM      1  C   UNL     1     183.325 173.161 179.697  1.00  0.00     0.012 C 
ATOM      2  C   UNL     1     184.687 173.531 179.079  1.00  0.00     0.012 C 
ENDROOT
BRANCH   1   3
ATOM      3  C   UNL     1     182.599 172.234 178.743  1.00  0.00    -0.028 C 
ATOM      4  C   UNL     1     181.311 172.420 178.405  1.00  0.00    -0.028 C 
BRANCH   4   5
ATOM      5  C   UNL     1     180.590 171.459 177.482  1.00  0.00     0.011 C 
ATOM      6  C   UNL     1     181.573 170.875 176.452  1.00  0.00     0.012 C 
BRANCH   5   7
ATOM      7  C   UNL     1     179.341 172.132 176.835  1.00  0.00    -0.011 C 
ATOM      8  C   UNL     1     179.473 173.658 176.689  1.00  0.00     0.008 C 
ATOM      9  C   UNL     1     178.992 171.500 175.478  1.00  0.00     0.008 C 
ENDBRANCH   5   7
ENDBRANCH   4   5
ENDBRANCH   1   3
BRANCH   1  10
ATOM     10  C   UNL     1     182.402 174.376 180.069  1.00  0.00     0.002 C 
ATOM     11  C   UNL     1     182.719 175.643 179.254  1.00  0.00     0.005 C 
ATOM     12  C   UNL     1     182.390 174.861 181.559  1.00  0.00    -0.023 C 
ATOM     13  C   UNL     1     183.443 176.609 180.189  1.00  0.00     0.009 C 
ATOM     14  C   UNL     1     183.437 175.989 181.596  1.00  0.00     0.021 C 
ATOM     15  C   UNL     1     180.989 175.460 181.867  1.00  0.00     0.008 C 
ATOM     16  C   UNL     1     182.714 173.741 182.584  1.00  0.00     0.012 C 
ATOM     17  C   UNL     1     183.226 177.042 182.673  1.00  0.00    -0.063 C 
ATOM     18  C   UNL     1     180.877 176.077 183.262  1.00  0.00     0.009 C 
ATOM     19  C   UNL     1     182.055 177.019 183.662  1.00  0.00     0.025 C 
ATOM     20  C   UNL     1     184.167 177.990 182.821  1.00  0.00    -0.000 C 
ATOM     21  C   UNL     1     181.612 178.485 184.036  1.00  0.00    -0.005 C 
ATOM     22  C   UNL     1     184.031 179.052 183.827  1.00  0.00    -0.000 C 
ATOM     23  C   UNL     1     182.859 179.281 184.439  1.00  0.00    -0.061 C 
ATOM     24  C   UNL     1     180.635 178.469 185.249  1.00  0.00     0.014 C 
ATOM     25  C   UNL     1     180.951 179.175 182.813  1.00  0.00     0.017 C 
ATOM     26  C   UNL     1     182.815 180.238 185.606  1.00  0.00     0.063 C 
ATOM     27  C   UNL     1     180.271 179.868 185.785  1.00  0.00     0.033 C 
ATOM     28  C   UNL     1     181.431 180.894 185.737  1.00  0.00     0.118 C 
BRANCH  28  29
ATOM     29  O   UNL     1     181.390 181.745 186.855  1.00  0.00    -0.393 OA
ATOM     30  H   UNL     1     180.494 182.171 186.876  1.00  0.00     0.210 HD
ENDBRANCH  28  29
ENDBRANCH   1  10
TORSDOF 5
ENDMDL
