MODEL 1
REMARK VINA RESULT:    -4.747      0.000      0.000
REMARK INTER + INTRA:          -9.882
REMARK INTER:                  -8.632
REMARK INTRA:                  -1.250
REMARK UNBOUND:                -1.250
REMARK SMILES CCCCCC=CCC=CCCCCCCCC(=O)[O-]
REMARK SMILES IDX 11 1 12 2 13 3 14 4 15 5 16 6 17 7 18 8 19 9 20 10 10 11
REMARK SMILES IDX 9 12 8 13 7 14 6 15 5 16 4 17 3 18 2 19 1 20
REMARK H PARENT
REMARK Flexibility Score: inf
ROOT
ATOM      1  C   UNL     1      42.549  27.850   0.984  1.00  0.00     0.027 C 
ENDROOT
BRANCH   1   2
ATOM      2  C   UNL     1      42.857  28.098  -0.496  1.00  0.00     0.004 C 
BRANCH   2   3
ATOM      3  C   UNL     1      43.825  27.039  -1.039  1.00  0.00     0.000 C 
BRANCH   3   4
ATOM      4  C   UNL     1      45.081  27.694  -1.636  1.00  0.00     0.000 C 
BRANCH   4   5
ATOM      5  C   UNL     1      45.439  27.148  -3.030  1.00  0.00     0.000 C 
BRANCH   5   6
ATOM      6  C   UNL     1      45.000  28.036  -4.208  1.00  0.00     0.006 C 
BRANCH   6   7
ATOM      7  C   UNL     1      43.882  27.406  -5.048  1.00  0.00     0.053 C 
BRANCH   7   8
ATOM      8  C   UNL     1      42.624  28.208  -4.930  1.00  0.00     0.041 C 
ATOM      9  O   UNL     1      41.678  28.029  -5.743  1.00  0.00    -0.550 OA
ATOM     10  O   UNL     1      42.480  29.123  -3.892  1.00  0.00    -0.550 OA
ENDBRANCH   7   8
ENDBRANCH   6   7
ENDBRANCH   5   6
ENDBRANCH   4   5
ENDBRANCH   3   4
ENDBRANCH   2   3
ENDBRANCH   1   2
BRANCH   1  11
ATOM     11  C   UNL     1      43.608  28.465   1.861  1.00  0.00    -0.031 C 
ATOM     12  C   UNL     1      44.498  27.766   2.591  1.00  0.00    -0.027 C 
BRANCH  12  13
ATOM     13  C   UNL     1      44.612  26.261   2.591  1.00  0.00     0.054 C 
BRANCH  13  14
ATOM     14  C   UNL     1      45.434  25.771   3.751  1.00  0.00    -0.027 C 
ATOM     15  C   UNL     1      45.927  26.614   4.672  1.00  0.00    -0.031 C 
BRANCH  15  16
ATOM     16  C   UNL     1      46.755  26.119   5.828  1.00  0.00     0.027 C 
BRANCH  16  17
ATOM     17  C   UNL     1      46.079  26.436   7.171  1.00  0.00     0.004 C 
BRANCH  17  18
ATOM     18  C   UNL     1      45.580  27.888   7.250  1.00  0.00     0.000 C 
BRANCH  18  19
ATOM     19  C   UNL     1      45.261  28.325   8.687  1.00  0.00    -0.003 C 
ATOM     20  C   UNL     1      44.810  29.782   8.733  1.00  0.00     0.004 C 
ENDBRANCH  18  19
ENDBRANCH  17  18
ENDBRANCH  16  17
ENDBRANCH  15  16
ENDBRANCH  13  14
ENDBRANCH  12  13
ENDBRANCH   1  11
TORSDOF 14
ENDMDL
MODEL 2
REMARK VINA RESULT:    -4.653      1.944      3.357
REMARK INTER + INTRA:          -9.710
REMARK INTER:                  -8.385
REMARK INTRA:                  -1.325
REMARK UNBOUND:                -1.250
REMARK SMILES CCCCCC=CCC=CCCCCCCCC(=O)[O-]
REMARK SMILES IDX 11 1 12 2 13 3 14 4 15 5 16 6 17 7 18 8 19 9 20 10 10 11
REMARK SMILES IDX 9 12 8 13 7 14 6 15 5 16 4 17 3 18 2 19 1 20
REMARK H PARENT
REMARK Flexibility Score: inf
ROOT
ATOM      1  C   UNL     1      44.866  27.227   2.652  1.00  0.00     0.027 C 
ENDROOT
BRANCH   1   2
ATOM      2  C   UNL     1      44.017  27.118   1.382  1.00  0.00     0.004 C 
BRANCH   2   3
ATOM      3  C   UNL     1      42.589  27.618   1.635  1.00  0.00     0.000 C 
BRANCH   3   4
ATOM      4  C   UNL     1      42.285  28.867   0.793  1.00  0.00     0.000 C 
BRANCH   4   5
ATOM      5  C   UNL     1      43.288  29.078  -0.355  1.00  0.00     0.000 C 
BRANCH   5   6
ATOM      6  C   UNL     1      42.793  28.632  -1.743  1.00  0.00     0.006 C 
BRANCH   6   7
ATOM      7  C   UNL     1      43.937  28.312  -2.713  1.00  0.00     0.053 C 
BRANCH   7   8
ATOM      8  C   UNL     1      44.661  27.078  -2.278  1.00  0.00     0.041 C 
ATOM      9  O   UNL     1      45.922  27.043  -2.291  1.00  0.00    -0.550 OA
ATOM     10  O   UNL     1      43.945  25.980  -1.814  1.00  0.00    -0.550 OA
ENDBRANCH   7   8
ENDBRANCH   6   7
ENDBRANCH   5   6
ENDBRANCH   4   5
ENDBRANCH   3   4
ENDBRANCH   2   3
ENDBRANCH   1   2
BRANCH   1  11
ATOM     11  C   UNL     1      44.880  25.918   3.399  1.00  0.00    -0.031 C 
ATOM     12  C   UNL     1      45.802  25.570   4.316  1.00  0.00    -0.027 C 
BRANCH  12  13
ATOM     13  C   UNL     1      46.926  26.462   4.783  1.00  0.00     0.054 C 
BRANCH  13  14
ATOM     14  C   UNL     1      46.581  27.155   6.072  1.00  0.00    -0.027 C 
ATOM     15  C   UNL     1      45.883  28.301   6.092  1.00  0.00    -0.031 C 
BRANCH  15  16
ATOM     16  C   UNL     1      45.546  28.994   7.384  1.00  0.00     0.027 C 
BRANCH  16  17
ATOM     17  C   UNL     1      45.304  27.979   8.512  1.00  0.00     0.004 C 
BRANCH  17  18
ATOM     18  C   UNL     1      46.295  28.145   9.676  1.00  0.00     0.000 C 
BRANCH  18  19
ATOM     19  C   UNL     1      46.721  26.802  10.285  1.00  0.00    -0.003 C 
ATOM     20  C   UNL     1      46.397  25.643   9.347  1.00  0.00     0.004 C 
ENDBRANCH  18  19
ENDBRANCH  17  18
ENDBRANCH  16  17
ENDBRANCH  15  16
ENDBRANCH  13  14
ENDBRANCH  12  13
ENDBRANCH   1  11
TORSDOF 14
ENDMDL
MODEL 3
REMARK VINA RESULT:    -4.616      1.903      2.659
REMARK INTER + INTRA:          -9.644
REMARK INTER:                  -8.275
REMARK INTRA:                  -1.369
REMARK UNBOUND:                -1.250
REMARK SMILES CCCCCC=CCC=CCCCCCCCC(=O)[O-]
REMARK SMILES IDX 11 1 12 2 13 3 14 4 15 5 16 6 17 7 18 8 19 9 20 10 10 11
REMARK SMILES IDX 9 12 8 13 7 14 6 15 5 16 4 17 3 18 2 19 1 20
REMARK H PARENT
REMARK Flexibility Score: inf
ROOT
ATOM      1  C   UNL     1      43.432  26.784   1.398  1.00  0.00     0.027 C 
ENDROOT
BRANCH   1   2
ATOM      2  C   UNL     1      42.564  28.041   1.508  1.00  0.00     0.004 C 
BRANCH   2   3
ATOM      3  C   UNL     1      43.311  29.270   0.973  1.00  0.00     0.000 C 
BRANCH   3   4
ATOM      4  C   UNL     1      42.463  30.022  -0.065  1.00  0.00     0.000 C 
BRANCH   4   5
ATOM      5  C   UNL     1      43.032  29.925  -1.492  1.00  0.00     0.000 C 
BRANCH   5   6
ATOM      6  C   UNL     1      42.669  28.635  -2.250  1.00  0.00     0.006 C 
BRANCH   6   7
ATOM      7  C   UNL     1      43.839  28.073  -3.069  1.00  0.00     0.053 C 
BRANCH   7   8
ATOM      8  C   UNL     1      44.597  27.060  -2.270  1.00  0.00     0.041 C 
ATOM      9  O   UNL     1      45.789  27.285  -1.927  1.00  0.00    -0.550 OA
ATOM     10  O   UNL     1      43.970  25.886  -1.865  1.00  0.00    -0.550 OA
ENDBRANCH   7   8
ENDBRANCH   6   7
ENDBRANCH   5   6
ENDBRANCH   4   5
ENDBRANCH   3   4
ENDBRANCH   2   3
ENDBRANCH   1   2
BRANCH   1  11
ATOM     11  C   UNL     1      44.895  27.142   1.404  1.00  0.00    -0.031 C 
ATOM     12  C   UNL     1      45.797  26.663   2.280  1.00  0.00    -0.027 C 
BRANCH  12  13
ATOM     13  C   UNL     1      45.495  25.642   3.349  1.00  0.00     0.054 C 
BRANCH  13  14
ATOM     14  C   UNL     1      46.260  25.924   4.613  1.00  0.00    -0.027 C 
ATOM     15  C   UNL     1      45.643  26.042   5.799  1.00  0.00    -0.031 C 
BRANCH  15  16
ATOM     16  C   UNL     1      46.413  26.329   7.060  1.00  0.00     0.027 C 
BRANCH  16  17
ATOM     17  C   UNL     1      45.469  26.692   8.217  1.00  0.00     0.004 C 
BRANCH  17  18
ATOM     18  C   UNL     1      45.900  27.973   8.949  1.00  0.00     0.000 C 
BRANCH  18  19
ATOM     19  C   UNL     1      44.913  29.132   8.744  1.00  0.00    -0.003 C 
ATOM     20  C   UNL     1      45.286  29.963   7.520  1.00  0.00     0.004 C 
ENDBRANCH  18  19
ENDBRANCH  17  18
ENDBRANCH  16  17
ENDBRANCH  15  16
ENDBRANCH  13  14
ENDBRANCH  12  13
ENDBRANCH   1  11
TORSDOF 14
ENDMDL
MODEL 4
REMARK VINA RESULT:    -4.567      1.515      2.268
REMARK INTER + INTRA:          -9.554
REMARK INTER:                  -8.161
REMARK INTRA:                  -1.393
REMARK UNBOUND:                -1.250
REMARK SMILES CCCCCC=CCC=CCCCCCCCC(=O)[O-]
REMARK SMILES IDX 11 1 12 2 13 3 14 4 15 5 16 6 17 7 18 8 19 9 20 10 10 11
REMARK SMILES IDX 9 12 8 13 7 14 6 15 5 16 4 17 3 18 2 19 1 20
REMARK H PARENT
REMARK Flexibility Score: inf
ROOT
ATOM      1  C   UNL     1      43.539  26.863   1.101  1.00  0.00     0.027 C 
ENDROOT
BRANCH   1   2
ATOM      2  C   UNL     1      42.650  27.891   1.807  1.00  0.00     0.004 C 
BRANCH   2   3
ATOM      3  C   UNL     1      42.758  29.264   1.130  1.00  0.00     0.000 C 
BRANCH   3   4
ATOM      4  C   UNL     1      42.581  29.144  -0.392  1.00  0.00     0.000 C 
BRANCH   4   5
ATOM      5  C   UNL     1      43.577  30.010  -1.183  1.00  0.00     0.000 C 
BRANCH   5   6
ATOM      6  C   UNL     1      43.976  29.450  -2.560  1.00  0.00     0.006 C 
BRANCH   6   7
ATOM      7  C   UNL     1      43.692  27.949  -2.701  1.00  0.00     0.053 C 
BRANCH   7   8
ATOM      8  C   UNL     1      43.215  27.635  -4.084  1.00  0.00     0.041 C 
ATOM      9  O   UNL     1      43.786  26.740  -4.764  1.00  0.00    -0.550 OA
ATOM     10  O   UNL     1      42.110  28.300  -4.605  1.00  0.00    -0.550 OA
ENDBRANCH   7   8
ENDBRANCH   6   7
ENDBRANCH   5   6
ENDBRANCH   4   5
ENDBRANCH   3   4
ENDBRANCH   2   3
ENDBRANCH   1   2
BRANCH   1  11
ATOM     11  C   UNL     1      44.996  27.156   1.351  1.00  0.00    -0.031 C 
ATOM     12  C   UNL     1      45.720  26.632   2.357  1.00  0.00    -0.027 C 
BRANCH  12  13
ATOM     13  C   UNL     1      45.202  25.621   3.350  1.00  0.00     0.054 C 
BRANCH  13  14
ATOM     14  C   UNL     1      45.634  25.953   4.752  1.00  0.00    -0.027 C 
ATOM     15  C   UNL     1      46.146  27.153   5.067  1.00  0.00    -0.031 C 
BRANCH  15  16
ATOM     16  C   UNL     1      46.582  27.479   6.470  1.00  0.00     0.027 C 
BRANCH  16  17
ATOM     17  C   UNL     1      45.611  28.462   7.140  1.00  0.00     0.004 C 
BRANCH  17  18
ATOM     18  C   UNL     1      45.253  28.050   8.577  1.00  0.00     0.000 C 
BRANCH  18  19
ATOM     19  C   UNL     1      45.197  26.526   8.758  1.00  0.00    -0.003 C 
ATOM     20  C   UNL     1      46.196  26.059   9.811  1.00  0.00     0.004 C 
ENDBRANCH  18  19
ENDBRANCH  17  18
ENDBRANCH  16  17
ENDBRANCH  15  16
ENDBRANCH  13  14
ENDBRANCH  12  13
ENDBRANCH   1  11
TORSDOF 14
ENDMDL
MODEL 5
REMARK VINA RESULT:    -4.561      0.968      1.915
REMARK INTER + INTRA:          -9.543
REMARK INTER:                  -7.909
REMARK INTRA:                  -1.633
REMARK UNBOUND:                -1.250
REMARK SMILES CCCCCC=CCC=CCCCCCCCC(=O)[O-]
REMARK SMILES IDX 11 1 12 2 13 3 14 4 15 5 16 6 17 7 18 8 19 9 20 10 10 11
REMARK SMILES IDX 9 12 8 13 7 14 6 15 5 16 4 17 3 18 2 19 1 20
REMARK H PARENT
REMARK Flexibility Score: inf
ROOT
ATOM      1  C   UNL     1      43.091  27.272  -0.619  1.00  0.00     0.027 C 
ENDROOT
BRANCH   1   2
ATOM      2  C   UNL     1      42.935  28.516  -1.500  1.00  0.00     0.004 C 
BRANCH   2   3
ATOM      3  C   UNL     1      44.294  28.983  -2.034  1.00  0.00     0.000 C 
BRANCH   3   4
ATOM      4  C   UNL     1      45.363  27.894  -1.849  1.00  0.00     0.000 C 
BRANCH   4   5
ATOM      5  C   UNL     1      45.773  27.222  -3.172  1.00  0.00     0.000 C 
BRANCH   5   6
ATOM      6  C   UNL     1      45.163  27.851  -4.437  1.00  0.00     0.006 C 
BRANCH   6   7
ATOM      7  C   UNL     1      44.005  27.028  -5.017  1.00  0.00     0.053 C 
BRANCH   7   8
ATOM      8  C   UNL     1      42.903  27.928  -5.479  1.00  0.00     0.041 C 
ATOM      9  O   UNL     1      41.804  27.954  -4.862  1.00  0.00    -0.550 OA
ATOM     10  O   UNL     1      43.107  28.774  -6.564  1.00  0.00    -0.550 OA
ENDBRANCH   7   8
ENDBRANCH   6   7
ENDBRANCH   5   6
ENDBRANCH   4   5
ENDBRANCH   3   4
ENDBRANCH   2   3
ENDBRANCH   1   2
BRANCH   1  11
ATOM     11  C   UNL     1      42.293  27.414   0.651  1.00  0.00    -0.031 C 
ATOM     12  C   UNL     1      42.777  27.903   1.808  1.00  0.00    -0.027 C 
BRANCH  12  13
ATOM     13  C   UNL     1      44.174  28.445   1.992  1.00  0.00     0.054 C 
BRANCH  13  14
ATOM     14  C   UNL     1      45.132  27.368   2.421  1.00  0.00    -0.027 C 
ATOM     15  C   UNL     1      44.714  26.272   3.073  1.00  0.00    -0.031 C 
BRANCH  15  16
ATOM     16  C   UNL     1      45.677  25.200   3.506  1.00  0.00     0.027 C 
BRANCH  16  17
ATOM     17  C   UNL     1      46.656  25.728   4.567  1.00  0.00     0.004 C 
BRANCH  17  18
ATOM     18  C   UNL     1      45.939  26.242   5.826  1.00  0.00     0.000 C 
BRANCH  18  19
ATOM     19  C   UNL     1      46.239  27.720   6.114  1.00  0.00    -0.003 C 
ATOM     20  C   UNL     1      45.572  28.175   7.409  1.00  0.00     0.004 C 
ENDBRANCH  18  19
ENDBRANCH  17  18
ENDBRANCH  16  17
ENDBRANCH  15  16
ENDBRANCH  13  14
ENDBRANCH  12  13
ENDBRANCH   1  11
TORSDOF 14
ENDMDL
MODEL 6
REMARK VINA RESULT:    -4.559      1.516      2.060
REMARK INTER + INTRA:          -9.540
REMARK INTER:                  -8.041
REMARK INTRA:                  -1.499
REMARK UNBOUND:                -1.250
REMARK SMILES CCCCCC=CCC=CCCCCCCCC(=O)[O-]
REMARK SMILES IDX 11 1 12 2 13 3 14 4 15 5 16 6 17 7 18 8 19 9 20 10 10 11
REMARK SMILES IDX 9 12 8 13 7 14 6 15 5 16 4 17 3 18 2 19 1 20
REMARK H PARENT
REMARK Flexibility Score: inf
ROOT
ATOM      1  C   UNL     1      42.467  29.332   1.408  1.00  0.00     0.027 C 
ENDROOT
BRANCH   1   2
ATOM      2  C   UNL     1      43.096  30.057   0.215  1.00  0.00     0.004 C 
BRANCH   2   3
ATOM      3  C   UNL     1      42.245  29.874  -1.048  1.00  0.00     0.000 C 
BRANCH   3   4
ATOM      4  C   UNL     1      43.111  29.433  -2.238  1.00  0.00     0.000 C 
BRANCH   4   5
ATOM      5  C   UNL     1      44.465  28.839  -1.809  1.00  0.00     0.000 C 
BRANCH   5   6
ATOM      6  C   UNL     1      44.714  27.390  -2.266  1.00  0.00     0.006 C 
BRANCH   6   7
ATOM      7  C   UNL     1      45.552  27.301  -3.548  1.00  0.00     0.053 C 
BRANCH   7   8
ATOM      8  C   UNL     1      44.685  26.947  -4.715  1.00  0.00     0.041 C 
ATOM      9  O   UNL     1      45.122  27.074  -5.891  1.00  0.00    -0.550 OA
ATOM     10  O   UNL     1      43.410  26.434  -4.502  1.00  0.00    -0.550 OA
ENDBRANCH   7   8
ENDBRANCH   6   7
ENDBRANCH   5   6
ENDBRANCH   4   5
ENDBRANCH   3   4
ENDBRANCH   2   3
ENDBRANCH   1   2
BRANCH   1  11
ATOM     11  C   UNL     1      42.222  27.882   1.083  1.00  0.00    -0.031 C 
ATOM     12  C   UNL     1      43.147  26.908   1.185  1.00  0.00    -0.027 C 
BRANCH  12  13
ATOM     13  C   UNL     1      44.550  27.110   1.702  1.00  0.00     0.054 C 
BRANCH  13  14
ATOM     14  C   UNL     1      44.784  26.344   2.976  1.00  0.00    -0.027 C 
ATOM     15  C   UNL     1      45.723  26.717   3.859  1.00  0.00    -0.031 C 
BRANCH  15  16
ATOM     16  C   UNL     1      45.958  25.944   5.129  1.00  0.00     0.027 C 
BRANCH  16  17
ATOM     17  C   UNL     1      46.191  26.887   6.319  1.00  0.00     0.004 C 
BRANCH  17  18
ATOM     18  C   UNL     1      45.718  26.284   7.651  1.00  0.00     0.000 C 
BRANCH  18  19
ATOM     19  C   UNL     1      45.276  27.354   8.660  1.00  0.00    -0.003 C 
ATOM     20  C   UNL     1      45.200  28.731   8.007  1.00  0.00     0.004 C 
ENDBRANCH  18  19
ENDBRANCH  17  18
ENDBRANCH  16  17
ENDBRANCH  15  16
ENDBRANCH  13  14
ENDBRANCH  12  13
ENDBRANCH   1  11
TORSDOF 14
ENDMDL
MODEL 7
REMARK VINA RESULT:    -4.452      4.751     10.285
REMARK INTER + INTRA:          -9.345
REMARK INTER:                  -8.542
REMARK INTRA:                  -0.803
REMARK UNBOUND:                -1.250
REMARK SMILES CCCCCC=CCC=CCCCCCCCC(=O)[O-]
REMARK SMILES IDX 11 1 12 2 13 3 14 4 15 5 16 6 17 7 18 8 19 9 20 10 10 11
REMARK SMILES IDX 9 12 8 13 7 14 6 15 5 16 4 17 3 18 2 19 1 20
REMARK H PARENT
REMARK Flexibility Score: inf
ROOT
ATOM      1  C   UNL     1      44.339  27.658   2.260  1.00  0.00     0.027 C 
ENDROOT
BRANCH   1   2
ATOM      2  C   UNL     1      44.521  26.191   2.661  1.00  0.00     0.004 C 
BRANCH   2   3
ATOM      3  C   UNL     1      45.518  26.061   3.820  1.00  0.00     0.000 C 
BRANCH   3   4
ATOM      4  C   UNL     1      45.980  27.443   4.308  1.00  0.00     0.000 C 
BRANCH   4   5
ATOM      5  C   UNL     1      46.378  27.454   5.795  1.00  0.00     0.000 C 
BRANCH   5   6
ATOM      6  C   UNL     1      46.010  26.179   6.576  1.00  0.00     0.006 C 
BRANCH   6   7
ATOM      7  C   UNL     1      46.889  25.961   7.814  1.00  0.00     0.053 C 
BRANCH   7   8
ATOM      8  C   UNL     1      46.041  25.790   9.035  1.00  0.00     0.041 C 
ATOM      9  O   UNL     1      44.858  26.227   9.052  1.00  0.00    -0.550 OA
ATOM     10  O   UNL     1      46.541  25.107  10.138  1.00  0.00    -0.550 OA
ENDBRANCH   7   8
ENDBRANCH   6   7
ENDBRANCH   5   6
ENDBRANCH   4   5
ENDBRANCH   3   4
ENDBRANCH   2   3
ENDBRANCH   1   2
BRANCH   1  11
ATOM     11  C   UNL     1      42.906  27.936   1.888  1.00  0.00    -0.031 C 
ATOM     12  C   UNL     1      42.320  27.535   0.745  1.00  0.00    -0.027 C 
BRANCH  12  13
ATOM     13  C   UNL     1      42.990  26.690  -0.311  1.00  0.00     0.054 C 
BRANCH  13  14
ATOM     14  C   UNL     1      43.569  27.538  -1.411  1.00  0.00    -0.027 C 
ATOM     15  C   UNL     1      44.081  26.993  -2.525  1.00  0.00    -0.031 C 
BRANCH  15  16
ATOM     16  C   UNL     1      44.665  27.845  -3.620  1.00  0.00     0.027 C 
BRANCH  16  17
ATOM     17  C   UNL     1      44.697  27.088  -4.956  1.00  0.00     0.004 C 
BRANCH  17  18
ATOM     18  C   UNL     1      43.331  27.079  -5.662  1.00  0.00     0.000 C 
BRANCH  18  19
ATOM     19  C   UNL     1      42.524  28.360  -5.403  1.00  0.00    -0.003 C 
ATOM     20  C   UNL     1      41.750  28.784  -6.647  1.00  0.00     0.004 C 
ENDBRANCH  18  19
ENDBRANCH  17  18
ENDBRANCH  16  17
ENDBRANCH  15  16
ENDBRANCH  13  14
ENDBRANCH  12  13
ENDBRANCH   1  11
TORSDOF 14
ENDMDL
MODEL 8
REMARK VINA RESULT:    -4.414      4.573      9.995
REMARK INTER + INTRA:          -9.277
REMARK INTER:                  -8.102
REMARK INTRA:                  -1.175
REMARK UNBOUND:                -1.250
REMARK SMILES CCCCCC=CCC=CCCCCCCCC(=O)[O-]
REMARK SMILES IDX 11 1 12 2 13 3 14 4 15 5 16 6 17 7 18 8 19 9 20 10 10 11
REMARK SMILES IDX 9 12 8 13 7 14 6 15 5 16 4 17 3 18 2 19 1 20
REMARK H PARENT
REMARK Flexibility Score: inf
ROOT
ATOM      1  C   UNL     1      43.730  26.728   1.270  1.00  0.00     0.027 C 
ENDROOT
BRANCH   1   2
ATOM      2  C   UNL     1      44.464  27.006   2.585  1.00  0.00     0.004 C 
BRANCH   2   3
ATOM      3  C   UNL     1      44.952  25.700   3.226  1.00  0.00     0.000 C 
BRANCH   3   4
ATOM      4  C   UNL     1      45.984  25.980   4.330  1.00  0.00     0.000 C 
BRANCH   4   5
ATOM      5  C   UNL     1      46.067  27.469   4.712  1.00  0.00     0.000 C 
BRANCH   5   6
ATOM      6  C   UNL     1      46.063  27.754   6.224  1.00  0.00     0.006 C 
BRANCH   6   7
ATOM      7  C   UNL     1      46.025  26.477   7.074  1.00  0.00     0.053 C 
BRANCH   7   8
ATOM      8  C   UNL     1      45.442  26.764   8.422  1.00  0.00     0.041 C 
ATOM      9  O   UNL     1      45.420  25.866   9.308  1.00  0.00    -0.550 OA
ATOM     10  O   UNL     1      44.965  28.037   8.716  1.00  0.00    -0.550 OA
ENDBRANCH   7   8
ENDBRANCH   6   7
ENDBRANCH   5   6
ENDBRANCH   4   5
ENDBRANCH   3   4
ENDBRANCH   2   3
ENDBRANCH   1   2
BRANCH   1  11
ATOM     11  C   UNL     1      42.664  27.763   1.024  1.00  0.00    -0.031 C 
ATOM     12  C   UNL     1      42.705  28.687   0.045  1.00  0.00    -0.027 C 
BRANCH  12  13
ATOM     13  C   UNL     1      43.793  28.784  -0.996  1.00  0.00     0.054 C 
BRANCH  13  14
ATOM     14  C   UNL     1      43.417  28.054  -2.256  1.00  0.00    -0.027 C 
ATOM     15  C   UNL     1      42.971  28.706  -3.341  1.00  0.00    -0.031 C 
BRANCH  15  16
ATOM     16  C   UNL     1      42.591  27.971  -4.598  1.00  0.00     0.027 C 
BRANCH  16  17
ATOM     17  C   UNL     1      43.679  26.963  -5.003  1.00  0.00     0.004 C 
BRANCH  17  18
ATOM     18  C   UNL     1      44.642  27.529  -6.059  1.00  0.00     0.000 C 
BRANCH  18  19
ATOM     19  C   UNL     1      46.010  27.904  -5.471  1.00  0.00    -0.003 C 
ATOM     20  C   UNL     1      46.377  26.992  -4.305  1.00  0.00     0.004 C 
ENDBRANCH  18  19
ENDBRANCH  17  18
ENDBRANCH  16  17
ENDBRANCH  15  16
ENDBRANCH  13  14
ENDBRANCH  12  13
ENDBRANCH   1  11
TORSDOF 14
ENDMDL
MODEL 9
REMARK VINA RESULT:    -4.354      4.369      8.763
REMARK INTER + INTRA:          -9.168
REMARK INTER:                  -7.128
REMARK INTRA:                  -2.040
REMARK UNBOUND:                -1.250
REMARK SMILES CCCCCC=CCC=CCCCCCCCC(=O)[O-]
REMARK SMILES IDX 11 1 12 2 13 3 14 4 15 5 16 6 17 7 18 8 19 9 20 10 10 11
REMARK SMILES IDX 9 12 8 13 7 14 6 15 5 16 4 17 3 18 2 19 1 20
REMARK H PARENT
REMARK Flexibility Score: inf
ROOT
ATOM      1  C   UNL     1      44.688  28.080   2.192  1.00  0.00     0.027 C 
ENDROOT
BRANCH   1   2
ATOM      2  C   UNL     1      45.828  27.093   2.457  1.00  0.00     0.004 C 
BRANCH   2   3
ATOM      3  C   UNL     1      45.292  25.784   3.052  1.00  0.00     0.000 C 
BRANCH   3   4
ATOM      4  C   UNL     1      46.372  25.073   3.882  1.00  0.00     0.000 C 
BRANCH   4   5
ATOM      5  C   UNL     1      46.966  25.966   4.988  1.00  0.00     0.000 C 
BRANCH   5   6
ATOM      6  C   UNL     1      45.980  26.367   6.099  1.00  0.00     0.006 C 
BRANCH   6   7
ATOM      7  C   UNL     1      45.995  27.872   6.399  1.00  0.00     0.053 C 
BRANCH   7   8
ATOM      8  C   UNL     1      45.375  28.146   7.732  1.00  0.00     0.041 C 
ATOM      9  O   UNL     1      45.273  27.224   8.586  1.00  0.00    -0.550 OA
ATOM     10  O   UNL     1      44.950  29.432   8.049  1.00  0.00    -0.550 OA
ENDBRANCH   7   8
ENDBRANCH   6   7
ENDBRANCH   5   6
ENDBRANCH   4   5
ENDBRANCH   3   4
ENDBRANCH   2   3
ENDBRANCH   1   2
BRANCH   1  11
ATOM     11  C   UNL     1      43.401  27.347   1.913  1.00  0.00    -0.031 C 
ATOM     12  C   UNL     1      42.270  27.928   1.472  1.00  0.00    -0.027 C 
BRANCH  12  13
ATOM     13  C   UNL     1      42.135  29.391   1.128  1.00  0.00     0.054 C 
BRANCH  13  14
ATOM     14  C   UNL     1      42.502  29.657  -0.306  1.00  0.00    -0.027 C 
ATOM     15  C   UNL     1      42.572  28.668  -1.211  1.00  0.00    -0.031 C 
BRANCH  15  16
ATOM     16  C   UNL     1      42.945  28.938  -2.643  1.00  0.00     0.027 C 
BRANCH  16  17
ATOM     17  C   UNL     1      44.310  28.321  -2.988  1.00  0.00     0.004 C 
BRANCH  17  18
ATOM     18  C   UNL     1      44.867  27.451  -1.850  1.00  0.00     0.000 C 
BRANCH  18  19
ATOM     19  C   UNL     1      46.274  27.883  -1.410  1.00  0.00    -0.003 C 
ATOM     20  C   UNL     1      46.282  29.334  -0.937  1.00  0.00     0.004 C 
ENDBRANCH  18  19
ENDBRANCH  17  18
ENDBRANCH  16  17
ENDBRANCH  15  16
ENDBRANCH  13  14
ENDBRANCH  12  13
ENDBRANCH   1  11
TORSDOF 14
ENDMDL
