MODEL 1
REMARK VINA RESULT:    -4.560      0.000      0.000
REMARK INTER + INTRA:          -5.205
REMARK INTER:                  -5.093
REMARK INTRA:                  -0.111
REMARK UNBOUND:                -0.111
REMARK SMILES COc1cc(OC)c2ccc(=O)oc2c1
REMARK SMILES IDX 3 1 15 2 14 3 8 4 9 5 10 6 11 7 12 8 13 9 5 10 4 11 2 12
REMARK SMILES IDX 1 13 6 14 7 15
REMARK H PARENT
REMARK Flexibility Score: inf
ROOT
ATOM      1  C   UNL     1      28.657  31.647  72.199  1.00  0.00     0.126 A 
ATOM      2  C   UNL     1      29.886  31.266  72.766  1.00  0.00     0.094 A 
ATOM      3  C   UNL     1      29.970  30.125  73.569  1.00  0.00     0.145 A 
ATOM      4  C   UNL     1      28.816  29.347  73.814  1.00  0.00     0.060 A 
ATOM      5  C   UNL     1      28.950  28.210  74.624  1.00  0.00     0.023 A 
ATOM      6  C   UNL     1      30.196  27.887  75.158  1.00  0.00     0.095 A 
ATOM      7  C   UNL     1      31.290  28.706  74.869  1.00  0.00     0.336 A 
ATOM      8  O   UNL     1      32.424  28.431  75.341  1.00  0.00    -0.246 OA
ATOM      9  O   UNL     1      31.141  29.779  74.098  1.00  0.00    -0.422 OA
ATOM     10  C   UNL     1      27.580  29.719  73.250  1.00  0.00     0.133 A 
ATOM     11  C   UNL     1      27.516  30.873  72.444  1.00  0.00     0.093 A 
ENDROOT
BRANCH   1  12
ATOM     12  O   UNL     1      28.525  32.784  71.388  1.00  0.00    -0.496 OA
ATOM     13  C   UNL     1      29.251  33.995  71.573  1.00  0.00     0.278 C 
ENDBRANCH   1  12
BRANCH  10  14
ATOM     14  O   UNL     1      26.445  28.930  73.506  1.00  0.00    -0.496 OA
ATOM     15  C   UNL     1      25.368  29.314  74.354  1.00  0.00     0.278 C 
ENDBRANCH  10  14
TORSDOF 2
ENDMDL
MODEL 2
REMARK VINA RESULT:    -4.385      1.260      4.003
REMARK INTER + INTRA:          -5.009
REMARK INTER:                  -4.898
REMARK INTRA:                  -0.111
REMARK UNBOUND:                -0.111
REMARK SMILES COc1cc(OC)c2ccc(=O)oc2c1
REMARK SMILES IDX 3 1 15 2 14 3 8 4 9 5 10 6 11 7 12 8 13 9 5 10 4 11 2 12
REMARK SMILES IDX 1 13 6 14 7 15
REMARK H PARENT
REMARK Flexibility Score: inf
ROOT
ATOM      1  C   UNL     1      29.225  31.596  72.750  1.00  0.00     0.126 A 
ATOM      2  C   UNL     1      27.826  31.581  72.893  1.00  0.00     0.094 A 
ATOM      3  C   UNL     1      27.189  30.488  73.486  1.00  0.00     0.145 A 
ATOM      4  C   UNL     1      27.950  29.390  73.946  1.00  0.00     0.060 A 
ATOM      5  C   UNL     1      27.266  28.316  74.534  1.00  0.00     0.023 A 
ATOM      6  C   UNL     1      25.878  28.361  74.646  1.00  0.00     0.095 A 
ATOM      7  C   UNL     1      25.196  29.482  74.168  1.00  0.00     0.336 A 
ATOM      8  O   UNL     1      23.942  29.543  74.259  1.00  0.00    -0.246 OA
ATOM      9  O   UNL     1      25.864  30.490  73.613  1.00  0.00    -0.422 OA
ATOM     10  C   UNL     1      29.351  29.395  73.808  1.00  0.00     0.133 A 
ATOM     11  C   UNL     1      29.975  30.506  73.208  1.00  0.00     0.093 A 
ENDROOT
BRANCH   1  12
ATOM     12  O   UNL     1      29.908  32.671  72.162  1.00  0.00    -0.496 OA
ATOM     13  C   UNL     1      29.359  33.974  71.984  1.00  0.00     0.278 C 
ENDBRANCH   1  12
BRANCH  10  14
ATOM     14  O   UNL     1      30.090  28.293  74.273  1.00  0.00    -0.496 OA
ATOM     15  C   UNL     1      31.272  28.387  75.061  1.00  0.00     0.278 C 
ENDBRANCH  10  14
TORSDOF 2
ENDMDL
MODEL 3
REMARK VINA RESULT:    -4.365      1.307      4.376
REMARK INTER + INTRA:          -4.986
REMARK INTER:                  -4.879
REMARK INTRA:                  -0.107
REMARK UNBOUND:                -0.111
REMARK SMILES COc1cc(OC)c2ccc(=O)oc2c1
REMARK SMILES IDX 3 1 15 2 14 3 8 4 9 5 10 6 11 7 12 8 13 9 5 10 4 11 2 12
REMARK SMILES IDX 1 13 6 14 7 15
REMARK H PARENT
REMARK Flexibility Score: inf
ROOT
ATOM      1  C   UNL     1      29.208  29.037  73.906  1.00  0.00     0.126 A 
ATOM      2  C   UNL     1      29.926  30.143  73.418  1.00  0.00     0.094 A 
ATOM      3  C   UNL     1      29.250  31.268  72.938  1.00  0.00     0.145 A 
ATOM      4  C   UNL     1      27.837  31.299  72.944  1.00  0.00     0.060 A 
ATOM      5  C   UNL     1      27.203  32.450  72.454  1.00  0.00     0.023 A 
ATOM      6  C   UNL     1      27.971  33.513  71.982  1.00  0.00     0.095 A 
ATOM      7  C   UNL     1      29.364  33.407  72.010  1.00  0.00     0.336 A 
ATOM      8  O   UNL     1      30.076  34.355  71.589  1.00  0.00    -0.246 OA
ATOM      9  O   UNL     1      29.945  32.306  72.479  1.00  0.00    -0.422 OA
ATOM     10  C   UNL     1      27.108  30.197  73.431  1.00  0.00     0.133 A 
ATOM     11  C   UNL     1      27.809  29.073  73.910  1.00  0.00     0.093 A 
ENDROOT
BRANCH   1  12
ATOM     12  O   UNL     1      29.844  27.887  74.397  1.00  0.00    -0.496 OA
ATOM     13  C   UNL     1      31.133  27.875  75.001  1.00  0.00     0.278 C 
ENDBRANCH   1  12
BRANCH  10  14
ATOM     14  O   UNL     1      25.704  30.249  73.429  1.00  0.00    -0.496 OA
ATOM     15  C   UNL     1      24.874  29.748  74.472  1.00  0.00     0.278 C 
ENDBRANCH  10  14
TORSDOF 2
ENDMDL
MODEL 4
REMARK VINA RESULT:    -4.352      1.319      4.643
REMARK INTER + INTRA:          -4.973
REMARK INTER:                  -4.881
REMARK INTRA:                  -0.092
REMARK UNBOUND:                -0.111
REMARK SMILES COc1cc(OC)c2ccc(=O)oc2c1
REMARK SMILES IDX 3 1 15 2 14 3 8 4 9 5 10 6 11 7 12 8 13 9 5 10 4 11 2 12
REMARK SMILES IDX 1 13 6 14 7 15
REMARK H PARENT
REMARK Flexibility Score: inf
ROOT
ATOM      1  C   UNL     1      26.733  28.689  73.835  1.00  0.00     0.126 A 
ATOM      2  C   UNL     1      26.843  29.964  73.254  1.00  0.00     0.094 A 
ATOM      3  C   UNL     1      28.096  30.563  73.095  1.00  0.00     0.145 A 
ATOM      4  C   UNL     1      29.261  29.885  73.518  1.00  0.00     0.060 A 
ATOM      5  C   UNL     1      30.496  30.525  73.338  1.00  0.00     0.023 A 
ATOM      6  C   UNL     1      30.538  31.791  72.756  1.00  0.00     0.095 A 
ATOM      7  C   UNL     1      29.342  32.396  72.364  1.00  0.00     0.336 A 
ATOM      8  O   UNL     1      29.358  33.539  71.837  1.00  0.00    -0.246 OA
ATOM      9  O   UNL     1      28.182  31.771  72.544  1.00  0.00    -0.422 OA
ATOM     10  C   UNL     1      29.163  28.606  74.101  1.00  0.00     0.133 A 
ATOM     11  C   UNL     1      27.891  28.021  74.252  1.00  0.00     0.093 A 
ENDROOT
BRANCH   1  12
ATOM     12  O   UNL     1      25.497  28.049  74.014  1.00  0.00    -0.496 OA
ATOM     13  C   UNL     1      24.837  27.910  75.269  1.00  0.00     0.278 C 
ENDBRANCH   1  12
BRANCH  10  14
ATOM     14  O   UNL     1      30.335  27.949  74.514  1.00  0.00    -0.496 OA
ATOM     15  C   UNL     1      30.789  27.875  75.861  1.00  0.00     0.278 C 
ENDBRANCH  10  14
TORSDOF 2
ENDMDL
MODEL 5
REMARK VINA RESULT:    -4.288      1.913      2.953
REMARK INTER + INTRA:          -4.901
REMARK INTER:                  -4.802
REMARK INTRA:                  -0.099
REMARK UNBOUND:                -0.111
REMARK SMILES COc1cc(OC)c2ccc(=O)oc2c1
REMARK SMILES IDX 3 1 15 2 14 3 8 4 9 5 10 6 11 7 12 8 13 9 5 10 4 11 2 12
REMARK SMILES IDX 1 13 6 14 7 15
REMARK H PARENT
REMARK Flexibility Score: inf
ROOT
ATOM      1  C   UNL     1      29.561  33.282  72.064  1.00  0.00     0.126 A 
ATOM      2  C   UNL     1      29.992  32.040  72.562  1.00  0.00     0.094 A 
ATOM      3  C   UNL     1      29.061  31.085  72.979  1.00  0.00     0.145 A 
ATOM      4  C   UNL     1      27.678  31.365  72.901  1.00  0.00     0.060 A 
ATOM      5  C   UNL     1      26.781  30.376  73.331  1.00  0.00     0.023 A 
ATOM      6  C   UNL     1      27.272  29.165  73.816  1.00  0.00     0.095 A 
ATOM      7  C   UNL     1      28.653  28.963  73.861  1.00  0.00     0.336 A 
ATOM      8  O   UNL     1      29.117  27.876  74.295  1.00  0.00    -0.246 OA
ATOM      9  O   UNL     1      29.486  29.914  73.449  1.00  0.00    -0.422 OA
ATOM     10  C   UNL     1      27.235  32.606  72.404  1.00  0.00     0.133 A 
ATOM     11  C   UNL     1      28.190  33.555  71.988  1.00  0.00     0.093 A 
ENDROOT
BRANCH   1  12
ATOM     12  O   UNL     1      30.459  34.271  71.633  1.00  0.00    -0.496 OA
ATOM     13  C   UNL     1      30.142  35.655  71.527  1.00  0.00     0.278 C 
ENDBRANCH   1  12
BRANCH  10  14
ATOM     14  O   UNL     1      25.856  32.864  72.333  1.00  0.00    -0.496 OA
ATOM     15  C   UNL     1      25.279  34.163  72.251  1.00  0.00     0.278 C 
ENDBRANCH  10  14
TORSDOF 2
ENDMDL
MODEL 6
REMARK VINA RESULT:    -4.177     17.480     18.661
REMARK INTER + INTRA:          -4.777
REMARK INTER:                  -4.679
REMARK INTRA:                  -0.098
REMARK UNBOUND:                -0.111
REMARK SMILES COc1cc(OC)c2ccc(=O)oc2c1
REMARK SMILES IDX 3 1 15 2 14 3 8 4 9 5 10 6 11 7 12 8 13 9 5 10 4 11 2 12
REMARK SMILES IDX 1 13 6 14 7 15
REMARK H PARENT
REMARK Flexibility Score: inf
ROOT
ATOM      1  C   UNL     1      28.836  44.698  83.004  1.00  0.00     0.126 A 
ATOM      2  C   UNL     1      29.309  44.771  84.325  1.00  0.00     0.094 A 
ATOM      3  C   UNL     1      28.413  44.789  85.397  1.00  0.00     0.145 A 
ATOM      4  C   UNL     1      27.022  44.732  85.156  1.00  0.00     0.060 A 
ATOM      5  C   UNL     1      26.161  44.752  86.263  1.00  0.00     0.023 A 
ATOM      6  C   UNL     1      26.693  44.826  87.549  1.00  0.00     0.095 A 
ATOM      7  C   UNL     1      28.080  44.878  87.706  1.00  0.00     0.336 A 
ATOM      8  O   UNL     1      28.581  44.945  88.858  1.00  0.00    -0.246 OA
ATOM      9  O   UNL     1      28.878  44.859  86.642  1.00  0.00    -0.422 OA
ATOM     10  C   UNL     1      26.536  44.659  83.836  1.00  0.00     0.133 A 
ATOM     11  C   UNL     1      27.457  44.642  82.769  1.00  0.00     0.093 A 
ENDROOT
BRANCH   1  12
ATOM     12  O   UNL     1      29.698  44.678  81.897  1.00  0.00    -0.496 OA
ATOM     13  C   UNL     1      29.296  44.950  80.558  1.00  0.00     0.278 C 
ENDBRANCH   1  12
BRANCH  10  14
ATOM     14  O   UNL     1      25.149  44.603  83.617  1.00  0.00    -0.496 OA
ATOM     15  C   UNL     1      24.538  44.377  82.351  1.00  0.00     0.278 C 
ENDBRANCH  10  14
TORSDOF 2
ENDMDL
MODEL 7
REMARK VINA RESULT:    -4.125      7.743      9.566
REMARK INTER + INTRA:          -4.719
REMARK INTER:                  -4.620
REMARK INTRA:                  -0.099
REMARK UNBOUND:                -0.111
REMARK SMILES COc1cc(OC)c2ccc(=O)oc2c1
REMARK SMILES IDX 3 1 15 2 14 3 8 4 9 5 10 6 11 7 12 8 13 9 5 10 4 11 2 12
REMARK SMILES IDX 1 13 6 14 7 15
REMARK H PARENT
REMARK Flexibility Score: inf
ROOT
ATOM      1  C   UNL     1      32.799  37.257  71.611  1.00  0.00     0.126 A 
ATOM      2  C   UNL     1      31.458  36.926  71.351  1.00  0.00     0.094 A 
ATOM      3  C   UNL     1      30.426  37.559  72.050  1.00  0.00     0.145 A 
ATOM      4  C   UNL     1      30.728  38.538  73.023  1.00  0.00     0.060 A 
ATOM      5  C   UNL     1      29.660  39.146  73.698  1.00  0.00     0.023 A 
ATOM      6  C   UNL     1      28.352  38.772  73.396  1.00  0.00     0.095 A 
ATOM      7  C   UNL     1      28.134  37.796  72.420  1.00  0.00     0.336 A 
ATOM      8  O   UNL     1      26.960  37.445  72.132  1.00  0.00    -0.246 OA
ATOM      9  O   UNL     1      29.162  37.232  71.792  1.00  0.00    -0.422 OA
ATOM     10  C   UNL     1      32.068  38.877  73.291  1.00  0.00     0.133 A 
ATOM     11  C   UNL     1      33.094  38.228  72.576  1.00  0.00     0.093 A 
ENDROOT
BRANCH   1  12
ATOM     12  O   UNL     1      33.867  36.649  70.935  1.00  0.00    -0.496 OA
ATOM     13  C   UNL     1      34.252  35.287  71.097  1.00  0.00     0.278 C 
ENDBRANCH   1  12
BRANCH  10  14
ATOM     14  O   UNL     1      32.347  39.855  74.262  1.00  0.00    -0.496 OA
ATOM     15  C   UNL     1      33.516  40.668  74.278  1.00  0.00     0.278 C 
ENDBRANCH  10  14
TORSDOF 2
ENDMDL
MODEL 8
REMARK VINA RESULT:    -4.123      8.096      9.926
REMARK INTER + INTRA:          -4.716
REMARK INTER:                  -4.617
REMARK INTRA:                  -0.099
REMARK UNBOUND:                -0.111
REMARK SMILES COc1cc(OC)c2ccc(=O)oc2c1
REMARK SMILES IDX 3 1 15 2 14 3 8 4 9 5 10 6 11 7 12 8 13 9 5 10 4 11 2 12
REMARK SMILES IDX 1 13 6 14 7 15
REMARK H PARENT
REMARK Flexibility Score: inf
ROOT
ATOM      1  C   UNL     1      32.805  39.595  73.904  1.00  0.00     0.126 A 
ATOM      2  C   UNL     1      31.455  39.782  74.252  1.00  0.00     0.094 A 
ATOM      3  C   UNL     1      30.448  39.095  73.568  1.00  0.00     0.145 A 
ATOM      4  C   UNL     1      30.784  38.206  72.522  1.00  0.00     0.060 A 
ATOM      5  C   UNL     1      29.739  37.539  71.866  1.00  0.00     0.023 A 
ATOM      6  C   UNL     1      28.421  37.769  72.257  1.00  0.00     0.095 A 
ATOM      7  C   UNL     1      28.170  38.662  73.301  1.00  0.00     0.336 A 
ATOM      8  O   UNL     1      26.987  38.884  73.669  1.00  0.00    -0.246 OA
ATOM      9  O   UNL     1      29.176  39.285  73.910  1.00  0.00    -0.422 OA
ATOM     10  C   UNL     1      32.132  38.011  72.167  1.00  0.00     0.133 A 
ATOM     11  C   UNL     1      33.132  38.713  72.868  1.00  0.00     0.093 A 
ENDROOT
BRANCH   1  12
ATOM     12  O   UNL     1      33.849  40.263  74.562  1.00  0.00    -0.496 OA
ATOM     13  C   UNL     1      34.892  40.973  73.902  1.00  0.00     0.278 C 
ENDBRANCH   1  12
BRANCH  10  14
ATOM     14  O   UNL     1      32.444  37.121  71.124  1.00  0.00    -0.496 OA
ATOM     15  C   UNL     1      33.625  36.328  71.064  1.00  0.00     0.278 C 
ENDBRANCH  10  14
TORSDOF 2
ENDMDL
MODEL 9
REMARK VINA RESULT:    -4.117      1.393      5.091
REMARK INTER + INTRA:          -4.710
REMARK INTER:                  -4.690
REMARK INTRA:                  -0.020
REMARK UNBOUND:                -0.111
REMARK SMILES COc1cc(OC)c2ccc(=O)oc2c1
REMARK SMILES IDX 3 1 15 2 14 3 8 4 9 5 10 6 11 7 12 8 13 9 5 10 4 11 2 12
REMARK SMILES IDX 1 13 6 14 7 15
REMARK H PARENT
REMARK Flexibility Score: inf
ROOT
ATOM      1  C   UNL     1      30.482  28.380  75.210  1.00  0.00     0.126 A 
ATOM      2  C   UNL     1      29.179  27.898  75.424  1.00  0.00     0.094 A 
ATOM      3  C   UNL     1      28.109  28.394  74.674  1.00  0.00     0.145 A 
ATOM      4  C   UNL     1      28.335  29.386  73.693  1.00  0.00     0.060 A 
ATOM      5  C   UNL     1      27.231  29.852  72.964  1.00  0.00     0.023 A 
ATOM      6  C   UNL     1      25.964  29.335  73.225  1.00  0.00     0.095 A 
ATOM      7  C   UNL     1      25.822  28.356  74.212  1.00  0.00     0.336 A 
ATOM      8  O   UNL     1      24.686  27.875  74.463  1.00  0.00    -0.246 OA
ATOM      9  O   UNL     1      26.882  27.927  74.891  1.00  0.00    -0.422 OA
ATOM     10  C   UNL     1      29.636  29.875  73.469  1.00  0.00     0.133 A 
ATOM     11  C   UNL     1      30.700  29.362  74.236  1.00  0.00     0.093 A 
ENDROOT
BRANCH   1  12
ATOM     12  O   UNL     1      31.585  27.911  75.938  1.00  0.00    -0.496 OA
ATOM     13  C   UNL     1      31.860  28.254  77.293  1.00  0.00     0.278 C 
ENDBRANCH   1  12
BRANCH  10  14
ATOM     14  O   UNL     1      29.839  30.860  72.487  1.00  0.00    -0.496 OA
ATOM     15  C   UNL     1      29.754  32.263  72.719  1.00  0.00     0.278 C 
ENDBRANCH  10  14
TORSDOF 2
ENDMDL
