MODEL 1
REMARK VINA RESULT:    -1.298      0.000      0.000
REMARK INTER + INTRA:          -2.955
REMARK INTER:                  -2.285
REMARK INTRA:                  -0.670
REMARK UNBOUND:                -0.670
REMARK SMILES CCCCCCC=CCCCCCCCC(=O)[O-]
REMARK SMILES IDX 10 1 11 2 12 3 13 4 14 5 15 6 16 7 17 8 18 9 9 10 8 11 7 12
REMARK SMILES IDX 6 13 5 14 4 15 3 16 2 17 1 18
REMARK H PARENT
REMARK Flexibility Score: inf
ROOT
ATOM      1  C   UNL     1     126.482 132.453 125.449  1.00  0.00     0.004 C 
ENDROOT
BRANCH   1   2
ATOM      2  C   UNL     1     125.902 133.015 126.758  1.00  0.00     0.000 C 
BRANCH   2   3
ATOM      3  C   UNL     1     125.131 134.330 126.556  1.00  0.00     0.000 C 
BRANCH   3   4
ATOM      4  C   UNL     1     124.797 135.036 127.881  1.00  0.00     0.000 C 
BRANCH   4   5
ATOM      5  C   UNL     1     123.389 134.705 128.419  1.00  0.00     0.006 C 
BRANCH   5   6
ATOM      6  C   UNL     1     122.298 134.908 127.359  1.00  0.00     0.053 C 
BRANCH   6   7
ATOM      7  C   UNL     1     121.366 136.003 127.771  1.00  0.00     0.041 C 
ATOM      8  O   UNL     1     120.943 136.064 128.956  1.00  0.00    -0.550 OA
ATOM      9  O   UNL     1     120.925 136.929 126.835  1.00  0.00    -0.550 OA
ENDBRANCH   6   7
ENDBRANCH   5   6
ENDBRANCH   4   5
ENDBRANCH   3   4
ENDBRANCH   2   3
ENDBRANCH   1   2
BRANCH   1  10
ATOM     10  C   UNL     1     125.674 132.840 124.194  1.00  0.00     0.027 C 
BRANCH  10  11
ATOM     11  C   UNL     1     124.756 131.735 123.733  1.00  0.00    -0.031 C 
ATOM     12  C   UNL     1     123.597 131.399 124.332  1.00  0.00    -0.031 C 
BRANCH  12  13
ATOM     13  C   UNL     1     123.049 132.040 125.586  1.00  0.00     0.027 C 
BRANCH  13  14
ATOM     14  C   UNL     1     122.857 131.007 126.703  1.00  0.00     0.004 C 
BRANCH  14  15
ATOM     15  C   UNL     1     123.513 131.452 128.020  1.00  0.00     0.000 C 
BRANCH  15  16
ATOM     16  C   UNL     1     122.964 130.697 129.240  1.00  0.00    -0.000 C 
BRANCH  16  17
ATOM     17  C   UNL     1     122.919 129.177 129.025  1.00  0.00    -0.003 C 
ATOM     18  C   UNL     1     121.488 128.652 129.116  1.00  0.00     0.004 C 
ENDBRANCH  16  17
ENDBRANCH  15  16
ENDBRANCH  14  15
ENDBRANCH  13  14
ENDBRANCH  12  13
ENDBRANCH  10  11
ENDBRANCH   1  10
TORSDOF 13
ENDMDL
MODEL 2
REMARK VINA RESULT:    -1.168      2.202      5.071
REMARK INTER + INTRA:          -2.725
REMARK INTER:                  -1.965
REMARK INTRA:                  -0.760
REMARK UNBOUND:                -0.670
REMARK SMILES CCCCCCC=CCCCCCCCC(=O)[O-]
REMARK SMILES IDX 10 1 11 2 12 3 13 4 14 5 15 6 16 7 17 8 18 9 9 10 8 11 7 12
REMARK SMILES IDX 6 13 5 14 4 15 3 16 2 17 1 18
REMARK H PARENT
REMARK Flexibility Score: inf
ROOT
ATOM      1  C   UNL     1     125.509 133.283 123.210  1.00  0.00     0.004 C 
ENDROOT
BRANCH   1   2
ATOM      2  C   UNL     1     124.581 132.064 123.342  1.00  0.00     0.000 C 
BRANCH   2   3
ATOM      3  C   UNL     1     124.524 131.507 124.773  1.00  0.00     0.000 C 
BRANCH   3   4
ATOM      4  C   UNL     1     123.092 131.437 125.331  1.00  0.00     0.000 C 
BRANCH   4   5
ATOM      5  C   UNL     1     122.968 131.951 126.780  1.00  0.00     0.006 C 
BRANCH   5   6
ATOM      6  C   UNL     1     123.908 131.213 127.743  1.00  0.00     0.053 C 
BRANCH   6   7
ATOM      7  C   UNL     1     123.198 130.882 129.017  1.00  0.00     0.041 C 
ATOM      8  O   UNL     1     122.887 131.797 129.825  1.00  0.00    -0.550 OA
ATOM      9  O   UNL     1     122.922 129.560 129.336  1.00  0.00    -0.550 OA
ENDBRANCH   6   7
ENDBRANCH   5   6
ENDBRANCH   4   5
ENDBRANCH   3   4
ENDBRANCH   2   3
ENDBRANCH   1   2
BRANCH   1  10
ATOM     10  C   UNL     1     125.293 134.351 124.300  1.00  0.00     0.027 C 
BRANCH  10  11
ATOM     11  C   UNL     1     125.904 133.959 125.623  1.00  0.00    -0.031 C 
ATOM     12  C   UNL     1     125.363 134.224 126.828  1.00  0.00    -0.031 C 
BRANCH  12  13
ATOM     13  C   UNL     1     124.083 134.996 127.055  1.00  0.00     0.027 C 
BRANCH  13  14
ATOM     14  C   UNL     1     123.698 135.014 128.539  1.00  0.00     0.004 C 
BRANCH  14  15
ATOM     15  C   UNL     1     122.173 134.998 128.740  1.00  0.00     0.000 C 
BRANCH  15  16
ATOM     16  C   UNL     1     121.411 135.553 127.527  1.00  0.00    -0.000 C 
BRANCH  16  17
ATOM     17  C   UNL     1     120.936 136.998 127.738  1.00  0.00    -0.003 C 
ATOM     18  C   UNL     1     120.875 137.754 126.413  1.00  0.00     0.004 C 
ENDBRANCH  16  17
ENDBRANCH  15  16
ENDBRANCH  14  15
ENDBRANCH  13  14
ENDBRANCH  12  13
ENDBRANCH  10  11
ENDBRANCH   1  10
TORSDOF 13
ENDMDL
MODEL 3
REMARK VINA RESULT:    -0.777      2.638      4.262
REMARK INTER + INTRA:          -2.037
REMARK INTER:                  -0.603
REMARK INTRA:                  -1.434
REMARK UNBOUND:                -0.670
REMARK SMILES CCCCCCC=CCCCCCCCC(=O)[O-]
REMARK SMILES IDX 10 1 11 2 12 3 13 4 14 5 15 6 16 7 17 8 18 9 9 10 8 11 7 12
REMARK SMILES IDX 6 13 5 14 4 15 3 16 2 17 1 18
REMARK H PARENT
REMARK Flexibility Score: inf
ROOT
ATOM      1  C   UNL     1     125.802 132.677 126.841  1.00  0.00     0.004 C 
ENDROOT
BRANCH   1   2
ATOM      2  C   UNL     1     125.937 132.221 125.378  1.00  0.00     0.000 C 
BRANCH   2   3
ATOM      3  C   UNL     1     124.596 131.800 124.756  1.00  0.00     0.000 C 
BRANCH   3   4
ATOM      4  C   UNL     1     124.201 132.663 123.546  1.00  0.00     0.000 C 
BRANCH   4   5
ATOM      5  C   UNL     1     125.360 133.518 122.992  1.00  0.00     0.006 C 
BRANCH   5   6
ATOM      6  C   UNL     1     124.985 135.002 122.875  1.00  0.00     0.053 C 
BRANCH   6   7
ATOM      7  C   UNL     1     126.106 135.865 123.364  1.00  0.00     0.041 C 
ATOM      8  O   UNL     1     126.913 135.427 124.227  1.00  0.00    -0.550 OA
ATOM      9  O   UNL     1     126.230 137.168 122.905  1.00  0.00    -0.550 OA
ENDBRANCH   6   7
ENDBRANCH   5   6
ENDBRANCH   4   5
ENDBRANCH   3   4
ENDBRANCH   2   3
ENDBRANCH   1   2
BRANCH   1  10
ATOM     10  C   UNL     1     125.641 134.201 127.005  1.00  0.00     0.027 C 
BRANCH  10  11
ATOM     11  C   UNL     1     124.226 134.663 126.758  1.00  0.00    -0.031 C 
ATOM     12  C   UNL     1     123.264 134.730 127.699  1.00  0.00    -0.031 C 
BRANCH  12  13
ATOM     13  C   UNL     1     123.429 134.311 129.141  1.00  0.00     0.027 C 
BRANCH  13  14
ATOM     14  C   UNL     1     122.617 133.047 129.452  1.00  0.00     0.004 C 
BRANCH  14  15
ATOM     15  C   UNL     1     123.215 131.799 128.783  1.00  0.00     0.000 C 
BRANCH  15  16
ATOM     16  C   UNL     1     122.967 130.517 129.594  1.00  0.00    -0.000 C 
BRANCH  16  17
ATOM     17  C   UNL     1     122.709 129.294 128.702  1.00  0.00    -0.003 C 
ATOM     18  C   UNL     1     121.507 128.495 129.200  1.00  0.00     0.004 C 
ENDBRANCH  16  17
ENDBRANCH  15  16
ENDBRANCH  14  15
ENDBRANCH  13  14
ENDBRANCH  12  13
ENDBRANCH  10  11
ENDBRANCH   1  10
TORSDOF 13
ENDMDL
MODEL 4
REMARK VINA RESULT:    -0.248      3.826      6.638
REMARK INTER + INTRA:          -1.106
REMARK INTER:                  -1.093
REMARK INTRA:                  -0.013
REMARK UNBOUND:                -0.670
REMARK SMILES CCCCCCC=CCCCCCCCC(=O)[O-]
REMARK SMILES IDX 10 1 11 2 12 3 13 4 14 5 15 6 16 7 17 8 18 9 9 10 8 11 7 12
REMARK SMILES IDX 6 13 5 14 4 15 3 16 2 17 1 18
REMARK H PARENT
REMARK Flexibility Score: inf
ROOT
ATOM      1  C   UNL     1     123.121 132.720 127.987  1.00  0.00     0.004 C 
ENDROOT
BRANCH   1   2
ATOM      2  C   UNL     1     123.510 131.578 128.942  1.00  0.00     0.000 C 
BRANCH   2   3
ATOM      3  C   UNL     1     122.338 130.634 129.255  1.00  0.00     0.000 C 
BRANCH   3   4
ATOM      4  C   UNL     1     122.755 129.153 129.282  1.00  0.00     0.000 C 
BRANCH   4   5
ATOM      5  C   UNL     1     121.562 128.176 129.244  1.00  0.00     0.006 C 
BRANCH   5   6
ATOM      6  C   UNL     1     121.208 127.744 127.815  1.00  0.00     0.053 C 
BRANCH   6   7
ATOM      7  C   UNL     1     121.517 126.293 127.615  1.00  0.00     0.041 C 
ATOM      8  O   UNL     1     121.063 125.433 128.416  1.00  0.00    -0.550 OA
ATOM      9  O   UNL     1     122.345 125.896 126.575  1.00  0.00    -0.550 OA
ENDBRANCH   6   7
ENDBRANCH   5   6
ENDBRANCH   4   5
ENDBRANCH   3   4
ENDBRANCH   2   3
ENDBRANCH   1   2
BRANCH   1  10
ATOM     10  C   UNL     1     123.455 134.125 128.528  1.00  0.00     0.027 C 
BRANCH  10  11
ATOM     11  C   UNL     1     124.394 134.885 127.623  1.00  0.00    -0.031 C 
ATOM     12  C   UNL     1     125.398 134.331 126.917  1.00  0.00    -0.031 C 
BRANCH  12  13
ATOM     13  C   UNL     1     125.780 132.869 126.950  1.00  0.00     0.027 C 
BRANCH  13  14
ATOM     14  C   UNL     1     126.129 132.351 125.549  1.00  0.00     0.004 C 
BRANCH  14  15
ATOM     15  C   UNL     1     126.111 133.473 124.497  1.00  0.00     0.000 C 
BRANCH  15  16
ATOM     16  C   UNL     1     125.574 133.000 123.138  1.00  0.00    -0.000 C 
BRANCH  16  17
ATOM     17  C   UNL     1     124.365 132.064 123.272  1.00  0.00    -0.003 C 
ATOM     18  C   UNL     1     124.730 130.635 122.875  1.00  0.00     0.004 C 
ENDBRANCH  16  17
ENDBRANCH  15  16
ENDBRANCH  14  15
ENDBRANCH  13  14
ENDBRANCH  12  13
ENDBRANCH  10  11
ENDBRANCH   1  10
TORSDOF 13
ENDMDL
MODEL 5
REMARK VINA RESULT:     0.231      3.018      6.531
REMARK INTER + INTRA:          -0.262
REMARK INTER:                  -0.028
REMARK INTRA:                  -0.234
REMARK UNBOUND:                -0.670
REMARK SMILES CCCCCCC=CCCCCCCCC(=O)[O-]
REMARK SMILES IDX 10 1 11 2 12 3 13 4 14 5 15 6 16 7 17 8 18 9 9 10 8 11 7 12
REMARK SMILES IDX 6 13 5 14 4 15 3 16 2 17 1 18
REMARK H PARENT
REMARK Flexibility Score: inf
ROOT
ATOM      1  C   UNL     1     124.316 133.143 127.840  1.00  0.00     0.004 C 
ENDROOT
BRANCH   1   2
ATOM      2  C   UNL     1     124.820 133.047 126.390  1.00  0.00     0.000 C 
BRANCH   2   3
ATOM      3  C   UNL     1     126.070 132.164 126.248  1.00  0.00     0.000 C 
BRANCH   3   4
ATOM      4  C   UNL     1     126.453 131.902 124.782  1.00  0.00     0.000 C 
BRANCH   4   5
ATOM      5  C   UNL     1     125.387 132.373 123.771  1.00  0.00     0.006 C 
BRANCH   5   6
ATOM      6  C   UNL     1     125.880 133.542 122.907  1.00  0.00     0.053 C 
BRANCH   6   7
ATOM      7  C   UNL     1     125.420 134.846 123.479  1.00  0.00     0.041 C 
ATOM      8  O   UNL     1     126.037 135.366 124.446  1.00  0.00    -0.550 OA
ATOM      9  O   UNL     1     124.283 135.462 122.977  1.00  0.00    -0.550 OA
ENDBRANCH   6   7
ENDBRANCH   5   6
ENDBRANCH   4   5
ENDBRANCH   3   4
ENDBRANCH   2   3
ENDBRANCH   1   2
BRANCH   1  10
ATOM     10  C   UNL     1     123.918 134.570 128.268  1.00  0.00     0.027 C 
BRANCH  10  11
ATOM     11  C   UNL     1     122.974 134.579 129.445  1.00  0.00    -0.031 C 
ATOM     12  C   UNL     1     121.671 134.914 129.383  1.00  0.00    -0.031 C 
BRANCH  12  13
ATOM     13  C   UNL     1     120.952 135.379 128.138  1.00  0.00     0.027 C 
BRANCH  13  14
ATOM     14  C   UNL     1     121.756 136.456 127.398  1.00  0.00     0.004 C 
BRANCH  14  15
ATOM     15  C   UNL     1     120.876 137.276 126.439  1.00  0.00     0.000 C 
BRANCH  15  16
ATOM     16  C   UNL     1     121.670 137.857 125.259  1.00  0.00    -0.000 C 
BRANCH  16  17
ATOM     17  C   UNL     1     121.083 139.180 124.746  1.00  0.00    -0.003 C 
ATOM     18  C   UNL     1     122.189 140.176 124.406  1.00  0.00     0.004 C 
ENDBRANCH  16  17
ENDBRANCH  15  16
ENDBRANCH  14  15
ENDBRANCH  13  14
ENDBRANCH  12  13
ENDBRANCH  10  11
ENDBRANCH   1  10
TORSDOF 13
ENDMDL
MODEL 6
REMARK VINA RESULT:     0.469      4.547      7.837
REMARK INTER + INTRA:           0.157
REMARK INTER:                   0.563
REMARK INTRA:                  -0.407
REMARK UNBOUND:                -0.670
REMARK SMILES CCCCCCC=CCCCCCCCC(=O)[O-]
REMARK SMILES IDX 10 1 11 2 12 3 13 4 14 5 15 6 16 7 17 8 18 9 9 10 8 11 7 12
REMARK SMILES IDX 6 13 5 14 4 15 3 16 2 17 1 18
REMARK H PARENT
REMARK Flexibility Score: inf
ROOT
ATOM      1  C   UNL     1     123.132 130.867 129.550  1.00  0.00     0.004 C 
ENDROOT
BRANCH   1   2
ATOM      2  C   UNL     1     122.946 129.401 129.124  1.00  0.00     0.000 C 
BRANCH   2   3
ATOM      3  C   UNL     1     121.468 129.001 128.987  1.00  0.00     0.000 C 
BRANCH   3   4
ATOM      4  C   UNL     1     121.266 127.750 128.115  1.00  0.00     0.000 C 
BRANCH   4   5
ATOM      5  C   UNL     1     121.619 126.432 128.835  1.00  0.00     0.006 C 
BRANCH   5   6
ATOM      6  C   UNL     1     120.941 125.216 128.189  1.00  0.00     0.053 C 
BRANCH   6   7
ATOM      7  C   UNL     1     121.265 123.970 128.952  1.00  0.00     0.041 C 
ATOM      8  O   UNL     1     121.160 122.843 128.399  1.00  0.00    -0.550 OA
ATOM      9  O   UNL     1     121.636 124.050 130.287  1.00  0.00    -0.550 OA
ENDBRANCH   6   7
ENDBRANCH   5   6
ENDBRANCH   4   5
ENDBRANCH   3   4
ENDBRANCH   2   3
ENDBRANCH   1   2
BRANCH   1  10
ATOM     10  C   UNL     1     123.078 131.868 128.379  1.00  0.00     0.027 C 
BRANCH  10  11
ATOM     11  C   UNL     1     123.250 133.298 128.830  1.00  0.00    -0.031 C 
ATOM     12  C   UNL     1     123.926 134.243 128.148  1.00  0.00    -0.031 C 
BRANCH  12  13
ATOM     13  C   UNL     1     124.659 134.017 126.846  1.00  0.00     0.027 C 
BRANCH  13  14
ATOM     14  C   UNL     1     125.596 132.806 126.935  1.00  0.00     0.004 C 
BRANCH  14  15
ATOM     15  C   UNL     1     126.090 132.356 125.550  1.00  0.00     0.000 C 
BRANCH  15  16
ATOM     16  C   UNL     1     124.941 131.957 124.612  1.00  0.00    -0.000 C 
BRANCH  16  17
ATOM     17  C   UNL     1     125.089 132.555 123.206  1.00  0.00    -0.003 C 
ATOM     18  C   UNL     1     125.393 134.050 123.275  1.00  0.00     0.004 C 
ENDBRANCH  16  17
ENDBRANCH  15  16
ENDBRANCH  14  15
ENDBRANCH  13  14
ENDBRANCH  12  13
ENDBRANCH  10  11
ENDBRANCH   1  10
TORSDOF 13
ENDMDL
MODEL 7
REMARK VINA RESULT:     0.582      2.533      4.371
REMARK INTER + INTRA:           0.355
REMARK INTER:                   0.159
REMARK INTRA:                   0.196
REMARK UNBOUND:                -0.670
REMARK SMILES CCCCCCC=CCCCCCCCC(=O)[O-]
REMARK SMILES IDX 10 1 11 2 12 3 13 4 14 5 15 6 16 7 17 8 18 9 9 10 8 11 7 12
REMARK SMILES IDX 6 13 5 14 4 15 3 16 2 17 1 18
REMARK H PARENT
REMARK Flexibility Score: inf
ROOT
ATOM      1  C   UNL     1     125.198 134.632 125.662  1.00  0.00     0.004 C 
ENDROOT
BRANCH   1   2
ATOM      2  C   UNL     1     126.213 135.434 124.830  1.00  0.00     0.000 C 
BRANCH   2   3
ATOM      3  C   UNL     1     125.905 135.410 123.324  1.00  0.00     0.000 C 
BRANCH   3   4
ATOM      4  C   UNL     1     125.030 134.214 122.912  1.00  0.00     0.000 C 
BRANCH   4   5
ATOM      5  C   UNL     1     125.793 132.874 122.876  1.00  0.00     0.006 C 
BRANCH   5   6
ATOM      6  C   UNL     1     124.872 131.672 123.126  1.00  0.00     0.053 C 
BRANCH   6   7
ATOM      7  C   UNL     1     124.506 131.586 124.574  1.00  0.00     0.041 C 
ATOM      8  O   UNL     1     123.315 131.352 124.914  1.00  0.00    -0.550 OA
ATOM      9  O   UNL     1     125.468 131.813 125.549  1.00  0.00    -0.550 OA
ENDBRANCH   6   7
ENDBRANCH   5   6
ENDBRANCH   4   5
ENDBRANCH   3   4
ENDBRANCH   2   3
ENDBRANCH   1   2
BRANCH   1  10
ATOM     10  C   UNL     1     125.634 134.402 127.123  1.00  0.00     0.027 C 
BRANCH  10  11
ATOM     11  C   UNL     1     124.622 134.918 128.117  1.00  0.00    -0.031 C 
ATOM     12  C   UNL     1     123.472 134.294 128.438  1.00  0.00    -0.031 C 
BRANCH  12  13
ATOM     13  C   UNL     1     122.985 133.002 127.824  1.00  0.00     0.027 C 
BRANCH  13  14
ATOM     14  C   UNL     1     123.780 131.799 128.348  1.00  0.00     0.004 C 
BRANCH  14  15
ATOM     15  C   UNL     1     123.032 131.057 129.468  1.00  0.00     0.000 C 
BRANCH  15  16
ATOM     16  C   UNL     1     122.983 129.538 129.241  1.00  0.00    -0.000 C 
BRANCH  16  17
ATOM     17  C   UNL     1     121.553 129.018 129.030  1.00  0.00    -0.003 C 
ATOM     18  C   UNL     1     121.563 127.617 128.424  1.00  0.00     0.004 C 
ENDBRANCH  16  17
ENDBRANCH  15  16
ENDBRANCH  14  15
ENDBRANCH  13  14
ENDBRANCH  12  13
ENDBRANCH  10  11
ENDBRANCH   1  10
TORSDOF 13
ENDMDL
MODEL 8
REMARK VINA RESULT:     1.017      3.509      5.929
REMARK INTER + INTRA:           1.120
REMARK INTER:                   0.960
REMARK INTRA:                   0.160
REMARK UNBOUND:                -0.670
REMARK SMILES CCCCCCC=CCCCCCCCC(=O)[O-]
REMARK SMILES IDX 10 1 11 2 12 3 13 4 14 5 15 6 16 7 17 8 18 9 9 10 8 11 7 12
REMARK SMILES IDX 6 13 5 14 4 15 3 16 2 17 1 18
REMARK H PARENT
REMARK Flexibility Score: inf
ROOT
ATOM      1  C   UNL     1     122.892 131.835 125.514  1.00  0.00     0.004 C 
ENDROOT
BRANCH   1   2
ATOM      2  C   UNL     1     122.345 130.914 126.617  1.00  0.00     0.000 C 
BRANCH   2   3
ATOM      3  C   UNL     1     123.223 130.906 127.879  1.00  0.00     0.000 C 
BRANCH   3   4
ATOM      4  C   UNL     1     122.719 129.924 128.951  1.00  0.00     0.000 C 
BRANCH   4   5
ATOM      5  C   UNL     1     121.572 129.014 128.465  1.00  0.00     0.006 C 
BRANCH   5   6
ATOM      6  C   UNL     1     121.585 127.642 129.152  1.00  0.00     0.053 C 
BRANCH   6   7
ATOM      7  C   UNL     1     121.482 126.548 128.137  1.00  0.00     0.041 C 
ATOM      8  O   UNL     1     120.899 125.469 128.426  1.00  0.00    -0.550 OA
ATOM      9  O   UNL     1     122.070 126.700 126.890  1.00  0.00    -0.550 OA
ENDBRANCH   6   7
ENDBRANCH   5   6
ENDBRANCH   4   5
ENDBRANCH   3   4
ENDBRANCH   2   3
ENDBRANCH   1   2
BRANCH   1  10
ATOM     10  C   UNL     1     124.337 131.507 125.088  1.00  0.00     0.027 C 
BRANCH  10  11
ATOM     11  C   UNL     1     124.672 132.043 123.717  1.00  0.00    -0.031 C 
ATOM     12  C   UNL     1     125.316 133.201 123.481  1.00  0.00    -0.031 C 
BRANCH  12  13
ATOM     13  C   UNL     1     125.768 134.176 124.544  1.00  0.00     0.027 C 
BRANCH  13  14
ATOM     14  C   UNL     1     125.750 133.533 125.936  1.00  0.00     0.004 C 
BRANCH  14  15
ATOM     15  C   UNL     1     125.342 134.535 127.029  1.00  0.00     0.000 C 
BRANCH  15  16
ATOM     16  C   UNL     1     124.103 134.081 127.816  1.00  0.00    -0.000 C 
BRANCH  16  17
ATOM     17  C   UNL     1     123.413 135.239 128.552  1.00  0.00    -0.003 C 
ATOM     18  C   UNL     1     121.999 135.462 128.021  1.00  0.00     0.004 C 
ENDBRANCH  16  17
ENDBRANCH  15  16
ENDBRANCH  14  15
ENDBRANCH  13  14
ENDBRANCH  12  13
ENDBRANCH  10  11
ENDBRANCH   1  10
TORSDOF 13
ENDMDL
