MODEL 1
REMARK VINA RESULT:     0.983      0.000      0.000
REMARK INTER + INTRA:           0.983
REMARK INTER:                   0.983
REMARK INTRA:                   0.000
REMARK UNBOUND:                 0.000
REMARK SMILES CC1=CC=CC(C)(C)[C@H]1C
REMARK SMILES IDX 10 1 9 2 2 3 3 4 4 5 5 6 6 7 7 8 8 9 1 10
REMARK H PARENT
REMARK Flexibility Score: inf
ROOT
ATOM      1  C   UNL     1     148.303 135.039 162.197  1.00  0.00     0.013 C 
ATOM      2  C   UNL     1     149.750 134.875 161.692  1.00  0.00     0.021 C 
ATOM      3  C   UNL     1     149.878 135.602 160.361  1.00  0.00    -0.070 C 
ATOM      4  C   UNL     1     150.236 136.897 160.338  1.00  0.00    -0.001 C 
ATOM      5  C   UNL     1     150.629 137.595 161.575  1.00  0.00    -0.004 C 
ATOM      6  C   UNL     1     150.865 136.912 162.700  1.00  0.00    -0.020 C 
ATOM      7  C   UNL     1     150.831 135.394 162.711  1.00  0.00    -0.011 C 
ATOM      8  C   UNL     1     150.554 134.897 164.147  1.00  0.00     0.016 C 
ATOM      9  C   UNL     1     152.223 134.876 162.287  1.00  0.00     0.016 C 
ATOM     10  C   UNL     1     149.522 134.906 159.080  1.00  0.00     0.040 C 
ENDROOT
TORSDOF 0
ENDMDL
MODEL 2
REMARK VINA RESULT:     1.300     13.247     14.983
REMARK INTER + INTRA:           1.300
REMARK INTER:                   1.300
REMARK INTRA:                   0.000
REMARK UNBOUND:                 0.000
REMARK SMILES CC1=CC=CC(C)(C)[C@H]1C
REMARK SMILES IDX 10 1 9 2 2 3 3 4 4 5 5 6 6 7 7 8 8 9 1 10
REMARK H PARENT
REMARK Flexibility Score: inf
ROOT
ATOM      1  C   UNL     1     134.891 137.943 164.205  1.00  0.00     0.013 C 
ATOM      2  C   UNL     1     136.083 138.456 163.374  1.00  0.00     0.021 C 
ATOM      3  C   UNL     1     136.336 137.470 162.242  1.00  0.00    -0.070 C 
ATOM      4  C   UNL     1     135.712 137.630 161.063  1.00  0.00    -0.001 C 
ATOM      5  C   UNL     1     134.877 138.816 160.804  1.00  0.00    -0.004 C 
ATOM      6  C   UNL     1     134.907 139.867 161.632  1.00  0.00    -0.020 C 
ATOM      7  C   UNL     1     135.871 139.907 162.805  1.00  0.00    -0.011 C 
ATOM      8  C   UNL     1     135.330 140.875 163.880  1.00  0.00     0.016 C 
ATOM      9  C   UNL     1     137.222 140.461 162.301  1.00  0.00     0.016 C 
ATOM     10  C   UNL     1     137.212 136.271 162.463  1.00  0.00     0.040 C 
ENDROOT
TORSDOF 0
ENDMDL
MODEL 3
REMARK VINA RESULT:     2.428      1.136      2.230
REMARK INTER + INTRA:           2.428
REMARK INTER:                   2.428
REMARK INTRA:                   0.000
REMARK UNBOUND:                 0.000
REMARK SMILES CC1=CC=CC(C)(C)[C@H]1C
REMARK SMILES IDX 10 1 9 2 2 3 3 4 4 5 5 6 6 7 7 8 8 9 1 10
REMARK H PARENT
REMARK Flexibility Score: inf
ROOT
ATOM      1  C   UNL     1     150.460 137.965 161.417  1.00  0.00     0.013 C 
ATOM      2  C   UNL     1     149.918 136.616 161.924  1.00  0.00     0.021 C 
ATOM      3  C   UNL     1     149.890 135.641 160.756  1.00  0.00    -0.070 C 
ATOM      4  C   UNL     1     150.964 134.876 160.496  1.00  0.00    -0.001 C 
ATOM      5  C   UNL     1     152.128 134.875 161.401  1.00  0.00    -0.004 C 
ATOM      6  C   UNL     1     152.055 135.444 162.609  1.00  0.00    -0.020 C 
ATOM      7  C   UNL     1     150.746 136.019 163.122  1.00  0.00    -0.011 C 
ATOM      8  C   UNL     1     151.041 137.080 164.204  1.00  0.00     0.016 C 
ATOM      9  C   UNL     1     149.941 134.876 163.781  1.00  0.00     0.016 C 
ATOM     10  C   UNL     1     148.703 135.591 159.839  1.00  0.00     0.040 C 
ENDROOT
TORSDOF 0
ENDMDL
MODEL 4
REMARK VINA RESULT:     2.794     13.049     14.920
REMARK INTER + INTRA:           2.794
REMARK INTER:                   2.794
REMARK INTRA:                   0.000
REMARK UNBOUND:                 0.000
REMARK SMILES CC1=CC=CC(C)(C)[C@H]1C
REMARK SMILES IDX 10 1 9 2 2 3 3 4 4 5 5 6 6 7 7 8 8 9 1 10
REMARK H PARENT
REMARK Flexibility Score: inf
ROOT
ATOM      1  C   UNL     1     134.878 138.735 160.555  1.00  0.00     0.013 C 
ATOM      2  C   UNL     1     134.937 138.205 162.000  1.00  0.00     0.021 C 
ATOM      3  C   UNL     1     135.772 136.933 162.011  1.00  0.00    -0.070 C 
ATOM      4  C   UNL     1     137.100 137.005 162.204  1.00  0.00    -0.001 C 
ATOM      5  C   UNL     1     137.748 138.288 162.529  1.00  0.00    -0.004 C 
ATOM      6  C   UNL     1     137.017 139.356 162.870  1.00  0.00    -0.020 C 
ATOM      7  C   UNL     1     135.510 139.250 163.027  1.00  0.00    -0.011 C 
ATOM      8  C   UNL     1     134.876 140.647 162.843  1.00  0.00     0.016 C 
ATOM      9  C   UNL     1     135.206 138.775 164.465  1.00  0.00     0.016 C 
ATOM     10  C   UNL     1     135.135 135.606 161.720  1.00  0.00     0.040 C 
ENDROOT
TORSDOF 0
ENDMDL
MODEL 5
REMARK VINA RESULT:     2.884      1.143      3.470
REMARK INTER + INTRA:           2.884
REMARK INTER:                   2.884
REMARK INTRA:                   0.000
REMARK UNBOUND:                 0.000
REMARK SMILES CC1=CC=CC(C)(C)[C@H]1C
REMARK SMILES IDX 10 1 9 2 2 3 3 4 4 5 5 6 6 7 7 8 8 9 1 10
REMARK H PARENT
REMARK Flexibility Score: inf
ROOT
ATOM      1  C   UNL     1     149.879 138.192 161.879  1.00  0.00     0.013 C 
ATOM      2  C   UNL     1     150.634 136.988 161.284  1.00  0.00     0.021 C 
ATOM      3  C   UNL     1     151.574 136.439 162.347  1.00  0.00    -0.070 C 
ATOM      4  C   UNL     1     151.145 135.487 163.193  1.00  0.00    -0.001 C 
ATOM      5  C   UNL     1     149.814 134.875 163.031  1.00  0.00    -0.004 C 
ATOM      6  C   UNL     1     149.102 135.074 161.916  1.00  0.00    -0.020 C 
ATOM      7  C   UNL     1     149.682 135.854 160.749  1.00  0.00    -0.011 C 
ATOM      8  C   UNL     1     148.532 136.424 159.890  1.00  0.00     0.016 C 
ATOM      9  C   UNL     1     150.494 134.876 159.871  1.00  0.00     0.016 C 
ATOM     10  C   UNL     1     152.950 137.016 162.513  1.00  0.00     0.040 C 
ENDROOT
TORSDOF 0
ENDMDL
MODEL 6
REMARK VINA RESULT:     3.202     13.218     15.062
REMARK INTER + INTRA:           3.202
REMARK INTER:                   3.202
REMARK INTRA:                   0.000
REMARK UNBOUND:                 0.000
REMARK SMILES CC1=CC=CC(C)(C)[C@H]1C
REMARK SMILES IDX 10 1 9 2 2 3 3 4 4 5 5 6 6 7 7 8 8 9 1 10
REMARK H PARENT
REMARK Flexibility Score: inf
ROOT
ATOM      1  C   UNL     1     135.440 138.210 164.556  1.00  0.00     0.013 C 
ATOM      2  C   UNL     1     135.081 138.747 163.157  1.00  0.00     0.021 C 
ATOM      3  C   UNL     1     135.670 140.144 163.015  1.00  0.00    -0.070 C 
ATOM      4  C   UNL     1     136.913 140.300 162.529  1.00  0.00    -0.001 C 
ATOM      5  C   UNL     1     137.673 139.148 162.014  1.00  0.00    -0.004 C 
ATOM      6  C   UNL     1     137.072 137.973 161.798  1.00  0.00    -0.020 C 
ATOM      7  C   UNL     1     135.572 137.820 161.985  1.00  0.00    -0.011 C 
ATOM      8  C   UNL     1     135.237 136.335 162.246  1.00  0.00     0.016 C 
ATOM      9  C   UNL     1     134.876 138.242 160.672  1.00  0.00     0.016 C 
ATOM     10  C   UNL     1     134.904 141.341 163.497  1.00  0.00     0.040 C 
ENDROOT
TORSDOF 0
ENDMDL
MODEL 7
REMARK VINA RESULT:     3.389      1.197      2.610
REMARK INTER + INTRA:           3.389
REMARK INTER:                   3.389
REMARK INTRA:                   0.000
REMARK UNBOUND:                 0.000
REMARK SMILES CC1=CC=CC(C)(C)[C@H]1C
REMARK SMILES IDX 10 1 9 2 2 3 3 4 4 5 5 6 6 7 7 8 8 9 1 10
REMARK H PARENT
REMARK Flexibility Score: inf
ROOT
ATOM      1  C   UNL     1     151.373 134.875 160.264  1.00  0.00     0.013 C 
ATOM      2  C   UNL     1     150.509 136.027 160.813  1.00  0.00     0.021 C 
ATOM      3  C   UNL     1     149.068 135.546 160.898  1.00  0.00    -0.070 C 
ATOM      4  C   UNL     1     148.624 134.956 162.020  1.00  0.00    -0.001 C 
ATOM      5  C   UNL     1     149.477 134.875 163.220  1.00  0.00    -0.004 C 
ATOM      6  C   UNL     1     150.608 135.584 163.303  1.00  0.00    -0.020 C 
ATOM      7  C   UNL     1     150.995 136.564 162.210  1.00  0.00    -0.011 C 
ATOM      8  C   UNL     1     152.523 136.789 162.240  1.00  0.00     0.016 C 
ATOM      9  C   UNL     1     150.308 137.916 162.505  1.00  0.00     0.016 C 
ATOM     10  C   UNL     1     148.163 135.649 159.705  1.00  0.00     0.040 C 
ENDROOT
TORSDOF 0
ENDMDL
MODEL 8
REMARK VINA RESULT:     3.623      1.135      3.257
REMARK INTER + INTRA:           3.623
REMARK INTER:                   3.623
REMARK INTRA:                   0.000
REMARK UNBOUND:                 0.000
REMARK SMILES CC1=CC=CC(C)(C)[C@H]1C
REMARK SMILES IDX 10 1 9 2 2 3 3 4 4 5 5 6 6 7 7 8 8 9 1 10
REMARK H PARENT
REMARK Flexibility Score: inf
ROOT
ATOM      1  C   UNL     1     151.354 135.045 159.448  1.00  0.00     0.013 C 
ATOM      2  C   UNL     1     150.549 134.877 160.750  1.00  0.00     0.021 C 
ATOM      3  C   UNL     1     151.293 135.591 161.869  1.00  0.00    -0.070 C 
ATOM      4  C   UNL     1     151.038 136.885 162.123  1.00  0.00    -0.001 C 
ATOM      5  C   UNL     1     149.958 137.596 161.416  1.00  0.00    -0.004 C 
ATOM      6  C   UNL     1     149.061 136.924 160.686  1.00  0.00    -0.020 C 
ATOM      7  C   UNL     1     149.071 135.406 160.645  1.00  0.00    -0.011 C 
ATOM      8  C   UNL     1     148.376 134.923 159.352  1.00  0.00     0.016 C 
ATOM      9  C   UNL     1     148.254 134.885 161.848  1.00  0.00     0.016 C 
ATOM     10  C   UNL     1     152.373 134.882 162.633  1.00  0.00     0.040 C 
ENDROOT
TORSDOF 0
ENDMDL
