MODEL 1
REMARK VINA RESULT:    -6.221      0.000      0.000
REMARK INTER + INTRA:          -6.856
REMARK INTER:                  -6.766
REMARK INTRA:                  -0.090
REMARK UNBOUND:                -0.090
REMARK SMILES C=C(C)[C@@H]1CC[C@H](C)[C@@H](O)C1
REMARK SMILES IDX 8 1 7 2 6 3 5 4 4 5 11 6 9 7 10 8 2 10 1 11 3 12
REMARK H PARENT 10 9
REMARK Flexibility Score: inf
ROOT
ATOM      1  C   UNL     1     137.893 123.365 138.112  1.00  0.00     0.010 C 
ATOM      2  C   UNL     1     136.394 123.269 137.777  1.00  0.00     0.015 C 
ATOM      3  C   UNL     1     135.745 122.017 138.409  1.00  0.00     0.006 C 
ATOM      4  C   UNL     1     135.557 122.154 139.927  1.00  0.00     0.008 C 
ATOM      5  C   UNL     1     134.757 123.424 140.272  1.00  0.00     0.017 C 
ATOM      6  C   UNL     1     135.432 124.680 139.687  1.00  0.00     0.040 C 
ATOM      7  C   UNL     1     135.629 124.559 138.161  1.00  0.00     0.117 C 
ENDROOT
BRANCH   7   8
ATOM      8  O   UNL     1     134.382 124.565 137.513  1.00  0.00    -0.393 OA
ATOM      9  H   UNL     1     133.719 124.206 138.159  1.00  0.00     0.210 HD
ENDBRANCH   7   8
BRANCH   5  10
ATOM     10  C   UNL     1     134.562 123.557 141.777  1.00  0.00    -0.077 C 
ATOM     11  C   UNL     1     133.352 123.349 142.320  1.00  0.00     0.008 C 
ATOM     12  C   UNL     1     135.708 123.922 142.688  1.00  0.00     0.039 C 
ENDBRANCH   5  10
TORSDOF 2
ENDMDL
MODEL 2
REMARK VINA RESULT:    -6.064      1.896      2.603
REMARK INTER + INTRA:          -6.686
REMARK INTER:                  -6.595
REMARK INTRA:                  -0.091
REMARK UNBOUND:                -0.090
REMARK SMILES C=C(C)[C@@H]1CC[C@H](C)[C@@H](O)C1
REMARK SMILES IDX 8 1 7 2 6 3 5 4 4 5 11 6 9 7 10 8 2 10 1 11 3 12
REMARK H PARENT 10 9
REMARK Flexibility Score: inf
ROOT
ATOM      1  C   UNL     1     136.857 122.655 137.405  1.00  0.00     0.010 C 
ATOM      2  C   UNL     1     137.445 123.772 138.285  1.00  0.00     0.015 C 
ATOM      3  C   UNL     1     136.406 124.876 138.580  1.00  0.00     0.006 C 
ATOM      4  C   UNL     1     135.340 124.427 139.592  1.00  0.00     0.008 C 
ATOM      5  C   UNL     1     135.991 123.920 140.892  1.00  0.00     0.017 C 
ATOM      6  C   UNL     1     136.990 122.782 140.604  1.00  0.00     0.040 C 
ATOM      7  C   UNL     1     138.069 123.217 139.589  1.00  0.00     0.117 C 
ENDROOT
BRANCH   7   8
ATOM      8  O   UNL     1     138.896 124.200 140.158  1.00  0.00    -0.393 OA
ATOM      9  H   UNL     1     139.364 123.776 140.924  1.00  0.00     0.210 HD
ENDBRANCH   7   8
BRANCH   5  10
ATOM     10  C   UNL     1     134.936 123.482 141.899  1.00  0.00    -0.077 C 
ATOM     11  C   UNL     1     134.944 123.984 143.144  1.00  0.00     0.008 C 
ATOM     12  C   UNL     1     133.867 122.484 141.531  1.00  0.00     0.039 C 
ENDBRANCH   5  10
TORSDOF 2
ENDMDL
MODEL 3
REMARK VINA RESULT:    -5.484      1.564      1.800
REMARK INTER + INTRA:          -6.055
REMARK INTER:                  -5.968
REMARK INTRA:                  -0.087
REMARK UNBOUND:                -0.090
REMARK SMILES C=C(C)[C@@H]1CC[C@H](C)[C@@H](O)C1
REMARK SMILES IDX 8 1 7 2 6 3 5 4 4 5 11 6 9 7 10 8 2 10 1 11 3 12
REMARK H PARENT 10 9
REMARK Flexibility Score: inf
ROOT
ATOM      1  C   UNL     1     137.485 124.589 138.502  1.00  0.00     0.010 C 
ATOM      2  C   UNL     1     137.128 123.122 138.799  1.00  0.00     0.015 C 
ATOM      3  C   UNL     1     137.691 122.660 140.161  1.00  0.00     0.006 C 
ATOM      4  C   UNL     1     136.917 123.250 141.349  1.00  0.00     0.008 C 
ATOM      5  C   UNL     1     135.413 122.938 141.239  1.00  0.00     0.017 C 
ATOM      6  C   UNL     1     134.839 123.446 139.901  1.00  0.00     0.040 C 
ATOM      7  C   UNL     1     135.606 122.861 138.696  1.00  0.00     0.117 C 
ENDROOT
BRANCH   7   8
ATOM      8  O   UNL     1     135.380 121.477 138.608  1.00  0.00    -0.393 OA
ATOM      9  H   UNL     1     135.772 121.068 139.424  1.00  0.00     0.210 HD
ENDBRANCH   7   8
BRANCH   5  10
ATOM     10  C   UNL     1     134.646 123.516 142.420  1.00  0.00    -0.077 C 
ATOM     11  C   UNL     1     133.336 123.258 142.563  1.00  0.00     0.008 C 
ATOM     12  C   UNL     1     135.325 124.386 143.448  1.00  0.00     0.039 C 
ENDBRANCH   5  10
TORSDOF 2
ENDMDL
MODEL 4
REMARK VINA RESULT:    -5.458      2.154      4.281
REMARK INTER + INTRA:          -6.027
REMARK INTER:                  -5.937
REMARK INTRA:                  -0.090
REMARK UNBOUND:                -0.090
REMARK SMILES C=C(C)[C@@H]1CC[C@H](C)[C@@H](O)C1
REMARK SMILES IDX 8 1 7 2 6 3 5 4 4 5 11 6 9 7 10 8 2 10 1 11 3 12
REMARK H PARENT 10 9
REMARK Flexibility Score: inf
ROOT
ATOM      1  C   UNL     1     134.991 125.143 142.430  1.00  0.00     0.010 C 
ATOM      2  C   UNL     1     135.440 123.672 142.486  1.00  0.00     0.015 C 
ATOM      3  C   UNL     1     134.432 122.738 141.779  1.00  0.00     0.006 C 
ATOM      4  C   UNL     1     134.489 122.860 140.249  1.00  0.00     0.008 C 
ATOM      5  C   UNL     1     135.919 122.624 139.729  1.00  0.00     0.017 C 
ATOM      6  C   UNL     1     136.918 123.590 140.395  1.00  0.00     0.040 C 
ATOM      7  C   UNL     1     136.873 123.480 141.934  1.00  0.00     0.117 C 
ENDROOT
BRANCH   7   8
ATOM      8  O   UNL     1     137.359 122.226 142.341  1.00  0.00    -0.393 OA
ATOM      9  H   UNL     1     137.748 122.346 143.247  1.00  0.00     0.210 HD
ENDBRANCH   7   8
BRANCH   5  10
ATOM     10  C   UNL     1     135.976 122.736 138.212  1.00  0.00    -0.077 C 
ATOM     11  C   UNL     1     134.845 122.687 137.489  1.00  0.00     0.008 C 
ATOM     12  C   UNL     1     137.289 122.901 137.485  1.00  0.00     0.039 C 
ENDBRANCH   5  10
TORSDOF 2
ENDMDL
MODEL 5
REMARK VINA RESULT:    -5.221      2.149      3.449
REMARK INTER + INTRA:          -5.769
REMARK INTER:                  -5.683
REMARK INTRA:                  -0.086
REMARK UNBOUND:                -0.090
REMARK SMILES C=C(C)[C@@H]1CC[C@H](C)[C@@H](O)C1
REMARK SMILES IDX 8 1 7 2 6 3 5 4 4 5 11 6 9 7 10 8 2 10 1 11 3 12
REMARK H PARENT 10 9
REMARK Flexibility Score: inf
ROOT
ATOM      1  C   UNL     1     135.538 124.151 139.371  1.00  0.00     0.010 C 
ATOM      2  C   UNL     1     135.007 123.105 140.366  1.00  0.00     0.015 C 
ATOM      3  C   UNL     1     136.149 122.455 141.178  1.00  0.00     0.006 C 
ATOM      4  C   UNL     1     136.728 123.400 142.241  1.00  0.00     0.008 C 
ATOM      5  C   UNL     1     135.621 123.929 143.172  1.00  0.00     0.017 C 
ATOM      6  C   UNL     1     134.506 124.624 142.367  1.00  0.00     0.040 C 
ATOM      7  C   UNL     1     133.912 123.687 141.293  1.00  0.00     0.117 C 
ENDROOT
BRANCH   7   8
ATOM      8  O   UNL     1     133.218 122.631 141.907  1.00  0.00    -0.393 OA
ATOM      9  H   UNL     1     132.425 122.439 141.342  1.00  0.00     0.210 HD
ENDBRANCH   7   8
BRANCH   5  10
ATOM     10  C   UNL     1     136.194 124.860 144.231  1.00  0.00    -0.077 C 
ATOM     11  C   UNL     1     137.339 124.543 144.858  1.00  0.00     0.008 C 
ATOM     12  C   UNL     1     135.501 126.147 144.604  1.00  0.00     0.039 C 
ENDBRANCH   5  10
TORSDOF 2
ENDMDL
MODEL 6
REMARK VINA RESULT:    -5.175      1.786      4.253
REMARK INTER + INTRA:          -5.719
REMARK INTER:                  -5.628
REMARK INTRA:                  -0.090
REMARK UNBOUND:                -0.090
REMARK SMILES C=C(C)[C@@H]1CC[C@H](C)[C@@H](O)C1
REMARK SMILES IDX 8 1 7 2 6 3 5 4 4 5 11 6 9 7 10 8 2 10 1 11 3 12
REMARK H PARENT 10 9
REMARK Flexibility Score: inf
ROOT
ATOM      1  C   UNL     1     136.340 124.019 143.267  1.00  0.00     0.010 C 
ATOM      2  C   UNL     1     134.920 124.061 142.676  1.00  0.00     0.015 C 
ATOM      3  C   UNL     1     134.784 125.150 141.589  1.00  0.00     0.006 C 
ATOM      4  C   UNL     1     135.486 124.766 140.278  1.00  0.00     0.008 C 
ATOM      5  C   UNL     1     134.984 123.404 139.761  1.00  0.00     0.017 C 
ATOM      6  C   UNL     1     135.168 122.306 140.826  1.00  0.00     0.040 C 
ATOM      7  C   UNL     1     134.467 122.677 142.151  1.00  0.00     0.117 C 
ENDROOT
BRANCH   7   8
ATOM      8  O   UNL     1     133.074 122.686 141.972  1.00  0.00    -0.393 OA
ATOM      9  H   UNL     1     132.699 123.304 142.652  1.00  0.00     0.210 HD
ENDBRANCH   7   8
BRANCH   5  10
ATOM     10  C   UNL     1     135.674 123.025 138.458  1.00  0.00    -0.077 C 
ATOM     11  C   UNL     1     134.962 122.497 137.448  1.00  0.00     0.008 C 
ATOM     12  C   UNL     1     137.156 123.226 138.266  1.00  0.00     0.039 C 
ENDBRANCH   5  10
TORSDOF 2
ENDMDL
MODEL 7
REMARK VINA RESULT:    -5.092      1.971      4.262
REMARK INTER + INTRA:          -5.628
REMARK INTER:                  -5.527
REMARK INTRA:                  -0.101
REMARK UNBOUND:                -0.090
REMARK SMILES C=C(C)[C@@H]1CC[C@H](C)[C@@H](O)C1
REMARK SMILES IDX 8 1 7 2 6 3 5 4 4 5 11 6 9 7 10 8 2 10 1 11 3 12
REMARK H PARENT 10 9
REMARK Flexibility Score: inf
ROOT
ATOM      1  C   UNL     1     132.594 124.038 142.082  1.00  0.00     0.010 C 
ATOM      2  C   UNL     1     134.020 123.602 142.461  1.00  0.00     0.015 C 
ATOM      3  C   UNL     1     134.419 122.281 141.768  1.00  0.00     0.006 C 
ATOM      4  C   UNL     1     134.706 122.465 140.270  1.00  0.00     0.008 C 
ATOM      5  C   UNL     1     135.773 123.552 140.042  1.00  0.00     0.017 C 
ATOM      6  C   UNL     1     135.352 124.886 140.689  1.00  0.00     0.040 C 
ATOM      7  C   UNL     1     135.059 124.719 142.195  1.00  0.00     0.117 C 
ENDROOT
BRANCH   7   8
ATOM      8  O   UNL     1     136.246 124.417 142.885  1.00  0.00    -0.393 OA
ATOM      9  H   UNL     1     136.024 124.415 143.853  1.00  0.00     0.210 HD
ENDBRANCH   7   8
BRANCH   5  10
ATOM     10  C   UNL     1     136.066 123.730 138.558  1.00  0.00    -0.077 C 
ATOM     11  C   UNL     1     135.091 124.122 137.722  1.00  0.00     0.008 C 
ATOM     12  C   UNL     1     137.440 123.473 137.993  1.00  0.00     0.039 C 
ENDBRANCH   5  10
TORSDOF 2
ENDMDL
MODEL 8
REMARK VINA RESULT:    -5.011      2.009      3.129
REMARK INTER + INTRA:          -5.541
REMARK INTER:                  -5.456
REMARK INTRA:                  -0.085
REMARK UNBOUND:                -0.090
REMARK SMILES C=C(C)[C@@H]1CC[C@H](C)[C@@H](O)C1
REMARK SMILES IDX 8 1 7 2 6 3 5 4 4 5 11 6 9 7 10 8 2 10 1 11 3 12
REMARK H PARENT 10 9
REMARK Flexibility Score: inf
ROOT
ATOM      1  C   UNL     1     134.735 124.607 137.720  1.00  0.00     0.010 C 
ATOM      2  C   UNL     1     135.402 123.223 137.636  1.00  0.00     0.015 C 
ATOM      3  C   UNL     1     136.934 123.335 137.469  1.00  0.00     0.006 C 
ATOM      4  C   UNL     1     137.637 123.767 138.764  1.00  0.00     0.008 C 
ATOM      5  C   UNL     1     137.275 122.827 139.930  1.00  0.00     0.017 C 
ATOM      6  C   UNL     1     135.749 122.756 140.131  1.00  0.00     0.040 C 
ATOM      7  C   UNL     1     135.026 122.322 138.838  1.00  0.00     0.117 C 
ENDROOT
BRANCH   7   8
ATOM      8  O   UNL     1     135.347 120.989 138.532  1.00  0.00    -0.393 OA
ATOM      9  H   UNL     1     136.335 120.939 138.457  1.00  0.00     0.210 HD
ENDBRANCH   7   8
BRANCH   5  10
ATOM     10  C   UNL     1     137.978 123.250 141.213  1.00  0.00    -0.077 C 
ATOM     11  C   UNL     1     139.296 123.507 141.206  1.00  0.00     0.008 C 
ATOM     12  C   UNL     1     137.224 123.388 142.512  1.00  0.00     0.039 C 
ENDBRANCH   5  10
TORSDOF 2
ENDMDL
MODEL 9
REMARK VINA RESULT:    -4.588      1.868      4.239
REMARK INTER + INTRA:          -5.080
REMARK INTER:                  -4.986
REMARK INTRA:                  -0.093
REMARK UNBOUND:                -0.090
REMARK SMILES C=C(C)[C@@H]1CC[C@H](C)[C@@H](O)C1
REMARK SMILES IDX 8 1 7 2 6 3 5 4 4 5 11 6 9 7 10 8 2 10 1 11 3 12
REMARK H PARENT 10 9
REMARK Flexibility Score: inf
ROOT
ATOM      1  C   UNL     1     134.642 125.092 142.265  1.00  0.00     0.010 C 
ATOM      2  C   UNL     1     134.231 123.990 141.273  1.00  0.00     0.015 C 
ATOM      3  C   UNL     1     134.421 124.439 139.807  1.00  0.00     0.006 C 
ATOM      4  C   UNL     1     135.899 124.480 139.390  1.00  0.00     0.008 C 
ATOM      5  C   UNL     1     136.582 123.124 139.646  1.00  0.00     0.017 C 
ATOM      6  C   UNL     1     136.438 122.699 141.120  1.00  0.00     0.040 C 
ATOM      7  C   UNL     1     134.958 122.653 141.555  1.00  0.00     0.117 C 
ENDROOT
BRANCH   7   8
ATOM      8  O   UNL     1     134.291 121.615 140.883  1.00  0.00    -0.393 OA
ATOM      9  H   UNL     1     134.971 120.923 140.673  1.00  0.00     0.210 HD
ENDBRANCH   7   8
BRANCH   5  10
ATOM     10  C   UNL     1     138.045 123.159 139.226  1.00  0.00    -0.077 C 
ATOM     11  C   UNL     1     139.014 123.012 140.144  1.00  0.00     0.008 C 
ATOM     12  C   UNL     1     138.444 123.361 137.785  1.00  0.00     0.039 C 
ENDBRANCH   5  10
TORSDOF 2
ENDMDL
