MODEL 1
REMARK VINA RESULT:    -4.096      0.000      0.000
REMARK INTER + INTRA:         -11.913
REMARK INTER:                  -9.365
REMARK INTRA:                  -2.548
REMARK UNBOUND:                -2.548
REMARK SMILES CCCCCCCCCCCCCCCCCCCCCCCC(=O)[O-]
REMARK SMILES IDX 13 1 14 2 15 3 16 4 17 5 18 6 19 7 20 8 21 9 22 10 23 11
REMARK SMILES IDX 24 12 25 13 26 14 12 15 11 16 10 17 9 18 8 19 7 20 6 21 5 22
REMARK SMILES IDX 4 23 3 24 2 25 1 26
REMARK H PARENT
REMARK Flexibility Score: inf
ROOT
ATOM      1  C   UNL     1       5.519  -6.397  -2.439  1.00  0.00     0.000 C 
ENDROOT
BRANCH   1   2
ATOM      2  C   UNL     1       4.290  -5.480  -2.566  1.00  0.00     0.000 C 
BRANCH   2   3
ATOM      3  C   UNL     1       4.586  -4.189  -3.346  1.00  0.00     0.000 C 
BRANCH   3   4
ATOM      4  C   UNL     1       5.011  -3.020  -2.439  1.00  0.00     0.000 C 
BRANCH   4   5
ATOM      5  C   UNL     1       5.037  -1.634  -3.118  1.00  0.00     0.000 C 
BRANCH   5   6
ATOM      6  C   UNL     1       3.777  -0.771  -2.904  1.00  0.00     0.000 C 
BRANCH   6   7
ATOM      7  C   UNL     1       2.689  -0.935  -3.981  1.00  0.00     0.000 C 
BRANCH   7   8
ATOM      8  C   UNL     1       1.292  -1.181  -3.383  1.00  0.00     0.000 C 
BRANCH   8   9
ATOM      9  C   UNL     1       1.340  -2.132  -2.169  1.00  0.00     0.000 C 
BRANCH   9  10
ATOM     10  C   UNL     1       0.410  -3.351  -2.302  1.00  0.00     0.006 C 
BRANCH  10  11
ATOM     11  C   UNL     1       0.882  -4.551  -1.474  1.00  0.00     0.053 C 
BRANCH  11  12
ATOM     12  C   UNL     1      -0.236  -5.086  -0.637  1.00  0.00     0.041 C 
ATOM     13  O   UNL     1      -0.306  -4.797   0.587  1.00  0.00    -0.550 OA
ATOM     14  O   UNL     1      -1.220  -5.878  -1.213  1.00  0.00    -0.550 OA
ENDBRANCH  11  12
ENDBRANCH  10  11
ENDBRANCH   9  10
ENDBRANCH   8   9
ENDBRANCH   7   8
ENDBRANCH   6   7
ENDBRANCH   5   6
ENDBRANCH   4   5
ENDBRANCH   3   4
ENDBRANCH   2   3
ENDBRANCH   1   2
BRANCH   1  15
ATOM     15  C   UNL     1       6.248  -6.288  -1.083  1.00  0.00     0.000 C 
BRANCH  15  16
ATOM     16  C   UNL     1       7.474  -5.360  -1.152  1.00  0.00     0.000 C 
BRANCH  16  17
ATOM     17  C   UNL     1       8.179  -5.213   0.208  1.00  0.00     0.000 C 
BRANCH  17  18
ATOM     18  C   UNL     1       7.496  -4.214   1.161  1.00  0.00    -0.000 C 
BRANCH  18  19
ATOM     19  C   UNL     1       7.543  -4.676   2.628  1.00  0.00    -0.000 C 
BRANCH  19  20
ATOM     20  C   UNL     1       6.275  -4.297   3.408  1.00  0.00    -0.000 C 
BRANCH  20  21
ATOM     21  C   UNL     1       5.554  -5.523   3.997  1.00  0.00    -0.000 C 
BRANCH  21  22
ATOM     22  C   UNL     1       5.459  -6.687   2.997  1.00  0.00    -0.000 C 
BRANCH  22  23
ATOM     23  C   UNL     1       4.056  -7.315   2.955  1.00  0.00    -0.000 C 
BRANCH  23  24
ATOM     24  C   UNL     1       3.072  -6.641   3.926  1.00  0.00    -0.000 C 
BRANCH  24  25
ATOM     25  C   UNL     1       1.734  -6.241   3.268  1.00  0.00    -0.003 C 
ATOM     26  C   UNL     1       1.105  -7.393   2.484  1.00  0.00     0.004 C 
ENDBRANCH  24  25
ENDBRANCH  23  24
ENDBRANCH  22  23
ENDBRANCH  21  22
ENDBRANCH  20  21
ENDBRANCH  19  20
ENDBRANCH  18  19
ENDBRANCH  17  18
ENDBRANCH  16  17
ENDBRANCH  15  16
ENDBRANCH   1  15
TORSDOF 22
ENDMDL
MODEL 2
REMARK VINA RESULT:    -4.067     10.309     12.591
REMARK INTER + INTRA:         -11.846
REMARK INTER:                  -8.324
REMARK INTRA:                  -3.523
REMARK UNBOUND:                -2.548
REMARK SMILES CCCCCCCCCCCCCCCCCCCCCCCC(=O)[O-]
REMARK SMILES IDX 13 1 14 2 15 3 16 4 17 5 18 6 19 7 20 8 21 9 22 10 23 11
REMARK SMILES IDX 24 12 25 13 26 14 12 15 11 16 10 17 9 18 8 19 7 20 6 21 5 22
REMARK SMILES IDX 4 23 3 24 2 25 1 26
REMARK H PARENT
REMARK Flexibility Score: inf
ROOT
ATOM      1  C   UNL     1       0.689  -2.310   9.543  1.00  0.00     0.000 C 
ENDROOT
BRANCH   1   2
ATOM      2  C   UNL     1       2.155  -2.574   9.157  1.00  0.00     0.000 C 
BRANCH   2   3
ATOM      3  C   UNL     1       3.126  -1.543   9.756  1.00  0.00     0.000 C 
BRANCH   3   4
ATOM      4  C   UNL     1       2.445  -0.572  10.737  1.00  0.00     0.000 C 
BRANCH   4   5
ATOM      5  C   UNL     1       2.588   0.925  10.388  1.00  0.00     0.000 C 
BRANCH   5   6
ATOM      6  C   UNL     1       3.144   1.225   8.981  1.00  0.00     0.000 C 
BRANCH   6   7
ATOM      7  C   UNL     1       4.566   1.813   8.958  1.00  0.00     0.000 C 
BRANCH   7   8
ATOM      8  C   UNL     1       4.945   2.398   7.586  1.00  0.00     0.000 C 
BRANCH   8   9
ATOM      9  C   UNL     1       5.290   3.899   7.670  1.00  0.00     0.000 C 
BRANCH   9  10
ATOM     10  C   UNL     1       4.251   4.811   6.992  1.00  0.00     0.006 C 
BRANCH  10  11
ATOM     11  C   UNL     1       3.012   4.046   6.515  1.00  0.00     0.053 C 
BRANCH  11  12
ATOM     12  C   UNL     1       1.801   4.476   7.281  1.00  0.00     0.041 C 
ATOM     13  O   UNL     1       0.728   4.738   6.676  1.00  0.00    -0.550 OA
ATOM     14  O   UNL     1       1.845   4.554   8.666  1.00  0.00    -0.550 OA
ENDBRANCH  11  12
ENDBRANCH  10  11
ENDBRANCH   9  10
ENDBRANCH   8   9
ENDBRANCH   7   8
ENDBRANCH   6   7
ENDBRANCH   5   6
ENDBRANCH   4   5
ENDBRANCH   3   4
ENDBRANCH   2   3
ENDBRANCH   1   2
BRANCH   1  15
ATOM     15  C   UNL     1      -0.215  -1.921   8.354  1.00  0.00     0.000 C 
BRANCH  15  16
ATOM     16  C   UNL     1       0.178  -0.565   7.740  1.00  0.00     0.000 C 
BRANCH  16  17
ATOM     17  C   UNL     1      -0.954   0.474   7.835  1.00  0.00     0.000 C 
BRANCH  17  18
ATOM     18  C   UNL     1      -0.502   1.841   8.383  1.00  0.00    -0.000 C 
BRANCH  18  19
ATOM     19  C   UNL     1      -0.889   2.037   9.860  1.00  0.00    -0.000 C 
BRANCH  19  20
ATOM     20  C   UNL     1      -1.775   0.901  10.395  1.00  0.00    -0.000 C 
BRANCH  20  21
ATOM     21  C   UNL     1      -3.205   1.369  10.719  1.00  0.00    -0.000 C 
BRANCH  21  22
ATOM     22  C   UNL     1      -4.027   1.673   9.456  1.00  0.00    -0.000 C 
BRANCH  22  23
ATOM     23  C   UNL     1      -4.503   0.397   8.742  1.00  0.00    -0.000 C 
BRANCH  23  24
ATOM     24  C   UNL     1      -4.764  -0.768   9.713  1.00  0.00    -0.000 C 
BRANCH  24  25
ATOM     25  C   UNL     1      -4.071  -2.082   9.297  1.00  0.00    -0.003 C 
ATOM     26  C   UNL     1      -5.073  -3.195   8.988  1.00  0.00     0.004 C 
ENDBRANCH  24  25
ENDBRANCH  23  24
ENDBRANCH  22  23
ENDBRANCH  21  22
ENDBRANCH  20  21
ENDBRANCH  19  20
ENDBRANCH  18  19
ENDBRANCH  17  18
ENDBRANCH  16  17
ENDBRANCH  15  16
ENDBRANCH   1  15
TORSDOF 22
ENDMDL
MODEL 3
REMARK VINA RESULT:    -3.998      5.661      8.977
REMARK INTER + INTRA:         -11.689
REMARK INTER:                  -8.068
REMARK INTRA:                  -3.621
REMARK UNBOUND:                -2.548
REMARK SMILES CCCCCCCCCCCCCCCCCCCCCCCC(=O)[O-]
REMARK SMILES IDX 13 1 14 2 15 3 16 4 17 5 18 6 19 7 20 8 21 9 22 10 23 11
REMARK SMILES IDX 24 12 25 13 26 14 12 15 11 16 10 17 9 18 8 19 7 20 6 21 5 22
REMARK SMILES IDX 4 23 3 24 2 25 1 26
REMARK H PARENT
REMARK Flexibility Score: inf
ROOT
ATOM      1  C   UNL     1       4.839   0.788  -5.113  1.00  0.00     0.000 C 
ENDROOT
BRANCH   1   2
ATOM      2  C   UNL     1       5.343   0.758  -6.567  1.00  0.00     0.000 C 
BRANCH   2   3
ATOM      3  C   UNL     1       6.875   0.838  -6.670  1.00  0.00     0.000 C 
BRANCH   3   4
ATOM      4  C   UNL     1       7.366   2.090  -7.418  1.00  0.00     0.000 C 
BRANCH   4   5
ATOM      5  C   UNL     1       7.898   3.228  -6.521  1.00  0.00     0.000 C 
BRANCH   5   6
ATOM      6  C   UNL     1       8.313   2.806  -5.097  1.00  0.00     0.000 C 
BRANCH   6   7
ATOM      7  C   UNL     1       7.357   3.265  -3.980  1.00  0.00     0.000 C 
BRANCH   7   8
ATOM      8  C   UNL     1       6.423   4.402  -4.428  1.00  0.00     0.000 C 
BRANCH   8   9
ATOM      9  C   UNL     1       6.825   5.760  -3.816  1.00  0.00     0.000 C 
BRANCH   9  10
ATOM     10  C   UNL     1       7.338   5.657  -2.368  1.00  0.00     0.006 C 
BRANCH  10  11
ATOM     11  C   UNL     1       6.942   6.865  -1.511  1.00  0.00     0.053 C 
BRANCH  11  12
ATOM     12  C   UNL     1       5.728   6.555  -0.694  1.00  0.00     0.041 C 
ATOM     13  O   UNL     1       5.828   5.868   0.356  1.00  0.00    -0.550 OA
ATOM     14  O   UNL     1       4.488   7.053  -1.073  1.00  0.00    -0.550 OA
ENDBRANCH  11  12
ENDBRANCH  10  11
ENDBRANCH   9  10
ENDBRANCH   8   9
ENDBRANCH   7   8
ENDBRANCH   6   7
ENDBRANCH   5   6
ENDBRANCH   4   5
ENDBRANCH   3   4
ENDBRANCH   2   3
ENDBRANCH   1   2
BRANCH   1  15
ATOM     15  C   UNL     1       5.670  -0.077  -4.141  1.00  0.00     0.000 C 
BRANCH  15  16
ATOM     16  C   UNL     1       4.805  -0.706  -3.034  1.00  0.00     0.000 C 
BRANCH  16  17
ATOM     17  C   UNL     1       4.970  -2.235  -2.957  1.00  0.00     0.000 C 
BRANCH  17  18
ATOM     18  C   UNL     1       5.215  -2.907  -4.321  1.00  0.00    -0.000 C 
BRANCH  18  19
ATOM     19  C   UNL     1       3.908  -3.369  -4.990  1.00  0.00    -0.000 C 
BRANCH  19  20
ATOM     20  C   UNL     1       3.483  -2.458  -6.152  1.00  0.00    -0.000 C 
BRANCH  20  21
ATOM     21  C   UNL     1       2.004  -2.041  -6.066  1.00  0.00    -0.000 C 
BRANCH  21  22
ATOM     22  C   UNL     1       1.741  -1.028  -4.940  1.00  0.00    -0.000 C 
BRANCH  22  23
ATOM     23  C   UNL     1       0.696  -1.528  -3.930  1.00  0.00    -0.000 C 
BRANCH  23  24
ATOM     24  C   UNL     1       1.285  -1.765  -2.529  1.00  0.00    -0.000 C 
BRANCH  24  25
ATOM     25  C   UNL     1       0.845  -3.100  -1.893  1.00  0.00    -0.003 C 
ATOM     26  C   UNL     1       1.713  -4.274  -2.346  1.00  0.00     0.004 C 
ENDBRANCH  24  25
ENDBRANCH  23  24
ENDBRANCH  22  23
ENDBRANCH  21  22
ENDBRANCH  20  21
ENDBRANCH  19  20
ENDBRANCH  18  19
ENDBRANCH  17  18
ENDBRANCH  16  17
ENDBRANCH  15  16
ENDBRANCH   1  15
TORSDOF 22
ENDMDL
MODEL 4
REMARK VINA RESULT:    -3.980      5.688      8.950
REMARK INTER + INTRA:         -11.648
REMARK INTER:                  -9.086
REMARK INTRA:                  -2.562
REMARK UNBOUND:                -2.548
REMARK SMILES CCCCCCCCCCCCCCCCCCCCCCCC(=O)[O-]
REMARK SMILES IDX 13 1 14 2 15 3 16 4 17 5 18 6 19 7 20 8 21 9 22 10 23 11
REMARK SMILES IDX 24 12 25 13 26 14 12 15 11 16 10 17 9 18 8 19 7 20 6 21 5 22
REMARK SMILES IDX 4 23 3 24 2 25 1 26
REMARK H PARENT
REMARK Flexibility Score: inf
ROOT
ATOM      1  C   UNL     1       5.798  -0.113  -4.497  1.00  0.00     0.000 C 
ENDROOT
BRANCH   1   2
ATOM      2  C   UNL     1       5.237   1.059  -5.321  1.00  0.00     0.000 C 
BRANCH   2   3
ATOM      3  C   UNL     1       6.337   1.982  -5.872  1.00  0.00     0.000 C 
BRANCH   3   4
ATOM      4  C   UNL     1       6.437   3.319  -5.117  1.00  0.00     0.000 C 
BRANCH   4   5
ATOM      5  C   UNL     1       7.485   3.360  -3.985  1.00  0.00     0.000 C 
BRANCH   5   6
ATOM      6  C   UNL     1       7.661   4.729  -3.297  1.00  0.00     0.000 C 
BRANCH   6   7
ATOM      7  C   UNL     1       6.478   5.698  -3.471  1.00  0.00     0.000 C 
BRANCH   7   8
ATOM      8  C   UNL     1       6.361   6.707  -2.315  1.00  0.00     0.000 C 
BRANCH   8   9
ATOM      9  C   UNL     1       6.417   6.018  -0.935  1.00  0.00     0.000 C 
BRANCH   9  10
ATOM     10  C   UNL     1       5.827   6.867   0.205  1.00  0.00     0.006 C 
BRANCH  10  11
ATOM     11  C   UNL     1       4.679   6.163   0.937  1.00  0.00     0.053 C 
BRANCH  11  12
ATOM     12  C   UNL     1       3.358   6.703   0.488  1.00  0.00     0.041 C 
ATOM     13  O   UNL     1       2.814   7.650   1.115  1.00  0.00    -0.550 OA
ATOM     14  O   UNL     1       2.742   6.184  -0.643  1.00  0.00    -0.550 OA
ENDBRANCH  11  12
ENDBRANCH  10  11
ENDBRANCH   9  10
ENDBRANCH   8   9
ENDBRANCH   7   8
ENDBRANCH   6   7
ENDBRANCH   5   6
ENDBRANCH   4   5
ENDBRANCH   3   4
ENDBRANCH   2   3
ENDBRANCH   1   2
BRANCH   1  15
ATOM     15  C   UNL     1       4.977  -0.442  -3.232  1.00  0.00     0.000 C 
BRANCH  15  16
ATOM     16  C   UNL     1       5.040  -1.937  -2.868  1.00  0.00     0.000 C 
BRANCH  16  17
ATOM     17  C   UNL     1       5.046  -2.845  -4.112  1.00  0.00     0.000 C 
BRANCH  17  18
ATOM     18  C   UNL     1       3.911  -3.887  -4.129  1.00  0.00    -0.000 C 
BRANCH  18  19
ATOM     19  C   UNL     1       3.096  -3.886  -2.824  1.00  0.00    -0.000 C 
BRANCH  19  20
ATOM     20  C   UNL     1       1.598  -4.138  -3.063  1.00  0.00    -0.000 C 
BRANCH  20  21
ATOM     21  C   UNL     1       0.713  -3.011  -2.501  1.00  0.00    -0.000 C 
BRANCH  21  22
ATOM     22  C   UNL     1       1.451  -1.666  -2.419  1.00  0.00    -0.000 C 
BRANCH  22  23
ATOM     23  C   UNL     1       1.405  -0.887  -3.744  1.00  0.00    -0.000 C 
BRANCH  23  24
ATOM     24  C   UNL     1       0.280  -1.365  -4.678  1.00  0.00    -0.000 C 
BRANCH  24  25
ATOM     25  C   UNL     1       0.782  -1.822  -6.063  1.00  0.00    -0.003 C 
ATOM     26  C   UNL     1       2.232  -1.410  -6.321  1.00  0.00     0.004 C 
ENDBRANCH  24  25
ENDBRANCH  23  24
ENDBRANCH  22  23
ENDBRANCH  21  22
ENDBRANCH  20  21
ENDBRANCH  19  20
ENDBRANCH  18  19
ENDBRANCH  17  18
ENDBRANCH  16  17
ENDBRANCH  15  16
ENDBRANCH   1  15
TORSDOF 22
ENDMDL
MODEL 5
REMARK VINA RESULT:    -3.952     10.542     13.412
REMARK INTER + INTRA:         -11.582
REMARK INTER:                  -9.257
REMARK INTRA:                  -2.326
REMARK UNBOUND:                -2.548
REMARK SMILES CCCCCCCCCCCCCCCCCCCCCCCC(=O)[O-]
REMARK SMILES IDX 13 1 14 2 15 3 16 4 17 5 18 6 19 7 20 8 21 9 22 10 23 11
REMARK SMILES IDX 24 12 25 13 26 14 12 15 11 16 10 17 9 18 8 19 7 20 6 21 5 22
REMARK SMILES IDX 4 23 3 24 2 25 1 26
REMARK H PARENT
REMARK Flexibility Score: inf
ROOT
ATOM      1  C   UNL     1      -2.104   0.194   9.107  1.00  0.00     0.000 C 
ENDROOT
BRANCH   1   2
ATOM      2  C   UNL     1      -1.256   0.811   7.980  1.00  0.00     0.000 C 
BRANCH   2   3
ATOM      3  C   UNL     1      -0.094  -0.096   7.543  1.00  0.00     0.000 C 
BRANCH   3   4
ATOM      4  C   UNL     1       0.014  -1.384   8.378  1.00  0.00     0.000 C 
BRANCH   4   5
ATOM      5  C   UNL     1       1.411  -1.671   8.970  1.00  0.00     0.000 C 
BRANCH   5   6
ATOM      6  C   UNL     1       1.992  -0.554   9.861  1.00  0.00     0.000 C 
BRANCH   6   7
ATOM      7  C   UNL     1       3.291   0.083   9.335  1.00  0.00     0.000 C 
BRANCH   7   8
ATOM      8  C   UNL     1       3.063   1.472   8.713  1.00  0.00     0.000 C 
BRANCH   8   9
ATOM      9  C   UNL     1       2.027   2.299   9.502  1.00  0.00     0.000 C 
BRANCH   9  10
ATOM     10  C   UNL     1       1.311   3.365   8.654  1.00  0.00     0.006 C 
BRANCH  10  11
ATOM     11  C   UNL     1       1.830   3.425   7.214  1.00  0.00     0.053 C 
BRANCH  11  12
ATOM     12  C   UNL     1       2.686   4.636   7.012  1.00  0.00     0.041 C 
ATOM     13  O   UNL     1       3.920   4.510   6.797  1.00  0.00    -0.550 OA
ATOM     14  O   UNL     1       2.117   5.902   7.030  1.00  0.00    -0.550 OA
ENDBRANCH  11  12
ENDBRANCH  10  11
ENDBRANCH   9  10
ENDBRANCH   8   9
ENDBRANCH   7   8
ENDBRANCH   6   7
ENDBRANCH   5   6
ENDBRANCH   4   5
ENDBRANCH   3   4
ENDBRANCH   2   3
ENDBRANCH   1   2
BRANCH   1  15
ATOM     15  C   UNL     1      -3.619   0.460   8.972  1.00  0.00     0.000 C 
BRANCH  15  16
ATOM     16  C   UNL     1      -4.381  -0.767   8.438  1.00  0.00     0.000 C 
BRANCH  16  17
ATOM     17  C   UNL     1      -4.658  -1.810   9.536  1.00  0.00     0.000 C 
BRANCH  17  18
ATOM     18  C   UNL     1      -4.915  -3.230   8.997  1.00  0.00    -0.000 C 
BRANCH  18  19
ATOM     19  C   UNL     1      -6.277  -3.790   9.444  1.00  0.00    -0.000 C 
BRANCH  19  20
ATOM     20  C   UNL     1      -6.740  -4.976   8.584  1.00  0.00    -0.000 C 
BRANCH  20  21
ATOM     21  C   UNL     1      -8.274  -5.098   8.522  1.00  0.00    -0.000 C 
BRANCH  21  22
ATOM     22  C   UNL     1      -8.734  -6.361   7.776  1.00  0.00    -0.000 C 
BRANCH  22  23
ATOM     23  C   UNL     1      -9.186  -6.063   6.337  1.00  0.00    -0.000 C 
BRANCH  23  24
ATOM     24  C   UNL     1      -8.060  -6.251   5.306  1.00  0.00    -0.000 C 
BRANCH  24  25
ATOM     25  C   UNL     1      -7.454  -4.923   4.806  1.00  0.00    -0.003 C 
ATOM     26  C   UNL     1      -5.930  -4.896   4.932  1.00  0.00     0.004 C 
ENDBRANCH  24  25
ENDBRANCH  23  24
ENDBRANCH  22  23
ENDBRANCH  21  22
ENDBRANCH  20  21
ENDBRANCH  19  20
ENDBRANCH  18  19
ENDBRANCH  17  18
ENDBRANCH  16  17
ENDBRANCH  15  16
ENDBRANCH   1  15
TORSDOF 22
ENDMDL
MODEL 6
REMARK VINA RESULT:    -3.930     10.718     13.764
REMARK INTER + INTRA:         -11.533
REMARK INTER:                  -7.253
REMARK INTRA:                  -4.280
REMARK UNBOUND:                -2.548
REMARK SMILES CCCCCCCCCCCCCCCCCCCCCCCC(=O)[O-]
REMARK SMILES IDX 13 1 14 2 15 3 16 4 17 5 18 6 19 7 20 8 21 9 22 10 23 11
REMARK SMILES IDX 24 12 25 13 26 14 12 15 11 16 10 17 9 18 8 19 7 20 6 21 5 22
REMARK SMILES IDX 4 23 3 24 2 25 1 26
REMARK H PARENT
REMARK Flexibility Score: inf
ROOT
ATOM      1  C   UNL     1      -2.253   1.675   9.786  1.00  0.00     0.000 C 
ENDROOT
BRANCH   1   2
ATOM      2  C   UNL     1      -2.127   0.612   8.681  1.00  0.00     0.000 C 
BRANCH   2   3
ATOM      3  C   UNL     1      -0.823   0.741   7.875  1.00  0.00     0.000 C 
BRANCH   3   4
ATOM      4  C   UNL     1       0.049  -0.527   7.930  1.00  0.00     0.000 C 
BRANCH   4   5
ATOM      5  C   UNL     1       1.372  -0.383   8.711  1.00  0.00     0.000 C 
BRANCH   5   6
ATOM      6  C   UNL     1       1.382   0.712   9.798  1.00  0.00     0.000 C 
BRANCH   6   7
ATOM      7  C   UNL     1       2.743   1.395  10.017  1.00  0.00     0.000 C 
BRANCH   7   8
ATOM      8  C   UNL     1       3.778   1.019   8.942  1.00  0.00     0.000 C 
BRANCH   8   9
ATOM      9  C   UNL     1       5.174   0.760   9.545  1.00  0.00     0.000 C 
BRANCH   9  10
ATOM     10  C   UNL     1       6.329   1.004   8.557  1.00  0.00     0.006 C 
BRANCH  10  11
ATOM     11  C   UNL     1       6.058   2.173   7.604  1.00  0.00     0.053 C 
BRANCH  11  12
ATOM     12  C   UNL     1       7.230   3.101   7.560  1.00  0.00     0.041 C 
ATOM     13  O   UNL     1       8.236   2.819   6.856  1.00  0.00    -0.550 OA
ATOM     14  O   UNL     1       7.202   4.293   8.270  1.00  0.00    -0.550 OA
ENDBRANCH  11  12
ENDBRANCH  10  11
ENDBRANCH   9  10
ENDBRANCH   8   9
ENDBRANCH   7   8
ENDBRANCH   6   7
ENDBRANCH   5   6
ENDBRANCH   4   5
ENDBRANCH   3   4
ENDBRANCH   2   3
ENDBRANCH   1   2
BRANCH   1  15
ATOM     15  C   UNL     1      -1.797   3.086   9.357  1.00  0.00     0.000 C 
BRANCH  15  16
ATOM     16  C   UNL     1      -0.681   3.639  10.263  1.00  0.00     0.000 C 
BRANCH  16  17
ATOM     17  C   UNL     1       0.236   4.632   9.527  1.00  0.00     0.000 C 
BRANCH  17  18
ATOM     18  C   UNL     1      -0.371   5.197   8.229  1.00  0.00    -0.000 C 
BRANCH  18  19
ATOM     19  C   UNL     1       0.528   4.948   7.004  1.00  0.00    -0.000 C 
BRANCH  19  20
ATOM     20  C   UNL     1       1.372   3.671   7.141  1.00  0.00    -0.000 C 
BRANCH  20  21
ATOM     21  C   UNL     1       2.847   3.894   6.762  1.00  0.00    -0.000 C 
BRANCH  21  22
ATOM     22  C   UNL     1       3.473   5.086   7.504  1.00  0.00    -0.000 C 
BRANCH  22  23
ATOM     23  C   UNL     1       3.752   4.779   8.984  1.00  0.00    -0.000 C 
BRANCH  23  24
ATOM     24  C   UNL     1       4.356   5.975   9.739  1.00  0.00    -0.000 C 
BRANCH  24  25
ATOM     25  C   UNL     1       5.077   5.580  11.045  1.00  0.00    -0.003 C 
ATOM     26  C   UNL     1       5.252   4.067  11.177  1.00  0.00     0.004 C 
ENDBRANCH  24  25
ENDBRANCH  23  24
ENDBRANCH  22  23
ENDBRANCH  21  22
ENDBRANCH  20  21
ENDBRANCH  19  20
ENDBRANCH  18  19
ENDBRANCH  17  18
ENDBRANCH  16  17
ENDBRANCH  15  16
ENDBRANCH   1  15
TORSDOF 22
ENDMDL
MODEL 7
REMARK VINA RESULT:    -3.914     10.673     13.314
REMARK INTER + INTRA:         -11.496
REMARK INTER:                  -7.125
REMARK INTRA:                  -4.371
REMARK UNBOUND:                -2.548
REMARK SMILES CCCCCCCCCCCCCCCCCCCCCCCC(=O)[O-]
REMARK SMILES IDX 13 1 14 2 15 3 16 4 17 5 18 6 19 7 20 8 21 9 22 10 23 11
REMARK SMILES IDX 24 12 25 13 26 14 12 15 11 16 10 17 9 18 8 19 7 20 6 21 5 22
REMARK SMILES IDX 4 23 3 24 2 25 1 26
REMARK H PARENT
REMARK Flexibility Score: inf
ROOT
ATOM      1  C   UNL     1       0.194  -0.922   7.950  1.00  0.00     0.000 C 
ENDROOT
BRANCH   1   2
ATOM      2  C   UNL     1       1.509  -0.664   8.707  1.00  0.00     0.000 C 
BRANCH   2   3
ATOM      3  C   UNL     1       1.944  -1.859   9.571  1.00  0.00     0.000 C 
BRANCH   3   4
ATOM      4  C   UNL     1       1.435  -1.773  11.021  1.00  0.00     0.000 C 
BRANCH   4   5
ATOM      5  C   UNL     1       1.708  -0.434  11.738  1.00  0.00     0.000 C 
BRANCH   5   6
ATOM      6  C   UNL     1       3.183  -0.170  12.103  1.00  0.00     0.000 C 
BRANCH   6   7
ATOM      7  C   UNL     1       3.708   1.225  11.713  1.00  0.00     0.000 C 
BRANCH   7   8
ATOM      8  C   UNL     1       2.624   2.109  11.071  1.00  0.00     0.000 C 
BRANCH   8   9
ATOM      9  C   UNL     1       3.074   2.682   9.711  1.00  0.00     0.000 C 
BRANCH   9  10
ATOM     10  C   UNL     1       4.153   1.837   9.011  1.00  0.00     0.006 C 
BRANCH  10  11
ATOM     11  C   UNL     1       4.573   2.416   7.655  1.00  0.00     0.053 C 
BRANCH  11  12
ATOM     12  C   UNL     1       5.954   2.987   7.731  1.00  0.00     0.041 C 
ATOM     13  O   UNL     1       6.956   2.248   7.546  1.00  0.00    -0.550 OA
ATOM     14  O   UNL     1       6.135   4.342   7.972  1.00  0.00    -0.550 OA
ENDBRANCH  11  12
ENDBRANCH  10  11
ENDBRANCH   9  10
ENDBRANCH   8   9
ENDBRANCH   7   8
ENDBRANCH   6   7
ENDBRANCH   5   6
ENDBRANCH   4   5
ENDBRANCH   3   4
ENDBRANCH   2   3
ENDBRANCH   1   2
BRANCH   1  15
ATOM     15  C   UNL     1      -0.618   0.356   7.647  1.00  0.00     0.000 C 
BRANCH  15  16
ATOM     16  C   UNL     1       0.112   1.633   8.101  1.00  0.00     0.000 C 
BRANCH  16  17
ATOM     17  C   UNL     1      -0.687   2.427   9.150  1.00  0.00     0.000 C 
BRANCH  17  18
ATOM     18  C   UNL     1      -1.111   1.593  10.374  1.00  0.00    -0.000 C 
BRANCH  18  19
ATOM     19  C   UNL     1      -2.599   1.776  10.721  1.00  0.00    -0.000 C 
BRANCH  19  20
ATOM     20  C   UNL     1      -3.474   1.994   9.477  1.00  0.00    -0.000 C 
BRANCH  20  21
ATOM     21  C   UNL     1      -4.563   0.917   9.324  1.00  0.00    -0.000 C 
BRANCH  21  22
ATOM     22  C   UNL     1      -4.083  -0.295   8.508  1.00  0.00    -0.000 C 
BRANCH  22  23
ATOM     23  C   UNL     1      -4.671  -1.620   9.019  1.00  0.00    -0.000 C 
BRANCH  23  24
ATOM     24  C   UNL     1      -3.597  -2.580   9.561  1.00  0.00    -0.000 C 
BRANCH  24  25
ATOM     25  C   UNL     1      -2.358  -1.858  10.132  1.00  0.00    -0.003 C 
ATOM     26  C   UNL     1      -2.283  -1.951  11.656  1.00  0.00     0.004 C 
ENDBRANCH  24  25
ENDBRANCH  23  24
ENDBRANCH  22  23
ENDBRANCH  21  22
ENDBRANCH  20  21
ENDBRANCH  19  20
ENDBRANCH  18  19
ENDBRANCH  17  18
ENDBRANCH  16  17
ENDBRANCH  15  16
ENDBRANCH   1  15
TORSDOF 22
ENDMDL
MODEL 8
REMARK VINA RESULT:    -3.888     10.356     12.705
REMARK INTER + INTRA:         -11.437
REMARK INTER:                  -7.616
REMARK INTRA:                  -3.821
REMARK UNBOUND:                -2.548
REMARK SMILES CCCCCCCCCCCCCCCCCCCCCCCC(=O)[O-]
REMARK SMILES IDX 13 1 14 2 15 3 16 4 17 5 18 6 19 7 20 8 21 9 22 10 23 11
REMARK SMILES IDX 24 12 25 13 26 14 12 15 11 16 10 17 9 18 8 19 7 20 6 21 5 22
REMARK SMILES IDX 4 23 3 24 2 25 1 26
REMARK H PARENT
REMARK Flexibility Score: inf
ROOT
ATOM      1  C   UNL     1       0.184  -1.210   7.939  1.00  0.00     0.000 C 
ENDROOT
BRANCH   1   2
ATOM      2  C   UNL     1      -0.610   0.064   7.601  1.00  0.00     0.000 C 
BRANCH   2   3
ATOM      3  C   UNL     1       0.109   1.350   8.042  1.00  0.00     0.000 C 
BRANCH   3   4
ATOM      4  C   UNL     1      -0.769   2.264   8.914  1.00  0.00     0.000 C 
BRANCH   4   5
ATOM      5  C   UNL     1      -0.589   2.094  10.438  1.00  0.00     0.000 C 
BRANCH   5   6
ATOM      6  C   UNL     1      -1.888   1.850  11.233  1.00  0.00     0.000 C 
BRANCH   6   7
ATOM      7  C   UNL     1      -3.157   2.446  10.598  1.00  0.00     0.000 C 
BRANCH   7   8
ATOM      8  C   UNL     1      -4.317   1.437  10.527  1.00  0.00     0.000 C 
BRANCH   8   9
ATOM      9  C   UNL     1      -4.748   1.150   9.073  1.00  0.00     0.000 C 
BRANCH   9  10
ATOM     10  C   UNL     1      -4.035  -0.061   8.444  1.00  0.00     0.006 C 
BRANCH  10  11
ATOM     11  C   UNL     1      -4.492  -1.396   9.043  1.00  0.00     0.053 C 
BRANCH  11  12
ATOM     12  C   UNL     1      -3.331  -2.134   9.631  1.00  0.00     0.041 C 
ATOM     13  O   UNL     1      -2.469  -1.520  10.312  1.00  0.00    -0.550 OA
ATOM     14  O   UNL     1      -3.218  -3.506   9.455  1.00  0.00    -0.550 OA
ENDBRANCH  11  12
ENDBRANCH  10  11
ENDBRANCH   9  10
ENDBRANCH   8   9
ENDBRANCH   7   8
ENDBRANCH   6   7
ENDBRANCH   5   6
ENDBRANCH   4   5
ENDBRANCH   3   4
ENDBRANCH   2   3
ENDBRANCH   1   2
BRANCH   1  15
ATOM     15  C   UNL     1       0.863  -1.179   9.325  1.00  0.00     0.000 C 
BRANCH  15  16
ATOM     16  C   UNL     1       2.347  -1.582   9.257  1.00  0.00     0.000 C 
BRANCH  16  17
ATOM     17  C   UNL     1       3.230  -0.736  10.193  1.00  0.00     0.000 C 
BRANCH  17  18
ATOM     18  C   UNL     1       3.141   0.780   9.933  1.00  0.00    -0.000 C 
BRANCH  18  19
ATOM     19  C   UNL     1       4.197   1.265   8.924  1.00  0.00    -0.000 C 
BRANCH  19  20
ATOM     20  C   UNL     1       3.757   2.529   8.169  1.00  0.00    -0.000 C 
BRANCH  20  21
ATOM     21  C   UNL     1       2.869   3.450   9.025  1.00  0.00    -0.000 C 
BRANCH  21  22
ATOM     22  C   UNL     1       2.391   4.691   8.254  1.00  0.00    -0.000 C 
BRANCH  22  23
ATOM     23  C   UNL     1       1.911   4.353   6.833  1.00  0.00    -0.000 C 
BRANCH  23  24
ATOM     24  C   UNL     1       0.480   4.844   6.554  1.00  0.00    -0.000 C 
BRANCH  24  25
ATOM     25  C   UNL     1      -0.139   5.636   7.725  1.00  0.00    -0.003 C 
ATOM     26  C   UNL     1      -0.436   7.088   7.352  1.00  0.00     0.004 C 
ENDBRANCH  24  25
ENDBRANCH  23  24
ENDBRANCH  22  23
ENDBRANCH  21  22
ENDBRANCH  20  21
ENDBRANCH  19  20
ENDBRANCH  18  19
ENDBRANCH  17  18
ENDBRANCH  16  17
ENDBRANCH  15  16
ENDBRANCH   1  15
TORSDOF 22
ENDMDL
MODEL 9
REMARK VINA RESULT:    -3.887     10.188     12.074
REMARK INTER + INTRA:         -11.435
REMARK INTER:                  -8.190
REMARK INTRA:                  -3.245
REMARK UNBOUND:                -2.548
REMARK SMILES CCCCCCCCCCCCCCCCCCCCCCCC(=O)[O-]
REMARK SMILES IDX 13 1 14 2 15 3 16 4 17 5 18 6 19 7 20 8 21 9 22 10 23 11
REMARK SMILES IDX 24 12 25 13 26 14 12 15 11 16 10 17 9 18 8 19 7 20 6 21 5 22
REMARK SMILES IDX 4 23 3 24 2 25 1 26
REMARK H PARENT
REMARK Flexibility Score: inf
ROOT
ATOM      1  C   UNL     1       0.664  -2.109  10.117  1.00  0.00     0.000 C 
ENDROOT
BRANCH   1   2
ATOM      2  C   UNL     1      -0.573  -1.508   9.427  1.00  0.00     0.000 C 
BRANCH   2   3
ATOM      3  C   UNL     1      -0.314  -1.130   7.960  1.00  0.00     0.000 C 
BRANCH   3   4
ATOM      4  C   UNL     1      -0.405   0.385   7.702  1.00  0.00     0.000 C 
BRANCH   4   5
ATOM      5  C   UNL     1      -0.605   1.257   8.959  1.00  0.00     0.000 C 
BRANCH   5   6
ATOM      6  C   UNL     1      -2.013   1.865   9.123  1.00  0.00     0.000 C 
BRANCH   6   7
ATOM      7  C   UNL     1      -2.692   1.572  10.473  1.00  0.00     0.000 C 
BRANCH   7   8
ATOM      8  C   UNL     1      -3.996   0.769  10.320  1.00  0.00     0.000 C 
BRANCH   8   9
ATOM      9  C   UNL     1      -4.299   0.429   8.846  1.00  0.00     0.000 C 
BRANCH   9  10
ATOM     10  C   UNL     1      -4.329  -1.082   8.553  1.00  0.00     0.006 C 
BRANCH  10  11
ATOM     11  C   UNL     1      -4.600  -1.923   9.805  1.00  0.00     0.053 C 
BRANCH  11  12
ATOM     12  C   UNL     1      -5.079  -3.290   9.428  1.00  0.00     0.041 C 
ATOM     13  O   UNL     1      -4.255  -4.179   9.090  1.00  0.00    -0.550 OA
ATOM     14  O   UNL     1      -6.433  -3.592   9.481  1.00  0.00    -0.550 OA
ENDBRANCH  11  12
ENDBRANCH  10  11
ENDBRANCH   9  10
ENDBRANCH   8   9
ENDBRANCH   7   8
ENDBRANCH   6   7
ENDBRANCH   5   6
ENDBRANCH   4   5
ENDBRANCH   3   4
ENDBRANCH   2   3
ENDBRANCH   1   2
BRANCH   1  15
ATOM     15  C   UNL     1       1.849  -2.375   9.163  1.00  0.00     0.000 C 
BRANCH  15  16
ATOM     16  C   UNL     1       3.092  -1.546   9.531  1.00  0.00     0.000 C 
BRANCH  16  17
ATOM     17  C   UNL     1       2.819  -0.031   9.499  1.00  0.00     0.000 C 
BRANCH  17  18
ATOM     18  C   UNL     1       3.976   0.824  10.051  1.00  0.00    -0.000 C 
BRANCH  18  19
ATOM     19  C   UNL     1       5.341   0.402   9.478  1.00  0.00    -0.000 C 
BRANCH  19  20
ATOM     20  C   UNL     1       6.134   1.588   8.908  1.00  0.00    -0.000 C 
BRANCH  20  21
ATOM     21  C   UNL     1       5.551   2.107   7.581  1.00  0.00    -0.000 C 
BRANCH  21  22
ATOM     22  C   UNL     1       5.253   3.615   7.618  1.00  0.00    -0.000 C 
BRANCH  22  23
ATOM     23  C   UNL     1       3.901   3.965   6.974  1.00  0.00    -0.000 C 
BRANCH  23  24
ATOM     24  C   UNL     1       2.704   3.402   7.759  1.00  0.00    -0.000 C 
BRANCH  24  25
ATOM     25  C   UNL     1       1.347   3.632   7.062  1.00  0.00    -0.003 C 
ATOM     26  C   UNL     1       0.957   5.110   7.022  1.00  0.00     0.004 C 
ENDBRANCH  24  25
ENDBRANCH  23  24
ENDBRANCH  22  23
ENDBRANCH  21  22
ENDBRANCH  20  21
ENDBRANCH  19  20
ENDBRANCH  18  19
ENDBRANCH  17  18
ENDBRANCH  16  17
ENDBRANCH  15  16
ENDBRANCH   1  15
TORSDOF 22
ENDMDL
