MODEL 1
REMARK VINA RESULT:    -4.144      0.000      0.000
REMARK INTER + INTRA:          -5.622
REMARK INTER:                  -5.476
REMARK INTRA:                  -0.146
REMARK UNBOUND:                -0.146
REMARK SMILES CCCCCCCO
REMARK SMILES IDX 5 1 4 2 3 3 2 4 1 5 6 6 7 7 8 8
REMARK H PARENT 8 9
REMARK Flexibility Score: inf
ROOT
ATOM      1  C   UNL     1       5.669   5.163  13.129  1.00  0.00     0.002 C 
ENDROOT
BRANCH   1   2
ATOM      2  C   UNL     1       6.121   4.983  14.589  1.00  0.00     0.000 C 
BRANCH   2   3
ATOM      3  C   UNL     1       7.182   6.011  15.011  1.00  0.00    -0.000 C 
BRANCH   3   4
ATOM      4  C   UNL     1       7.094   7.315  14.203  1.00  0.00    -0.003 C 
ATOM      5  C   UNL     1       8.385   7.572  13.432  1.00  0.00     0.004 C 
ENDBRANCH   3   4
ENDBRANCH   2   3
ENDBRANCH   1   2
BRANCH   1   6
ATOM      6  C   UNL     1       4.994   3.905  12.560  1.00  0.00     0.028 C 
BRANCH   6   7
ATOM      7  C   UNL     1       5.919   3.105  11.635  1.00  0.00     0.156 C 
BRANCH   7   8
ATOM      8  O   UNL     1       6.853   2.385  12.394  1.00  0.00    -0.396 OA
ATOM      9  H   UNL     1       7.586   3.016  12.618  1.00  0.00     0.210 HD
ENDBRANCH   7   8
ENDBRANCH   6   7
ENDBRANCH   1   6
TORSDOF 6
ENDMDL
MODEL 2
REMARK VINA RESULT:    -4.039      2.467      4.794
REMARK INTER + INTRA:          -5.483
REMARK INTER:                  -5.386
REMARK INTRA:                  -0.097
REMARK UNBOUND:                -0.146
REMARK SMILES CCCCCCCO
REMARK SMILES IDX 5 1 4 2 3 3 2 4 1 5 6 6 7 7 8 8
REMARK H PARENT 8 9
REMARK Flexibility Score: inf
ROOT
ATOM      1  C   UNL     1       6.333   4.923  14.626  1.00  0.00     0.002 C 
ENDROOT
BRANCH   1   2
ATOM      2  C   UNL     1       5.633   5.113  13.269  1.00  0.00     0.000 C 
BRANCH   2   3
ATOM      3  C   UNL     1       5.431   3.788  12.517  1.00  0.00    -0.000 C 
BRANCH   3   4
ATOM      4  C   UNL     1       3.964   3.547  12.131  1.00  0.00    -0.003 C 
ATOM      5  C   UNL     1       3.784   2.179  11.480  1.00  0.00     0.004 C 
ENDBRANCH   3   4
ENDBRANCH   2   3
ENDBRANCH   1   2
BRANCH   1   6
ATOM      6  C   UNL     1       6.820   6.250  15.230  1.00  0.00     0.028 C 
BRANCH   6   7
ATOM      7  C   UNL     1       7.543   7.134  14.207  1.00  0.00     0.156 C 
BRANCH   7   8
ATOM      8  O   UNL     1       7.167   8.475  14.377  1.00  0.00    -0.396 OA
ATOM      9  H   UNL     1       7.707   9.006  13.736  1.00  0.00     0.210 HD
ENDBRANCH   7   8
ENDBRANCH   6   7
ENDBRANCH   1   6
TORSDOF 6
ENDMDL
MODEL 3
REMARK VINA RESULT:    -3.995      3.292      4.535
REMARK INTER + INTRA:          -5.426
REMARK INTER:                  -5.267
REMARK INTRA:                  -0.159
REMARK UNBOUND:                -0.146
REMARK SMILES CCCCCCCO
REMARK SMILES IDX 5 1 4 2 3 3 2 4 1 5 6 6 7 7 8 8
REMARK H PARENT 8 9
REMARK Flexibility Score: inf
ROOT
ATOM      1  C   UNL     1       2.660   2.654  11.823  1.00  0.00     0.002 C 
ENDROOT
BRANCH   1   2
ATOM      2  C   UNL     1       4.155   2.306  11.711  1.00  0.00     0.000 C 
BRANCH   2   3
ATOM      3  C   UNL     1       5.033   3.543  11.461  1.00  0.00    -0.000 C 
BRANCH   3   4
ATOM      4  C   UNL     1       4.845   4.626  12.534  1.00  0.00    -0.003 C 
ATOM      5  C   UNL     1       5.787   4.400  13.713  1.00  0.00     0.004 C 
ENDBRANCH   3   4
ENDBRANCH   2   3
ENDBRANCH   1   2
BRANCH   1   6
ATOM      6  C   UNL     1       1.792   1.429  12.150  1.00  0.00     0.028 C 
BRANCH   6   7
ATOM      7  C   UNL     1       2.587   0.118  12.126  1.00  0.00     0.156 C 
BRANCH   7   8
ATOM      8  O   UNL     1       1.840  -0.909  12.721  1.00  0.00    -0.396 OA
ATOM      9  H   UNL     1       0.884  -0.701  12.552  1.00  0.00     0.210 HD
ENDBRANCH   7   8
ENDBRANCH   6   7
ENDBRANCH   1   6
TORSDOF 6
ENDMDL
MODEL 4
REMARK VINA RESULT:    -3.885      3.643      4.757
REMARK INTER + INTRA:          -5.280
REMARK INTER:                  -5.208
REMARK INTRA:                  -0.072
REMARK UNBOUND:                -0.146
REMARK SMILES CCCCCCCO
REMARK SMILES IDX 5 1 4 2 3 3 2 4 1 5 6 6 7 7 8 8
REMARK H PARENT 8 9
REMARK Flexibility Score: inf
ROOT
ATOM      1  C   UNL     1       3.025   2.054  11.403  1.00  0.00     0.002 C 
ENDROOT
BRANCH   1   2
ATOM      2  C   UNL     1       3.530   3.323  12.114  1.00  0.00     0.000 C 
BRANCH   2   3
ATOM      3  C   UNL     1       5.060   3.458  12.067  1.00  0.00    -0.000 C 
BRANCH   3   4
ATOM      4  C   UNL     1       5.550   4.802  12.625  1.00  0.00    -0.003 C 
ATOM      5  C   UNL     1       5.925   4.680  14.099  1.00  0.00     0.004 C 
ENDBRANCH   3   4
ENDBRANCH   2   3
ENDBRANCH   1   2
BRANCH   1   6
ATOM      6  C   UNL     1       1.796   1.441  12.092  1.00  0.00     0.028 C 
BRANCH   6   7
ATOM      7  C   UNL     1       0.497   2.180  11.752  1.00  0.00     0.156 C 
BRANCH   7   8
ATOM      8  O   UNL     1      -0.424   2.044  12.801  1.00  0.00    -0.396 OA
ATOM      9  H   UNL     1       0.096   2.097  13.645  1.00  0.00     0.210 HD
ENDBRANCH   7   8
ENDBRANCH   6   7
ENDBRANCH   1   6
TORSDOF 6
ENDMDL
MODEL 5
REMARK VINA RESULT:    -3.821      2.558      5.405
REMARK INTER + INTRA:          -5.195
REMARK INTER:                  -4.999
REMARK INTRA:                  -0.196
REMARK UNBOUND:                -0.146
REMARK SMILES CCCCCCCO
REMARK SMILES IDX 5 1 4 2 3 3 2 4 1 5 6 6 7 7 8 8
REMARK H PARENT 8 9
REMARK Flexibility Score: inf
ROOT
ATOM      1  C   UNL     1       5.420   3.162  11.994  1.00  0.00     0.002 C 
ENDROOT
BRANCH   1   2
ATOM      2  C   UNL     1       4.325   2.118  11.713  1.00  0.00     0.000 C 
BRANCH   2   3
ATOM      3  C   UNL     1       2.909   2.715  11.779  1.00  0.00    -0.000 C 
BRANCH   3   4
ATOM      4  C   UNL     1       1.845   1.666  12.134  1.00  0.00    -0.003 C 
ATOM      5  C   UNL     1       2.427   0.257  12.092  1.00  0.00     0.004 C 
ENDBRANCH   3   4
ENDBRANCH   2   3
ENDBRANCH   1   2
BRANCH   1   6
ATOM      6  C   UNL     1       4.850   4.488  12.523  1.00  0.00     0.028 C 
BRANCH   6   7
ATOM      7  C   UNL     1       5.775   5.164  13.542  1.00  0.00     0.156 C 
BRANCH   7   8
ATOM      8  O   UNL     1       6.659   4.223  14.090  1.00  0.00    -0.396 OA
ATOM      9  H   UNL     1       7.448   4.190  13.489  1.00  0.00     0.210 HD
ENDBRANCH   7   8
ENDBRANCH   6   7
ENDBRANCH   1   6
TORSDOF 6
ENDMDL
MODEL 6
REMARK VINA RESULT:    -3.730      3.113      5.449
REMARK INTER + INTRA:          -5.076
REMARK INTER:                  -4.943
REMARK INTRA:                  -0.133
REMARK UNBOUND:                -0.146
REMARK SMILES CCCCCCCO
REMARK SMILES IDX 5 1 4 2 3 3 2 4 1 5 6 6 7 7 8 8
REMARK H PARENT 8 9
REMARK Flexibility Score: inf
ROOT
ATOM      1  C   UNL     1       4.448   3.862  12.264  1.00  0.00     0.002 C 
ENDROOT
BRANCH   1   2
ATOM      2  C   UNL     1       3.787   2.624  11.632  1.00  0.00     0.000 C 
BRANCH   2   3
ATOM      3  C   UNL     1       2.253   2.673  11.703  1.00  0.00    -0.000 C 
BRANCH   3   4
ATOM      4  C   UNL     1       1.643   1.348  12.185  1.00  0.00    -0.003 C 
ATOM      5  C   UNL     1       2.660   0.214  12.106  1.00  0.00     0.004 C 
ENDBRANCH   3   4
ENDBRANCH   2   3
ENDBRANCH   1   2
BRANCH   1   6
ATOM      6  C   UNL     1       5.742   4.273  11.543  1.00  0.00     0.028 C 
BRANCH   6   7
ATOM      7  C   UNL     1       6.273   3.178  10.611  1.00  0.00     0.156 C 
BRANCH   7   8
ATOM      8  O   UNL     1       7.583   3.478  10.212  1.00  0.00    -0.396 OA
ATOM      9  H   UNL     1       8.186   3.090  10.899  1.00  0.00     0.210 HD
ENDBRANCH   7   8
ENDBRANCH   6   7
ENDBRANCH   1   6
TORSDOF 6
ENDMDL
MODEL 7
REMARK VINA RESULT:    -3.719      1.871      3.872
REMARK INTER + INTRA:          -5.061
REMARK INTER:                  -4.748
REMARK INTRA:                  -0.314
REMARK UNBOUND:                -0.146
REMARK SMILES CCCCCCCO
REMARK SMILES IDX 5 1 4 2 3 3 2 4 1 5 6 6 7 7 8 8
REMARK H PARENT 8 9
REMARK Flexibility Score: inf
ROOT
ATOM      1  C   UNL     1       6.626   6.597  14.553  1.00  0.00     0.002 C 
ENDROOT
BRANCH   1   2
ATOM      2  C   UNL     1       6.354   5.157  15.022  1.00  0.00     0.000 C 
BRANCH   2   3
ATOM      3  C   UNL     1       5.984   4.218  13.862  1.00  0.00    -0.000 C 
BRANCH   3   4
ATOM      4  C   UNL     1       5.164   4.924  12.771  1.00  0.00    -0.003 C 
ATOM      5  C   UNL     1       5.607   4.482  11.380  1.00  0.00     0.004 C 
ENDBRANCH   3   4
ENDBRANCH   2   3
ENDBRANCH   1   2
BRANCH   1   6
ATOM      6  C   UNL     1       8.109   6.985  14.670  1.00  0.00     0.028 C 
BRANCH   6   7
ATOM      7  C   UNL     1       8.677   7.546  13.361  1.00  0.00     0.156 C 
BRANCH   7   8
ATOM      8  O   UNL     1       8.113   6.877  12.265  1.00  0.00    -0.396 OA
ATOM      9  H   UNL     1       7.331   6.373  12.611  1.00  0.00     0.210 HD
ENDBRANCH   7   8
ENDBRANCH   6   7
ENDBRANCH   1   6
TORSDOF 6
ENDMDL
MODEL 8
REMARK VINA RESULT:    -3.652      2.028      2.966
REMARK INTER + INTRA:          -4.972
REMARK INTER:                  -4.843
REMARK INTRA:                  -0.128
REMARK UNBOUND:                -0.146
REMARK SMILES CCCCCCCO
REMARK SMILES IDX 5 1 4 2 3 3 2 4 1 5 6 6 7 7 8 8
REMARK H PARENT 8 9
REMARK Flexibility Score: inf
ROOT
ATOM      1  C   UNL     1       5.115   2.820  11.926  1.00  0.00     0.002 C 
ENDROOT
BRANCH   1   2
ATOM      2  C   UNL     1       5.799   4.197  11.865  1.00  0.00     0.000 C 
BRANCH   2   3
ATOM      3  C   UNL     1       5.438   5.090  13.063  1.00  0.00    -0.000 C 
BRANCH   3   4
ATOM      4  C   UNL     1       6.079   4.605  14.373  1.00  0.00    -0.003 C 
ATOM      5  C   UNL     1       6.817   5.740  15.076  1.00  0.00     0.004 C 
ENDBRANCH   3   4
ENDBRANCH   2   3
ENDBRANCH   1   2
BRANCH   1   6
ATOM      6  C   UNL     1       3.584   2.917  11.842  1.00  0.00     0.028 C 
BRANCH   6   7
ATOM      7  C   UNL     1       2.959   1.751  11.067  1.00  0.00     0.156 C 
BRANCH   7   8
ATOM      8  O   UNL     1       3.401   0.529  11.595  1.00  0.00    -0.396 OA
ATOM      9  H   UNL     1       4.387   0.509  11.479  1.00  0.00     0.210 HD
ENDBRANCH   7   8
ENDBRANCH   6   7
ENDBRANCH   1   6
TORSDOF 6
ENDMDL
MODEL 9
REMARK VINA RESULT:    -3.560      4.077      5.887
REMARK INTER + INTRA:          -4.851
REMARK INTER:                  -4.774
REMARK INTRA:                  -0.077
REMARK UNBOUND:                -0.146
REMARK SMILES CCCCCCCO
REMARK SMILES IDX 5 1 4 2 3 3 2 4 1 5 6 6 7 7 8 8
REMARK H PARENT 8 9
REMARK Flexibility Score: inf
ROOT
ATOM      1  C   UNL     1       8.145   6.617  16.970  1.00  0.00     0.002 C 
ENDROOT
BRANCH   1   2
ATOM      2  C   UNL     1       8.282   6.625  15.437  1.00  0.00     0.000 C 
BRANCH   2   3
ATOM      3  C   UNL     1       6.922   6.661  14.723  1.00  0.00    -0.000 C 
BRANCH   3   4
ATOM      4  C   UNL     1       6.293   5.267  14.581  1.00  0.00    -0.003 C 
ATOM      5  C   UNL     1       5.589   5.117  13.236  1.00  0.00     0.004 C 
ENDBRANCH   3   4
ENDBRANCH   2   3
ENDBRANCH   1   2
BRANCH   1   6
ATOM      6  C   UNL     1       9.498   6.772  17.684  1.00  0.00     0.028 C 
BRANCH   6   7
ATOM      7  C   UNL     1       9.365   6.758  19.211  1.00  0.00     0.156 C 
BRANCH   7   8
ATOM      8  O   UNL     1       8.982   8.026  19.673  1.00  0.00    -0.396 OA
ATOM      9  H   UNL     1       9.812   8.565  19.746  1.00  0.00     0.210 HD
ENDBRANCH   7   8
ENDBRANCH   6   7
ENDBRANCH   1   6
TORSDOF 6
ENDMDL
