MODEL 1
REMARK VINA RESULT:    -4.929      0.000      0.000
REMARK INTER + INTRA:          -8.227
REMARK INTER:                  -6.947
REMARK INTRA:                  -1.280
REMARK UNBOUND:                -1.280
REMARK SMILES COc1c(O[C@@H]2O[C@@H](C(=O)[O-])[C@@H](O)[C@H](O)[C@H]2O)cc(O)c2c(=O)cc(-c3ccccc3)oc12
REMARK SMILES IDX 5 1 6 2 8 3 12 4 7 5 14 6 16 7 9 8 10 9 11 10 13 11 15 13
REMARK SMILES IDX 17 15 4 17 3 18 18 19 33 20 19 21 21 22 32 23 22 24 25 25
REMARK SMILES IDX 24 26 23 27 2 28 1 29 20 30 26 32 27 33 31 34 28 35 30 36
REMARK SMILES IDX 29 37
REMARK H PARENT 13 12 15 14 17 16 20 31
REMARK Flexibility Score: inf
ROOT
ATOM      1  O   UNL     1      24.321  28.800  52.099  1.00  0.00    -0.458 OA
ENDROOT
BRANCH   1   2
ATOM      2  C   UNL     1      25.414  28.549  52.984  1.00  0.00     0.339 C 
ATOM      3  C   UNL     1      25.936  27.689  55.132  1.00  0.00     0.199 C 
ATOM      4  C   UNL     1      26.723  28.967  55.524  1.00  0.00     0.180 C 
ATOM      5  O   UNL     1      24.914  27.959  54.178  1.00  0.00    -0.328 OA
ATOM      6  C   UNL     1      27.241  29.725  54.285  1.00  0.00     0.181 C 
ATOM      7  C   UNL     1      26.092  29.903  53.277  1.00  0.00     0.214 C 
BRANCH   3   8
ATOM      8  C   UNL     1      26.796  26.510  54.728  1.00  0.00     0.073 C 
ATOM      9  O   UNL     1      26.251  25.420  54.409  1.00  0.00    -0.547 OA
ATOM     10  O   UNL     1      28.182  26.604  54.693  1.00  0.00    -0.547 OA
ENDBRANCH   3   8
BRANCH   4  11
ATOM     11  O   UNL     1      27.759  28.685  56.434  1.00  0.00    -0.387 OA
ATOM     12  H   UNL     1      28.605  29.041  56.058  1.00  0.00     0.211 HD
ENDBRANCH   4  11
BRANCH   6  13
ATOM     13  O   UNL     1      27.787  30.969  54.651  1.00  0.00    -0.387 OA
ATOM     14  H   UNL     1      27.037  31.604  54.790  1.00  0.00     0.211 HD
ENDBRANCH   6  13
BRANCH   7  15
ATOM     15  O   UNL     1      26.558  30.498  52.091  1.00  0.00    -0.384 OA
ATOM     16  H   UNL     1      25.949  31.252  51.871  1.00  0.00     0.211 HD
ENDBRANCH   7  15
ENDBRANCH   1   2
BRANCH   1  17
ATOM     17  C   UNL     1      22.958  28.658  52.405  1.00  0.00     0.172 A 
ATOM     18  C   UNL     1      22.160  29.709  52.914  1.00  0.00     0.205 A 
ATOM     19  C   UNL     1      22.387  27.409  52.157  1.00  0.00     0.097 A 
ATOM     20  C   UNL     1      20.804  29.449  53.244  1.00  0.00     0.188 A 
ATOM     21  C   UNL     1      21.046  27.151  52.446  1.00  0.00     0.134 A 
ATOM     22  C   UNL     1      20.243  28.168  53.003  1.00  0.00     0.111 A 
ATOM     23  O   UNL     1      20.050  30.405  53.782  1.00  0.00    -0.452 OA
ATOM     24  C   UNL     1      18.887  27.966  53.334  1.00  0.00     0.197 A 
ATOM     25  C   UNL     1      18.768  30.247  54.099  1.00  0.00     0.138 A 
ATOM     26  C   UNL     1      18.148  29.011  53.880  1.00  0.00     0.100 A 
ATOM     27  O   UNL     1      18.322  26.853  53.151  1.00  0.00    -0.289 OA
BRANCH  18  28
ATOM     28  O   UNL     1      22.741  30.984  53.037  1.00  0.00    -0.490 OA
ATOM     29  C   UNL     1      22.801  31.983  52.024  1.00  0.00     0.278 C 
ENDBRANCH  18  28
BRANCH  21  30
ATOM     30  O   UNL     1      20.525  25.884  52.181  1.00  0.00    -0.507 OA
ATOM     31  H   UNL     1      20.772  25.369  51.344  1.00  0.00     0.293 HD
ENDBRANCH  21  30
BRANCH  25  32
ATOM     32  C   UNL     1      18.026  31.388  54.684  1.00  0.00     0.017 A 
ATOM     33  C   UNL     1      18.038  32.634  54.032  1.00  0.00     0.012 A 
ATOM     34  C   UNL     1      17.287  31.249  55.874  1.00  0.00     0.012 A 
ATOM     35  C   UNL     1      17.337  33.720  54.564  1.00  0.00     0.001 A 
ATOM     36  C   UNL     1      16.585  32.338  56.402  1.00  0.00     0.001 A 
ATOM     37  C   UNL     1      16.610  33.572  55.748  1.00  0.00     0.000 A 
ENDBRANCH  25  32
ENDBRANCH   1  17
TORSDOF 9
ENDMDL
MODEL 2
REMARK VINA RESULT:    -4.835      1.073      1.594
REMARK INTER + INTRA:          -8.094
REMARK INTER:                  -6.770
REMARK INTRA:                  -1.324
REMARK UNBOUND:                -1.280
REMARK SMILES COc1c(O[C@@H]2O[C@@H](C(=O)[O-])[C@@H](O)[C@H](O)[C@H]2O)cc(O)c2c(=O)cc(-c3ccccc3)oc12
REMARK SMILES IDX 5 1 6 2 8 3 12 4 7 5 14 6 16 7 9 8 10 9 11 10 13 11 15 13
REMARK SMILES IDX 17 15 4 17 3 18 18 19 33 20 19 21 21 22 32 23 22 24 25 25
REMARK SMILES IDX 24 26 23 27 2 28 1 29 20 30 26 32 27 33 31 34 28 35 30 36
REMARK SMILES IDX 29 37
REMARK H PARENT 13 12 15 14 17 16 20 31
REMARK Flexibility Score: inf
ROOT
ATOM      1  O   UNL     1      24.009  28.675  51.720  1.00  0.00    -0.458 OA
ENDROOT
BRANCH   1   2
ATOM      2  C   UNL     1      25.148  28.190  52.431  1.00  0.00     0.339 C 
ATOM      3  C   UNL     1      26.115  26.211  53.311  1.00  0.00     0.199 C 
ATOM      4  C   UNL     1      26.282  26.840  54.718  1.00  0.00     0.180 C 
ATOM      5  O   UNL     1      25.026  26.782  52.592  1.00  0.00    -0.328 OA
ATOM      6  C   UNL     1      26.343  28.380  54.656  1.00  0.00     0.181 C 
ATOM      7  C   UNL     1      25.179  28.904  53.798  1.00  0.00     0.214 C 
BRANCH   3   8
ATOM      8  C   UNL     1      27.381  26.159  52.481  1.00  0.00     0.073 C 
ATOM      9  O   UNL     1      27.343  25.690  51.313  1.00  0.00    -0.547 OA
ATOM     10  O   UNL     1      28.590  26.628  52.980  1.00  0.00    -0.547 OA
ENDBRANCH   3   8
BRANCH   4  11
ATOM     11  O   UNL     1      27.385  26.301  55.405  1.00  0.00    -0.387 OA
ATOM     12  H   UNL     1      27.295  26.535  56.365  1.00  0.00     0.211 HD
ENDBRANCH   4  11
BRANCH   6  13
ATOM     13  O   UNL     1      26.308  28.936  55.948  1.00  0.00    -0.387 OA
ATOM     14  H   UNL     1      27.232  28.927  56.311  1.00  0.00     0.211 HD
ENDBRANCH   6  13
BRANCH   7  15
ATOM     15  O   UNL     1      25.269  30.298  53.635  1.00  0.00    -0.384 OA
ATOM     16  H   UNL     1      26.133  30.593  54.025  1.00  0.00     0.211 HD
ENDBRANCH   7  15
ENDBRANCH   1   2
BRANCH   1  17
ATOM     17  C   UNL     1      22.670  28.573  52.132  1.00  0.00     0.172 A 
ATOM     18  C   UNL     1      21.934  29.656  52.664  1.00  0.00     0.205 A 
ATOM     19  C   UNL     1      22.058  27.330  51.969  1.00  0.00     0.097 A 
ATOM     20  C   UNL     1      20.602  29.436  53.103  1.00  0.00     0.188 A 
ATOM     21  C   UNL     1      20.738  27.110  52.366  1.00  0.00     0.134 A 
ATOM     22  C   UNL     1      19.999  28.161  52.948  1.00  0.00     0.111 A 
ATOM     23  O   UNL     1      19.910  30.425  53.666  1.00  0.00    -0.452 OA
ATOM     24  C   UNL     1      18.668  27.999  53.387  1.00  0.00     0.197 A 
ATOM     25  C   UNL     1      18.652  30.305  54.083  1.00  0.00     0.138 A 
ATOM     26  C   UNL     1      17.993  29.076  53.952  1.00  0.00     0.100 A 
ATOM     27  O   UNL     1      18.070  26.894  53.283  1.00  0.00    -0.289 OA
BRANCH  18  28
ATOM     28  O   UNL     1      22.547  30.922  52.701  1.00  0.00    -0.490 OA
ATOM     29  C   UNL     1      22.515  31.904  51.670  1.00  0.00     0.278 C 
ENDBRANCH  18  28
BRANCH  21  30
ATOM     30  O   UNL     1      20.174  25.847  52.183  1.00  0.00    -0.507 OA
ATOM     31  H   UNL     1      19.377  25.701  51.575  1.00  0.00     0.293 HD
ENDBRANCH  21  30
BRANCH  25  32
ATOM     32  C   UNL     1      17.979  31.480  54.684  1.00  0.00     0.017 A 
ATOM     33  C   UNL     1      17.325  31.350  55.922  1.00  0.00     0.012 A 
ATOM     34  C   UNL     1      17.996  32.738  54.051  1.00  0.00     0.012 A 
ATOM     35  C   UNL     1      16.692  32.450  56.508  1.00  0.00     0.001 A 
ATOM     36  C   UNL     1      17.363  33.836  54.643  1.00  0.00     0.001 A 
ATOM     37  C   UNL     1      16.712  33.692  55.869  1.00  0.00     0.000 A 
ENDBRANCH  25  32
ENDBRANCH   1  17
TORSDOF 9
ENDMDL
MODEL 3
REMARK VINA RESULT:    -4.655     13.062     15.750
REMARK INTER + INTRA:          -7.840
REMARK INTER:                  -6.602
REMARK INTRA:                  -1.239
REMARK UNBOUND:                -1.280
REMARK SMILES COc1c(O[C@@H]2O[C@@H](C(=O)[O-])[C@@H](O)[C@H](O)[C@H]2O)cc(O)c2c(=O)cc(-c3ccccc3)oc12
REMARK SMILES IDX 5 1 6 2 8 3 12 4 7 5 14 6 16 7 9 8 10 9 11 10 13 11 15 13
REMARK SMILES IDX 17 15 4 17 3 18 18 19 33 20 19 21 21 22 32 23 22 24 25 25
REMARK SMILES IDX 24 26 23 27 2 28 1 29 20 30 26 32 27 33 31 34 28 35 30 36
REMARK SMILES IDX 29 37
REMARK H PARENT 13 12 15 14 17 16 20 31
REMARK Flexibility Score: inf
ROOT
ATOM      1  O   UNL     1      25.809  28.008  41.492  1.00  0.00    -0.458 OA
ENDROOT
BRANCH   1   2
ATOM      2  C   UNL     1      25.298  26.825  40.876  1.00  0.00     0.339 C 
ATOM      3  C   UNL     1      25.915  25.020  39.467  1.00  0.00     0.199 C 
ATOM      4  C   UNL     1      24.733  25.286  38.499  1.00  0.00     0.180 C 
ATOM      5  O   UNL     1      26.340  26.205  40.134  1.00  0.00    -0.328 OA
ATOM      6  C   UNL     1      23.577  26.033  39.195  1.00  0.00     0.181 C 
ATOM      7  C   UNL     1      24.137  27.249  39.953  1.00  0.00     0.214 C 
BRANCH   3   8
ATOM      8  C   UNL     1      25.705  23.868  40.428  1.00  0.00     0.073 C 
ATOM      9  O   UNL     1      26.694  23.365  41.023  1.00  0.00    -0.547 OA
ATOM     10  O   UNL     1      24.438  23.356  40.675  1.00  0.00    -0.547 OA
ENDBRANCH   3   8
BRANCH   4  11
ATOM     11  O   UNL     1      24.290  24.104  37.876  1.00  0.00    -0.387 OA
ATOM     12  H   UNL     1      23.864  23.534  38.566  1.00  0.00     0.211 HD
ENDBRANCH   4  11
BRANCH   6  13
ATOM     13  O   UNL     1      22.600  26.427  38.262  1.00  0.00    -0.387 OA
ATOM     14  H   UNL     1      21.760  25.943  38.475  1.00  0.00     0.211 HD
ENDBRANCH   6  13
BRANCH   7  15
ATOM     15  O   UNL     1      23.122  27.891  40.685  1.00  0.00    -0.384 OA
ATOM     16  H   UNL     1      23.415  28.824  40.856  1.00  0.00     0.211 HD
ENDBRANCH   7  15
ENDBRANCH   1   2
BRANCH   1  17
ATOM     17  C   UNL     1      26.374  29.110  40.828  1.00  0.00     0.172 A 
ATOM     18  C   UNL     1      25.723  30.358  40.698  1.00  0.00     0.205 A 
ATOM     19  C   UNL     1      27.655  28.935  40.304  1.00  0.00     0.097 A 
ATOM     20  C   UNL     1      26.356  31.393  39.960  1.00  0.00     0.188 A 
ATOM     21  C   UNL     1      28.302  29.956  39.606  1.00  0.00     0.134 A 
ATOM     22  C   UNL     1      27.653  31.194  39.418  1.00  0.00     0.111 A 
ATOM     23  O   UNL     1      25.737  32.556  39.771  1.00  0.00    -0.452 OA
ATOM     24  C   UNL     1      28.243  32.259  38.706  1.00  0.00     0.197 A 
ATOM     25  C   UNL     1      26.271  33.580  39.111  1.00  0.00     0.138 A 
ATOM     26  C   UNL     1      27.550  33.456  38.556  1.00  0.00     0.100 A 
ATOM     27  O   UNL     1      29.391  32.153  38.194  1.00  0.00    -0.289 OA
BRANCH  18  28
ATOM     28  O   UNL     1      24.485  30.532  41.342  1.00  0.00    -0.490 OA
ATOM     29  C   UNL     1      24.286  30.803  42.726  1.00  0.00     0.278 C 
ENDBRANCH  18  28
BRANCH  21  30
ATOM     30  O   UNL     1      29.582  29.729  39.101  1.00  0.00    -0.507 OA
ATOM     31  H   UNL     1      29.972  28.797  39.031  1.00  0.00     0.293 HD
ENDBRANCH  21  30
BRANCH  25  32
ATOM     32  C   UNL     1      25.490  34.832  38.973  1.00  0.00     0.017 A 
ATOM     33  C   UNL     1      25.862  35.969  39.711  1.00  0.00     0.012 A 
ATOM     34  C   UNL     1      24.389  34.917  38.099  1.00  0.00     0.012 A 
ATOM     35  C   UNL     1      25.142  37.162  39.587  1.00  0.00     0.001 A 
ATOM     36  C   UNL     1      23.673  36.112  37.977  1.00  0.00     0.001 A 
ATOM     37  C   UNL     1      24.049  37.233  38.720  1.00  0.00     0.000 A 
ENDBRANCH  25  32
ENDBRANCH   1  17
TORSDOF 9
ENDMDL
MODEL 4
REMARK VINA RESULT:    -4.634      2.388      4.637
REMARK INTER + INTRA:          -7.811
REMARK INTER:                  -6.266
REMARK INTRA:                  -1.545
REMARK UNBOUND:                -1.280
REMARK SMILES COc1c(O[C@@H]2O[C@@H](C(=O)[O-])[C@@H](O)[C@H](O)[C@H]2O)cc(O)c2c(=O)cc(-c3ccccc3)oc12
REMARK SMILES IDX 5 1 6 2 8 3 12 4 7 5 14 6 16 7 9 8 10 9 11 10 13 11 15 13
REMARK SMILES IDX 17 15 4 17 3 18 18 19 33 20 19 21 21 22 32 23 22 24 25 25
REMARK SMILES IDX 24 26 23 27 2 28 1 29 20 30 26 32 27 33 31 34 28 35 30 36
REMARK SMILES IDX 29 37
REMARK H PARENT 13 12 15 14 17 16 20 31
REMARK Flexibility Score: inf
ROOT
ATOM      1  O   UNL     1      22.334  30.327  52.158  1.00  0.00    -0.458 OA
ENDROOT
BRANCH   1   2
ATOM      2  C   UNL     1      23.656  30.592  52.630  1.00  0.00     0.339 C 
ATOM      3  C   UNL     1      25.770  31.416  51.941  1.00  0.00     0.199 C 
ATOM      4  C   UNL     1      26.505  30.156  52.467  1.00  0.00     0.180 C 
ATOM      5  O   UNL     1      24.425  31.136  51.565  1.00  0.00    -0.328 OA
ATOM      6  C   UNL     1      25.705  29.445  53.577  1.00  0.00     0.181 C 
ATOM      7  C   UNL     1      24.250  29.255  53.117  1.00  0.00     0.214 C 
BRANCH   3   8
ATOM      8  C   UNL     1      25.870  32.633  52.838  1.00  0.00     0.073 C 
ATOM      9  O   UNL     1      25.299  33.703  52.502  1.00  0.00    -0.547 OA
ATOM     10  O   UNL     1      26.576  32.592  54.034  1.00  0.00    -0.547 OA
ENDBRANCH   3   8
BRANCH   4  11
ATOM     11  O   UNL     1      27.820  30.449  52.877  1.00  0.00    -0.387 OA
ATOM     12  H   UNL     1      27.775  31.158  53.569  1.00  0.00     0.211 HD
ENDBRANCH   4  11
BRANCH   6  13
ATOM     13  O   UNL     1      26.295  28.211  53.908  1.00  0.00    -0.387 OA
ATOM     14  H   UNL     1      27.042  28.049  53.275  1.00  0.00     0.211 HD
ENDBRANCH   6  13
BRANCH   7  15
ATOM     15  O   UNL     1      23.469  28.704  54.149  1.00  0.00    -0.384 OA
ATOM     16  H   UNL     1      23.141  27.818  53.841  1.00  0.00     0.211 HD
ENDBRANCH   7  15
ENDBRANCH   1   2
BRANCH   1  17
ATOM     17  C   UNL     1      21.142  30.829  52.707  1.00  0.00     0.172 A 
ATOM     18  C   UNL     1      20.232  30.039  53.445  1.00  0.00     0.205 A 
ATOM     19  C   UNL     1      20.889  32.187  52.515  1.00  0.00     0.097 A 
ATOM     20  C   UNL     1      19.027  30.628  53.911  1.00  0.00     0.188 A 
ATOM     21  C   UNL     1      19.723  32.785  52.998  1.00  0.00     0.134 A 
ATOM     22  C   UNL     1      18.774  32.007  53.694  1.00  0.00     0.111 A 
ATOM     23  O   UNL     1      18.125  29.889  54.555  1.00  0.00    -0.452 OA
ATOM     24  C   UNL     1      17.569  32.546  54.190  1.00  0.00     0.197 A 
ATOM     25  C   UNL     1      16.984  30.370  55.040  1.00  0.00     0.138 A 
ATOM     26  C   UNL     1      16.674  31.725  54.868  1.00  0.00     0.100 A 
ATOM     27  O   UNL     1      17.277  33.763  54.030  1.00  0.00    -0.289 OA
BRANCH  18  28
ATOM     28  O   UNL     1      20.580  28.704  53.719  1.00  0.00    -0.490 OA
ATOM     29  C   UNL     1      20.282  27.572  52.908  1.00  0.00     0.278 C 
ENDBRANCH  18  28
BRANCH  21  30
ATOM     30  O   UNL     1      19.516  34.148  52.779  1.00  0.00    -0.507 OA
ATOM     31  H   UNL     1      19.679  34.836  53.503  1.00  0.00     0.293 HD
ENDBRANCH  21  30
BRANCH  25  32
ATOM     32  C   UNL     1      16.061  29.454  55.749  1.00  0.00     0.017 A 
ATOM     33  C   UNL     1      14.694  29.772  55.837  1.00  0.00     0.012 A 
ATOM     34  C   UNL     1      16.519  28.252  56.324  1.00  0.00     0.012 A 
ATOM     35  C   UNL     1      13.808  28.914  56.495  1.00  0.00     0.001 A 
ATOM     36  C   UNL     1      15.628  27.396  56.979  1.00  0.00     0.001 A 
ATOM     37  C   UNL     1      14.274  27.727  57.065  1.00  0.00     0.000 A 
ENDBRANCH  25  32
ENDBRANCH   1  17
TORSDOF 9
ENDMDL
MODEL 5
REMARK VINA RESULT:    -4.569      1.823      4.064
REMARK INTER + INTRA:          -7.718
REMARK INTER:                  -6.331
REMARK INTRA:                  -1.387
REMARK UNBOUND:                -1.280
REMARK SMILES COc1c(O[C@@H]2O[C@@H](C(=O)[O-])[C@@H](O)[C@H](O)[C@H]2O)cc(O)c2c(=O)cc(-c3ccccc3)oc12
REMARK SMILES IDX 5 1 6 2 8 3 12 4 7 5 14 6 16 7 9 8 10 9 11 10 13 11 15 13
REMARK SMILES IDX 17 15 4 17 3 18 18 19 33 20 19 21 21 22 32 23 22 24 25 25
REMARK SMILES IDX 24 26 23 27 2 28 1 29 20 30 26 32 27 33 31 34 28 35 30 36
REMARK SMILES IDX 29 37
REMARK H PARENT 13 12 15 14 17 16 20 31
REMARK Flexibility Score: inf
ROOT
ATOM      1  O   UNL     1      24.322  29.570  52.491  1.00  0.00    -0.458 OA
ENDROOT
BRANCH   1   2
ATOM      2  C   UNL     1      25.508  29.821  53.245  1.00  0.00     0.339 C 
ATOM      3  C   UNL     1      27.810  30.339  53.014  1.00  0.00     0.199 C 
ATOM      4  C   UNL     1      28.235  29.151  53.916  1.00  0.00     0.180 C 
ATOM      5  O   UNL     1      26.576  30.093  52.347  1.00  0.00    -0.328 OA
ATOM      6  C   UNL     1      27.106  28.726  54.877  1.00  0.00     0.181 C 
ATOM      7  C   UNL     1      25.797  28.561  54.085  1.00  0.00     0.214 C 
BRANCH   3   8
ATOM      8  C   UNL     1      27.833  31.693  53.692  1.00  0.00     0.073 C 
ATOM      9  O   UNL     1      27.558  32.727  53.028  1.00  0.00    -0.547 OA
ATOM     10  O   UNL     1      28.144  31.821  55.040  1.00  0.00    -0.547 OA
ENDBRANCH   3   8
BRANCH   4  11
ATOM     11  O   UNL     1      29.433  29.418  54.605  1.00  0.00    -0.387 OA
ATOM     12  H   UNL     1      29.887  28.554  54.779  1.00  0.00     0.211 HD
ENDBRANCH   4  11
BRANCH   6  13
ATOM     13  O   UNL     1      27.441  27.538  55.551  1.00  0.00    -0.387 OA
ATOM     14  H   UNL     1      27.106  26.775  55.012  1.00  0.00     0.211 HD
ENDBRANCH   6  13
BRANCH   7  15
ATOM     15  O   UNL     1      24.725  28.276  54.950  1.00  0.00    -0.384 OA
ATOM     16  H   UNL     1      24.969  28.608  55.855  1.00  0.00     0.211 HD
ENDBRANCH   7  15
ENDBRANCH   1   2
BRANCH   1  17
ATOM     17  C   UNL     1      23.042  30.082  52.764  1.00  0.00     0.172 A 
ATOM     18  C   UNL     1      21.991  29.306  53.304  1.00  0.00     0.205 A 
ATOM     19  C   UNL     1      22.841  31.437  52.500  1.00  0.00     0.097 A 
ATOM     20  C   UNL     1      20.717  29.904  53.492  1.00  0.00     0.188 A 
ATOM     21  C   UNL     1      21.603  32.045  52.712  1.00  0.00     0.134 A 
ATOM     22  C   UNL     1      20.523  31.279  53.202  1.00  0.00     0.111 A 
ATOM     23  O   UNL     1      19.696  29.178  53.940  1.00  0.00    -0.452 OA
ATOM     24  C   UNL     1      19.243  31.828  53.420  1.00  0.00     0.197 A 
ATOM     25  C   UNL     1      18.479  29.668  54.162  1.00  0.00     0.138 A 
ATOM     26  C   UNL     1      18.220  31.020  53.905  1.00  0.00     0.100 A 
ATOM     27  O   UNL     1      18.996  33.042  53.181  1.00  0.00    -0.289 OA
BRANCH  18  28
ATOM     28  O   UNL     1      22.267  27.976  53.668  1.00  0.00    -0.490 OA
ATOM     29  C   UNL     1      22.250  26.844  52.803  1.00  0.00     0.278 C 
ENDBRANCH  18  28
BRANCH  21  30
ATOM     30  O   UNL     1      21.453  33.403  52.430  1.00  0.00    -0.507 OA
ATOM     31  H   UNL     1      21.781  33.808  51.561  1.00  0.00     0.293 HD
ENDBRANCH  21  30
BRANCH  25  32
ATOM     32  C   UNL     1      17.422  28.765  54.673  1.00  0.00     0.017 A 
ATOM     33  C   UNL     1      16.999  27.676  53.891  1.00  0.00     0.012 A 
ATOM     34  C   UNL     1      16.842  28.959  55.942  1.00  0.00     0.012 A 
ATOM     35  C   UNL     1      16.009  26.807  54.361  1.00  0.00     0.001 A 
ATOM     36  C   UNL     1      15.854  28.085  56.408  1.00  0.00     0.001 A 
ATOM     37  C   UNL     1      15.437  27.012  55.619  1.00  0.00     0.000 A 
ENDBRANCH  25  32
ENDBRANCH   1  17
TORSDOF 9
ENDMDL
MODEL 6
REMARK VINA RESULT:    -4.548      1.565      3.297
REMARK INTER + INTRA:          -7.690
REMARK INTER:                  -6.809
REMARK INTRA:                  -0.881
REMARK UNBOUND:                -1.280
REMARK SMILES COc1c(O[C@@H]2O[C@@H](C(=O)[O-])[C@@H](O)[C@H](O)[C@H]2O)cc(O)c2c(=O)cc(-c3ccccc3)oc12
REMARK SMILES IDX 5 1 6 2 8 3 12 4 7 5 14 6 16 7 9 8 10 9 11 10 13 11 15 13
REMARK SMILES IDX 17 15 4 17 3 18 18 19 33 20 19 21 21 22 32 23 22 24 25 25
REMARK SMILES IDX 24 26 23 27 2 28 1 29 20 30 26 32 27 33 31 34 28 35 30 36
REMARK SMILES IDX 29 37
REMARK H PARENT 13 12 15 14 17 16 20 31
REMARK Flexibility Score: inf
ROOT
ATOM      1  O   UNL     1      24.278  28.947  52.161  1.00  0.00    -0.458 OA
ENDROOT
BRANCH   1   2
ATOM      2  C   UNL     1      25.384  28.659  53.016  1.00  0.00     0.339 C 
ATOM      3  C   UNL     1      25.937  27.757  55.138  1.00  0.00     0.199 C 
ATOM      4  C   UNL     1      26.762  29.010  55.529  1.00  0.00     0.180 C 
ATOM      5  O   UNL     1      24.899  28.063  54.213  1.00  0.00    -0.328 OA
ATOM      6  C   UNL     1      27.268  29.775  54.290  1.00  0.00     0.181 C 
ATOM      7  C   UNL     1      26.100  29.993  53.311  1.00  0.00     0.214 C 
BRANCH   3   8
ATOM      8  C   UNL     1      26.761  26.564  54.698  1.00  0.00     0.073 C 
ATOM      9  O   UNL     1      26.181  25.510  54.325  1.00  0.00    -0.547 OA
ATOM     10  O   UNL     1      28.149  26.609  54.688  1.00  0.00    -0.547 OA
ENDBRANCH   3   8
BRANCH   4  11
ATOM     11  O   UNL     1      27.812  28.693  56.411  1.00  0.00    -0.387 OA
ATOM     12  H   UNL     1      27.586  29.060  57.304  1.00  0.00     0.211 HD
ENDBRANCH   4  11
BRANCH   6  13
ATOM     13  O   UNL     1      27.850  31.001  54.660  1.00  0.00    -0.387 OA
ATOM     14  H   UNL     1      28.273  31.395  53.853  1.00  0.00     0.211 HD
ENDBRANCH   6  13
BRANCH   7  15
ATOM     15  O   UNL     1      26.552  30.595  52.123  1.00  0.00    -0.384 OA
ATOM     16  H   UNL     1      26.917  31.489  52.356  1.00  0.00     0.211 HD
ENDBRANCH   7  15
ENDBRANCH   1   2
BRANCH   1  17
ATOM     17  C   UNL     1      23.068  29.548  52.545  1.00  0.00     0.172 A 
ATOM     18  C   UNL     1      21.982  28.831  53.098  1.00  0.00     0.205 A 
ATOM     19  C   UNL     1      22.977  30.931  52.383  1.00  0.00     0.097 A 
ATOM     20  C   UNL     1      20.781  29.523  53.403  1.00  0.00     0.188 A 
ATOM     21  C   UNL     1      21.813  31.628  52.711  1.00  0.00     0.134 A 
ATOM     22  C   UNL     1      20.698  30.928  53.216  1.00  0.00     0.111 A 
ATOM     23  O   UNL     1      19.724  28.860  53.866  1.00  0.00    -0.452 OA
ATOM     24  C   UNL     1      19.487  31.570  53.548  1.00  0.00     0.197 A 
ATOM     25  C   UNL     1      18.572  29.438  54.195  1.00  0.00     0.138 A 
ATOM     26  C   UNL     1      18.423  30.822  54.043  1.00  0.00     0.100 A 
ATOM     27  O   UNL     1      19.340  32.814  53.404  1.00  0.00    -0.289 OA
BRANCH  18  28
ATOM     28  O   UNL     1      22.156  27.459  53.358  1.00  0.00    -0.490 OA
ATOM     29  C   UNL     1      22.091  26.406  52.401  1.00  0.00     0.278 C 
ENDBRANCH  18  28
BRANCH  21  30
ATOM     30  O   UNL     1      21.774  33.011  52.527  1.00  0.00    -0.507 OA
ATOM     31  H   UNL     1      21.928  33.656  53.293  1.00  0.00     0.293 HD
ENDBRANCH  21  30
BRANCH  25  32
ATOM     32  C   UNL     1      17.467  28.597  54.711  1.00  0.00     0.017 A 
ATOM     33  C   UNL     1      16.891  28.893  55.959  1.00  0.00     0.012 A 
ATOM     34  C   UNL     1      16.963  27.512  53.968  1.00  0.00     0.012 A 
ATOM     35  C   UNL     1      15.841  28.115  56.458  1.00  0.00     0.001 A 
ATOM     36  C   UNL     1      15.911  26.738  54.471  1.00  0.00     0.001 A 
ATOM     37  C   UNL     1      15.352  27.039  55.714  1.00  0.00     0.000 A 
ENDBRANCH  25  32
ENDBRANCH   1  17
TORSDOF 9
ENDMDL
MODEL 7
REMARK VINA RESULT:    -4.467      0.973      2.511
REMARK INTER + INTRA:          -7.575
REMARK INTER:                  -6.646
REMARK INTRA:                  -0.929
REMARK UNBOUND:                -1.280
REMARK SMILES COc1c(O[C@@H]2O[C@@H](C(=O)[O-])[C@@H](O)[C@H](O)[C@H]2O)cc(O)c2c(=O)cc(-c3ccccc3)oc12
REMARK SMILES IDX 5 1 6 2 8 3 12 4 7 5 14 6 16 7 9 8 10 9 11 10 13 11 15 13
REMARK SMILES IDX 17 15 4 17 3 18 18 19 33 20 19 21 21 22 32 23 22 24 25 25
REMARK SMILES IDX 24 26 23 27 2 28 1 29 20 30 26 32 27 33 31 34 28 35 30 36
REMARK SMILES IDX 29 37
REMARK H PARENT 13 12 15 14 17 16 20 31
REMARK Flexibility Score: inf
ROOT
ATOM      1  O   UNL     1      23.819  28.807  52.371  1.00  0.00    -0.458 OA
ENDROOT
BRANCH   1   2
ATOM      2  C   UNL     1      24.865  29.259  53.231  1.00  0.00     0.339 C 
ATOM      3  C   UNL     1      26.980  30.332  53.219  1.00  0.00     0.199 C 
ATOM      4  C   UNL     1      27.634  29.197  54.049  1.00  0.00     0.180 C 
ATOM      5  O   UNL     1      25.881  29.866  52.443  1.00  0.00    -0.328 OA
ATOM      6  C   UNL     1      26.594  28.422  54.882  1.00  0.00     0.181 C 
ATOM      7  C   UNL     1      25.409  28.027  53.983  1.00  0.00     0.214 C 
BRANCH   3   8
ATOM      8  C   UNL     1      26.633  31.579  54.007  1.00  0.00     0.073 C 
ATOM      9  O   UNL     1      25.979  32.503  53.456  1.00  0.00    -0.547 OA
ATOM     10  O   UNL     1      27.016  31.724  55.335  1.00  0.00    -0.547 OA
ENDBRANCH   3   8
BRANCH   4  11
ATOM     11  O   UNL     1      28.691  29.673  54.846  1.00  0.00    -0.387 OA
ATOM     12  H   UNL     1      29.444  29.915  54.247  1.00  0.00     0.211 HD
ENDBRANCH   4  11
BRANCH   6  13
ATOM     13  O   UNL     1      27.174  27.287  55.479  1.00  0.00    -0.387 OA
ATOM     14  H   UNL     1      27.713  26.820  54.788  1.00  0.00     0.211 HD
ENDBRANCH   6  13
BRANCH   7  15
ATOM     15  O   UNL     1      24.395  27.410  54.738  1.00  0.00    -0.384 OA
ATOM     16  H   UNL     1      23.898  26.797  54.134  1.00  0.00     0.211 HD
ENDBRANCH   7  15
ENDBRANCH   1   2
BRANCH   1  17
ATOM     17  C   UNL     1      22.448  28.774  52.679  1.00  0.00     0.172 A 
ATOM     18  C   UNL     1      21.732  29.891  53.168  1.00  0.00     0.205 A 
ATOM     19  C   UNL     1      21.786  27.567  52.455  1.00  0.00     0.097 A 
ATOM     20  C   UNL     1      20.361  29.739  53.502  1.00  0.00     0.188 A 
ATOM     21  C   UNL     1      20.430  27.415  52.748  1.00  0.00     0.134 A 
ATOM     22  C   UNL     1      19.705  28.500  53.285  1.00  0.00     0.111 A 
ATOM     23  O   UNL     1      19.681  30.759  54.023  1.00  0.00    -0.452 OA
ATOM     24  C   UNL     1      18.338  28.406  53.620  1.00  0.00     0.197 A 
ATOM     25  C   UNL     1      18.391  30.703  54.342  1.00  0.00     0.138 A 
ATOM     26  C   UNL     1      17.680  29.513  54.147  1.00  0.00     0.100 A 
ATOM     27  O   UNL     1      17.692  27.335  53.458  1.00  0.00    -0.289 OA
BRANCH  18  28
ATOM     28  O   UNL     1      22.407  31.121  53.267  1.00  0.00    -0.490 OA
ATOM     29  C   UNL     1      22.523  32.103  52.242  1.00  0.00     0.278 C 
ENDBRANCH  18  28
BRANCH  21  30
ATOM     30  O   UNL     1      19.815  26.186  52.507  1.00  0.00    -0.507 OA
ATOM     31  H   UNL     1      18.869  25.992  52.814  1.00  0.00     0.293 HD
ENDBRANCH  21  30
BRANCH  25  32
ATOM     32  C   UNL     1      17.738  31.907  54.905  1.00  0.00     0.017 A 
ATOM     33  C   UNL     1      17.163  31.852  56.188  1.00  0.00     0.012 A 
ATOM     34  C   UNL     1      17.695  33.120  54.191  1.00  0.00     0.012 A 
ATOM     35  C   UNL     1      16.550  32.982  56.739  1.00  0.00     0.001 A 
ATOM     36  C   UNL     1      17.082  34.248  54.748  1.00  0.00     0.001 A 
ATOM     37  C   UNL     1      16.510  34.178  56.019  1.00  0.00     0.000 A 
ENDBRANCH  25  32
ENDBRANCH   1  17
TORSDOF 9
ENDMDL
MODEL 8
REMARK VINA RESULT:    -4.436      1.434      1.795
REMARK INTER + INTRA:          -7.532
REMARK INTER:                  -6.200
REMARK INTRA:                  -1.332
REMARK UNBOUND:                -1.280
REMARK SMILES COc1c(O[C@@H]2O[C@@H](C(=O)[O-])[C@@H](O)[C@H](O)[C@H]2O)cc(O)c2c(=O)cc(-c3ccccc3)oc12
REMARK SMILES IDX 5 1 6 2 8 3 12 4 7 5 14 6 16 7 9 8 10 9 11 10 13 11 15 13
REMARK SMILES IDX 17 15 4 17 3 18 18 19 33 20 19 21 21 22 32 23 22 24 25 25
REMARK SMILES IDX 24 26 23 27 2 28 1 29 20 30 26 32 27 33 31 34 28 35 30 36
REMARK SMILES IDX 29 37
REMARK H PARENT 13 12 15 14 17 16 20 31
REMARK Flexibility Score: inf
ROOT
ATOM      1  O   UNL     1      25.071  29.193  52.009  1.00  0.00    -0.458 OA
ENDROOT
BRANCH   1   2
ATOM      2  C   UNL     1      26.147  29.021  52.932  1.00  0.00     0.339 C 
ATOM      3  C   UNL     1      26.946  27.588  54.644  1.00  0.00     0.199 C 
ATOM      4  C   UNL     1      27.097  28.762  55.647  1.00  0.00     0.180 C 
ATOM      5  O   UNL     1      25.926  27.833  53.680  1.00  0.00    -0.328 OA
ATOM      6  C   UNL     1      27.261  30.115  54.926  1.00  0.00     0.181 C 
ATOM      7  C   UNL     1      26.169  30.259  53.852  1.00  0.00     0.214 C 
BRANCH   3   8
ATOM      8  C   UNL     1      28.238  27.127  54.004  1.00  0.00     0.073 C 
ATOM      9  O   UNL     1      28.222  26.172  53.184  1.00  0.00    -0.547 OA
ATOM     10  O   UNL     1      29.449  27.743  54.295  1.00  0.00    -0.547 OA
ENDBRANCH   3   8
BRANCH   4  11
ATOM     11  O   UNL     1      28.134  28.532  56.570  1.00  0.00    -0.387 OA
ATOM     12  H   UNL     1      28.349  29.394  57.012  1.00  0.00     0.211 HD
ENDBRANCH   4  11
BRANCH   6  13
ATOM     13  O   UNL     1      27.210  31.181  55.843  1.00  0.00    -0.387 OA
ATOM     14  H   UNL     1      26.816  31.965  55.379  1.00  0.00     0.211 HD
ENDBRANCH   6  13
BRANCH   7  15
ATOM     15  O   UNL     1      26.356  31.437  53.106  1.00  0.00    -0.384 OA
ATOM     16  H   UNL     1      27.227  31.830  53.376  1.00  0.00     0.211 HD
ENDBRANCH   7  15
ENDBRANCH   1   2
BRANCH   1  17
ATOM     17  C   UNL     1      23.708  29.295  52.334  1.00  0.00     0.172 A 
ATOM     18  C   UNL     1      23.006  30.521  52.373  1.00  0.00     0.205 A 
ATOM     19  C   UNL     1      23.039  28.100  52.602  1.00  0.00     0.097 A 
ATOM     20  C   UNL     1      21.642  30.522  52.767  1.00  0.00     0.188 A 
ATOM     21  C   UNL     1      21.689  28.086  52.958  1.00  0.00     0.134 A 
ATOM     22  C   UNL     1      20.979  29.301  53.054  1.00  0.00     0.111 A 
ATOM     23  O   UNL     1      20.976  31.670  52.872  1.00  0.00    -0.452 OA
ATOM     24  C   UNL     1      19.620  29.356  53.427  1.00  0.00     0.197 A 
ATOM     25  C   UNL     1      19.693  31.754  53.214  1.00  0.00     0.138 A 
ATOM     26  C   UNL     1      18.976  30.587  53.503  1.00  0.00     0.100 A 
ATOM     27  O   UNL     1      18.968  28.311  53.699  1.00  0.00    -0.289 OA
BRANCH  18  28
ATOM     28  O   UNL     1      23.685  31.689  51.981  1.00  0.00    -0.490 OA
ATOM     29  C   UNL     1      23.757  32.217  50.661  1.00  0.00     0.278 C 
ENDBRANCH  18  28
BRANCH  21  30
ATOM     30  O   UNL     1      21.067  26.864  53.217  1.00  0.00    -0.507 OA
ATOM     31  H   UNL     1      20.811  26.584  54.156  1.00  0.00     0.293 HD
ENDBRANCH  21  30
BRANCH  25  32
ATOM     32  C   UNL     1      19.055  33.089  53.288  1.00  0.00     0.017 A 
ATOM     33  C   UNL     1      19.595  34.160  52.554  1.00  0.00     0.012 A 
ATOM     34  C   UNL     1      17.900  33.308  54.063  1.00  0.00     0.012 A 
ATOM     35  C   UNL     1      19.000  35.425  52.604  1.00  0.00     0.001 A 
ATOM     36  C   UNL     1      17.308  34.574  54.108  1.00  0.00     0.001 A 
ATOM     37  C   UNL     1      17.857  35.631  53.380  1.00  0.00     0.000 A 
ENDBRANCH  25  32
ENDBRANCH   1  17
TORSDOF 9
ENDMDL
MODEL 9
REMARK VINA RESULT:    -4.360     13.183     16.039
REMARK INTER + INTRA:          -7.424
REMARK INTER:                  -6.328
REMARK INTRA:                  -1.096
REMARK UNBOUND:                -1.280
REMARK SMILES COc1c(O[C@@H]2O[C@@H](C(=O)[O-])[C@@H](O)[C@H](O)[C@H]2O)cc(O)c2c(=O)cc(-c3ccccc3)oc12
REMARK SMILES IDX 5 1 6 2 8 3 12 4 7 5 14 6 16 7 9 8 10 9 11 10 13 11 15 13
REMARK SMILES IDX 17 15 4 17 3 18 18 19 33 20 19 21 21 22 32 23 22 24 25 25
REMARK SMILES IDX 24 26 23 27 2 28 1 29 20 30 26 32 27 33 31 34 28 35 30 36
REMARK SMILES IDX 29 37
REMARK H PARENT 13 12 15 14 17 16 20 31
REMARK Flexibility Score: inf
ROOT
ATOM      1  O   UNL     1      26.420  27.917  40.707  1.00  0.00    -0.458 OA
ENDROOT
BRANCH   1   2
ATOM      2  C   UNL     1      25.346  27.232  40.062  1.00  0.00     0.339 C 
ATOM      3  C   UNL     1      23.370  25.995  40.500  1.00  0.00     0.199 C 
ATOM      4  C   UNL     1      23.834  24.813  39.609  1.00  0.00     0.180 C 
ATOM      5  O   UNL     1      24.468  26.714  41.054  1.00  0.00    -0.328 OA
ATOM      6  C   UNL     1      24.857  25.262  38.547  1.00  0.00     0.181 C 
ATOM      7  C   UNL     1      25.961  26.096  39.220  1.00  0.00     0.214 C 
BRANCH   3   8
ATOM      8  C   UNL     1      22.351  26.914  39.859  1.00  0.00     0.073 C 
ATOM      9  O   UNL     1      22.015  27.977  40.444  1.00  0.00    -0.547 OA
ATOM     10  O   UNL     1      21.780  26.613  38.629  1.00  0.00    -0.547 OA
ENDBRANCH   3   8
BRANCH   4  11
ATOM     11  O   UNL     1      22.745  24.134  39.031  1.00  0.00    -0.387 OA
ATOM     12  H   UNL     1      22.665  24.427  38.088  1.00  0.00     0.211 HD
ENDBRANCH   4  11
BRANCH   6  13
ATOM     13  O   UNL     1      25.402  24.152  37.875  1.00  0.00    -0.387 OA
ATOM     14  H   UNL     1      24.865  23.353  38.117  1.00  0.00     0.211 HD
ENDBRANCH   6  13
BRANCH   7  15
ATOM     15  O   UNL     1      26.853  26.608  38.260  1.00  0.00    -0.384 OA
ATOM     16  H   UNL     1      27.766  26.301  38.501  1.00  0.00     0.211 HD
ENDBRANCH   7  15
ENDBRANCH   1   2
BRANCH   1  17
ATOM     17  C   UNL     1      26.949  29.164  40.336  1.00  0.00     0.172 A 
ATOM     18  C   UNL     1      26.172  30.340  40.229  1.00  0.00     0.205 A 
ATOM     19  C   UNL     1      28.322  29.213  40.091  1.00  0.00     0.097 A 
ATOM     20  C   UNL     1      26.791  31.540  39.792  1.00  0.00     0.188 A 
ATOM     21  C   UNL     1      28.948  30.395  39.693  1.00  0.00     0.134 A 
ATOM     22  C   UNL     1      28.186  31.570  39.530  1.00  0.00     0.111 A 
ATOM     23  O   UNL     1      26.068  32.645  39.624  1.00  0.00    -0.452 OA
ATOM     24  C   UNL     1      28.755  32.791  39.112  1.00  0.00     0.197 A 
ATOM     25  C   UNL     1      26.577  33.812  39.239  1.00  0.00     0.138 A 
ATOM     26  C   UNL     1      27.947  33.915  38.971  1.00  0.00     0.100 A 
ATOM     27  O   UNL     1      29.986  32.891  38.858  1.00  0.00    -0.289 OA
BRANCH  18  28
ATOM     28  O   UNL     1      24.816  30.276  40.600  1.00  0.00    -0.490 OA
ATOM     29  C   UNL     1      24.289  30.485  41.906  1.00  0.00     0.278 C 
ENDBRANCH  18  28
BRANCH  21  30
ATOM     30  O   UNL     1      30.324  30.390  39.459  1.00  0.00    -0.507 OA
ATOM     31  H   UNL     1      30.714  30.642  38.558  1.00  0.00     0.293 HD
ENDBRANCH  21  30
BRANCH  25  32
ATOM     32  C   UNL     1      25.675  34.978  39.097  1.00  0.00     0.017 A 
ATOM     33  C   UNL     1      25.907  36.136  39.861  1.00  0.00     0.012 A 
ATOM     34  C   UNL     1      24.594  34.963  38.195  1.00  0.00     0.012 A 
ATOM     35  C   UNL     1      25.071  37.249  39.733  1.00  0.00     0.001 A 
ATOM     36  C   UNL     1      23.761  36.080  38.069  1.00  0.00     0.001 A 
ATOM     37  C   UNL     1      23.999  37.221  38.838  1.00  0.00     0.000 A 
ENDBRANCH  25  32
ENDBRANCH   1  17
TORSDOF 9
ENDMDL
