MODEL 1
REMARK VINA RESULT:    -7.037      0.000      0.000
REMARK INTER + INTRA:          -8.485
REMARK INTER:                  -8.271
REMARK INTRA:                  -0.214
REMARK UNBOUND:                -0.214
REMARK SMILES O=c1c(O)c(-c2ccc(O)cc2)oc2cc(O)cc(O)c12
REMARK SMILES IDX 5 1 3 2 2 3 1 4 21 5 19 6 18 7 16 8 15 9 14 10 13 11 6 12
REMARK SMILES IDX 7 13 8 14 9 15 12 16 11 17 10 18 4 20 20 22 17 24
REMARK H PARENT 10 19 4 21 20 23 17 25
REMARK Flexibility Score: inf
ROOT
ATOM      1  C   UNL     1      98.181 104.330 116.174  1.00  0.00     0.180 A 
ATOM      2  C   UNL     1      98.281 103.122 115.457  1.00  0.00     0.208 A 
ATOM      3  C   UNL     1      98.313 101.912 116.167  1.00  0.00     0.238 A 
ATOM      4  O   UNL     1      98.414 100.824 115.537  1.00  0.00    -0.285 OA
ATOM      5  C   UNL     1      98.224 101.927 117.574  1.00  0.00     0.111 A 
ATOM      6  C   UNL     1      98.244 100.752 118.364  1.00  0.00     0.134 A 
ATOM      7  C   UNL     1      98.142 100.851 119.760  1.00  0.00     0.093 A 
ATOM      8  C   UNL     1      98.018 102.100 120.379  1.00  0.00     0.123 A 
ATOM      9  C   UNL     1      97.998 103.261 119.605  1.00  0.00     0.094 A 
ATOM     10  C   UNL     1      98.100 103.184 118.212  1.00  0.00     0.146 A 
ATOM     11  O   UNL     1      98.083 104.304 117.500  1.00  0.00    -0.452 OA
ENDROOT
BRANCH   1  12
ATOM     12  C   UNL     1      98.161 105.647 115.498  1.00  0.00     0.021 A 
ATOM     13  C   UNL     1      97.001 106.058 114.821  1.00  0.00     0.016 A 
ATOM     14  C   UNL     1      96.952 107.307 114.194  1.00  0.00     0.047 A 
ATOM     15  C   UNL     1      98.054 108.166 114.250  1.00  0.00     0.115 A 
ATOM     16  C   UNL     1      99.260 106.523 115.567  1.00  0.00     0.016 A 
ATOM     17  C   UNL     1      99.207 107.773 114.941  1.00  0.00     0.047 A 
BRANCH  15  18
ATOM     18  O   UNL     1      97.992 109.408 113.621  1.00  0.00    -0.508 OA
ATOM     19  H   UNL     1      97.997 109.492 112.611  1.00  0.00     0.293 HD
ENDBRANCH  15  18
ENDBRANCH   1  12
BRANCH   2  20
ATOM     20  O   UNL     1      98.318 103.131 114.060  1.00  0.00    -0.502 OA
ATOM     21  H   UNL     1      98.179 102.293 113.508  1.00  0.00     0.293 HD
ENDBRANCH   2  20
BRANCH   6  22
ATOM     22  O   UNL     1      98.365  99.493 117.776  1.00  0.00    -0.507 OA
ATOM     23  H   UNL     1      98.235  99.355 116.780  1.00  0.00     0.293 HD
ENDBRANCH   6  22
BRANCH   8  24
ATOM     24  O   UNL     1      97.914 102.197 121.765  1.00  0.00    -0.508 OA
ATOM     25  H   UNL     1      98.047 101.391 122.365  1.00  0.00     0.293 HD
ENDBRANCH   8  24
TORSDOF 5
ENDMDL
MODEL 2
REMARK VINA RESULT:    -7.017     10.925     12.331
REMARK INTER + INTRA:          -8.461
REMARK INTER:                  -8.229
REMARK INTRA:                  -0.232
REMARK UNBOUND:                -0.214
REMARK SMILES O=c1c(O)c(-c2ccc(O)cc2)oc2cc(O)cc(O)c12
REMARK SMILES IDX 5 1 3 2 2 3 1 4 21 5 19 6 18 7 16 8 15 9 14 10 13 11 6 12
REMARK SMILES IDX 7 13 8 14 9 15 12 16 11 17 10 18 4 20 20 22 17 24
REMARK H PARENT 10 19 4 21 20 23 17 25
REMARK Flexibility Score: inf
ROOT
ATOM      1  C   UNL     1     109.138 103.155 116.239  1.00  0.00     0.180 A 
ATOM      2  C   UNL     1     109.066 104.360 115.513  1.00  0.00     0.208 A 
ATOM      3  C   UNL     1     109.056 105.575 116.215  1.00  0.00     0.238 A 
ATOM      4  O   UNL     1     108.981 106.660 115.576  1.00  0.00    -0.285 OA
ATOM      5  C   UNL     1     109.139 105.568 117.622  1.00  0.00     0.111 A 
ATOM      6  C   UNL     1     109.140 106.749 118.404  1.00  0.00     0.134 A 
ATOM      7  C   UNL     1     109.233 106.658 119.801  1.00  0.00     0.093 A 
ATOM      8  C   UNL     1     109.328 105.411 120.429  1.00  0.00     0.123 A 
ATOM      9  C   UNL     1     109.328 104.245 119.663  1.00  0.00     0.094 A 
ATOM     10  C   UNL     1     109.233 104.314 118.269  1.00  0.00     0.146 A 
ATOM     11  O   UNL     1     109.230 103.188 117.565  1.00  0.00    -0.452 OA
ENDROOT
BRANCH   1  12
ATOM     12  C   UNL     1     109.133 101.833 115.572  1.00  0.00     0.021 A 
ATOM     13  C   UNL     1     110.303 101.371 114.946  1.00  0.00     0.016 A 
ATOM     14  C   UNL     1     110.329 100.117 114.330  1.00  0.00     0.047 A 
ATOM     15  C   UNL     1     109.193  99.303 114.344  1.00  0.00     0.115 A 
ATOM     16  C   UNL     1     107.999 101.002 115.601  1.00  0.00     0.016 A 
ATOM     17  C   UNL     1     108.028  99.746 114.985  1.00  0.00     0.047 A 
BRANCH  15  18
ATOM     18  O   UNL     1     109.231  98.055 113.726  1.00  0.00    -0.508 OA
ATOM     19  H   UNL     1     108.571  97.802 113.000  1.00  0.00     0.293 HD
ENDBRANCH  15  18
ENDBRANCH   1  12
BRANCH   2  20
ATOM     20  O   UNL     1     109.036 104.341 114.116  1.00  0.00    -0.502 OA
ATOM     21  H   UNL     1     109.362 103.548 113.576  1.00  0.00     0.293 HD
ENDBRANCH   2  20
BRANCH   6  22
ATOM     22  O   UNL     1     109.048 108.006 117.806  1.00  0.00    -0.507 OA
ATOM     23  H   UNL     1     109.786 108.695 117.896  1.00  0.00     0.293 HD
ENDBRANCH   6  22
BRANCH   8  24
ATOM     24  O   UNL     1     109.423 105.321 121.816  1.00  0.00    -0.508 OA
ATOM     25  H   UNL     1     108.729 104.827 122.364  1.00  0.00     0.293 HD
ENDBRANCH   8  24
TORSDOF 5
ENDMDL
MODEL 3
REMARK VINA RESULT:    -6.661     11.751     12.880
REMARK INTER + INTRA:          -8.043
REMARK INTER:                  -7.878
REMARK INTRA:                  -0.165
REMARK UNBOUND:                -0.214
REMARK SMILES O=c1c(O)c(-c2ccc(O)cc2)oc2cc(O)cc(O)c12
REMARK SMILES IDX 5 1 3 2 2 3 1 4 21 5 19 6 18 7 16 8 15 9 14 10 13 11 6 12
REMARK SMILES IDX 7 13 8 14 9 15 12 16 11 17 10 18 4 20 20 22 17 24
REMARK H PARENT 10 19 4 21 20 23 17 25
REMARK Flexibility Score: inf
ROOT
ATOM      1  C   UNL     1     109.751 104.377 118.298  1.00  0.00     0.180 A 
ATOM      2  C   UNL     1     110.976 104.908 117.852  1.00  0.00     0.208 A 
ATOM      3  C   UNL     1     111.655 104.262 116.806  1.00  0.00     0.238 A 
ATOM      4  O   UNL     1     112.759 104.721 116.406  1.00  0.00    -0.285 OA
ATOM      5  C   UNL     1     111.090 103.115 116.213  1.00  0.00     0.111 A 
ATOM      6  C   UNL     1     111.706 102.408 115.152  1.00  0.00     0.134 A 
ATOM      7  C   UNL     1     111.075 101.279 114.608  1.00  0.00     0.093 A 
ATOM      8  C   UNL     1     109.841 100.846 115.104  1.00  0.00     0.123 A 
ATOM      9  C   UNL     1     109.229 101.538 116.150  1.00  0.00     0.094 A 
ATOM     10  C   UNL     1     109.843 102.665 116.707  1.00  0.00     0.146 A 
ATOM     11  O   UNL     1     109.241 103.302 117.704  1.00  0.00    -0.452 OA
ENDROOT
BRANCH   1  12
ATOM     12  C   UNL     1     108.986 104.989 119.408  1.00  0.00     0.021 A 
ATOM     13  C   UNL     1     108.901 104.321 120.641  1.00  0.00     0.016 A 
ATOM     14  C   UNL     1     108.203 104.890 121.709  1.00  0.00     0.047 A 
ATOM     15  C   UNL     1     107.595 106.141 121.566  1.00  0.00     0.115 A 
ATOM     16  C   UNL     1     108.388 106.256 119.275  1.00  0.00     0.016 A 
ATOM     17  C   UNL     1     107.692 106.825 120.347  1.00  0.00     0.047 A 
BRANCH  15  18
ATOM     18  O   UNL     1     106.902 106.698 122.638  1.00  0.00    -0.508 OA
ATOM     19  H   UNL     1     106.921 107.694 122.822  1.00  0.00     0.293 HD
ENDBRANCH  15  18
ENDBRANCH   1  12
BRANCH   2  20
ATOM     20  O   UNL     1     111.491 106.075 118.424  1.00  0.00    -0.502 OA
ATOM     21  H   UNL     1     112.433 106.399 118.240  1.00  0.00     0.293 HD
ENDBRANCH   2  20
BRANCH   6  22
ATOM     22  O   UNL     1     112.937 102.818 114.636  1.00  0.00    -0.507 OA
ATOM     23  H   UNL     1     113.141 103.794 114.455  1.00  0.00     0.293 HD
ENDBRANCH   6  22
BRANCH   8  24
ATOM     24  O   UNL     1     109.213  99.725 114.563  1.00  0.00    -0.508 OA
ATOM     25  H   UNL     1     109.394  99.423 113.613  1.00  0.00     0.293 HD
ENDBRANCH   8  24
TORSDOF 5
ENDMDL
MODEL 4
REMARK VINA RESULT:    -6.581      2.064      2.369
REMARK INTER + INTRA:          -7.949
REMARK INTER:                  -7.673
REMARK INTRA:                  -0.276
REMARK UNBOUND:                -0.214
REMARK SMILES O=c1c(O)c(-c2ccc(O)cc2)oc2cc(O)cc(O)c12
REMARK SMILES IDX 5 1 3 2 2 3 1 4 21 5 19 6 18 7 16 8 15 9 14 10 13 11 6 12
REMARK SMILES IDX 7 13 8 14 9 15 12 16 11 17 10 18 4 20 20 22 17 24
REMARK H PARENT 10 19 4 21 20 23 17 25
REMARK Flexibility Score: inf
ROOT
ATOM      1  C   UNL     1      98.606 103.843 116.112  1.00  0.00     0.180 A 
ATOM      2  C   UNL     1      97.265 103.447 116.280  1.00  0.00     0.208 A 
ATOM      3  C   UNL     1      96.963 102.465 117.237  1.00  0.00     0.238 A 
ATOM      4  O   UNL     1      95.767 102.094 117.388  1.00  0.00    -0.285 OA
ATOM      5  C   UNL     1      97.997 101.915 118.021  1.00  0.00     0.111 A 
ATOM      6  C   UNL     1      97.776 100.925 119.010  1.00  0.00     0.134 A 
ATOM      7  C   UNL     1      98.858 100.433 119.755  1.00  0.00     0.093 A 
ATOM      8  C   UNL     1     100.153 100.912 119.531  1.00  0.00     0.123 A 
ATOM      9  C   UNL     1     100.376 101.887 118.559  1.00  0.00     0.094 A 
ATOM     10  C   UNL     1      99.312 102.389 117.803  1.00  0.00     0.146 A 
ATOM     11  O   UNL     1      99.553 103.313 116.881  1.00  0.00    -0.452 OA
ENDROOT
BRANCH   1  12
ATOM     12  C   UNL     1      99.007 104.858 115.111  1.00  0.00     0.021 A 
ATOM     13  C   UNL     1      99.304 106.165 115.532  1.00  0.00     0.016 A 
ATOM     14  C   UNL     1      99.706 107.133 114.608  1.00  0.00     0.047 A 
ATOM     15  C   UNL     1      99.832 106.805 113.255  1.00  0.00     0.115 A 
ATOM     16  C   UNL     1      99.154 104.528 113.752  1.00  0.00     0.016 A 
ATOM     17  C   UNL     1      99.559 105.499 112.829  1.00  0.00     0.047 A 
BRANCH  15  18
ATOM     18  O   UNL     1     100.233 107.779 112.343  1.00  0.00    -0.508 OA
ATOM     19  H   UNL     1     101.028 108.381 112.526  1.00  0.00     0.293 HD
ENDBRANCH  15  18
ENDBRANCH   1  12
BRANCH   2  20
ATOM     20  O   UNL     1      96.252 104.044 115.525  1.00  0.00    -0.502 OA
ATOM     21  H   UNL     1      95.481 103.514 115.136  1.00  0.00     0.293 HD
ENDBRANCH   2  20
BRANCH   6  22
ATOM     22  O   UNL     1      96.495 100.429 119.256  1.00  0.00    -0.507 OA
ATOM     23  H   UNL     1      96.209 100.125 120.179  1.00  0.00     0.293 HD
ENDBRANCH   6  22
BRANCH   8  24
ATOM     24  O   UNL     1     101.228 100.424 120.273  1.00  0.00    -0.508 OA
ATOM     25  H   UNL     1     101.172  99.543 120.770  1.00  0.00     0.293 HD
ENDBRANCH   8  24
TORSDOF 5
ENDMDL
MODEL 5
REMARK VINA RESULT:    -6.579      2.133      6.683
REMARK INTER + INTRA:          -7.946
REMARK INTER:                  -7.759
REMARK INTRA:                  -0.188
REMARK UNBOUND:                -0.214
REMARK SMILES O=c1c(O)c(-c2ccc(O)cc2)oc2cc(O)cc(O)c12
REMARK SMILES IDX 5 1 3 2 2 3 1 4 21 5 19 6 18 7 16 8 15 9 14 10 13 11 6 12
REMARK SMILES IDX 7 13 8 14 9 15 12 16 11 17 10 18 4 20 20 22 17 24
REMARK H PARENT 10 19 4 21 20 23 17 25
REMARK Flexibility Score: inf
ROOT
ATOM      1  C   UNL     1      98.092 102.732 118.494  1.00  0.00     0.180 A 
ATOM      2  C   UNL     1      96.841 102.224 118.094  1.00  0.00     0.208 A 
ATOM      3  C   UNL     1      96.131 102.891 117.083  1.00  0.00     0.238 A 
ATOM      4  O   UNL     1      95.004 102.452 116.723  1.00  0.00    -0.285 OA
ATOM      5  C   UNL     1      96.689 104.035 116.477  1.00  0.00     0.111 A 
ATOM      6  C   UNL     1      96.041 104.762 115.449  1.00  0.00     0.134 A 
ATOM      7  C   UNL     1      96.666 105.887 114.891  1.00  0.00     0.093 A 
ATOM      8  C   UNL     1      97.927 106.296 115.341  1.00  0.00     0.123 A 
ATOM      9  C   UNL     1      98.570 105.584 116.353  1.00  0.00     0.094 A 
ATOM     10  C   UNL     1      97.962 104.461 116.924  1.00  0.00     0.146 A 
ATOM     11  O   UNL     1      98.594 103.805 117.890  1.00  0.00    -0.452 OA
ENDROOT
BRANCH   1  12
ATOM     12  C   UNL     1      98.892 102.096 119.566  1.00  0.00     0.021 A 
ATOM     13  C   UNL     1      98.995 102.726 120.817  1.00  0.00     0.016 A 
ATOM     14  C   UNL     1      99.727 102.134 121.851  1.00  0.00     0.047 A 
ATOM     15  C   UNL     1     100.351 100.899 121.652  1.00  0.00     0.115 A 
ATOM     16  C   UNL     1      99.506 100.845 119.378  1.00  0.00     0.016 A 
ATOM     17  C   UNL     1     100.236 100.253 120.415  1.00  0.00     0.047 A 
BRANCH  15  18
ATOM     18  O   UNL     1     101.078 100.319 122.690  1.00  0.00    -0.508 OA
ATOM     19  H   UNL     1     101.829 100.817 123.154  1.00  0.00     0.293 HD
ENDBRANCH  15  18
ENDBRANCH   1  12
BRANCH   2  20
ATOM     20  O   UNL     1      96.333 101.060 118.675  1.00  0.00    -0.502 OA
ATOM     21  H   UNL     1      96.827 100.555 119.402  1.00  0.00     0.293 HD
ENDBRANCH   2  20
BRANCH   6  22
ATOM     22  O   UNL     1      94.784 104.376 114.980  1.00  0.00    -0.507 OA
ATOM     23  H   UNL     1      94.504 104.530 114.019  1.00  0.00     0.293 HD
ENDBRANCH   6  22
BRANCH   8  24
ATOM     24  O   UNL     1      98.549 107.413 114.785  1.00  0.00    -0.508 OA
ATOM     25  H   UNL     1      98.829 107.434 113.811  1.00  0.00     0.293 HD
ENDBRANCH   8  24
TORSDOF 5
ENDMDL
MODEL 6
REMARK VINA RESULT:    -6.557      5.730      8.116
REMARK INTER + INTRA:          -7.920
REMARK INTER:                  -7.787
REMARK INTRA:                  -0.133
REMARK UNBOUND:                -0.214
REMARK SMILES O=c1c(O)c(-c2ccc(O)cc2)oc2cc(O)cc(O)c12
REMARK SMILES IDX 5 1 3 2 2 3 1 4 21 5 19 6 18 7 16 8 15 9 14 10 13 11 6 12
REMARK SMILES IDX 7 13 8 14 9 15 12 16 11 17 10 18 4 20 20 22 17 24
REMARK H PARENT 10 19 4 21 20 23 17 25
REMARK Flexibility Score: inf
ROOT
ATOM      1  C   UNL     1     100.867 104.869 111.582  1.00  0.00     0.180 A 
ATOM      2  C   UNL     1     101.054 103.569 112.088  1.00  0.00     0.208 A 
ATOM      3  C   UNL     1     101.962 102.714 111.443  1.00  0.00     0.238 A 
ATOM      4  O   UNL     1     102.130 101.543 111.881  1.00  0.00    -0.285 OA
ATOM      5  C   UNL     1     102.680 103.177 110.323  1.00  0.00     0.111 A 
ATOM      6  C   UNL     1     103.617 102.382 109.619  1.00  0.00     0.134 A 
ATOM      7  C   UNL     1     104.298 102.920 108.517  1.00  0.00     0.093 A 
ATOM      8  C   UNL     1     104.062 104.236 108.108  1.00  0.00     0.123 A 
ATOM      9  C   UNL     1     103.140 105.025 108.797  1.00  0.00     0.094 A 
ATOM     10  C   UNL     1     102.449 104.507 109.897  1.00  0.00     0.146 A 
ATOM     11  O   UNL     1     101.574 105.277 110.532  1.00  0.00    -0.452 OA
ENDROOT
BRANCH   1  12
ATOM     12  C   UNL     1      99.914 105.823 112.194  1.00  0.00     0.021 A 
ATOM     13  C   UNL     1     100.384 107.052 112.683  1.00  0.00     0.016 A 
ATOM     14  C   UNL     1      99.499 107.977 113.245  1.00  0.00     0.047 A 
ATOM     15  C   UNL     1      98.132 107.692 113.311  1.00  0.00     0.115 A 
ATOM     16  C   UNL     1      98.535 105.549 112.245  1.00  0.00     0.016 A 
ATOM     17  C   UNL     1      97.651 106.477 112.806  1.00  0.00     0.047 A 
BRANCH  15  18
ATOM     18  O   UNL     1      97.260 108.621 113.874  1.00  0.00    -0.508 OA
ATOM     19  H   UNL     1      97.367 109.615 113.709  1.00  0.00     0.293 HD
ENDBRANCH  15  18
ENDBRANCH   1  12
BRANCH   2  20
ATOM     20  O   UNL     1     100.366 103.150 113.230  1.00  0.00    -0.502 OA
ATOM     21  H   UNL     1     100.627 103.452 114.162  1.00  0.00     0.293 HD
ENDBRANCH   2  20
BRANCH   6  22
ATOM     22  O   UNL     1     103.874 101.066 110.005  1.00  0.00    -0.507 OA
ATOM     23  H   UNL     1     104.239 100.380 109.354  1.00  0.00     0.293 HD
ENDBRANCH   6  22
BRANCH   8  24
ATOM     24  O   UNL     1     104.741 104.771 107.014  1.00  0.00    -0.508 OA
ATOM     25  H   UNL     1     104.250 105.071 106.180  1.00  0.00     0.293 HD
ENDBRANCH   8  24
TORSDOF 5
ENDMDL
MODEL 7
REMARK VINA RESULT:    -6.544      4.946      7.103
REMARK INTER + INTRA:          -7.905
REMARK INTER:                  -7.608
REMARK INTRA:                  -0.297
REMARK UNBOUND:                -0.214
REMARK SMILES O=c1c(O)c(-c2ccc(O)cc2)oc2cc(O)cc(O)c12
REMARK SMILES IDX 5 1 3 2 2 3 1 4 21 5 19 6 18 7 16 8 15 9 14 10 13 11 6 12
REMARK SMILES IDX 7 13 8 14 9 15 12 16 11 17 10 18 4 20 20 22 17 24
REMARK H PARENT 10 19 4 21 20 23 17 25
REMARK Flexibility Score: inf
ROOT
ATOM      1  C   UNL     1     101.086 105.283 111.573  1.00  0.00     0.180 A 
ATOM      2  C   UNL     1     100.651 104.167 112.313  1.00  0.00     0.208 A 
ATOM      3  C   UNL     1      99.735 104.362 113.358  1.00  0.00     0.238 A 
ATOM      4  O   UNL     1      99.346 103.371 114.036  1.00  0.00    -0.285 OA
ATOM      5  C   UNL     1      99.254 105.659 113.631  1.00  0.00     0.111 A 
ATOM      6  C   UNL     1      98.326 105.939 114.663  1.00  0.00     0.134 A 
ATOM      7  C   UNL     1      97.889 107.257 114.867  1.00  0.00     0.093 A 
ATOM      8  C   UNL     1      98.361 108.296 114.057  1.00  0.00     0.123 A 
ATOM      9  C   UNL     1      99.276 108.025 113.039  1.00  0.00     0.094 A 
ATOM     10  C   UNL     1      99.725 106.719 112.821  1.00  0.00     0.146 A 
ATOM     11  O   UNL     1     100.599 106.490 111.849  1.00  0.00    -0.452 OA
ENDROOT
BRANCH   1  12
ATOM     12  C   UNL     1     102.065 105.162 110.468  1.00  0.00     0.021 A 
ATOM     13  C   UNL     1     101.605 104.981 109.154  1.00  0.00     0.016 A 
ATOM     14  C   UNL     1     102.510 104.886 108.093  1.00  0.00     0.047 A 
ATOM     15  C   UNL     1     103.884 104.987 108.329  1.00  0.00     0.115 A 
ATOM     16  C   UNL     1     103.448 105.283 110.698  1.00  0.00     0.016 A 
ATOM     17  C   UNL     1     104.351 105.190 109.634  1.00  0.00     0.047 A 
BRANCH  15  18
ATOM     18  O   UNL     1     104.776 104.891 107.264  1.00  0.00    -0.508 OA
ATOM     19  H   UNL     1     105.683 105.342 107.289  1.00  0.00     0.293 HD
ENDBRANCH  15  18
ENDBRANCH   1  12
BRANCH   2  20
ATOM     20  O   UNL     1     101.105 102.885 111.990  1.00  0.00    -0.502 OA
ATOM     21  H   UNL     1     100.569 102.051 112.200  1.00  0.00     0.293 HD
ENDBRANCH   2  20
BRANCH   6  22
ATOM     22  O   UNL     1      97.837 104.923 115.485  1.00  0.00    -0.507 OA
ATOM     23  H   UNL     1      97.199 105.116 116.249  1.00  0.00     0.293 HD
ENDBRANCH   6  22
BRANCH   8  24
ATOM     24  O   UNL     1      97.925 109.605 114.258  1.00  0.00    -0.508 OA
ATOM     25  H   UNL     1      98.202 110.357 113.638  1.00  0.00     0.293 HD
ENDBRANCH   8  24
TORSDOF 5
ENDMDL
MODEL 8
REMARK VINA RESULT:    -6.542      9.398     11.743
REMARK INTER + INTRA:          -7.903
REMARK INTER:                  -7.756
REMARK INTRA:                  -0.147
REMARK UNBOUND:                -0.214
REMARK SMILES O=c1c(O)c(-c2ccc(O)cc2)oc2cc(O)cc(O)c12
REMARK SMILES IDX 5 1 3 2 2 3 1 4 21 5 19 6 18 7 16 8 15 9 14 10 13 11 6 12
REMARK SMILES IDX 7 13 8 14 9 15 12 16 11 17 10 18 4 20 20 22 17 24
REMARK H PARENT 10 19 4 21 20 23 17 25
REMARK Flexibility Score: inf
ROOT
ATOM      1  C   UNL     1     106.426 102.496 111.546  1.00  0.00     0.180 A 
ATOM      2  C   UNL     1     106.226 103.813 112.001  1.00  0.00     0.208 A 
ATOM      3  C   UNL     1     105.305 104.631 111.329  1.00  0.00     0.238 A 
ATOM      4  O   UNL     1     105.126 105.817 111.721  1.00  0.00    -0.285 OA
ATOM      5  C   UNL     1     104.585 104.116 110.232  1.00  0.00     0.111 A 
ATOM      6  C   UNL     1     103.636 104.872 109.504  1.00  0.00     0.134 A 
ATOM      7  C   UNL     1     102.954 104.283 108.428  1.00  0.00     0.093 A 
ATOM      8  C   UNL     1     103.204 102.954 108.069  1.00  0.00     0.123 A 
ATOM      9  C   UNL     1     104.139 102.204 108.783  1.00  0.00     0.094 A 
ATOM     10  C   UNL     1     104.830 102.773 109.857  1.00  0.00     0.146 A 
ATOM     11  O   UNL     1     105.718 102.038 110.517  1.00  0.00    -0.452 OA
ENDROOT
BRANCH   1  12
ATOM     12  C   UNL     1     107.394 101.578 112.189  1.00  0.00     0.021 A 
ATOM     13  C   UNL     1     106.936 100.376 112.753  1.00  0.00     0.016 A 
ATOM     14  C   UNL     1     107.835  99.484 113.346  1.00  0.00     0.047 A 
ATOM     15  C   UNL     1     109.202  99.775 113.370  1.00  0.00     0.115 A 
ATOM     16  C   UNL     1     108.772 101.857 112.199  1.00  0.00     0.016 A 
ATOM     17  C   UNL     1     109.670 100.962 112.791  1.00  0.00     0.047 A 
BRANCH  15  18
ATOM     18  O   UNL     1     110.087  98.878 113.964  1.00  0.00    -0.508 OA
ATOM     19  H   UNL     1     109.757  98.077 114.489  1.00  0.00     0.293 HD
ENDBRANCH  15  18
ENDBRANCH   1  12
BRANCH   2  20
ATOM     20  O   UNL     1     106.916 104.284 113.122  1.00  0.00    -0.502 OA
ATOM     21  H   UNL     1     107.555 103.702 113.650  1.00  0.00     0.293 HD
ENDBRANCH   2  20
BRANCH   6  22
ATOM     22  O   UNL     1     103.365 106.199 109.839  1.00  0.00    -0.507 OA
ATOM     23  H   UNL     1     103.733 106.621 110.684  1.00  0.00     0.293 HD
ENDBRANCH   6  22
BRANCH   8  24
ATOM     24  O   UNL     1     102.525 102.369 107.001  1.00  0.00    -0.508 OA
ATOM     25  H   UNL     1     102.988 102.176 106.121  1.00  0.00     0.293 HD
ENDBRANCH   8  24
TORSDOF 5
ENDMDL
MODEL 9
REMARK VINA RESULT:    -6.524     10.448     11.734
REMARK INTER + INTRA:          -7.881
REMARK INTER:                  -7.600
REMARK INTRA:                  -0.282
REMARK UNBOUND:                -0.214
REMARK SMILES O=c1c(O)c(-c2ccc(O)cc2)oc2cc(O)cc(O)c12
REMARK SMILES IDX 5 1 3 2 2 3 1 4 21 5 19 6 18 7 16 8 15 9 14 10 13 11 6 12
REMARK SMILES IDX 7 13 8 14 9 15 12 16 11 17 10 18 4 20 20 22 17 24
REMARK H PARENT 10 19 4 21 20 23 17 25
REMARK Flexibility Score: inf
ROOT
ATOM      1  C   UNL     1     108.780 103.495 115.979  1.00  0.00     0.180 A 
ATOM      2  C   UNL     1     110.128 103.870 116.140  1.00  0.00     0.208 A 
ATOM      3  C   UNL     1     110.450 104.853 117.090  1.00  0.00     0.238 A 
ATOM      4  O   UNL     1     111.652 105.205 117.236  1.00  0.00    -0.285 OA
ATOM      5  C   UNL     1     109.428 105.425 117.875  1.00  0.00     0.111 A 
ATOM      6  C   UNL     1     109.668 106.416 118.857  1.00  0.00     0.134 A 
ATOM      7  C   UNL     1     108.597 106.930 119.602  1.00  0.00     0.093 A 
ATOM      8  C   UNL     1     107.293 106.471 119.386  1.00  0.00     0.123 A 
ATOM      9  C   UNL     1     107.050 105.495 118.419  1.00  0.00     0.094 A 
ATOM     10  C   UNL     1     108.104 104.970 117.664  1.00  0.00     0.146 A 
ATOM     11  O   UNL     1     107.845 104.046 116.747  1.00  0.00    -0.452 OA
ENDROOT
BRANCH   1  12
ATOM     12  C   UNL     1     108.359 102.482 114.984  1.00  0.00     0.021 A 
ATOM     13  C   UNL     1     108.066 101.176 115.411  1.00  0.00     0.016 A 
ATOM     14  C   UNL     1     107.645 100.209 114.494  1.00  0.00     0.047 A 
ATOM     15  C   UNL     1     107.497 100.537 113.143  1.00  0.00     0.115 A 
ATOM     16  C   UNL     1     108.190 102.812 113.628  1.00  0.00     0.016 A 
ATOM     17  C   UNL     1     107.767 101.843 112.712  1.00  0.00     0.047 A 
BRANCH  15  18
ATOM     18  O   UNL     1     107.078  99.564 112.239  1.00  0.00    -0.508 OA
ATOM     19  H   UNL     1     106.748  99.809 111.312  1.00  0.00     0.293 HD
ENDBRANCH  15  18
ENDBRANCH   1  12
BRANCH   2  20
ATOM     20  O   UNL     1     111.128 103.252 115.385  1.00  0.00    -0.502 OA
ATOM     21  H   UNL     1     112.068 103.114 115.739  1.00  0.00     0.293 HD
ENDBRANCH   2  20
BRANCH   6  22
ATOM     22  O   UNL     1     110.957 106.892 119.096  1.00  0.00    -0.507 OA
ATOM     23  H   UNL     1     111.132 107.660 119.734  1.00  0.00     0.293 HD
ENDBRANCH   6  22
BRANCH   8  24
ATOM     24  O   UNL     1     106.229 106.981 120.128  1.00  0.00    -0.508 OA
ATOM     25  H   UNL     1     106.070 106.700 121.089  1.00  0.00     0.293 HD
ENDBRANCH   8  24
TORSDOF 5
ENDMDL
