MODEL 1
REMARK VINA RESULT:    -3.718      0.000      0.000
REMARK INTER + INTRA:          -9.156
REMARK INTER:                  -6.762
REMARK INTRA:                  -2.394
REMARK UNBOUND:                -2.394
REMARK SMILES CCCCCCCCCCCCCCCC(=O)[O-]
REMARK SMILES IDX 9 1 10 2 11 3 12 4 13 5 14 6 15 7 16 8 17 9 18 10 8 11 7 12
REMARK SMILES IDX 6 13 5 14 4 15 3 16 2 17 1 18
REMARK H PARENT
REMARK Flexibility Score: inf
ROOT
ATOM      1  C   UNL     1     -13.116   7.750 -21.423  1.00  0.00     0.000 C 
ENDROOT
BRANCH   1   2
ATOM      2  C   UNL     1     -12.766   8.111 -19.967  1.00  0.00     0.000 C 
BRANCH   2   3
ATOM      3  C   UNL     1     -11.867   7.065 -19.290  1.00  0.00     0.000 C 
BRANCH   3   4
ATOM      4  C   UNL     1     -10.710   7.742 -18.538  1.00  0.00     0.000 C 
BRANCH   4   5
ATOM      5  C   UNL     1     -10.682   9.265 -18.740  1.00  0.00     0.000 C 
BRANCH   5   6
ATOM      6  C   UNL     1      -9.363   9.900 -18.278  1.00  0.00     0.006 C 
BRANCH   6   7
ATOM      7  C   UNL     1      -9.003   9.445 -16.859  1.00  0.00     0.053 C 
BRANCH   7   8
ATOM      8  C   UNL     1      -7.973  10.352 -16.264  1.00  0.00     0.041 C 
ATOM      9  O   UNL     1      -8.185  10.910 -15.155  1.00  0.00    -0.550 OA
ATOM     10  O   UNL     1      -6.757  10.541 -16.909  1.00  0.00    -0.550 OA
ENDBRANCH   7   8
ENDBRANCH   6   7
ENDBRANCH   5   6
ENDBRANCH   4   5
ENDBRANCH   3   4
ENDBRANCH   2   3
ENDBRANCH   1   2
BRANCH   1  11
ATOM     11  C   UNL     1     -11.905   7.429 -22.320  1.00  0.00     0.000 C 
BRANCH  11  12
ATOM     12  C   UNL     1     -10.843   8.542 -22.401  1.00  0.00    -0.000 C 
BRANCH  12  13
ATOM     13  C   UNL     1      -9.391   8.014 -22.406  1.00  0.00    -0.000 C 
BRANCH  13  14
ATOM     14  C   UNL     1      -9.281   6.603 -21.802  1.00  0.00    -0.000 C 
BRANCH  14  15
ATOM     15  C   UNL     1      -7.876   6.295 -21.252  1.00  0.00    -0.000 C 
BRANCH  15  16
ATOM     16  C   UNL     1      -7.835   5.880 -19.770  1.00  0.00    -0.000 C 
BRANCH  16  17
ATOM     17  C   UNL     1      -7.125   6.911 -18.880  1.00  0.00    -0.003 C 
ATOM     18  C   UNL     1      -6.524   8.037 -19.716  1.00  0.00     0.004 C 
ENDBRANCH  16  17
ENDBRANCH  15  16
ENDBRANCH  14  15
ENDBRANCH  13  14
ENDBRANCH  12  13
ENDBRANCH  11  12
ENDBRANCH   1  11
TORSDOF 14
ENDMDL
MODEL 2
REMARK VINA RESULT:    -3.616      1.314      1.881
REMARK INTER + INTRA:          -8.971
REMARK INTER:                  -7.249
REMARK INTRA:                  -1.722
REMARK UNBOUND:                -2.394
REMARK SMILES CCCCCCCCCCCCCCCC(=O)[O-]
REMARK SMILES IDX 9 1 10 2 11 3 12 4 13 5 14 6 15 7 16 8 17 9 18 10 8 11 7 12
REMARK SMILES IDX 6 13 5 14 4 15 3 16 2 17 1 18
REMARK H PARENT
REMARK Flexibility Score: inf
ROOT
ATOM      1  C   UNL     1     -12.562   7.501 -20.069  1.00  0.00     0.000 C 
ENDROOT
BRANCH   1   2
ATOM      2  C   UNL     1     -12.516   8.890 -19.404  1.00  0.00     0.000 C 
BRANCH   2   3
ATOM      3  C   UNL     1     -11.113   9.271 -18.908  1.00  0.00     0.000 C 
BRANCH   3   4
ATOM      4  C   UNL     1     -10.166   8.063 -18.966  1.00  0.00     0.000 C 
BRANCH   4   5
ATOM      5  C   UNL     1      -8.925   8.239 -18.075  1.00  0.00     0.000 C 
BRANCH   5   6
ATOM      6  C   UNL     1      -9.130   9.289 -16.975  1.00  0.00     0.006 C 
BRANCH   6   7
ATOM      7  C   UNL     1      -8.092  10.411 -17.087  1.00  0.00     0.053 C 
BRANCH   7   8
ATOM      8  C   UNL     1      -7.869  11.054 -15.755  1.00  0.00     0.041 C 
ATOM      9  O   UNL     1      -8.212  10.459 -14.699  1.00  0.00    -0.550 OA
ATOM     10  O   UNL     1      -7.236  12.288 -15.675  1.00  0.00    -0.550 OA
ENDBRANCH   7   8
ENDBRANCH   6   7
ENDBRANCH   5   6
ENDBRANCH   4   5
ENDBRANCH   3   4
ENDBRANCH   2   3
ENDBRANCH   1   2
BRANCH   1  11
ATOM     11  C   UNL     1     -13.043   7.500 -21.533  1.00  0.00     0.000 C 
BRANCH  11  12
ATOM     12  C   UNL     1     -12.090   6.811 -22.530  1.00  0.00    -0.000 C 
BRANCH  12  13
ATOM     13  C   UNL     1     -10.740   7.541 -22.701  1.00  0.00    -0.000 C 
BRANCH  13  14
ATOM     14  C   UNL     1      -9.543   6.651 -22.322  1.00  0.00    -0.000 C 
BRANCH  14  15
ATOM     15  C   UNL     1      -9.961   5.364 -21.586  1.00  0.00    -0.000 C 
BRANCH  15  16
ATOM     16  C   UNL     1      -9.048   4.959 -20.415  1.00  0.00    -0.000 C 
BRANCH  16  17
ATOM     17  C   UNL     1      -7.580   5.351 -20.638  1.00  0.00    -0.003 C 
ATOM     18  C   UNL     1      -6.768   4.168 -21.158  1.00  0.00     0.004 C 
ENDBRANCH  16  17
ENDBRANCH  15  16
ENDBRANCH  14  15
ENDBRANCH  13  14
ENDBRANCH  12  13
ENDBRANCH  11  12
ENDBRANCH   1  11
TORSDOF 14
ENDMDL
MODEL 3
REMARK VINA RESULT:    -3.587     12.911     15.189
REMARK INTER + INTRA:          -8.917
REMARK INTER:                  -7.036
REMARK INTRA:                  -1.881
REMARK UNBOUND:                -2.394
REMARK SMILES CCCCCCCCCCCCCCCC(=O)[O-]
REMARK SMILES IDX 9 1 10 2 11 3 12 4 13 5 14 6 15 7 16 8 17 9 18 10 8 11 7 12
REMARK SMILES IDX 6 13 5 14 4 15 3 16 2 17 1 18
REMARK H PARENT
REMARK Flexibility Score: inf
ROOT
ATOM      1  C   UNL     1      -4.601  12.818  -6.522  1.00  0.00     0.000 C 
ENDROOT
BRANCH   1   2
ATOM      2  C   UNL     1      -4.476  14.049  -5.604  1.00  0.00     0.000 C 
BRANCH   2   3
ATOM      3  C   UNL     1      -5.792  14.829  -5.464  1.00  0.00     0.000 C 
BRANCH   3   4
ATOM      4  C   UNL     1      -6.979  13.871  -5.281  1.00  0.00     0.000 C 
BRANCH   4   5
ATOM      5  C   UNL     1      -8.333  14.598  -5.277  1.00  0.00     0.000 C 
BRANCH   5   6
ATOM      6  C   UNL     1      -8.614  15.334  -6.595  1.00  0.00     0.006 C 
BRANCH   6   7
ATOM      7  C   UNL     1      -8.659  14.354  -7.772  1.00  0.00     0.053 C 
BRANCH   7   8
ATOM      8  C   UNL     1      -7.899  14.900  -8.938  1.00  0.00     0.041 C 
ATOM      9  O   UNL     1      -6.639  14.900  -8.929  1.00  0.00    -0.550 OA
ATOM     10  O   UNL     1      -8.579  15.364 -10.057  1.00  0.00    -0.550 OA
ENDBRANCH   7   8
ENDBRANCH   6   7
ENDBRANCH   5   6
ENDBRANCH   4   5
ENDBRANCH   3   4
ENDBRANCH   2   3
ENDBRANCH   1   2
BRANCH   1  11
ATOM     11  C   UNL     1      -3.815  11.578  -6.053  1.00  0.00     0.000 C 
BRANCH  11  12
ATOM     12  C   UNL     1      -4.312  10.954  -4.735  1.00  0.00    -0.000 C 
BRANCH  12  13
ATOM     13  C   UNL     1      -5.269   9.759  -4.937  1.00  0.00    -0.000 C 
BRANCH  13  14
ATOM     14  C   UNL     1      -6.728  10.115  -4.602  1.00  0.00    -0.000 C 
BRANCH  14  15
ATOM     15  C   UNL     1      -7.592  10.352  -5.855  1.00  0.00    -0.000 C 
BRANCH  15  16
ATOM     16  C   UNL     1      -9.109  10.224  -5.632  1.00  0.00    -0.000 C 
BRANCH  16  17
ATOM     17  C   UNL     1      -9.634  11.166  -4.539  1.00  0.00    -0.003 C 
ATOM     18  C   UNL     1     -11.158  11.252  -4.573  1.00  0.00     0.004 C 
ENDBRANCH  16  17
ENDBRANCH  15  16
ENDBRANCH  14  15
ENDBRANCH  13  14
ENDBRANCH  12  13
ENDBRANCH  11  12
ENDBRANCH   1  11
TORSDOF 14
ENDMDL
MODEL 4
REMARK VINA RESULT:    -3.551      3.068      4.723
REMARK INTER + INTRA:          -8.852
REMARK INTER:                  -6.524
REMARK INTRA:                  -2.327
REMARK UNBOUND:                -2.394
REMARK SMILES CCCCCCCCCCCCCCCC(=O)[O-]
REMARK SMILES IDX 9 1 10 2 11 3 12 4 13 5 14 6 15 7 16 8 17 9 18 10 8 11 7 12
REMARK SMILES IDX 6 13 5 14 4 15 3 16 2 17 1 18
REMARK H PARENT
REMARK Flexibility Score: inf
ROOT
ATOM      1  C   UNL     1     -11.988   6.898 -22.614  1.00  0.00     0.000 C 
ENDROOT
BRANCH   1   2
ATOM      2  C   UNL     1     -10.514   6.903 -22.166  1.00  0.00     0.000 C 
BRANCH   2   3
ATOM      3  C   UNL     1      -9.699   8.041 -22.800  1.00  0.00     0.000 C 
BRANCH   3   4
ATOM      4  C   UNL     1      -8.648   8.576 -21.815  1.00  0.00     0.000 C 
BRANCH   4   5
ATOM      5  C   UNL     1      -8.750  10.095 -21.606  1.00  0.00     0.000 C 
BRANCH   5   6
ATOM      6  C   UNL     1     -10.073  10.677 -22.124  1.00  0.00     0.006 C 
BRANCH   6   7
ATOM      7  C   UNL     1     -10.444  11.956 -21.365  1.00  0.00     0.053 C 
BRANCH   7   8
ATOM      8  C   UNL     1     -10.434  13.133 -22.288  1.00  0.00     0.041 C 
ATOM      9  O   UNL     1     -10.333  12.963 -23.531  1.00  0.00    -0.550 OA
ATOM     10  O   UNL     1     -10.586  14.417 -21.778  1.00  0.00    -0.550 OA
ENDBRANCH   7   8
ENDBRANCH   6   7
ENDBRANCH   5   6
ENDBRANCH   4   5
ENDBRANCH   3   4
ENDBRANCH   2   3
ENDBRANCH   1   2
BRANCH   1  11
ATOM     11  C   UNL     1     -12.989   7.383 -21.548  1.00  0.00     0.000 C 
BRANCH  11  12
ATOM     12  C   UNL     1     -12.435   7.436 -20.112  1.00  0.00    -0.000 C 
BRANCH  12  13
ATOM     13  C   UNL     1     -12.522   8.836 -19.465  1.00  0.00    -0.000 C 
BRANCH  13  14
ATOM     14  C   UNL     1     -11.176   9.291 -18.874  1.00  0.00    -0.000 C 
BRANCH  14  15
ATOM     15  C   UNL     1     -10.238   8.116 -18.542  1.00  0.00    -0.000 C 
BRANCH  15  16
ATOM     16  C   UNL     1      -8.922   8.510 -17.847  1.00  0.00    -0.000 C 
BRANCH  16  17
ATOM     17  C   UNL     1      -8.820  10.016 -17.572  1.00  0.00    -0.003 C 
ATOM     18  C   UNL     1      -8.472  10.285 -16.110  1.00  0.00     0.004 C 
ENDBRANCH  16  17
ENDBRANCH  15  16
ENDBRANCH  14  15
ENDBRANCH  13  14
ENDBRANCH  12  13
ENDBRANCH  11  12
ENDBRANCH   1  11
TORSDOF 14
ENDMDL
MODEL 5
REMARK VINA RESULT:    -3.529      1.434      3.576
REMARK INTER + INTRA:          -8.812
REMARK INTER:                  -6.290
REMARK INTRA:                  -2.522
REMARK UNBOUND:                -2.394
REMARK SMILES CCCCCCCCCCCCCCCC(=O)[O-]
REMARK SMILES IDX 9 1 10 2 11 3 12 4 13 5 14 6 15 7 16 8 17 9 18 10 8 11 7 12
REMARK SMILES IDX 6 13 5 14 4 15 3 16 2 17 1 18
REMARK H PARENT
REMARK Flexibility Score: inf
ROOT
ATOM      1  C   UNL     1     -10.831   5.631 -22.121  1.00  0.00     0.000 C 
ENDROOT
BRANCH   1   2
ATOM      2  C   UNL     1      -9.467   5.903 -21.458  1.00  0.00     0.000 C 
BRANCH   2   3
ATOM      3  C   UNL     1      -9.392   5.391 -20.011  1.00  0.00     0.000 C 
BRANCH   3   4
ATOM      4  C   UNL     1      -8.009   5.670 -19.403  1.00  0.00     0.000 C 
BRANCH   4   5
ATOM      5  C   UNL     1      -7.488   7.078 -19.734  1.00  0.00     0.000 C 
BRANCH   5   6
ATOM      6  C   UNL     1      -6.725   7.717 -18.566  1.00  0.00     0.006 C 
BRANCH   6   7
ATOM      7  C   UNL     1      -7.528   8.867 -17.949  1.00  0.00     0.053 C 
BRANCH   7   8
ATOM      8  C   UNL     1      -6.646  10.049 -17.702  1.00  0.00     0.041 C 
ATOM      9  O   UNL     1      -6.716  11.060 -18.450  1.00  0.00    -0.550 OA
ATOM     10  O   UNL     1      -5.781  10.057 -16.614  1.00  0.00    -0.550 OA
ENDBRANCH   7   8
ENDBRANCH   6   7
ENDBRANCH   5   6
ENDBRANCH   4   5
ENDBRANCH   3   4
ENDBRANCH   2   3
ENDBRANCH   1   2
BRANCH   1  11
ATOM     11  C   UNL     1     -12.053   5.904 -21.223  1.00  0.00     0.000 C 
BRANCH  11  12
ATOM     12  C   UNL     1     -12.901   7.124 -21.633  1.00  0.00    -0.000 C 
BRANCH  12  13
ATOM     13  C   UNL     1     -12.985   8.214 -20.543  1.00  0.00    -0.000 C 
BRANCH  13  14
ATOM     14  C   UNL     1     -12.125   7.878 -19.312  1.00  0.00    -0.000 C 
BRANCH  14  15
ATOM     15  C   UNL     1     -10.929   8.833 -19.137  1.00  0.00    -0.000 C 
BRANCH  15  16
ATOM     16  C   UNL     1     -10.790   9.908 -20.230  1.00  0.00    -0.000 C 
BRANCH  16  17
ATOM     17  C   UNL     1      -9.620   9.640 -21.187  1.00  0.00    -0.003 C 
ATOM     18  C   UNL     1     -10.113   9.460 -22.620  1.00  0.00     0.004 C 
ENDBRANCH  16  17
ENDBRANCH  15  16
ENDBRANCH  14  15
ENDBRANCH  13  14
ENDBRANCH  12  13
ENDBRANCH  11  12
ENDBRANCH   1  11
TORSDOF 14
ENDMDL
MODEL 6
REMARK VINA RESULT:    -3.513      1.708      3.070
REMARK INTER + INTRA:          -8.782
REMARK INTER:                  -6.732
REMARK INTRA:                  -2.051
REMARK UNBOUND:                -2.394
REMARK SMILES CCCCCCCCCCCCCCCC(=O)[O-]
REMARK SMILES IDX 9 1 10 2 11 3 12 4 13 5 14 6 15 7 16 8 17 9 18 10 8 11 7 12
REMARK SMILES IDX 6 13 5 14 4 15 3 16 2 17 1 18
REMARK H PARENT
REMARK Flexibility Score: inf
ROOT
ATOM      1  C   UNL     1     -11.856   8.611 -19.314  1.00  0.00     0.000 C 
ENDROOT
BRANCH   1   2
ATOM      2  C   UNL     1     -10.866   9.701 -19.767  1.00  0.00     0.000 C 
BRANCH   2   3
ATOM      3  C   UNL     1      -9.443   9.478 -19.231  1.00  0.00     0.000 C 
BRANCH   3   4
ATOM      4  C   UNL     1      -9.417   8.331 -18.209  1.00  0.00     0.000 C 
BRANCH   4   5
ATOM      5  C   UNL     1      -9.176   8.821 -16.773  1.00  0.00     0.000 C 
BRANCH   5   6
ATOM      6  C   UNL     1      -8.382  10.134 -16.720  1.00  0.00     0.006 C 
BRANCH   6   7
ATOM      7  C   UNL     1      -8.334  10.689 -15.292  1.00  0.00     0.053 C 
BRANCH   7   8
ATOM      8  C   UNL     1      -7.052  11.423 -15.058  1.00  0.00     0.041 C 
ATOM      9  O   UNL     1      -6.783  12.457 -15.724  1.00  0.00    -0.550 OA
ATOM     10  O   UNL     1      -6.175  10.994 -14.069  1.00  0.00    -0.550 OA
ENDBRANCH   7   8
ENDBRANCH   6   7
ENDBRANCH   5   6
ENDBRANCH   4   5
ENDBRANCH   3   4
ENDBRANCH   2   3
ENDBRANCH   1   2
BRANCH   1  11
ATOM     11  C   UNL     1     -13.140   8.512 -20.159  1.00  0.00     0.000 C 
BRANCH  11  12
ATOM     12  C   UNL     1     -13.071   7.516 -21.332  1.00  0.00    -0.000 C 
BRANCH  12  13
ATOM     13  C   UNL     1     -12.352   6.195 -20.982  1.00  0.00    -0.000 C 
BRANCH  13  14
ATOM     14  C   UNL     1     -11.213   5.871 -21.965  1.00  0.00    -0.000 C 
BRANCH  14  15
ATOM     15  C   UNL     1      -9.845   6.399 -21.493  1.00  0.00    -0.000 C 
BRANCH  15  16
ATOM     16  C   UNL     1      -9.218   7.476 -22.397  1.00  0.00    -0.000 C 
BRANCH  16  17
ATOM     17  C   UNL     1     -10.135   7.894 -23.555  1.00  0.00    -0.003 C 
ATOM     18  C   UNL     1     -10.557   9.354 -23.422  1.00  0.00     0.004 C 
ENDBRANCH  16  17
ENDBRANCH  15  16
ENDBRANCH  14  15
ENDBRANCH  13  14
ENDBRANCH  12  13
ENDBRANCH  11  12
ENDBRANCH   1  11
TORSDOF 14
ENDMDL
MODEL 7
REMARK VINA RESULT:    -3.512      1.573      2.905
REMARK INTER + INTRA:          -8.781
REMARK INTER:                  -6.219
REMARK INTRA:                  -2.561
REMARK UNBOUND:                -2.394
REMARK SMILES CCCCCCCCCCCCCCCC(=O)[O-]
REMARK SMILES IDX 9 1 10 2 11 3 12 4 13 5 14 6 15 7 16 8 17 9 18 10 8 11 7 12
REMARK SMILES IDX 6 13 5 14 4 15 3 16 2 17 1 18
REMARK H PARENT
REMARK Flexibility Score: inf
ROOT
ATOM      1  C   UNL     1     -12.897   8.528 -20.066  1.00  0.00     0.000 C 
ENDROOT
BRANCH   1   2
ATOM      2  C   UNL     1     -11.630   8.213 -19.249  1.00  0.00     0.000 C 
BRANCH   2   3
ATOM      3  C   UNL     1     -10.915   9.475 -18.743  1.00  0.00     0.000 C 
BRANCH   3   4
ATOM      4  C   UNL     1      -9.643   9.107 -17.963  1.00  0.00     0.000 C 
BRANCH   4   5
ATOM      5  C   UNL     1      -9.043   7.764 -18.406  1.00  0.00     0.000 C 
BRANCH   5   6
ATOM      6  C   UNL     1      -7.509   7.791 -18.467  1.00  0.00     0.006 C 
BRANCH   6   7
ATOM      7  C   UNL     1      -6.976   9.208 -18.226  1.00  0.00     0.053 C 
BRANCH   7   8
ATOM      8  C   UNL     1      -5.667   9.159 -17.504  1.00  0.00     0.041 C 
ATOM      9  O   UNL     1      -4.998   8.093 -17.476  1.00  0.00    -0.550 OA
ATOM     10  O   UNL     1      -5.160  10.306 -16.904  1.00  0.00    -0.550 OA
ENDBRANCH   7   8
ENDBRANCH   6   7
ENDBRANCH   5   6
ENDBRANCH   4   5
ENDBRANCH   3   4
ENDBRANCH   2   3
ENDBRANCH   1   2
BRANCH   1  11
ATOM     11  C   UNL     1     -13.057   7.703 -21.358  1.00  0.00     0.000 C 
BRANCH  11  12
ATOM     12  C   UNL     1     -12.318   6.350 -21.360  1.00  0.00    -0.000 C 
BRANCH  12  13
ATOM     13  C   UNL     1     -11.205   6.254 -22.426  1.00  0.00    -0.000 C 
BRANCH  13  14
ATOM     14  C   UNL     1      -9.798   6.280 -21.806  1.00  0.00    -0.000 C 
BRANCH  14  15
ATOM     15  C   UNL     1      -9.045   7.596 -22.080  1.00  0.00    -0.000 C 
BRANCH  15  16
ATOM     16  C   UNL     1      -9.824   8.628 -22.915  1.00  0.00    -0.000 C 
BRANCH  16  17
ATOM     17  C   UNL     1      -9.952   9.989 -22.215  1.00  0.00    -0.003 C 
ATOM     18  C   UNL     1      -8.676  10.338 -21.454  1.00  0.00     0.004 C 
ENDBRANCH  16  17
ENDBRANCH  15  16
ENDBRANCH  14  15
ENDBRANCH  13  14
ENDBRANCH  12  13
ENDBRANCH  11  12
ENDBRANCH   1  11
TORSDOF 14
ENDMDL
MODEL 8
REMARK VINA RESULT:    -3.500      2.715      4.200
REMARK INTER + INTRA:          -8.760
REMARK INTER:                  -6.271
REMARK INTRA:                  -2.488
REMARK UNBOUND:                -2.394
REMARK SMILES CCCCCCCCCCCCCCCC(=O)[O-]
REMARK SMILES IDX 9 1 10 2 11 3 12 4 13 5 14 6 15 7 16 8 17 9 18 10 8 11 7 12
REMARK SMILES IDX 6 13 5 14 4 15 3 16 2 17 1 18
REMARK H PARENT
REMARK Flexibility Score: inf
ROOT
ATOM      1  C   UNL     1     -12.864   8.535 -20.405  1.00  0.00     0.000 C 
ENDROOT
BRANCH   1   2
ATOM      2  C   UNL     1     -11.908   8.248 -19.232  1.00  0.00     0.000 C 
BRANCH   2   3
ATOM      3  C   UNL     1     -10.910   9.388 -18.979  1.00  0.00     0.000 C 
BRANCH   3   4
ATOM      4  C   UNL     1      -9.755   8.916 -18.083  1.00  0.00     0.000 C 
BRANCH   4   5
ATOM      5  C   UNL     1      -8.571   8.355 -18.887  1.00  0.00     0.000 C 
BRANCH   5   6
ATOM      6  C   UNL     1      -8.597   6.824 -18.990  1.00  0.00     0.006 C 
BRANCH   6   7
ATOM      7  C   UNL     1      -7.521   6.321 -19.959  1.00  0.00     0.053 C 
BRANCH   7   8
ATOM      8  C   UNL     1      -7.442   4.828 -19.925  1.00  0.00     0.041 C 
ATOM      9  O   UNL     1      -7.546   4.212 -18.831  1.00  0.00    -0.550 OA
ATOM     10  O   UNL     1      -7.305   4.111 -21.108  1.00  0.00    -0.550 OA
ENDBRANCH   7   8
ENDBRANCH   6   7
ENDBRANCH   5   6
ENDBRANCH   4   5
ENDBRANCH   3   4
ENDBRANCH   2   3
ENDBRANCH   1   2
BRANCH   1  11
ATOM     11  C   UNL     1     -13.009   7.384 -21.419  1.00  0.00     0.000 C 
BRANCH  11  12
ATOM     12  C   UNL     1     -12.350   6.058 -20.995  1.00  0.00    -0.000 C 
BRANCH  12  13
ATOM     13  C   UNL     1     -11.198   5.614 -21.924  1.00  0.00    -0.000 C 
BRANCH  13  14
ATOM     14  C   UNL     1     -10.881   6.663 -23.004  1.00  0.00    -0.000 C 
BRANCH  14  15
ATOM     15  C   UNL     1      -9.398   7.078 -23.021  1.00  0.00    -0.000 C 
BRANCH  15  16
ATOM     16  C   UNL     1      -9.117   8.507 -22.523  1.00  0.00    -0.000 C 
BRANCH  16  17
ATOM     17  C   UNL     1     -10.272   9.477 -22.807  1.00  0.00    -0.003 C 
ATOM     18  C   UNL     1     -10.008  10.844 -22.181  1.00  0.00     0.004 C 
ENDBRANCH  16  17
ENDBRANCH  15  16
ENDBRANCH  14  15
ENDBRANCH  13  14
ENDBRANCH  12  13
ENDBRANCH  11  12
ENDBRANCH   1  11
TORSDOF 14
ENDMDL
MODEL 9
REMARK VINA RESULT:    -3.432      1.344      3.970
REMARK INTER + INTRA:          -8.636
REMARK INTER:                  -6.403
REMARK INTRA:                  -2.232
REMARK UNBOUND:                -2.394
REMARK SMILES CCCCCCCCCCCCCCCC(=O)[O-]
REMARK SMILES IDX 9 1 10 2 11 3 12 4 13 5 14 6 15 7 16 8 17 9 18 10 8 11 7 12
REMARK SMILES IDX 6 13 5 14 4 15 3 16 2 17 1 18
REMARK H PARENT
REMARK Flexibility Score: inf
ROOT
ATOM      1  C   UNL     1      -8.596   7.833 -21.417  1.00  0.00     0.000 C 
ENDROOT
BRANCH   1   2
ATOM      2  C   UNL     1      -8.257   7.288 -20.016  1.00  0.00     0.000 C 
BRANCH   2   3
ATOM      3  C   UNL     1      -6.814   7.596 -19.586  1.00  0.00     0.000 C 
BRANCH   3   4
ATOM      4  C   UNL     1      -6.776   8.151 -18.154  1.00  0.00     0.000 C 
BRANCH   4   5
ATOM      5  C   UNL     1      -7.407   9.548 -18.042  1.00  0.00     0.000 C 
BRANCH   5   6
ATOM      6  C   UNL     1      -8.319   9.690 -16.815  1.00  0.00     0.006 C 
BRANCH   6   7
ATOM      7  C   UNL     1      -8.241  11.106 -16.234  1.00  0.00     0.053 C 
BRANCH   7   8
ATOM      8  C   UNL     1      -6.951  11.301 -15.503  1.00  0.00     0.041 C 
ATOM      9  O   UNL     1      -6.769  10.756 -14.382  1.00  0.00    -0.550 OA
ATOM     10  O   UNL     1      -5.929  12.045 -16.080  1.00  0.00    -0.550 OA
ENDBRANCH   7   8
ENDBRANCH   6   7
ENDBRANCH   5   6
ENDBRANCH   4   5
ENDBRANCH   3   4
ENDBRANCH   2   3
ENDBRANCH   1   2
BRANCH   1  11
ATOM     11  C   UNL     1      -8.830   9.355 -21.480  1.00  0.00     0.000 C 
BRANCH  11  12
ATOM     12  C   UNL     1     -10.290   9.797 -21.259  1.00  0.00    -0.000 C 
BRANCH  12  13
ATOM     13  C   UNL     1     -10.564  10.342 -19.840  1.00  0.00    -0.000 C 
BRANCH  13  14
ATOM     14  C   UNL     1     -11.080   9.252 -18.885  1.00  0.00    -0.000 C 
BRANCH  14  15
ATOM     15  C   UNL     1     -12.261   8.453 -19.467  1.00  0.00    -0.000 C 
BRANCH  15  16
ATOM     16  C   UNL     1     -12.001   6.946 -19.646  1.00  0.00    -0.000 C 
BRANCH  16  17
ATOM     17  C   UNL     1     -12.140   6.484 -21.103  1.00  0.00    -0.003 C 
ATOM     18  C   UNL     1     -13.112   7.376 -21.872  1.00  0.00     0.004 C 
ENDBRANCH  16  17
ENDBRANCH  15  16
ENDBRANCH  14  15
ENDBRANCH  13  14
ENDBRANCH  12  13
ENDBRANCH  11  12
ENDBRANCH   1  11
TORSDOF 14
ENDMDL
