MODEL 1
REMARK VINA RESULT:    -6.351      0.000      0.000
REMARK INTER + INTRA:          -6.351
REMARK INTER:                  -6.351
REMARK INTRA:                   0.000
REMARK UNBOUND:                 0.000
REMARK SMILES C=C1CCC[C@@]2(C)CC(=O)C(=C(C)C)C[C@@H]12
REMARK SMILES IDX 13 1 12 2 11 3 15 4 16 5 2 6 1 7 3 8 4 9 5 10 6 11 8 12 9 13
REMARK SMILES IDX 10 14 7 15 14 16
REMARK H PARENT
REMARK Flexibility Score: inf
ROOT
ATOM      1  C   UNL     1      12.169 -30.857  21.629  1.00  0.00     0.039 C 
ATOM      2  C   UNL     1      13.338 -30.611  22.555  1.00  0.00    -0.070 C 
ATOM      3  C   UNL     1      14.524 -31.261  22.386  1.00  0.00    -0.006 C 
ATOM      4  C   UNL     1      14.746 -32.259  21.267  1.00  0.00     0.047 C 
ATOM      5  C   UNL     1      15.683 -33.429  21.661  1.00  0.00     0.025 C 
ATOM      6  C   UNL     1      16.025 -34.222  20.410  1.00  0.00    -0.073 C 
ATOM      7  C   UNL     1      15.359 -35.348  20.113  1.00  0.00     0.008 C 
ATOM      8  C   UNL     1      17.015 -33.636  19.425  1.00  0.00     0.031 C 
ATOM      9  C   UNL     1      18.267 -33.100  20.133  1.00  0.00     0.005 C 
ATOM     10  C   UNL     1      17.931 -32.244  21.368  1.00  0.00     0.008 C 
ATOM     11  C   UNL     1      16.996 -32.976  22.376  1.00  0.00    -0.018 C 
ATOM     12  C   UNL     1      16.664 -32.042  23.569  1.00  0.00     0.088 C 
ATOM     13  C   UNL     1      15.722 -30.942  23.196  1.00  0.00     0.159 C 
ATOM     14  O   UNL     1      15.964 -29.765  23.574  1.00  0.00    -0.295 OA
ATOM     15  C   UNL     1      17.725 -34.214  22.964  1.00  0.00     0.012 C 
ATOM     16  C   UNL     1      13.122 -29.646  23.698  1.00  0.00     0.039 C 
ENDROOT
TORSDOF 0
ENDMDL
MODEL 2
REMARK VINA RESULT:    -6.299      2.345      5.172
REMARK INTER + INTRA:          -6.299
REMARK INTER:                  -6.299
REMARK INTRA:                   0.000
REMARK UNBOUND:                 0.000
REMARK SMILES C=C1CCC[C@@]2(C)CC(=O)C(=C(C)C)C[C@@H]12
REMARK SMILES IDX 13 1 12 2 11 3 15 4 16 5 2 6 1 7 3 8 4 9 5 10 6 11 8 12 9 13
REMARK SMILES IDX 10 14 7 15 14 16
REMARK H PARENT
REMARK Flexibility Score: inf
ROOT
ATOM      1  C   UNL     1      18.348 -36.742  21.279  1.00  0.00     0.039 C 
ATOM      2  C   UNL     1      17.164 -35.977  20.737  1.00  0.00    -0.070 C 
ATOM      3  C   UNL     1      16.677 -34.876  21.378  1.00  0.00    -0.006 C 
ATOM      4  C   UNL     1      17.292 -34.352  22.660  1.00  0.00     0.047 C 
ATOM      5  C   UNL     1      16.254 -33.735  23.633  1.00  0.00     0.025 C 
ATOM      6  C   UNL     1      16.998 -33.033  24.758  1.00  0.00    -0.073 C 
ATOM      7  C   UNL     1      17.185 -33.644  25.937  1.00  0.00     0.008 C 
ATOM      8  C   UNL     1      17.661 -31.702  24.471  1.00  0.00     0.031 C 
ATOM      9  C   UNL     1      16.720 -30.753  23.715  1.00  0.00     0.005 C 
ATOM     10  C   UNL     1      16.006 -31.438  22.535  1.00  0.00     0.008 C 
ATOM     11  C   UNL     1      15.260 -32.741  22.953  1.00  0.00    -0.018 C 
ATOM     12  C   UNL     1      14.604 -33.400  21.711  1.00  0.00     0.088 C 
ATOM     13  C   UNL     1      15.605 -34.034  20.799  1.00  0.00     0.159 C 
ATOM     14  O   UNL     1      15.520 -33.841  19.557  1.00  0.00    -0.295 OA
ATOM     15  C   UNL     1      14.111 -32.395  23.937  1.00  0.00     0.012 C 
ATOM     16  C   UNL     1      16.516 -36.507  19.478  1.00  0.00     0.039 C 
ENDROOT
TORSDOF 0
ENDMDL
MODEL 3
REMARK VINA RESULT:    -6.236      2.205      4.771
REMARK INTER + INTRA:          -6.236
REMARK INTER:                  -6.236
REMARK INTRA:                   0.000
REMARK UNBOUND:                 0.000
REMARK SMILES C=C1CCC[C@@]2(C)CC(=O)C(=C(C)C)C[C@@H]12
REMARK SMILES IDX 13 1 12 2 11 3 15 4 16 5 2 6 1 7 3 8 4 9 5 10 6 11 8 12 9 13
REMARK SMILES IDX 10 14 7 15 14 16
REMARK H PARENT
REMARK Flexibility Score: inf
ROOT
ATOM      1  C   UNL     1      18.046 -34.706  18.975  1.00  0.00     0.039 C 
ATOM      2  C   UNL     1      16.846 -34.440  19.855  1.00  0.00    -0.070 C 
ATOM      3  C   UNL     1      16.733 -33.284  20.569  1.00  0.00    -0.006 C 
ATOM      4  C   UNL     1      17.792 -32.201  20.523  1.00  0.00     0.047 C 
ATOM      5  C   UNL     1      17.967 -31.453  21.869  1.00  0.00     0.025 C 
ATOM      6  C   UNL     1      18.864 -30.246  21.644  1.00  0.00    -0.073 C 
ATOM      7  C   UNL     1      20.172 -30.305  21.934  1.00  0.00     0.008 C 
ATOM      8  C   UNL     1      18.290 -29.036  20.937  1.00  0.00     0.031 C 
ATOM      9  C   UNL     1      16.921 -28.643  21.511  1.00  0.00     0.005 C 
ATOM     10  C   UNL     1      15.982 -29.850  21.688  1.00  0.00     0.008 C 
ATOM     11  C   UNL     1      16.622 -30.999  22.522  1.00  0.00    -0.018 C 
ATOM     12  C   UNL     1      15.641 -32.196  22.622  1.00  0.00     0.088 C 
ATOM     13  C   UNL     1      15.511 -32.943  21.333  1.00  0.00     0.159 C 
ATOM     14  O   UNL     1      14.367 -33.268  20.918  1.00  0.00    -0.295 OA
ATOM     15  C   UNL     1      16.884 -30.511  23.973  1.00  0.00     0.012 C 
ATOM     16  C   UNL     1      15.798 -35.526  19.941  1.00  0.00     0.039 C 
ENDROOT
TORSDOF 0
ENDMDL
MODEL 4
REMARK VINA RESULT:    -6.126      1.559      2.477
REMARK INTER + INTRA:          -6.126
REMARK INTER:                  -6.126
REMARK INTRA:                   0.000
REMARK UNBOUND:                 0.000
REMARK SMILES C=C1CCC[C@@]2(C)CC(=O)C(=C(C)C)C[C@@H]12
REMARK SMILES IDX 13 1 12 2 11 3 15 4 16 5 2 6 1 7 3 8 4 9 5 10 6 11 8 12 9 13
REMARK SMILES IDX 10 14 7 15 14 16
REMARK H PARENT
REMARK Flexibility Score: inf
ROOT
ATOM      1  C   UNL     1      13.569 -32.779  24.625  1.00  0.00     0.039 C 
ATOM      2  C   UNL     1      14.017 -31.841  23.529  1.00  0.00    -0.070 C 
ATOM      3  C   UNL     1      14.919 -32.234  22.584  1.00  0.00    -0.006 C 
ATOM      4  C   UNL     1      15.520 -33.625  22.572  1.00  0.00     0.047 C 
ATOM      5  C   UNL     1      16.987 -33.659  22.073  1.00  0.00     0.025 C 
ATOM      6  C   UNL     1      17.402 -35.108  21.873  1.00  0.00    -0.073 C 
ATOM      7  C   UNL     1      18.101 -35.754  22.818  1.00  0.00     0.008 C 
ATOM      8  C   UNL     1      16.875 -35.854  20.666  1.00  0.00     0.031 C 
ATOM      9  C   UNL     1      17.020 -35.026  19.381  1.00  0.00     0.005 C 
ATOM     10  C   UNL     1      16.547 -33.570  19.555  1.00  0.00     0.008 C 
ATOM     11  C   UNL     1      17.228 -32.852  20.758  1.00  0.00    -0.018 C 
ATOM     12  C   UNL     1      16.673 -31.410  20.901  1.00  0.00     0.088 C 
ATOM     13  C   UNL     1      15.273 -31.382  21.426  1.00  0.00     0.159 C 
ATOM     14  O   UNL     1      14.420 -30.636  20.876  1.00  0.00    -0.295 OA
ATOM     15  C   UNL     1      18.752 -32.721  20.496  1.00  0.00     0.012 C 
ATOM     16  C   UNL     1      13.455 -30.438  23.547  1.00  0.00     0.039 C 
ENDROOT
TORSDOF 0
ENDMDL
MODEL 5
REMARK VINA RESULT:    -6.124      2.243      5.100
REMARK INTER + INTRA:          -6.124
REMARK INTER:                  -6.124
REMARK INTRA:                   0.000
REMARK UNBOUND:                 0.000
REMARK SMILES C=C1CCC[C@@]2(C)CC(=O)C(=C(C)C)C[C@@H]12
REMARK SMILES IDX 13 1 12 2 11 3 15 4 16 5 2 6 1 7 3 8 4 9 5 10 6 11 8 12 9 13
REMARK SMILES IDX 10 14 7 15 14 16
REMARK H PARENT
REMARK Flexibility Score: inf
ROOT
ATOM      1  C   UNL     1      17.911 -35.455  25.518  1.00  0.00     0.039 C 
ATOM      2  C   UNL     1      18.031 -35.504  24.013  1.00  0.00    -0.070 C 
ATOM      3  C   UNL     1      17.368 -34.615  23.219  1.00  0.00    -0.006 C 
ATOM      4  C   UNL     1      16.481 -33.528  23.792  1.00  0.00     0.047 C 
ATOM      5  C   UNL     1      15.252 -33.204  22.904  1.00  0.00     0.025 C 
ATOM      6  C   UNL     1      14.578 -31.952  23.443  1.00  0.00    -0.073 C 
ATOM      7  C   UNL     1      13.506 -32.046  24.244  1.00  0.00     0.008 C 
ATOM      8  C   UNL     1      15.232 -30.610  23.192  1.00  0.00     0.031 C 
ATOM      9  C   UNL     1      15.659 -30.454  21.726  1.00  0.00     0.005 C 
ATOM     10  C   UNL     1      16.397 -31.694  21.187  1.00  0.00     0.008 C 
ATOM     11  C   UNL     1      15.594 -33.013  21.393  1.00  0.00    -0.018 C 
ATOM     12  C   UNL     1      16.414 -34.222  20.869  1.00  0.00     0.088 C 
ATOM     13  C   UNL     1      17.571 -34.560  21.754  1.00  0.00     0.159 C 
ATOM     14  O   UNL     1      18.698 -34.790  21.239  1.00  0.00    -0.295 OA
ATOM     15  C   UNL     1      14.284 -32.966  20.562  1.00  0.00     0.012 C 
ATOM     16  C   UNL     1      18.882 -36.605  23.423  1.00  0.00     0.039 C 
ENDROOT
TORSDOF 0
ENDMDL
MODEL 6
REMARK VINA RESULT:    -6.117      1.961      3.798
REMARK INTER + INTRA:          -6.117
REMARK INTER:                  -6.117
REMARK INTRA:                   0.000
REMARK UNBOUND:                 0.000
REMARK SMILES C=C1CCC[C@@]2(C)CC(=O)C(=C(C)C)C[C@@H]12
REMARK SMILES IDX 13 1 12 2 11 3 15 4 16 5 2 6 1 7 3 8 4 9 5 10 6 11 8 12 9 13
REMARK SMILES IDX 10 14 7 15 14 16
REMARK H PARENT
REMARK Flexibility Score: inf
ROOT
ATOM      1  C   UNL     1      13.257 -30.797  23.493  1.00  0.00     0.039 C 
ATOM      2  C   UNL     1      13.847 -31.562  22.332  1.00  0.00    -0.070 C 
ATOM      3  C   UNL     1      14.963 -32.331  22.483  1.00  0.00    -0.006 C 
ATOM      4  C   UNL     1      15.672 -32.470  23.815  1.00  0.00     0.047 C 
ATOM      5  C   UNL     1      17.210 -32.614  23.682  1.00  0.00     0.025 C 
ATOM      6  C   UNL     1      17.784 -32.986  25.039  1.00  0.00    -0.073 C 
ATOM      7  C   UNL     1      18.316 -32.047  25.835  1.00  0.00     0.008 C 
ATOM      8  C   UNL     1      17.599 -34.403  25.543  1.00  0.00     0.031 C 
ATOM      9  C   UNL     1      17.946 -35.437  24.463  1.00  0.00     0.005 C 
ATOM     10  C   UNL     1      17.319 -35.102  23.096  1.00  0.00     0.008 C 
ATOM     11  C   UNL     1      17.657 -33.661  22.612  1.00  0.00    -0.018 C 
ATOM     12  C   UNL     1      16.960 -33.377  21.256  1.00  0.00     0.088 C 
ATOM     13  C   UNL     1      15.482 -33.192  21.396  1.00  0.00     0.159 C 
ATOM     14  O   UNL     1      14.706 -33.771  20.590  1.00  0.00    -0.295 OA
ATOM     15  C   UNL     1      19.185 -33.535  22.365  1.00  0.00     0.012 C 
ATOM     16  C   UNL     1      13.172 -31.406  20.988  1.00  0.00     0.039 C 
ENDROOT
TORSDOF 0
ENDMDL
MODEL 7
REMARK VINA RESULT:    -6.107      2.479      4.890
REMARK INTER + INTRA:          -6.107
REMARK INTER:                  -6.107
REMARK INTRA:                   0.000
REMARK UNBOUND:                 0.000
REMARK SMILES C=C1CCC[C@@]2(C)CC(=O)C(=C(C)C)C[C@@H]12
REMARK SMILES IDX 13 1 12 2 11 3 15 4 16 5 2 6 1 7 3 8 4 9 5 10 6 11 8 12 9 13
REMARK SMILES IDX 10 14 7 15 14 16
REMARK H PARENT
REMARK Flexibility Score: inf
ROOT
ATOM      1  C   UNL     1      19.370 -37.372  23.438  1.00  0.00     0.039 C 
ATOM      2  C   UNL     1      18.632 -36.280  24.175  1.00  0.00    -0.070 C 
ATOM      3  C   UNL     1      17.860 -35.373  23.511  1.00  0.00    -0.006 C 
ATOM      4  C   UNL     1      17.692 -35.406  22.006  1.00  0.00     0.047 C 
ATOM      5  C   UNL     1      17.551 -33.998  21.371  1.00  0.00     0.025 C 
ATOM      6  C   UNL     1      17.149 -34.159  19.913  1.00  0.00    -0.073 C 
ATOM      7  C   UNL     1      18.071 -34.096  18.941  1.00  0.00     0.008 C 
ATOM      8  C   UNL     1      15.722 -34.551  19.591  1.00  0.00     0.031 C 
ATOM      9  C   UNL     1      14.712 -33.708  20.383  1.00  0.00     0.005 C 
ATOM     10  C   UNL     1      15.077 -33.589  21.874  1.00  0.00     0.008 C 
ATOM     11  C   UNL     1      16.529 -33.072  22.103  1.00  0.00    -0.018 C 
ATOM     12  C   UNL     1      16.842 -33.019  23.622  1.00  0.00     0.088 C 
ATOM     13  C   UNL     1      17.023 -34.378  24.220  1.00  0.00     0.159 C 
ATOM     14  O   UNL     1      16.462 -34.652  25.314  1.00  0.00    -0.295 OA
ATOM     15  C   UNL     1      16.660 -31.621  21.567  1.00  0.00     0.012 C 
ATOM     16  C   UNL     1      18.817 -36.211  25.674  1.00  0.00     0.039 C 
ENDROOT
TORSDOF 0
ENDMDL
MODEL 8
REMARK VINA RESULT:    -6.067      2.007      4.170
REMARK INTER + INTRA:          -6.067
REMARK INTER:                  -6.067
REMARK INTRA:                   0.000
REMARK UNBOUND:                 0.000
REMARK SMILES C=C1CCC[C@@]2(C)CC(=O)C(=C(C)C)C[C@@H]12
REMARK SMILES IDX 13 1 12 2 11 3 15 4 16 5 2 6 1 7 3 8 4 9 5 10 6 11 8 12 9 13
REMARK SMILES IDX 10 14 7 15 14 16
REMARK H PARENT
REMARK Flexibility Score: inf
ROOT
ATOM      1  C   UNL     1      20.284 -30.137  21.362  1.00  0.00     0.039 C 
ATOM      2  C   UNL     1      18.884 -29.581  21.247  1.00  0.00    -0.070 C 
ATOM      3  C   UNL     1      17.795 -30.324  21.595  1.00  0.00    -0.006 C 
ATOM      4  C   UNL     1      17.919 -31.741  22.117  1.00  0.00     0.047 C 
ATOM      5  C   UNL     1      16.750 -32.662  21.683  1.00  0.00     0.025 C 
ATOM      6  C   UNL     1      16.848 -33.970  22.452  1.00  0.00    -0.073 C 
ATOM      7  C   UNL     1      17.414 -35.049  21.893  1.00  0.00     0.008 C 
ATOM      8  C   UNL     1      16.444 -33.986  23.912  1.00  0.00     0.031 C 
ATOM      9  C   UNL     1      15.099 -33.281  24.134  1.00  0.00     0.005 C 
ATOM     10  C   UNL     1      15.011 -31.926  23.408  1.00  0.00     0.008 C 
ATOM     11  C   UNL     1      15.336 -32.031  21.888  1.00  0.00    -0.018 C 
ATOM     12  C   UNL     1      15.272 -30.627  21.231  1.00  0.00     0.088 C 
ATOM     13  C   UNL     1      16.427 -29.758  21.616  1.00  0.00     0.159 C 
ATOM     14  O   UNL     1      16.217 -28.563  21.954  1.00  0.00    -0.295 OA
ATOM     15  C   UNL     1      14.266 -32.906  21.181  1.00  0.00     0.012 C 
ATOM     16  C   UNL     1      18.741 -28.181  20.694  1.00  0.00     0.039 C 
ENDROOT
TORSDOF 0
ENDMDL
MODEL 9
REMARK VINA RESULT:    -6.032      2.006      4.710
REMARK INTER + INTRA:          -6.032
REMARK INTER:                  -6.032
REMARK INTRA:                   0.000
REMARK UNBOUND:                 0.000
REMARK SMILES C=C1CCC[C@@]2(C)CC(=O)C(=C(C)C)C[C@@H]12
REMARK SMILES IDX 13 1 12 2 11 3 15 4 16 5 2 6 1 7 3 8 4 9 5 10 6 11 8 12 9 13
REMARK SMILES IDX 10 14 7 15 14 16
REMARK H PARENT
REMARK Flexibility Score: inf
ROOT
ATOM      1  C   UNL     1      19.077 -30.923  25.255  1.00  0.00     0.039 C 
ATOM      2  C   UNL     1      19.021 -30.952  23.746  1.00  0.00    -0.070 C 
ATOM      3  C   UNL     1      17.841 -31.122  23.083  1.00  0.00    -0.006 C 
ATOM      4  C   UNL     1      16.523 -31.286  23.812  1.00  0.00     0.047 C 
ATOM      5  C   UNL     1      15.534 -32.236  23.090  1.00  0.00     0.025 C 
ATOM      6  C   UNL     1      14.178 -32.137  23.771  1.00  0.00    -0.073 C 
ATOM      7  C   UNL     1      13.804 -33.047  24.682  1.00  0.00     0.008 C 
ATOM      8  C   UNL     1      13.328 -30.909  23.521  1.00  0.00     0.031 C 
ATOM      9  C   UNL     1      13.254 -30.566  22.027  1.00  0.00     0.005 C 
ATOM     10  C   UNL     1      14.632 -30.605  21.339  1.00  0.00     0.008 C 
ATOM     11  C   UNL     1      15.383 -31.952  21.562  1.00  0.00    -0.018 C 
ATOM     12  C   UNL     1      16.776 -31.904  20.883  1.00  0.00     0.088 C 
ATOM     13  C   UNL     1      17.741 -31.022  21.609  1.00  0.00     0.159 C 
ATOM     14  O   UNL     1      18.450 -30.211  20.957  1.00  0.00    -0.295 OA
ATOM     15  C   UNL     1      14.595 -33.108  20.890  1.00  0.00     0.012 C 
ATOM     16  C   UNL     1      20.332 -30.826  23.003  1.00  0.00     0.039 C 
ENDROOT
TORSDOF 0
ENDMDL
