MODEL 1
REMARK VINA RESULT:    -6.454      0.000      0.000
REMARK INTER + INTRA:          -8.093
REMARK INTER:                  -7.774
REMARK INTRA:                  -0.319
REMARK UNBOUND:                -0.319
REMARK SMILES O=c1c(O)c(-c2ccc(O)c(O)c2)oc2cc(O)cc(O)c12
REMARK SMILES IDX 5 1 3 2 2 3 1 4 22 5 20 6 19 7 17 8 16 9 15 10 14 11 6 12
REMARK SMILES IDX 7 13 8 14 9 15 13 16 11 17 10 18 12 20 4 22 21 24 18 26
REMARK H PARENT 10 19 12 21 4 23 21 25 18 27
REMARK Flexibility Score: inf
ROOT
ATOM      1  C   UNL     1      35.757  21.817  27.125  1.00  0.00     0.180 A 
ATOM      2  C   UNL     1      36.765  22.497  26.413  1.00  0.00     0.208 A 
ATOM      3  C   UNL     1      36.401  23.289  25.313  1.00  0.00     0.238 A 
ATOM      4  O   UNL     1      37.293  23.911  24.674  1.00  0.00    -0.285 OA
ATOM      5  C   UNL     1      35.046  23.371  24.930  1.00  0.00     0.111 A 
ATOM      6  C   UNL     1      34.598  24.143  23.831  1.00  0.00     0.134 A 
ATOM      7  C   UNL     1      33.232  24.166  23.509  1.00  0.00     0.093 A 
ATOM      8  C   UNL     1      32.310  23.435  24.261  1.00  0.00     0.123 A 
ATOM      9  C   UNL     1      32.748  22.671  25.348  1.00  0.00     0.094 A 
ATOM     10  C   UNL     1      34.104  22.636  25.686  1.00  0.00     0.146 A 
ATOM     11  O   UNL     1      34.491  21.907  26.726  1.00  0.00    -0.452 OA
ENDROOT
BRANCH   1  12
ATOM     12  C   UNL     1      36.058  20.978  28.308  1.00  0.00     0.025 A 
ATOM     13  C   UNL     1      36.447  19.635  28.171  1.00  0.00     0.016 A 
ATOM     14  C   UNL     1      36.750  18.870  29.301  1.00  0.00     0.051 A 
ATOM     15  C   UNL     1      36.682  19.435  30.578  1.00  0.00     0.157 A 
ATOM     16  C   UNL     1      36.011  21.550  29.590  1.00  0.00     0.062 A 
ATOM     17  C   UNL     1      36.314  20.783  30.724  1.00  0.00     0.158 A 
BRANCH  15  18
ATOM     18  O   UNL     1      36.989  18.647  31.687  1.00  0.00    -0.504 OA
ATOM     19  H   UNL     1      36.776  17.657  31.719  1.00  0.00     0.293 HD
ENDBRANCH  15  18
BRANCH  17  20
ATOM     20  O   UNL     1      36.251  21.356  31.994  1.00  0.00    -0.504 OA
ATOM     21  H   UNL     1      35.565  21.058  32.678  1.00  0.00     0.293 HD
ENDBRANCH  17  20
ENDBRANCH   1  12
BRANCH   2  22
ATOM     22  O   UNL     1      38.105  22.360  26.782  1.00  0.00    -0.502 OA
ATOM     23  H   UNL     1      38.466  22.719  27.657  1.00  0.00     0.293 HD
ENDBRANCH   2  22
BRANCH   6  24
ATOM     24  O   UNL     1      35.494  24.884  23.060  1.00  0.00    -0.507 OA
ATOM     25  H   UNL     1      36.131  25.552  23.478  1.00  0.00     0.293 HD
ENDBRANCH   6  24
BRANCH   8  26
ATOM     26  O   UNL     1      30.961  23.475  23.918  1.00  0.00    -0.508 OA
ATOM     27  H   UNL     1      30.325  22.732  24.185  1.00  0.00     0.293 HD
ENDBRANCH   8  26
TORSDOF 6
ENDMDL
MODEL 2
REMARK VINA RESULT:    -6.434      3.845      5.716
REMARK INTER + INTRA:          -8.069
REMARK INTER:                  -7.872
REMARK INTRA:                  -0.197
REMARK UNBOUND:                -0.319
REMARK SMILES O=c1c(O)c(-c2ccc(O)c(O)c2)oc2cc(O)cc(O)c12
REMARK SMILES IDX 5 1 3 2 2 3 1 4 22 5 20 6 19 7 17 8 16 9 15 10 14 11 6 12
REMARK SMILES IDX 7 13 8 14 9 15 13 16 11 17 10 18 12 20 4 22 21 24 18 26
REMARK H PARENT 10 19 12 21 4 23 21 25 18 27
REMARK Flexibility Score: inf
ROOT
ATOM      1  C   UNL     1      35.531  23.687  31.566  1.00  0.00     0.180 A 
ATOM      2  C   UNL     1      35.616  24.823  30.737  1.00  0.00     0.208 A 
ATOM      3  C   UNL     1      35.813  24.644  29.359  1.00  0.00     0.238 A 
ATOM      4  O   UNL     1      35.879  25.653  28.605  1.00  0.00    -0.285 OA
ATOM      5  C   UNL     1      35.944  23.341  28.837  1.00  0.00     0.111 A 
ATOM      6  C   UNL     1      36.149  23.075  27.461  1.00  0.00     0.134 A 
ATOM      7  C   UNL     1      36.278  21.748  27.021  1.00  0.00     0.093 A 
ATOM      8  C   UNL     1      36.207  20.687  27.927  1.00  0.00     0.123 A 
ATOM      9  C   UNL     1      36.005  20.945  29.287  1.00  0.00     0.094 A 
ATOM     10  C   UNL     1      35.872  22.258  29.744  1.00  0.00     0.146 A 
ATOM     11  O   UNL     1      35.674  22.474  31.040  1.00  0.00    -0.452 OA
ENDROOT
BRANCH   1  12
ATOM     12  C   UNL     1      35.305  23.793  33.026  1.00  0.00     0.025 A 
ATOM     13  C   UNL     1      36.278  24.344  33.878  1.00  0.00     0.016 A 
ATOM     14  C   UNL     1      36.033  24.456  35.249  1.00  0.00     0.051 A 
ATOM     15  C   UNL     1      34.812  24.034  35.787  1.00  0.00     0.157 A 
ATOM     16  C   UNL     1      34.073  23.389  33.565  1.00  0.00     0.062 A 
ATOM     17  C   UNL     1      33.826  23.501  34.941  1.00  0.00     0.158 A 
BRANCH  15  18
ATOM     18  O   UNL     1      34.597  24.157  37.159  1.00  0.00    -0.504 OA
ATOM     19  H   UNL     1      33.705  23.936  37.586  1.00  0.00     0.293 HD
ENDBRANCH  15  18
BRANCH  17  20
ATOM     20  O   UNL     1      32.604  23.084  35.468  1.00  0.00    -0.504 OA
ATOM     21  H   UNL     1      31.769  23.029  34.897  1.00  0.00     0.293 HD
ENDBRANCH  17  20
ENDBRANCH   1  12
BRANCH   2  22
ATOM     22  O   UNL     1      35.532  26.105  31.285  1.00  0.00    -0.502 OA
ATOM     23  H   UNL     1      36.298  26.766  31.240  1.00  0.00     0.293 HD
ENDBRANCH   2  22
BRANCH   6  24
ATOM     24  O   UNL     1      36.225  24.112  26.532  1.00  0.00    -0.507 OA
ATOM     25  H   UNL     1      36.395  25.070  26.815  1.00  0.00     0.293 HD
ENDBRANCH   6  24
BRANCH   8  26
ATOM     26  O   UNL     1      36.340  19.381  27.463  1.00  0.00    -0.508 OA
ATOM     27  H   UNL     1      36.474  19.179  26.479  1.00  0.00     0.293 HD
ENDBRANCH   8  26
TORSDOF 6
ENDMDL
MODEL 3
REMARK VINA RESULT:    -6.212     13.760     17.199
REMARK INTER + INTRA:          -7.803
REMARK INTER:                  -7.752
REMARK INTRA:                  -0.050
REMARK UNBOUND:                -0.319
REMARK SMILES O=c1c(O)c(-c2ccc(O)c(O)c2)oc2cc(O)cc(O)c12
REMARK SMILES IDX 5 1 3 2 2 3 1 4 22 5 20 6 19 7 17 8 16 9 15 10 14 11 6 12
REMARK SMILES IDX 7 13 8 14 9 15 13 16 11 17 10 18 12 20 4 22 21 24 18 26
REMARK H PARENT 10 19 12 21 4 23 21 25 18 27
REMARK Flexibility Score: inf
ROOT
ATOM      1  C   UNL     1      26.779  33.980  20.179  1.00  0.00     0.180 A 
ATOM      2  C   UNL     1      27.361  32.726  20.453  1.00  0.00     0.208 A 
ATOM      3  C   UNL     1      28.651  32.683  21.005  1.00  0.00     0.238 A 
ATOM      4  O   UNL     1      29.177  31.567  21.265  1.00  0.00    -0.285 OA
ATOM      5  C   UNL     1      29.344  33.885  21.252  1.00  0.00     0.111 A 
ATOM      6  C   UNL     1      30.649  33.928  21.801  1.00  0.00     0.134 A 
ATOM      7  C   UNL     1      31.276  35.166  22.009  1.00  0.00     0.093 A 
ATOM      8  C   UNL     1      30.626  36.358  21.679  1.00  0.00     0.123 A 
ATOM      9  C   UNL     1      29.337  36.321  21.136  1.00  0.00     0.094 A 
ATOM     10  C   UNL     1      28.696  35.098  20.923  1.00  0.00     0.146 A 
ATOM     11  O   UNL     1      27.470  35.092  20.412  1.00  0.00    -0.452 OA
ENDROOT
BRANCH   1  12
ATOM     12  C   UNL     1      25.416  34.108  19.615  1.00  0.00     0.025 A 
ATOM     13  C   UNL     1      25.187  34.782  18.403  1.00  0.00     0.016 A 
ATOM     14  C   UNL     1      23.895  34.870  17.878  1.00  0.00     0.051 A 
ATOM     15  C   UNL     1      22.817  34.278  18.546  1.00  0.00     0.157 A 
ATOM     16  C   UNL     1      24.336  33.497  20.273  1.00  0.00     0.062 A 
ATOM     17  C   UNL     1      23.039  33.585  19.748  1.00  0.00     0.158 A 
BRANCH  15  18
ATOM     18  O   UNL     1      21.539  34.384  17.999  1.00  0.00    -0.504 OA
ATOM     19  H   UNL     1      20.808  34.928  18.441  1.00  0.00     0.293 HD
ENDBRANCH  15  18
BRANCH  17  20
ATOM     20  O   UNL     1      21.971  32.987  20.416  1.00  0.00    -0.504 OA
ATOM     21  H   UNL     1      22.094  32.527  21.311  1.00  0.00     0.293 HD
ENDBRANCH  17  20
ENDBRANCH   1  12
BRANCH   2  22
ATOM     22  O   UNL     1      26.673  31.548  20.153  1.00  0.00    -0.502 OA
ATOM     23  H   UNL     1      25.674  31.453  20.290  1.00  0.00     0.293 HD
ENDBRANCH   2  22
BRANCH   6  24
ATOM     24  O   UNL     1      31.324  32.755  22.141  1.00  0.00    -0.507 OA
ATOM     25  H   UNL     1      32.269  32.771  22.506  1.00  0.00     0.293 HD
ENDBRANCH   6  24
BRANCH   8  26
ATOM     26  O   UNL     1      31.272  37.573  21.895  1.00  0.00    -0.508 OA
ATOM     27  H   UNL     1      30.752  38.434  22.021  1.00  0.00     0.293 HD
ENDBRANCH   8  26
TORSDOF 6
ENDMDL
MODEL 4
REMARK VINA RESULT:    -6.169      4.284      6.917
REMARK INTER + INTRA:          -7.751
REMARK INTER:                  -7.423
REMARK INTRA:                  -0.328
REMARK UNBOUND:                -0.319
REMARK SMILES O=c1c(O)c(-c2ccc(O)c(O)c2)oc2cc(O)cc(O)c12
REMARK SMILES IDX 5 1 3 2 2 3 1 4 22 5 20 6 19 7 17 8 16 9 15 10 14 11 6 12
REMARK SMILES IDX 7 13 8 14 9 15 13 16 11 17 10 18 12 20 4 22 21 24 18 26
REMARK H PARENT 10 19 12 21 4 23 21 25 18 27
REMARK Flexibility Score: inf
ROOT
ATOM      1  C   UNL     1      35.531  23.142  32.916  1.00  0.00     0.180 A 
ATOM      2  C   UNL     1      36.141  21.880  32.784  1.00  0.00     0.208 A 
ATOM      3  C   UNL     1      36.721  21.532  31.554  1.00  0.00     0.238 A 
ATOM      4  O   UNL     1      37.280  20.409  31.426  1.00  0.00    -0.285 OA
ATOM      5  C   UNL     1      36.662  22.438  30.474  1.00  0.00     0.111 A 
ATOM      6  C   UNL     1      37.218  22.162  29.202  1.00  0.00     0.134 A 
ATOM      7  C   UNL     1      37.110  23.113  28.175  1.00  0.00     0.093 A 
ATOM      8  C   UNL     1      36.460  24.330  28.397  1.00  0.00     0.123 A 
ATOM      9  C   UNL     1      35.909  24.607  29.652  1.00  0.00     0.094 A 
ATOM     10  C   UNL     1      36.008  23.673  30.688  1.00  0.00     0.146 A 
ATOM     11  O   UNL     1      35.482  23.965  31.872  1.00  0.00    -0.452 OA
ENDROOT
BRANCH   1  12
ATOM     12  C   UNL     1      34.915  23.590  34.186  1.00  0.00     0.025 A 
ATOM     13  C   UNL     1      35.644  24.334  35.130  1.00  0.00     0.016 A 
ATOM     14  C   UNL     1      35.035  24.766  36.311  1.00  0.00     0.051 A 
ATOM     15  C   UNL     1      33.690  24.474  36.562  1.00  0.00     0.157 A 
ATOM     16  C   UNL     1      33.559  23.316  34.431  1.00  0.00     0.062 A 
ATOM     17  C   UNL     1      32.946  23.748  35.616  1.00  0.00     0.158 A 
BRANCH  15  18
ATOM     18  O   UNL     1      33.109  24.917  37.750  1.00  0.00    -0.504 OA
ATOM     19  H   UNL     1      33.196  25.875  38.067  1.00  0.00     0.293 HD
ENDBRANCH  15  18
BRANCH  17  20
ATOM     20  O   UNL     1      31.604  23.459  35.855  1.00  0.00    -0.504 OA
ATOM     21  H   UNL     1      30.990  24.124  36.313  1.00  0.00     0.293 HD
ENDBRANCH  17  20
ENDBRANCH   1  12
BRANCH   2  22
ATOM     22  O   UNL     1      36.143  20.981  33.853  1.00  0.00    -0.502 OA
ATOM     23  H   UNL     1      36.996  20.586  34.229  1.00  0.00     0.293 HD
ENDBRANCH   2  22
BRANCH   6  24
ATOM     24  O   UNL     1      37.872  20.957  28.949  1.00  0.00    -0.507 OA
ATOM     25  H   UNL     1      37.369  20.127  28.658  1.00  0.00     0.293 HD
ENDBRANCH   6  24
BRANCH   8  26
ATOM     26  O   UNL     1      36.366  25.255  27.360  1.00  0.00    -0.508 OA
ATOM     27  H   UNL     1      36.190  26.237  27.541  1.00  0.00     0.293 HD
ENDBRANCH   8  26
TORSDOF 6
ENDMDL
MODEL 5
REMARK VINA RESULT:    -6.071      4.728      6.613
REMARK INTER + INTRA:          -7.632
REMARK INTER:                  -7.333
REMARK INTRA:                  -0.299
REMARK UNBOUND:                -0.319
REMARK SMILES O=c1c(O)c(-c2ccc(O)c(O)c2)oc2cc(O)cc(O)c12
REMARK SMILES IDX 5 1 3 2 2 3 1 4 22 5 20 6 19 7 17 8 16 9 15 10 14 11 6 12
REMARK SMILES IDX 7 13 8 14 9 15 13 16 11 17 10 18 12 20 4 22 21 24 18 26
REMARK H PARENT 10 19 12 21 4 23 21 25 18 27
REMARK Flexibility Score: inf
ROOT
ATOM      1  C   UNL     1      35.643  24.033  32.394  1.00  0.00     0.180 A 
ATOM      2  C   UNL     1      35.748  23.086  31.356  1.00  0.00     0.208 A 
ATOM      3  C   UNL     1      36.208  23.506  30.098  1.00  0.00     0.238 A 
ATOM      4  O   UNL     1      36.316  22.666  29.164  1.00  0.00    -0.285 OA
ATOM      5  C   UNL     1      36.532  24.863  29.891  1.00  0.00     0.111 A 
ATOM      6  C   UNL     1      36.997  25.368  28.653  1.00  0.00     0.134 A 
ATOM      7  C   UNL     1      37.291  26.734  28.525  1.00  0.00     0.093 A 
ATOM      8  C   UNL     1      37.129  27.602  29.608  1.00  0.00     0.123 A 
ATOM      9  C   UNL     1      36.670  27.108  30.834  1.00  0.00     0.094 A 
ATOM     10  C   UNL     1      36.373  25.750  30.981  1.00  0.00     0.146 A 
ATOM     11  O   UNL     1      35.945  25.307  32.157  1.00  0.00    -0.452 OA
ENDROOT
BRANCH   1  12
ATOM     12  C   UNL     1      35.186  23.664  33.753  1.00  0.00     0.025 A 
ATOM     13  C   UNL     1      36.098  23.480  34.806  1.00  0.00     0.016 A 
ATOM     14  C   UNL     1      35.641  23.156  36.086  1.00  0.00     0.051 A 
ATOM     15  C   UNL     1      34.271  23.023  36.337  1.00  0.00     0.157 A 
ATOM     16  C   UNL     1      33.810  23.552  34.012  1.00  0.00     0.062 A 
ATOM     17  C   UNL     1      33.350  23.226  35.296  1.00  0.00     0.158 A 
BRANCH  15  18
ATOM     18  O   UNL     1      33.845  22.698  37.624  1.00  0.00    -0.504 OA
ATOM     19  H   UNL     1      34.495  22.454  38.361  1.00  0.00     0.293 HD
ENDBRANCH  15  18
BRANCH  17  20
ATOM     20  O   UNL     1      31.983  23.103  35.539  1.00  0.00    -0.504 OA
ATOM     21  H   UNL     1      31.294  23.526  34.928  1.00  0.00     0.293 HD
ENDBRANCH  17  20
ENDBRANCH   1  12
BRANCH   2  22
ATOM     22  O   UNL     1      35.374  21.758  31.572  1.00  0.00    -0.502 OA
ATOM     23  H   UNL     1      35.825  21.172  32.264  1.00  0.00     0.293 HD
ENDBRANCH   2  22
BRANCH   6  24
ATOM     24  O   UNL     1      37.169  24.527  27.553  1.00  0.00    -0.507 OA
ATOM     25  H   UNL     1      37.897  24.690  26.867  1.00  0.00     0.293 HD
ENDBRANCH   6  24
BRANCH   8  26
ATOM     26  O   UNL     1      37.426  28.954  29.453  1.00  0.00    -0.508 OA
ATOM     27  H   UNL     1      37.571  29.362  28.537  1.00  0.00     0.293 HD
ENDBRANCH   8  26
TORSDOF 6
ENDMDL
MODEL 6
REMARK VINA RESULT:    -6.025     19.610     21.872
REMARK INTER + INTRA:          -7.577
REMARK INTER:                  -7.637
REMARK INTRA:                   0.061
REMARK UNBOUND:                -0.319
REMARK SMILES O=c1c(O)c(-c2ccc(O)c(O)c2)oc2cc(O)cc(O)c12
REMARK SMILES IDX 5 1 3 2 2 3 1 4 22 5 20 6 19 7 17 8 16 9 15 10 14 11 6 12
REMARK SMILES IDX 7 13 8 14 9 15 13 16 11 17 10 18 12 20 4 22 21 24 18 26
REMARK H PARENT 10 19 12 21 4 23 21 25 18 27
REMARK Flexibility Score: inf
ROOT
ATOM      1  C   UNL     1      19.027  33.624  32.995  1.00  0.00     0.180 A 
ATOM      2  C   UNL     1      18.594  34.566  33.950  1.00  0.00     0.208 A 
ATOM      3  C   UNL     1      18.583  34.200  35.305  1.00  0.00     0.238 A 
ATOM      4  O   UNL     1      18.208  35.038  36.171  1.00  0.00    -0.285 OA
ATOM      5  C   UNL     1      18.980  32.900  35.681  1.00  0.00     0.111 A 
ATOM      6  C   UNL     1      18.992  32.453  37.024  1.00  0.00     0.134 A 
ATOM      7  C   UNL     1      19.393  31.140  37.316  1.00  0.00     0.093 A 
ATOM      8  C   UNL     1      19.781  30.270  36.294  1.00  0.00     0.123 A 
ATOM      9  C   UNL     1      19.770  30.707  34.965  1.00  0.00     0.094 A 
ATOM     10  C   UNL     1      19.376  32.011  34.655  1.00  0.00     0.146 A 
ATOM     11  O   UNL     1      19.381  32.403  33.386  1.00  0.00    -0.452 OA
ENDROOT
BRANCH   1  12
ATOM     12  C   UNL     1      19.086  33.940  31.550  1.00  0.00     0.025 A 
ATOM     13  C   UNL     1      19.601  35.164  31.089  1.00  0.00     0.016 A 
ATOM     14  C   UNL     1      19.670  35.430  29.719  1.00  0.00     0.051 A 
ATOM     15  C   UNL     1      19.239  34.477  28.790  1.00  0.00     0.157 A 
ATOM     16  C   UNL     1      18.674  32.976  30.615  1.00  0.00     0.062 A 
ATOM     17  C   UNL     1      18.741  33.242  29.239  1.00  0.00     0.158 A 
BRANCH  15  18
ATOM     18  O   UNL     1      19.318  34.771  27.430  1.00  0.00    -0.504 OA
ATOM     19  H   UNL     1      18.992  35.652  27.049  1.00  0.00     0.293 HD
ENDBRANCH  15  18
BRANCH  17  20
ATOM     20  O   UNL     1      18.317  32.284  28.320  1.00  0.00    -0.504 OA
ATOM     21  H   UNL     1      17.523  31.683  28.507  1.00  0.00     0.293 HD
ENDBRANCH  17  20
ENDBRANCH   1  12
BRANCH   2  22
ATOM     22  O   UNL     1      18.159  35.830  33.548  1.00  0.00    -0.502 OA
ATOM     23  H   UNL     1      17.250  36.198  33.803  1.00  0.00     0.293 HD
ENDBRANCH   2  22
BRANCH   6  24
ATOM     24  O   UNL     1      18.611  33.297  38.067  1.00  0.00    -0.507 OA
ATOM     25  H   UNL     1      18.352  34.263  37.904  1.00  0.00     0.293 HD
ENDBRANCH   6  24
BRANCH   8  26
ATOM     26  O   UNL     1      20.173  28.971  36.611  1.00  0.00    -0.508 OA
ATOM     27  H   UNL     1      20.274  28.260  35.897  1.00  0.00     0.293 HD
ENDBRANCH   8  26
TORSDOF 6
ENDMDL
MODEL 7
REMARK VINA RESULT:    -5.912      1.937      7.060
REMARK INTER + INTRA:          -7.440
REMARK INTER:                  -7.120
REMARK INTRA:                  -0.320
REMARK UNBOUND:                -0.319
REMARK SMILES O=c1c(O)c(-c2ccc(O)c(O)c2)oc2cc(O)cc(O)c12
REMARK SMILES IDX 5 1 3 2 2 3 1 4 22 5 20 6 19 7 17 8 16 9 15 10 14 11 6 12
REMARK SMILES IDX 7 13 8 14 9 15 13 16 11 17 10 18 12 20 4 22 21 24 18 26
REMARK H PARENT 10 19 12 21 4 23 21 25 18 27
REMARK Flexibility Score: inf
ROOT
ATOM      1  C   UNL     1      35.822  22.776  27.705  1.00  0.00     0.180 A 
ATOM      2  C   UNL     1      35.914  21.397  27.978  1.00  0.00     0.208 A 
ATOM      3  C   UNL     1      36.040  20.977  29.312  1.00  0.00     0.238 A 
ATOM      4  O   UNL     1      36.112  19.745  29.570  1.00  0.00    -0.285 OA
ATOM      5  C   UNL     1      36.094  21.937  30.343  1.00  0.00     0.111 A 
ATOM      6  C   UNL     1      36.225  21.596  31.711  1.00  0.00     0.134 A 
ATOM      7  C   UNL     1      36.280  22.612  32.679  1.00  0.00     0.093 A 
ATOM      8  C   UNL     1      36.207  23.956  32.305  1.00  0.00     0.123 A 
ATOM      9  C   UNL     1      36.078  24.297  30.955  1.00  0.00     0.094 A 
ATOM     10  C   UNL     1      36.020  23.301  29.977  1.00  0.00     0.146 A 
ATOM     11  O   UNL     1      35.891  23.653  28.703  1.00  0.00    -0.452 OA
ENDROOT
BRANCH   1  12
ATOM     12  C   UNL     1      35.668  23.297  26.328  1.00  0.00     0.025 A 
ATOM     13  C   UNL     1      36.783  23.525  25.503  1.00  0.00     0.016 A 
ATOM     14  C   UNL     1      36.612  23.993  24.198  1.00  0.00     0.051 A 
ATOM     15  C   UNL     1      35.329  24.229  23.693  1.00  0.00     0.157 A 
ATOM     16  C   UNL     1      34.380  23.515  25.811  1.00  0.00     0.062 A 
ATOM     17  C   UNL     1      34.206  23.986  24.502  1.00  0.00     0.158 A 
BRANCH  15  18
ATOM     18  O   UNL     1      35.189  24.698  22.387  1.00  0.00    -0.504 OA
ATOM     19  H   UNL     1      35.013  25.675  22.182  1.00  0.00     0.293 HD
ENDBRANCH  15  18
BRANCH  17  20
ATOM     20  O   UNL     1      32.924  24.211  24.004  1.00  0.00    -0.504 OA
ATOM     21  H   UNL     1      32.380  25.020  24.282  1.00  0.00     0.293 HD
ENDBRANCH  17  20
ENDBRANCH   1  12
BRANCH   2  22
ATOM     22  O   UNL     1      35.908  20.469  26.935  1.00  0.00    -0.502 OA
ATOM     23  H   UNL     1      35.185  19.767  26.837  1.00  0.00     0.293 HD
ENDBRANCH   2  22
BRANCH   6  24
ATOM     24  O   UNL     1      36.300  20.263  32.116  1.00  0.00    -0.507 OA
ATOM     25  H   UNL     1      36.127  19.500  31.473  1.00  0.00     0.293 HD
ENDBRANCH   6  24
BRANCH   8  26
ATOM     26  O   UNL     1      36.266  24.943  33.286  1.00  0.00    -0.508 OA
ATOM     27  H   UNL     1      36.292  24.710  34.271  1.00  0.00     0.293 HD
ENDBRANCH   8  26
TORSDOF 6
ENDMDL
MODEL 8
REMARK VINA RESULT:    -5.831      4.230      8.080
REMARK INTER + INTRA:          -7.344
REMARK INTER:                  -7.159
REMARK INTRA:                  -0.185
REMARK UNBOUND:                -0.319
REMARK SMILES O=c1c(O)c(-c2ccc(O)c(O)c2)oc2cc(O)cc(O)c12
REMARK SMILES IDX 5 1 3 2 2 3 1 4 22 5 20 6 19 7 17 8 16 9 15 10 14 11 6 12
REMARK SMILES IDX 7 13 8 14 9 15 13 16 11 17 10 18 12 20 4 22 21 24 18 26
REMARK H PARENT 10 19 12 21 4 23 21 25 18 27
REMARK Flexibility Score: inf
ROOT
ATOM      1  C   UNL     1      35.923  23.526  31.707  1.00  0.00     0.180 A 
ATOM      2  C   UNL     1      36.971  24.264  32.293  1.00  0.00     0.208 A 
ATOM      3  C   UNL     1      36.852  24.663  33.633  1.00  0.00     0.238 A 
ATOM      4  O   UNL     1      37.788  25.315  34.172  1.00  0.00    -0.285 OA
ATOM      5  C   UNL     1      35.685  24.341  34.357  1.00  0.00     0.111 A 
ATOM      6  C   UNL     1      35.486  24.710  35.709  1.00  0.00     0.134 A 
ATOM      7  C   UNL     1      34.292  24.358  36.357  1.00  0.00     0.093 A 
ATOM      8  C   UNL     1      33.298  23.647  35.682  1.00  0.00     0.123 A 
ATOM      9  C   UNL     1      33.490  23.280  34.346  1.00  0.00     0.094 A 
ATOM     10  C   UNL     1      34.672  23.619  33.683  1.00  0.00     0.146 A 
ATOM     11  O   UNL     1      34.831  23.253  32.417  1.00  0.00    -0.452 OA
ENDROOT
BRANCH   1  12
ATOM     12  C   UNL     1      35.982  23.052  30.306  1.00  0.00     0.025 A 
ATOM     13  C   UNL     1      36.033  21.681  29.999  1.00  0.00     0.016 A 
ATOM     14  C   UNL     1      36.064  21.256  28.669  1.00  0.00     0.051 A 
ATOM     15  C   UNL     1      36.031  22.189  27.626  1.00  0.00     0.157 A 
ATOM     16  C   UNL     1      35.928  23.985  29.258  1.00  0.00     0.062 A 
ATOM     17  C   UNL     1      35.959  23.561  27.922  1.00  0.00     0.158 A 
BRANCH  15  18
ATOM     18  O   UNL     1      36.064  21.736  26.308  1.00  0.00    -0.504 OA
ATOM     19  H   UNL     1      36.300  20.779  26.074  1.00  0.00     0.293 HD
ENDBRANCH  15  18
BRANCH  17  20
ATOM     20  O   UNL     1      35.919  24.496  26.889  1.00  0.00    -0.504 OA
ATOM     21  H   UNL     1      36.307  24.296  25.974  1.00  0.00     0.293 HD
ENDBRANCH  17  20
ENDBRANCH   1  12
BRANCH   2  22
ATOM     22  O   UNL     1      38.094  24.613  31.541  1.00  0.00    -0.502 OA
ATOM     23  H   UNL     1      38.253  24.258  30.605  1.00  0.00     0.293 HD
ENDBRANCH   2  22
BRANCH   6  24
ATOM     24  O   UNL     1      36.460  25.421  36.411  1.00  0.00    -0.507 OA
ATOM     25  H   UNL     1      36.455  26.433  36.452  1.00  0.00     0.293 HD
ENDBRANCH   6  24
BRANCH   8  26
ATOM     26  O   UNL     1      32.122  23.312  36.348  1.00  0.00    -0.508 OA
ATOM     27  H   UNL     1      32.092  23.226  37.358  1.00  0.00     0.293 HD
ENDBRANCH   8  26
TORSDOF 6
ENDMDL
MODEL 9
REMARK VINA RESULT:    -5.737      4.611      8.624
REMARK INTER + INTRA:          -7.230
REMARK INTER:                  -6.937
REMARK INTRA:                  -0.293
REMARK UNBOUND:                -0.319
REMARK SMILES O=c1c(O)c(-c2ccc(O)c(O)c2)oc2cc(O)cc(O)c12
REMARK SMILES IDX 5 1 3 2 2 3 1 4 22 5 20 6 19 7 17 8 16 9 15 10 14 11 6 12
REMARK SMILES IDX 7 13 8 14 9 15 13 16 11 17 10 18 12 20 4 22 21 24 18 26
REMARK H PARENT 10 19 12 21 4 23 21 25 18 27
REMARK Flexibility Score: inf
ROOT
ATOM      1  C   UNL     1      35.875  24.283  32.048  1.00  0.00     0.180 A 
ATOM      2  C   UNL     1      36.945  24.833  32.781  1.00  0.00     0.208 A 
ATOM      3  C   UNL     1      36.864  24.860  34.182  1.00  0.00     0.238 A 
ATOM      4  O   UNL     1      37.820  25.340  34.850  1.00  0.00    -0.285 OA
ATOM      5  C   UNL     1      35.713  24.358  34.824  1.00  0.00     0.111 A 
ATOM      6  C   UNL     1      35.552  24.353  36.231  1.00  0.00     0.134 A 
ATOM      7  C   UNL     1      34.371  23.843  36.793  1.00  0.00     0.093 A 
ATOM      8  C   UNL     1      33.353  23.342  35.979  1.00  0.00     0.123 A 
ATOM      9  C   UNL     1      33.507  23.346  34.589  1.00  0.00     0.094 A 
ATOM     10  C   UNL     1      34.676  23.847  34.010  1.00  0.00     0.146 A 
ATOM     11  O   UNL     1      34.799  23.833  32.687  1.00  0.00    -0.452 OA
ENDROOT
BRANCH   1  12
ATOM     12  C   UNL     1      35.893  24.201  30.569  1.00  0.00     0.025 A 
ATOM     13  C   UNL     1      35.600  25.321  29.772  1.00  0.00     0.016 A 
ATOM     14  C   UNL     1      35.647  25.227  28.378  1.00  0.00     0.051 A 
ATOM     15  C   UNL     1      36.000  24.021  27.762  1.00  0.00     0.157 A 
ATOM     16  C   UNL     1      36.268  22.998  29.948  1.00  0.00     0.062 A 
ATOM     17  C   UNL     1      36.315  22.902  28.550  1.00  0.00     0.158 A 
BRANCH  15  18
ATOM     18  O   UNL     1      36.037  23.957  26.369  1.00  0.00    -0.504 OA
ATOM     19  H   UNL     1      36.797  23.508  25.872  1.00  0.00     0.293 HD
ENDBRANCH  15  18
BRANCH  17  20
ATOM     20  O   UNL     1      36.674  21.700  27.943  1.00  0.00    -0.504 OA
ATOM     21  H   UNL     1      37.624  21.522  27.635  1.00  0.00     0.293 HD
ENDBRANCH  17  20
ENDBRANCH   1  12
BRANCH   2  22
ATOM     22  O   UNL     1      38.052  25.368  32.119  1.00  0.00    -0.502 OA
ATOM     23  H   UNL     1      38.024  26.267  31.653  1.00  0.00     0.293 HD
ENDBRANCH   2  22
BRANCH   6  24
ATOM     24  O   UNL     1      36.551  24.846  37.071  1.00  0.00    -0.507 OA
ATOM     25  H   UNL     1      36.330  25.362  37.915  1.00  0.00     0.293 HD
ENDBRANCH   6  24
BRANCH   8  26
ATOM     26  O   UNL     1      32.191  22.844  36.564  1.00  0.00    -0.508 OA
ATOM     27  H   UNL     1      31.822  21.933  36.316  1.00  0.00     0.293 HD
ENDBRANCH   8  26
TORSDOF 6
ENDMDL
