MODEL 1
REMARK VINA RESULT:    -6.575      0.000      0.000
REMARK INTER + INTRA:          -8.002
REMARK INTER:                  -7.728
REMARK INTRA:                  -0.274
REMARK UNBOUND:                -0.274
REMARK SMILES Oc1ccc(-c2[o+]c3cc(O)cc(O)c3cc2O)cc1
REMARK SMILES IDX 6 1 7 2 8 3 9 4 10 5 12 6 13 7 15 8 16 9 17 10 5 11 4 12
REMARK SMILES IDX 3 13 2 14 19 15 20 16 1 17 18 19 11 21 14 23
REMARK H PARENT 1 18 18 20 11 22 14 24
REMARK Flexibility Score: inf
ROOT
ATOM      1  C   UNL     1       1.908 -19.182  -3.850  1.00  0.00     0.401 A 
ATOM      2  O   UNL     1       1.129 -18.104  -3.812  1.00  0.00    -0.202 OA
ATOM      3  C   UNL     1       1.298 -17.114  -2.942  1.00  0.00     0.368 A 
ATOM      4  C   UNL     1       0.430 -16.019  -2.982  1.00  0.00     0.162 A 
ATOM      5  C   UNL     1       0.584 -14.964  -2.082  1.00  0.00     0.128 A 
ATOM      6  C   UNL     1       1.614 -15.000  -1.136  1.00  0.00     0.093 A 
ATOM      7  C   UNL     1       2.497 -16.085  -1.075  1.00  0.00     0.136 A 
ATOM      8  C   UNL     1       2.341 -17.162  -1.987  1.00  0.00     0.125 A 
ATOM      9  C   UNL     1       3.170 -18.295  -1.991  1.00  0.00     0.078 A 
ATOM     10  C   UNL     1       2.952 -19.320  -2.917  1.00  0.00     0.223 A 
ENDROOT
BRANCH   1  11
ATOM     11  C   UNL     1       1.624 -20.214  -4.875  1.00  0.00     0.084 A 
ATOM     12  C   UNL     1       0.483 -21.023  -4.744  1.00  0.00     0.022 A 
ATOM     13  C   UNL     1       0.185 -21.988  -5.711  1.00  0.00     0.047 A 
ATOM     14  C   UNL     1       1.016 -22.146  -6.827  1.00  0.00     0.115 A 
ATOM     15  C   UNL     1       2.444 -20.365  -6.009  1.00  0.00     0.022 A 
ATOM     16  C   UNL     1       2.142 -21.331  -6.975  1.00  0.00     0.047 A 
BRANCH  14  17
ATOM     17  O   UNL     1       0.729 -23.104  -7.797  1.00  0.00    -0.508 OA
ATOM     18  H   UNL     1       0.868 -24.094  -7.621  1.00  0.00     0.293 HD
ENDBRANCH  14  17
ENDBRANCH   1  11
BRANCH  10  19
ATOM     19  O   UNL     1       3.744 -20.468  -2.890  1.00  0.00    -0.500 OA
ATOM     20  H   UNL     1       3.488 -21.278  -2.338  1.00  0.00     0.294 HD
ENDBRANCH  10  19
BRANCH   5  21
ATOM     21  O   UNL     1      -0.291 -13.881  -2.138  1.00  0.00    -0.507 OA
ATOM     22  H   UNL     1      -0.928 -13.674  -1.377  1.00  0.00     0.293 HD
ENDBRANCH   5  21
BRANCH   7  23
ATOM     23  O   UNL     1       3.501 -16.045  -0.103  1.00  0.00    -0.507 OA
ATOM     24  H   UNL     1       4.132 -15.270   0.034  1.00  0.00     0.293 HD
ENDBRANCH   7  23
TORSDOF 5
ENDMDL
MODEL 2
REMARK VINA RESULT:    -6.450     10.323     12.282
REMARK INTER + INTRA:          -7.856
REMARK INTER:                  -7.547
REMARK INTRA:                  -0.309
REMARK UNBOUND:                -0.274
REMARK SMILES Oc1ccc(-c2[o+]c3cc(O)cc(O)c3cc2O)cc1
REMARK SMILES IDX 6 1 7 2 8 3 9 4 10 5 12 6 13 7 15 8 16 9 17 10 5 11 4 12
REMARK SMILES IDX 3 13 2 14 19 15 20 16 1 17 18 19 11 21 14 23
REMARK H PARENT 1 18 18 20 11 22 14 24
REMARK Flexibility Score: inf
ROOT
ATOM      1  C   UNL     1       6.456 -23.503   5.008  1.00  0.00     0.401 A 
ATOM      2  O   UNL     1       6.271 -24.622   5.705  1.00  0.00    -0.202 OA
ATOM      3  C   UNL     1       5.848 -24.634   6.964  1.00  0.00     0.368 A 
ATOM      4  C   UNL     1       5.681 -25.861   7.612  1.00  0.00     0.162 A 
ATOM      5  C   UNL     1       5.235 -25.906   8.933  1.00  0.00     0.128 A 
ATOM      6  C   UNL     1       4.951 -24.716   9.613  1.00  0.00     0.093 A 
ATOM      7  C   UNL     1       5.110 -23.474   8.986  1.00  0.00     0.136 A 
ATOM      8  C   UNL     1       5.567 -23.426   7.643  1.00  0.00     0.125 A 
ATOM      9  C   UNL     1       5.767 -22.226   6.940  1.00  0.00     0.078 A 
ATOM     10  C   UNL     1       6.224 -22.257   5.619  1.00  0.00     0.223 A 
ENDROOT
BRANCH   1  11
ATOM     11  C   UNL     1       6.922 -23.620   3.606  1.00  0.00     0.084 A 
ATOM     12  C   UNL     1       8.299 -23.563   3.329  1.00  0.00     0.022 A 
ATOM     13  C   UNL     1       8.762 -23.693   2.017  1.00  0.00     0.047 A 
ATOM     14  C   UNL     1       7.857 -23.896   0.967  1.00  0.00     0.115 A 
ATOM     15  C   UNL     1       6.020 -23.845   2.550  1.00  0.00     0.022 A 
ATOM     16  C   UNL     1       6.488 -23.975   1.238  1.00  0.00     0.047 A 
BRANCH  14  17
ATOM     17  O   UNL     1       8.307 -24.027  -0.345  1.00  0.00    -0.508 OA
ATOM     18  H   UNL     1       7.677 -24.277  -1.099  1.00  0.00     0.293 HD
ENDBRANCH  14  17
ENDBRANCH   1  11
BRANCH  10  19
ATOM     19  O   UNL     1       6.471 -21.066   4.935  1.00  0.00    -0.500 OA
ATOM     20  H   UNL     1       6.467 -20.170   5.409  1.00  0.00     0.294 HD
ENDBRANCH  10  19
BRANCH   5  21
ATOM     21  O   UNL     1       5.074 -27.139   9.563  1.00  0.00    -0.507 OA
ATOM     22  H   UNL     1       4.830 -27.973   9.041  1.00  0.00     0.293 HD
ENDBRANCH   5  21
BRANCH   7  23
ATOM     23  O   UNL     1       4.803 -22.332   9.731  1.00  0.00    -0.507 OA
ATOM     24  H   UNL     1       4.339 -21.516   9.361  1.00  0.00     0.293 HD
ENDBRANCH   7  23
TORSDOF 5
ENDMDL
MODEL 3
REMARK VINA RESULT:    -6.181      1.544      7.013
REMARK INTER + INTRA:          -7.540
REMARK INTER:                  -7.281
REMARK INTRA:                  -0.259
REMARK UNBOUND:                -0.274
REMARK SMILES Oc1ccc(-c2[o+]c3cc(O)cc(O)c3cc2O)cc1
REMARK SMILES IDX 6 1 7 2 8 3 9 4 10 5 12 6 13 7 15 8 16 9 17 10 5 11 4 12
REMARK SMILES IDX 3 13 2 14 19 15 20 16 1 17 18 19 11 21 14 23
REMARK H PARENT 1 18 18 20 11 22 14 24
REMARK Flexibility Score: inf
ROOT
ATOM      1  C   UNL     1       1.965 -18.600  -4.619  1.00  0.00     0.401 A 
ATOM      2  O   UNL     1       1.351 -19.777  -4.520  1.00  0.00    -0.202 OA
ATOM      3  C   UNL     1       1.183 -20.601  -5.549  1.00  0.00     0.368 A 
ATOM      4  C   UNL     1       0.529 -21.818  -5.345  1.00  0.00     0.162 A 
ATOM      5  C   UNL     1       0.340 -22.704  -6.406  1.00  0.00     0.128 A 
ATOM      6  C   UNL     1       0.810 -22.373  -7.682  1.00  0.00     0.093 A 
ATOM      7  C   UNL     1       1.470 -21.160  -7.913  1.00  0.00     0.136 A 
ATOM      8  C   UNL     1       1.660 -20.255  -6.835  1.00  0.00     0.125 A 
ATOM      9  C   UNL     1       2.299 -19.012  -6.977  1.00  0.00     0.078 A 
ATOM     10  C   UNL     1       2.445 -18.170  -5.870  1.00  0.00     0.223 A 
ENDROOT
BRANCH   1  11
ATOM     11  C   UNL     1       2.099 -17.776  -3.396  1.00  0.00     0.084 A 
ATOM     12  C   UNL     1       3.095 -18.091  -2.456  1.00  0.00     0.022 A 
ATOM     13  C   UNL     1       3.253 -17.314  -1.305  1.00  0.00     0.047 A 
ATOM     14  C   UNL     1       2.428 -16.203  -1.086  1.00  0.00     0.115 A 
ATOM     15  C   UNL     1       1.287 -16.647  -3.180  1.00  0.00     0.022 A 
ATOM     16  C   UNL     1       1.449 -15.871  -2.027  1.00  0.00     0.047 A 
BRANCH  14  17
ATOM     17  O   UNL     1       2.576 -15.421   0.057  1.00  0.00    -0.508 OA
ATOM     18  H   UNL     1       2.932 -14.473   0.008  1.00  0.00     0.293 HD
ENDBRANCH  14  17
ENDBRANCH   1  11
BRANCH  10  19
ATOM     19  O   UNL     1       3.034 -16.914  -6.018  1.00  0.00    -0.500 OA
ATOM     20  H   UNL     1       3.512 -16.456  -5.251  1.00  0.00     0.294 HD
ENDBRANCH  10  19
BRANCH   5  21
ATOM     21  O   UNL     1      -0.315 -23.914  -6.183  1.00  0.00    -0.507 OA
ATOM     22  H   UNL     1       0.178 -24.728  -5.836  1.00  0.00     0.293 HD
ENDBRANCH   5  21
BRANCH   7  23
ATOM     23  O   UNL     1       1.913 -20.904  -9.214  1.00  0.00    -0.507 OA
ATOM     24  H   UNL     1       1.480 -20.247  -9.845  1.00  0.00     0.293 HD
ENDBRANCH   7  23
TORSDOF 5
ENDMDL
MODEL 4
REMARK VINA RESULT:    -6.121     10.408     12.153
REMARK INTER + INTRA:          -7.468
REMARK INTER:                  -7.176
REMARK INTRA:                  -0.292
REMARK UNBOUND:                -0.274
REMARK SMILES Oc1ccc(-c2[o+]c3cc(O)cc(O)c3cc2O)cc1
REMARK SMILES IDX 6 1 7 2 8 3 9 4 10 5 12 6 13 7 15 8 16 9 17 10 5 11 4 12
REMARK SMILES IDX 3 13 2 14 19 15 20 16 1 17 18 19 11 21 14 23
REMARK H PARENT 1 18 18 20 11 22 14 24
REMARK Flexibility Score: inf
ROOT
ATOM      1  C   UNL     1       6.204 -24.568   4.856  1.00  0.00     0.401 A 
ATOM      2  O   UNL     1       5.942 -23.640   5.774  1.00  0.00    -0.202 OA
ATOM      3  C   UNL     1       5.618 -23.929   7.030  1.00  0.00     0.368 A 
ATOM      4  C   UNL     1       5.364 -22.884   7.923  1.00  0.00     0.162 A 
ATOM      5  C   UNL     1       5.025 -23.157   9.248  1.00  0.00     0.128 A 
ATOM      6  C   UNL     1       4.940 -24.482   9.688  1.00  0.00     0.093 A 
ATOM      7  C   UNL     1       5.190 -25.547   8.813  1.00  0.00     0.136 A 
ATOM      8  C   UNL     1       5.532 -25.273   7.462  1.00  0.00     0.125 A 
ATOM      9  C   UNL     1       5.787 -26.276   6.513  1.00  0.00     0.078 A 
ATOM     10  C   UNL     1       6.114 -25.929   5.198  1.00  0.00     0.223 A 
ENDROOT
BRANCH   1  11
ATOM     11  C   UNL     1       6.563 -24.119   3.491  1.00  0.00     0.084 A 
ATOM     12  C   UNL     1       5.570 -24.066   2.497  1.00  0.00     0.022 A 
ATOM     13  C   UNL     1       5.883 -23.625   1.208  1.00  0.00     0.047 A 
ATOM     14  C   UNL     1       7.188 -23.219   0.899  1.00  0.00     0.115 A 
ATOM     15  C   UNL     1       7.866 -23.690   3.179  1.00  0.00     0.022 A 
ATOM     16  C   UNL     1       8.175 -23.250   1.888  1.00  0.00     0.047 A 
BRANCH  14  17
ATOM     17  O   UNL     1       7.511 -22.779  -0.382  1.00  0.00    -0.508 OA
ATOM     18  H   UNL     1       8.419 -22.966  -0.793  1.00  0.00     0.293 HD
ENDBRANCH  14  17
ENDBRANCH   1  11
BRANCH  10  19
ATOM     19  O   UNL     1       6.319 -26.925   4.242  1.00  0.00    -0.500 OA
ATOM     20  H   UNL     1       5.592 -27.194   3.590  1.00  0.00     0.294 HD
ENDBRANCH  10  19
BRANCH   5  21
ATOM     21  O   UNL     1       4.775 -22.102  10.124  1.00  0.00    -0.507 OA
ATOM     22  H   UNL     1       3.884 -21.619  10.132  1.00  0.00     0.293 HD
ENDBRANCH   5  21
BRANCH   7  23
ATOM     23  O   UNL     1       5.088 -26.842   9.328  1.00  0.00    -0.507 OA
ATOM     24  H   UNL     1       5.589 -27.175  10.138  1.00  0.00     0.293 HD
ENDBRANCH   7  23
TORSDOF 5
ENDMDL
MODEL 5
REMARK VINA RESULT:    -6.037      1.537      6.858
REMARK INTER + INTRA:          -7.370
REMARK INTER:                  -7.163
REMARK INTRA:                  -0.207
REMARK UNBOUND:                -0.274
REMARK SMILES Oc1ccc(-c2[o+]c3cc(O)cc(O)c3cc2O)cc1
REMARK SMILES IDX 6 1 7 2 8 3 9 4 10 5 12 6 13 7 15 8 16 9 17 10 5 11 4 12
REMARK SMILES IDX 3 13 2 14 19 15 20 16 1 17 18 19 11 21 14 23
REMARK H PARENT 1 18 18 20 11 22 14 24
REMARK Flexibility Score: inf
ROOT
ATOM      1  C   UNL     1       1.370 -19.270  -3.807  1.00  0.00     0.401 A 
ATOM      2  O   UNL     1       1.648 -19.162  -5.104  1.00  0.00    -0.202 OA
ATOM      3  C   UNL     1       1.377 -20.114  -5.990  1.00  0.00     0.368 A 
ATOM      4  C   UNL     1       1.704 -19.905  -7.333  1.00  0.00     0.162 A 
ATOM      5  C   UNL     1       1.429 -20.886  -8.285  1.00  0.00     0.128 A 
ATOM      6  C   UNL     1       0.820 -22.084  -7.896  1.00  0.00     0.093 A 
ATOM      7  C   UNL     1       0.482 -22.318  -6.557  1.00  0.00     0.136 A 
ATOM      8  C   UNL     1       0.764 -21.323  -5.585  1.00  0.00     0.125 A 
ATOM      9  C   UNL     1       0.472 -21.475  -4.219  1.00  0.00     0.078 A 
ATOM     10  C   UNL     1       0.784 -20.452  -3.318  1.00  0.00     0.223 A 
ENDROOT
BRANCH   1  11
ATOM     11  C   UNL     1       1.712 -18.134  -2.920  1.00  0.00     0.084 A 
ATOM     12  C   UNL     1       2.782 -18.259  -2.018  1.00  0.00     0.022 A 
ATOM     13  C   UNL     1       3.136 -17.192  -1.187  1.00  0.00     0.047 A 
ATOM     14  C   UNL     1       2.434 -15.982  -1.257  1.00  0.00     0.115 A 
ATOM     15  C   UNL     1       1.025 -16.908  -3.000  1.00  0.00     0.022 A 
ATOM     16  C   UNL     1       1.382 -15.843  -2.167  1.00  0.00     0.047 A 
BRANCH  14  17
ATOM     17  O   UNL     1       2.777 -14.912  -0.434  1.00  0.00    -0.508 OA
ATOM     18  H   UNL     1       3.452 -14.214  -0.726  1.00  0.00     0.293 HD
ENDBRANCH  14  17
ENDBRANCH   1  11
BRANCH  10  19
ATOM     19  O   UNL     1       0.540 -20.622  -1.955  1.00  0.00    -0.500 OA
ATOM     20  H   UNL     1      -0.272 -21.125  -1.618  1.00  0.00     0.294 HD
ENDBRANCH  10  19
BRANCH   5  21
ATOM     21  O   UNL     1       1.762 -20.660  -9.620  1.00  0.00    -0.507 OA
ATOM     22  H   UNL     1       2.727 -20.643  -9.929  1.00  0.00     0.293 HD
ENDBRANCH   5  21
BRANCH   7  23
ATOM     23  O   UNL     1      -0.126 -23.538  -6.249  1.00  0.00    -0.507 OA
ATOM     24  H   UNL     1      -1.094 -23.755  -6.429  1.00  0.00     0.293 HD
ENDBRANCH   7  23
TORSDOF 5
ENDMDL
MODEL 6
REMARK VINA RESULT:    -5.882      2.302      3.547
REMARK INTER + INTRA:          -7.188
REMARK INTER:                  -6.899
REMARK INTRA:                  -0.289
REMARK UNBOUND:                -0.274
REMARK SMILES Oc1ccc(-c2[o+]c3cc(O)cc(O)c3cc2O)cc1
REMARK SMILES IDX 6 1 7 2 8 3 9 4 10 5 12 6 13 7 15 8 16 9 17 10 5 11 4 12
REMARK SMILES IDX 3 13 2 14 19 15 20 16 1 17 18 19 11 21 14 23
REMARK H PARENT 1 18 18 20 11 22 14 24
REMARK Flexibility Score: inf
ROOT
ATOM      1  C   UNL     1       2.490 -18.623  -5.156  1.00  0.00     0.401 A 
ATOM      2  O   UNL     1       3.423 -18.751  -4.216  1.00  0.00    -0.202 OA
ATOM      3  C   UNL     1       3.973 -17.718  -3.588  1.00  0.00     0.368 A 
ATOM      4  C   UNL     1       4.945 -17.954  -2.612  1.00  0.00     0.162 A 
ATOM      5  C   UNL     1       5.538 -16.889  -1.935  1.00  0.00     0.128 A 
ATOM      6  C   UNL     1       5.157 -15.576  -2.232  1.00  0.00     0.093 A 
ATOM      7  C   UNL     1       4.185 -15.311  -3.206  1.00  0.00     0.136 A 
ATOM      8  C   UNL     1       3.583 -16.394  -3.899  1.00  0.00     0.125 A 
ATOM      9  C   UNL     1       2.610 -16.223  -4.898  1.00  0.00     0.078 A 
ATOM     10  C   UNL     1       2.064 -17.338  -5.542  1.00  0.00     0.223 A 
ENDROOT
BRANCH   1  11
ATOM     11  C   UNL     1       1.946 -19.854  -5.775  1.00  0.00     0.084 A 
ATOM     12  C   UNL     1       2.451 -20.285  -7.014  1.00  0.00     0.022 A 
ATOM     13  C   UNL     1       1.967 -21.455  -7.607  1.00  0.00     0.047 A 
ATOM     14  C   UNL     1       0.984 -22.216  -6.962  1.00  0.00     0.115 A 
ATOM     15  C   UNL     1       0.972 -20.634  -5.125  1.00  0.00     0.022 A 
ATOM     16  C   UNL     1       0.492 -21.805  -5.720  1.00  0.00     0.047 A 
BRANCH  14  17
ATOM     17  O   UNL     1       0.494 -23.383  -7.543  1.00  0.00    -0.508 OA
ATOM     18  H   UNL     1       0.211 -23.413  -8.516  1.00  0.00     0.293 HD
ENDBRANCH  14  17
ENDBRANCH   1  11
BRANCH  10  19
ATOM     19  O   UNL     1       1.135 -17.169  -6.569  1.00  0.00    -0.500 OA
ATOM     20  H   UNL     1       0.897 -17.923  -7.201  1.00  0.00     0.294 HD
ENDBRANCH  10  19
BRANCH   5  21
ATOM     21  O   UNL     1       6.505 -17.144  -0.965  1.00  0.00    -0.507 OA
ATOM     22  H   UNL     1       7.402 -17.551  -1.205  1.00  0.00     0.293 HD
ENDBRANCH   5  21
BRANCH   7  23
ATOM     23  O   UNL     1       3.857 -13.974  -3.443  1.00  0.00    -0.507 OA
ATOM     24  H   UNL     1       4.436 -13.189  -3.182  1.00  0.00     0.293 HD
ENDBRANCH   7  23
TORSDOF 5
ENDMDL
MODEL 7
REMARK VINA RESULT:    -5.776     11.460     13.188
REMARK INTER + INTRA:          -7.063
REMARK INTER:                  -6.757
REMARK INTRA:                  -0.306
REMARK UNBOUND:                -0.274
REMARK SMILES Oc1ccc(-c2[o+]c3cc(O)cc(O)c3cc2O)cc1
REMARK SMILES IDX 6 1 7 2 8 3 9 4 10 5 12 6 13 7 15 8 16 9 17 10 5 11 4 12
REMARK SMILES IDX 3 13 2 14 19 15 20 16 1 17 18 19 11 21 14 23
REMARK H PARENT 1 18 18 20 11 22 14 24
REMARK Flexibility Score: inf
ROOT
ATOM      1  C   UNL     1       3.670 -26.075   6.521  1.00  0.00     0.401 A 
ATOM      2  O   UNL     1       3.919 -24.769   6.572  1.00  0.00    -0.202 OA
ATOM      3  C   UNL     1       4.829 -24.170   5.811  1.00  0.00     0.368 A 
ATOM      4  C   UNL     1       5.015 -22.790   5.935  1.00  0.00     0.162 A 
ATOM      5  C   UNL     1       5.961 -22.134   5.148  1.00  0.00     0.128 A 
ATOM      6  C   UNL     1       6.726 -22.859   4.227  1.00  0.00     0.093 A 
ATOM      7  C   UNL     1       6.557 -24.241   4.083  1.00  0.00     0.136 A 
ATOM      8  C   UNL     1       5.598 -24.913   4.886  1.00  0.00     0.125 A 
ATOM      9  C   UNL     1       5.370 -26.298   4.818  1.00  0.00     0.078 A 
ATOM     10  C   UNL     1       4.411 -26.890   5.645  1.00  0.00     0.223 A 
ENDROOT
BRANCH   1  11
ATOM     11  C   UNL     1       2.624 -26.624   7.414  1.00  0.00     0.084 A 
ATOM     12  C   UNL     1       1.285 -26.631   6.987  1.00  0.00     0.022 A 
ATOM     13  C   UNL     1       0.284 -27.164   7.805  1.00  0.00     0.047 A 
ATOM     14  C   UNL     1       0.611 -27.709   9.054  1.00  0.00     0.115 A 
ATOM     15  C   UNL     1       2.947 -27.192   8.660  1.00  0.00     0.022 A 
ATOM     16  C   UNL     1       1.943 -27.724   9.476  1.00  0.00     0.047 A 
BRANCH  14  17
ATOM     17  O   UNL     1      -0.378 -28.242   9.877  1.00  0.00    -0.508 OA
ATOM     18  H   UNL     1      -0.665 -29.212   9.802  1.00  0.00     0.293 HD
ENDBRANCH  14  17
ENDBRANCH   1  11
BRANCH  10  19
ATOM     19  O   UNL     1       4.219 -28.272   5.615  1.00  0.00    -0.500 OA
ATOM     20  H   UNL     1       3.293 -28.682   5.661  1.00  0.00     0.294 HD
ENDBRANCH  10  19
BRANCH   5  21
ATOM     21  O   UNL     1       6.134 -20.758   5.285  1.00  0.00    -0.507 OA
ATOM     22  H   UNL     1       6.902 -20.272   4.837  1.00  0.00     0.293 HD
ENDBRANCH   5  21
BRANCH   7  23
ATOM     23  O   UNL     1       7.357 -24.893   3.139  1.00  0.00    -0.507 OA
ATOM     24  H   UNL     1       7.399 -25.895   3.022  1.00  0.00     0.293 HD
ENDBRANCH   7  23
TORSDOF 5
ENDMDL
MODEL 8
REMARK VINA RESULT:    -5.732     11.155     12.238
REMARK INTER + INTRA:          -7.011
REMARK INTER:                  -6.715
REMARK INTRA:                  -0.297
REMARK UNBOUND:                -0.274
REMARK SMILES Oc1ccc(-c2[o+]c3cc(O)cc(O)c3cc2O)cc1
REMARK SMILES IDX 6 1 7 2 8 3 9 4 10 5 12 6 13 7 15 8 16 9 17 10 5 11 4 12
REMARK SMILES IDX 3 13 2 14 19 15 20 16 1 17 18 19 11 21 14 23
REMARK H PARENT 1 18 18 20 11 22 14 24
REMARK Flexibility Score: inf
ROOT
ATOM      1  C   UNL     1      -9.267 -21.197  -0.144  1.00  0.00     0.401 A 
ATOM      2  O   UNL     1      -9.039 -21.204   1.167  1.00  0.00    -0.202 OA
ATOM      3  C   UNL     1      -9.292 -20.167   1.957  1.00  0.00     0.368 A 
ATOM      4  C   UNL     1      -9.021 -20.272   3.325  1.00  0.00     0.162 A 
ATOM      5  C   UNL     1      -9.279 -19.199   4.178  1.00  0.00     0.128 A 
ATOM      6  C   UNL     1      -9.814 -18.012   3.665  1.00  0.00     0.093 A 
ATOM      7  C   UNL     1     -10.094 -17.882   2.299  1.00  0.00     0.136 A 
ATOM      8  C   UNL     1      -9.829 -18.970   1.427  1.00  0.00     0.125 A 
ATOM      9  C   UNL     1     -10.067 -18.925   0.043  1.00  0.00     0.078 A 
ATOM     10  C   UNL     1      -9.776 -20.036  -0.754  1.00  0.00     0.223 A 
ENDROOT
BRANCH   1  11
ATOM     11  C   UNL     1      -8.952 -22.422  -0.916  1.00  0.00     0.084 A 
ATOM     12  C   UNL     1      -7.715 -22.524  -1.575  1.00  0.00     0.022 A 
ATOM     13  C   UNL     1      -7.389 -23.679  -2.291  1.00  0.00     0.047 A 
ATOM     14  C   UNL     1      -8.288 -24.752  -2.346  1.00  0.00     0.115 A 
ATOM     15  C   UNL     1      -9.842 -23.511  -0.959  1.00  0.00     0.022 A 
ATOM     16  C   UNL     1      -9.512 -24.665  -1.676  1.00  0.00     0.047 A 
BRANCH  14  17
ATOM     17  O   UNL     1      -7.974 -25.907  -3.057  1.00  0.00    -0.508 OA
ATOM     18  H   UNL     1      -8.659 -26.640  -3.207  1.00  0.00     0.293 HD
ENDBRANCH  14  17
ENDBRANCH   1  11
BRANCH  10  19
ATOM     19  O   UNL     1      -9.965 -19.976  -2.135  1.00  0.00    -0.500 OA
ATOM     20  H   UNL     1     -10.150 -20.807  -2.684  1.00  0.00     0.294 HD
ENDBRANCH  10  19
BRANCH   5  21
ATOM     21  O   UNL     1      -9.003 -19.323   5.539  1.00  0.00    -0.507 OA
ATOM     22  H   UNL     1      -9.618 -18.931   6.243  1.00  0.00     0.293 HD
ENDBRANCH   5  21
BRANCH   7  23
ATOM     23  O   UNL     1     -10.629 -16.666   1.864  1.00  0.00    -0.507 OA
ATOM     24  H   UNL     1     -10.113 -15.801   1.814  1.00  0.00     0.293 HD
ENDBRANCH   7  23
TORSDOF 5
ENDMDL
MODEL 9
REMARK VINA RESULT:    -5.634     10.428     11.682
REMARK INTER + INTRA:          -6.897
REMARK INTER:                  -7.056
REMARK INTRA:                   0.160
REMARK UNBOUND:                -0.274
REMARK SMILES Oc1ccc(-c2[o+]c3cc(O)cc(O)c3cc2O)cc1
REMARK SMILES IDX 6 1 7 2 8 3 9 4 10 5 12 6 13 7 15 8 16 9 17 10 5 11 4 12
REMARK SMILES IDX 3 13 2 14 19 15 20 16 1 17 18 19 11 21 14 23
REMARK H PARENT 1 18 18 20 11 22 14 24
REMARK Flexibility Score: inf
ROOT
ATOM      1  C   UNL     1       5.948 -26.758   3.807  1.00  0.00     0.401 A 
ATOM      2  O   UNL     1       5.943 -25.434   3.673  1.00  0.00    -0.202 OA
ATOM      3  C   UNL     1       5.830 -24.598   4.699  1.00  0.00     0.368 A 
ATOM      4  C   UNL     1       5.839 -23.221   4.458  1.00  0.00     0.162 A 
ATOM      5  C   UNL     1       5.724 -22.320   5.516  1.00  0.00     0.128 A 
ATOM      6  C   UNL     1       5.601 -22.794   6.826  1.00  0.00     0.093 A 
ATOM      7  C   UNL     1       5.590 -24.169   7.095  1.00  0.00     0.136 A 
ATOM      8  C   UNL     1       5.703 -25.089   6.020  1.00  0.00     0.125 A 
ATOM      9  C   UNL     1       5.688 -26.483   6.194  1.00  0.00     0.078 A 
ATOM     10  C   UNL     1       5.800 -27.328   5.085  1.00  0.00     0.223 A 
ENDROOT
BRANCH   1  11
ATOM     11  C   UNL     1       6.091 -27.585   2.586  1.00  0.00     0.084 A 
ATOM     12  C   UNL     1       7.010 -27.200   1.595  1.00  0.00     0.022 A 
ATOM     13  C   UNL     1       7.176 -27.977   0.445  1.00  0.00     0.047 A 
ATOM     14  C   UNL     1       6.437 -29.156   0.278  1.00  0.00     0.115 A 
ATOM     15  C   UNL     1       5.367 -28.780   2.421  1.00  0.00     0.022 A 
ATOM     16  C   UNL     1       5.537 -29.556   1.269  1.00  0.00     0.047 A 
BRANCH  14  17
ATOM     17  O   UNL     1       6.594 -29.938  -0.864  1.00  0.00    -0.508 OA
ATOM     18  H   UNL     1       6.212 -30.875  -0.921  1.00  0.00     0.293 HD
ENDBRANCH  14  17
ENDBRANCH   1  11
BRANCH  10  19
ATOM     19  O   UNL     1       5.735 -28.712   5.251  1.00  0.00    -0.500 OA
ATOM     20  H   UNL     1       4.981 -29.152   5.764  1.00  0.00     0.294 HD
ENDBRANCH  10  19
BRANCH   5  21
ATOM     21  O   UNL     1       5.735 -20.950   5.255  1.00  0.00    -0.507 OA
ATOM     22  H   UNL     1       5.800 -20.591   4.310  1.00  0.00     0.293 HD
ENDBRANCH   5  21
BRANCH   7  23
ATOM     23  O   UNL     1       5.467 -24.564   8.430  1.00  0.00    -0.507 OA
ATOM     24  H   UNL     1       5.813 -25.435   8.801  1.00  0.00     0.293 HD
ENDBRANCH   7  23
TORSDOF 5
ENDMDL
