MODEL 1
REMARK VINA RESULT:    -3.330      0.000      0.000
REMARK INTER + INTRA:          -5.395
REMARK INTER:                  -5.082
REMARK INTRA:                  -0.313
REMARK UNBOUND:                -0.313
REMARK SMILES CC1=CCC[C@@H](C)C(=O)C[C@@H](C(C)C)C(=O)C1
REMARK SMILES IDX 8 1 9 2 6 3 7 4 5 5 4 6 3 7 2 8 1 9 10 11 11 12 15 13 16 14
REMARK SMILES IDX 17 15 12 17 13 18 14 19
REMARK H PARENT
REMARK Flexibility Score: 70.00
ROOT
ATOM      1  C   UNL     1       2.384  20.058   5.349  1.00  0.00     0.136 C 
ATOM      2  O   UNL     1       1.282  19.781   5.801  1.00  0.00    -0.299 OA
ENDROOT
BRANCH   1   3
ATOM      3  C   UNL     1       3.602  19.887   6.239  1.00  0.00     0.053 C 
ATOM      4  C   UNL     1       3.802  18.417   6.625  1.00  0.00     0.016 C 
BRANCH   3   5
ATOM      5  C   UNL     1       3.516  20.784   7.488  1.00  0.00     0.015 C 
BRANCH   5   6
ATOM      6  C   UNL     1       3.933  22.235   7.184  1.00  0.00     0.028 C 
BRANCH   6   7
ATOM      7  C   UNL     1       2.727  23.119   6.997  1.00  0.00    -0.028 C 
ATOM      8  C   UNL     1       2.501  23.888   5.906  1.00  0.00    -0.070 CG0
ATOM      9  C   UNL     1       1.221  24.683   5.854  1.00  0.00     0.039 C 
ATOM     10  G   UNL     1       3.477  23.986   4.743  1.00  0.00     0.000 G0
ENDBRANCH   6   7
ENDBRANCH   5   6
ENDBRANCH   3   5
ENDBRANCH   1   3
BRANCH   1  11
ATOM     11  C   UNL     1       2.475  20.586   3.933  1.00  0.00     0.087 C 
BRANCH  11  12
ATOM     12  C   UNL     1       3.682  21.546   3.739  1.00  0.00     0.066 C 
BRANCH  12  13
ATOM     13  C   UNL     1       3.174  22.977   3.648  1.00  0.00     0.140 C 
ATOM     14  O   UNL     1       2.596  23.346   2.634  1.00  0.00    -0.299 OA
BRANCH  13  15
ATOM     15  C   UNL     1       3.474  23.977   4.736  1.00  0.00     0.106 CG0
ATOM     16  G   UNL     1       2.476  23.899   5.882  1.00  0.00     0.000 G0
ENDBRANCH  13  15
ENDBRANCH  12  13
BRANCH  12  17
ATOM     17  C   UNL     1       4.538  21.186   2.480  1.00  0.00    -0.006 C 
ATOM     18  C   UNL     1       3.835  20.158   1.570  1.00  0.00     0.008 C 
ATOM     19  C   UNL     1       5.916  20.621   2.878  1.00  0.00     0.008 C 
ENDBRANCH  12  17
ENDBRANCH  11  12
ENDBRANCH   1  11
TORSDOF 1
ENDMDL
MODEL 2
REMARK VINA RESULT:    -3.230      1.864      2.408
REMARK INTER + INTRA:          -5.243
REMARK INTER:                  -4.964
REMARK INTRA:                  -0.279
REMARK UNBOUND:                -0.313
REMARK SMILES CC1=CCC[C@@H](C)C(=O)C[C@@H](C(C)C)C(=O)C1
REMARK SMILES IDX 8 1 9 2 6 3 7 4 5 5 4 6 3 7 2 8 1 9 10 11 11 12 15 13 16 14
REMARK SMILES IDX 17 15 12 17 13 18 14 19
REMARK H PARENT
REMARK Flexibility Score: 70.00
ROOT
ATOM      1  C   UNL     1       4.909  20.702   4.108  1.00  0.00     0.136 C 
ATOM      2  O   UNL     1       6.097  20.714   3.819  1.00  0.00    -0.299 OA
ENDROOT
BRANCH   1   3
ATOM      3  C   UNL     1       4.515  20.743   5.574  1.00  0.00     0.053 C 
ATOM      4  C   UNL     1       3.066  20.283   5.769  1.00  0.00     0.016 C 
BRANCH   3   5
ATOM      5  C   UNL     1       4.741  22.142   6.179  1.00  0.00     0.015 C 
BRANCH   5   6
ATOM      6  C   UNL     1       3.435  22.955   6.249  1.00  0.00     0.028 C 
BRANCH   6   7
ATOM      7  C   UNL     1       3.486  24.146   5.327  1.00  0.00    -0.028 C 
ATOM      8  C   UNL     1       2.871  24.211   4.122  1.00  0.00    -0.070 CG0
ATOM      9  C   UNL     1       2.983  25.494   3.339  1.00  0.00     0.039 C 
ATOM     10  G   UNL     1       2.083  23.052   3.530  1.00  0.00     0.000 G0
ENDBRANCH   6   7
ENDBRANCH   5   6
ENDBRANCH   3   5
ENDBRANCH   1   3
BRANCH   1  11
ATOM     11  C   UNL     1       3.891  20.614   2.991  1.00  0.00     0.087 C 
BRANCH  11  12
ATOM     12  C   UNL     1       3.922  21.862   2.066  1.00  0.00     0.066 C 
BRANCH  12  13
ATOM     13  C   UNL     1       2.597  22.601   2.178  1.00  0.00     0.140 C 
ATOM     14  O   UNL     1       1.997  22.916   1.159  1.00  0.00    -0.299 OA
BRANCH  13  15
ATOM     15  C   UNL     1       2.070  23.052   3.518  1.00  0.00     0.106 CG0
ATOM     16  G   UNL     1       2.886  24.196   4.103  1.00  0.00     0.000 G0
ENDBRANCH  13  15
ENDBRANCH  12  13
BRANCH  12  17
ATOM     17  C   UNL     1       4.221  21.497   0.575  1.00  0.00    -0.006 C 
ATOM     18  C   UNL     1       4.880  20.110   0.435  1.00  0.00     0.008 C 
ATOM     19  C   UNL     1       5.141  22.541  -0.088  1.00  0.00     0.008 C 
ENDBRANCH  12  17
ENDBRANCH  11  12
ENDBRANCH   1  11
TORSDOF 1
ENDMDL
MODEL 3
REMARK VINA RESULT:    -3.220      1.939      4.009
REMARK INTER + INTRA:          -5.228
REMARK INTER:                  -5.076
REMARK INTRA:                  -0.152
REMARK UNBOUND:                -0.313
REMARK SMILES CC1=CCC[C@@H](C)C(=O)C[C@@H](C(C)C)C(=O)C1
REMARK SMILES IDX 8 1 9 2 6 3 7 4 5 5 4 6 3 7 2 8 1 9 10 11 11 12 15 13 16 14
REMARK SMILES IDX 17 15 12 17 13 18 14 19
REMARK H PARENT
REMARK Flexibility Score: 70.00
ROOT
ATOM      1  C   UNL     1       5.375  20.449   3.725  1.00  0.00     0.136 C 
ATOM      2  O   UNL     1       6.489  19.974   3.560  1.00  0.00    -0.299 OA
ENDROOT
BRANCH   1   3
ATOM      3  C   UNL     1       4.466  20.614   2.520  1.00  0.00     0.053 C 
ATOM      4  C   UNL     1       5.107  20.021   1.260  1.00  0.00     0.016 C 
BRANCH   3   5
ATOM      5  C   UNL     1       4.078  22.089   2.305  1.00  0.00     0.015 C 
BRANCH   5   6
ATOM      6  C   UNL     1       2.553  22.297   2.365  1.00  0.00     0.028 C 
BRANCH   6   7
ATOM      7  C   UNL     1       2.198  23.457   3.259  1.00  0.00    -0.028 C 
ATOM      8  C   UNL     1       1.753  23.337   4.532  1.00  0.00    -0.070 CG0
ATOM      9  C   UNL     1       1.482  24.601   5.309  1.00  0.00     0.039 C 
ATOM     10  G   UNL     1       1.513  21.993   5.204  1.00  0.00     0.000 G0
ENDBRANCH   6   7
ENDBRANCH   5   6
ENDBRANCH   3   5
ENDBRANCH   1   3
BRANCH   1  11
ATOM     11  C   UNL     1       4.969  20.879   5.118  1.00  0.00     0.087 C 
BRANCH  11  12
ATOM     12  C   UNL     1       3.560  20.355   5.510  1.00  0.00     0.066 C 
BRANCH  12  13
ATOM     13  C   UNL     1       2.709  21.518   5.996  1.00  0.00     0.140 C 
ATOM     14  O   UNL     1       2.939  22.015   7.090  1.00  0.00    -0.299 OA
BRANCH  13  15
ATOM     15  C   UNL     1       1.517  21.992   5.203  1.00  0.00     0.106 CG0
ATOM     16  G   UNL     1       1.765  23.338   4.537  1.00  0.00     0.000 G0
ENDBRANCH  13  15
ENDBRANCH  12  13
BRANCH  12  17
ATOM     17  C   UNL     1       3.619  19.229   6.595  1.00  0.00    -0.006 C 
ATOM     18  C   UNL     1       4.646  18.134   6.244  1.00  0.00     0.008 C 
ATOM     19  C   UNL     1       2.243  18.560   6.788  1.00  0.00     0.008 C 
ENDBRANCH  12  17
ENDBRANCH  11  12
ENDBRANCH   1  11
TORSDOF 1
ENDMDL
MODEL 4
REMARK VINA RESULT:    -3.174      2.102      4.320
REMARK INTER + INTRA:          -5.157
REMARK INTER:                  -4.931
REMARK INTRA:                  -0.226
REMARK UNBOUND:                -0.313
REMARK SMILES CC1=CCC[C@@H](C)C(=O)C[C@@H](C(C)C)C(=O)C1
REMARK SMILES IDX 8 1 9 2 6 3 7 4 5 5 4 6 3 7 2 8 1 9 10 11 11 12 15 13 16 14
REMARK SMILES IDX 17 15 12 17 13 18 14 19
REMARK H PARENT
REMARK Flexibility Score: 70.00
ROOT
ATOM      1  C   UNL     1       5.371  20.602   3.111  1.00  0.00     0.136 C 
ATOM      2  O   UNL     1       6.483  20.105   3.222  1.00  0.00    -0.299 OA
ENDROOT
BRANCH   1   3
ATOM      3  C   UNL     1       4.714  20.620   1.743  1.00  0.00     0.053 C 
ATOM      4  C   UNL     1       5.117  19.390   0.921  1.00  0.00     0.016 C 
BRANCH   3   5
ATOM      5  C   UNL     1       5.027  21.923   0.984  1.00  0.00     0.015 C 
BRANCH   5   6
ATOM      6  C   UNL     1       3.750  22.716   0.653  1.00  0.00     0.028 C 
BRANCH   6   7
ATOM      7  C   UNL     1       3.826  24.121   1.193  1.00  0.00    -0.028 C 
ATOM      8  C   UNL     1       3.168  24.558   2.292  1.00  0.00    -0.070 CG0
ATOM      9  C   UNL     1       3.386  25.985   2.727  1.00  0.00     0.039 C 
ATOM     10  G   UNL     1       2.221  23.679   3.096  1.00  0.00     0.000 G0
ENDBRANCH   6   7
ENDBRANCH   5   6
ENDBRANCH   3   5
ENDBRANCH   1   3
BRANCH   1  11
ATOM     11  C   UNL     1       4.720  21.204   4.338  1.00  0.00     0.087 C 
BRANCH  11  12
ATOM     12  C   UNL     1       3.202  21.463   4.132  1.00  0.00     0.066 C 
BRANCH  12  13
ATOM     13  C   UNL     1       2.934  22.958   4.211  1.00  0.00     0.140 C 
ATOM     14  O   UNL     1       3.216  23.566   5.234  1.00  0.00    -0.299 OA
BRANCH  13  15
ATOM     15  C   UNL     1       2.222  23.679   3.093  1.00  0.00     0.106 CG0
ATOM     16  G   UNL     1       3.165  24.553   2.278  1.00  0.00     0.000 G0
ENDBRANCH  13  15
ENDBRANCH  12  13
BRANCH  12  17
ATOM     17  C   UNL     1       2.316  20.693   5.165  1.00  0.00    -0.006 C 
ATOM     18  C   UNL     1       3.159  20.004   6.258  1.00  0.00     0.008 C 
ATOM     19  C   UNL     1       1.447  19.622   4.475  1.00  0.00     0.008 C 
ENDBRANCH  12  17
ENDBRANCH  11  12
ENDBRANCH   1  11
TORSDOF 1
ENDMDL
MODEL 5
REMARK VINA RESULT:    -3.174      2.211      4.299
REMARK INTER + INTRA:          -5.157
REMARK INTER:                  -4.775
REMARK INTRA:                  -0.382
REMARK UNBOUND:                -0.313
REMARK SMILES CC1=CCC[C@@H](C)C(=O)C[C@@H](C(C)C)C(=O)C1
REMARK SMILES IDX 8 1 9 2 6 3 7 4 5 5 4 6 3 7 2 8 1 9 10 11 11 12 15 13 16 14
REMARK SMILES IDX 17 15 12 17 13 18 14 19
REMARK H PARENT
REMARK Flexibility Score: 70.00
ROOT
ATOM      1  C   UNL     1       5.475  20.960   4.693  1.00  0.00     0.136 C 
ATOM      2  O   UNL     1       6.561  21.357   5.091  1.00  0.00    -0.299 OA
ENDROOT
BRANCH   1   3
ATOM      3  C   UNL     1       5.432  20.065   3.467  1.00  0.00     0.053 C 
ATOM      4  C   UNL     1       6.606  19.080   3.460  1.00  0.00     0.016 C 
BRANCH   3   5
ATOM      5  C   UNL     1       5.391  20.892   2.168  1.00  0.00     0.015 C 
BRANCH   5   6
ATOM      6  C   UNL     1       4.002  20.852   1.504  1.00  0.00     0.028 C 
BRANCH   6   7
ATOM      7  C   UNL     1       3.276  22.159   1.683  1.00  0.00    -0.028 C 
ATOM      8  C   UNL     1       2.181  22.329   2.461  1.00  0.00    -0.070 CG0
ATOM      9  C   UNL     1       1.597  23.715   2.568  1.00  0.00     0.039 C 
ATOM     10  G   UNL     1       1.519  21.190   3.221  1.00  0.00     0.000 G0
ENDBRANCH   6   7
ENDBRANCH   5   6
ENDBRANCH   3   5
ENDBRANCH   1   3
BRANCH   1  11
ATOM     11  C   UNL     1       4.227  21.406   5.423  1.00  0.00     0.087 C 
BRANCH  11  12
ATOM     12  C   UNL     1       3.040  20.425   5.215  1.00  0.00     0.066 C 
BRANCH  12  13
ATOM     13  C   UNL     1       1.839  21.196   4.689  1.00  0.00     0.140 C 
ATOM     14  O   UNL     1       1.088  21.750   5.480  1.00  0.00    -0.299 OA
BRANCH  13  15
ATOM     15  C   UNL     1       1.496  21.191   3.220  1.00  0.00     0.106 CG0
ATOM     16  G   UNL     1       2.169  22.329   2.467  1.00  0.00     0.000 G0
ENDBRANCH  13  15
ENDBRANCH  12  13
BRANCH  12  17
ATOM     17  C   UNL     1       2.665  19.650   6.521  1.00  0.00    -0.006 C 
ATOM     18  C   UNL     1       3.065  20.425   7.793  1.00  0.00     0.008 C 
ATOM     19  C   UNL     1       3.334  18.262   6.566  1.00  0.00     0.008 C 
ENDBRANCH  12  17
ENDBRANCH  11  12
ENDBRANCH   1  11
TORSDOF 1
ENDMDL
MODEL 6
REMARK VINA RESULT:    -3.148      2.141      3.594
REMARK INTER + INTRA:          -5.117
REMARK INTER:                  -4.715
REMARK INTRA:                  -0.402
REMARK UNBOUND:                -0.313
REMARK SMILES CC1=CCC[C@@H](C)C(=O)C[C@@H](C(C)C)C(=O)C1
REMARK SMILES IDX 8 1 9 2 6 3 7 4 5 5 4 6 3 7 2 8 1 9 10 11 11 12 15 13 16 14
REMARK SMILES IDX 17 15 12 17 13 18 14 19
REMARK H PARENT
REMARK Flexibility Score: 70.00
ROOT
ATOM      1  C   UNL     1       3.229  21.340   5.529  1.00  0.00     0.136 C 
ATOM      2  O   UNL     1       2.304  21.040   6.270  1.00  0.00    -0.299 OA
ENDROOT
BRANCH   1   3
ATOM      3  C   UNL     1       3.799  22.745   5.607  1.00  0.00     0.053 C 
ATOM      4  C   UNL     1       4.363  23.035   7.002  1.00  0.00     0.016 C 
BRANCH   3   5
ATOM      5  C   UNL     1       2.755  23.800   5.198  1.00  0.00     0.015 C 
BRANCH   5   6
ATOM      6  C   UNL     1       2.012  23.404   3.909  1.00  0.00     0.028 C 
BRANCH   6   7
ATOM      7  C   UNL     1       2.761  23.863   2.685  1.00  0.00    -0.028 C 
ATOM      8  C   UNL     1       3.255  23.038   1.732  1.00  0.00    -0.070 CG0
ATOM      9  C   UNL     1       3.943  23.661   0.544  1.00  0.00     0.039 C 
ATOM     10  G   UNL     1       3.148  21.522   1.811  1.00  0.00     0.000 G0
ENDBRANCH   6   7
ENDBRANCH   5   6
ENDBRANCH   3   5
ENDBRANCH   1   3
BRANCH   1  11
ATOM     11  C   UNL     1       3.737  20.306   4.548  1.00  0.00     0.087 C 
BRANCH  11  12
ATOM     12  C   UNL     1       4.890  20.851   3.661  1.00  0.00     0.066 C 
BRANCH  12  13
ATOM     13  C   UNL     1       4.445  20.855   2.207  1.00  0.00     0.140 C 
ATOM     14  O   UNL     1       5.188  20.397   1.350  1.00  0.00    -0.299 OA
BRANCH  13  15
ATOM     15  C   UNL     1       3.155  21.518   1.792  1.00  0.00     0.106 CG0
ATOM     16  G   UNL     1       3.278  23.034   1.735  1.00  0.00     0.000 G0
ENDBRANCH  13  15
ENDBRANCH  12  13
BRANCH  12  17
ATOM     17  C   UNL     1       6.213  20.032   3.827  1.00  0.00    -0.006 C 
ATOM     18  C   UNL     1       6.029  18.805   4.742  1.00  0.00     0.008 C 
ATOM     19  C   UNL     1       7.347  20.903   4.403  1.00  0.00     0.008 C 
ENDBRANCH  12  17
ENDBRANCH  11  12
ENDBRANCH   1  11
TORSDOF 1
ENDMDL
MODEL 7
REMARK VINA RESULT:    -2.953      1.917      4.180
REMARK INTER + INTRA:          -4.820
REMARK INTER:                  -4.430
REMARK INTRA:                  -0.390
REMARK UNBOUND:                -0.313
REMARK SMILES CC1=CCC[C@@H](C)C(=O)C[C@@H](C(C)C)C(=O)C1
REMARK SMILES IDX 8 1 9 2 6 3 7 4 5 5 4 6 3 7 2 8 1 9 10 11 11 12 15 13 16 14
REMARK SMILES IDX 17 15 12 17 13 18 14 19
REMARK H PARENT
REMARK Flexibility Score: 70.00
ROOT
ATOM      1  C   UNL     1       2.916  21.230   2.521  1.00  0.00     0.136 C 
ATOM      2  O   UNL     1       2.388  20.261   1.994  1.00  0.00    -0.299 OA
ENDROOT
BRANCH   1   3
ATOM      3  C   UNL     1       4.365  21.539   2.192  1.00  0.00     0.053 C 
ATOM      4  C   UNL     1       4.549  21.786   0.690  1.00  0.00     0.016 C 
BRANCH   3   5
ATOM      5  C   UNL     1       5.307  20.429   2.693  1.00  0.00     0.015 C 
BRANCH   5   6
ATOM      6  C   UNL     1       5.804  20.700   4.125  1.00  0.00     0.028 C 
BRANCH   6   7
ATOM      7  C   UNL     1       4.990  19.937   5.137  1.00  0.00    -0.028 C 
ATOM      8  C   UNL     1       4.261  20.508   6.125  1.00  0.00    -0.070 CG0
ATOM      9  C   UNL     1       3.465  19.604   7.031  1.00  0.00     0.039 C 
ATOM     10  G   UNL     1       4.218  22.011   6.360  1.00  0.00     0.000 G0
ENDBRANCH   6   7
ENDBRANCH   5   6
ENDBRANCH   3   5
ENDBRANCH   1   3
BRANCH   1  11
ATOM     11  C   UNL     1       2.107  22.053   3.501  1.00  0.00     0.087 C 
BRANCH  11  12
ATOM     12  C   UNL     1       2.988  23.056   4.295  1.00  0.00     0.066 C 
BRANCH  12  13
ATOM     13  C   UNL     1       3.010  22.653   5.761  1.00  0.00     0.140 C 
ATOM     14  O   UNL     1       2.063  22.945   6.479  1.00  0.00    -0.299 OA
BRANCH  13  15
ATOM     15  C   UNL     1       4.227  22.002   6.369  1.00  0.00     0.106 CG0
ATOM     16  G   UNL     1       4.263  20.501   6.121  1.00  0.00     0.000 G0
ENDBRANCH  13  15
ENDBRANCH  12  13
BRANCH  12  17
ATOM     17  C   UNL     1       2.500  24.535   4.141  1.00  0.00    -0.006 C 
ATOM     18  C   UNL     1       2.336  24.944   2.663  1.00  0.00     0.008 C 
ATOM     19  C   UNL     1       3.475  25.523   4.813  1.00  0.00     0.008 C 
ENDBRANCH  12  17
ENDBRANCH  11  12
ENDBRANCH   1  11
TORSDOF 1
ENDMDL
MODEL 8
REMARK VINA RESULT:    -2.888      1.939      4.282
REMARK INTER + INTRA:          -4.720
REMARK INTER:                  -4.473
REMARK INTRA:                  -0.247
REMARK UNBOUND:                -0.313
REMARK SMILES CC1=CCC[C@@H](C)C(=O)C[C@@H](C(C)C)C(=O)C1
REMARK SMILES IDX 8 1 9 2 6 3 7 4 5 5 4 6 3 7 2 8 1 9 10 11 11 12 15 13 16 14
REMARK SMILES IDX 17 15 12 17 13 18 14 19
REMARK H PARENT
REMARK Flexibility Score: 70.00
ROOT
ATOM      1  C   UNL     1       4.083  22.121   6.121  1.00  0.00     0.136 C 
ATOM      2  O   UNL     1       5.155  21.709   5.703  1.00  0.00    -0.299 OA
ENDROOT
BRANCH   1   3
ATOM      3  C   UNL     1       2.988  21.116   6.433  1.00  0.00     0.053 C 
ATOM      4  C   UNL     1       3.278  20.371   7.741  1.00  0.00     0.016 C 
BRANCH   3   5
ATOM      5  C   UNL     1       2.776  20.133   5.267  1.00  0.00     0.015 C 
BRANCH   5   6
ATOM      6  C   UNL     1       1.953  20.761   4.127  1.00  0.00     0.028 C 
BRANCH   6   7
ATOM      7  C   UNL     1       2.839  21.181   2.984  1.00  0.00    -0.028 C 
ATOM      8  C   UNL     1       2.933  22.446   2.510  1.00  0.00    -0.070 CG0
ATOM      9  C   UNL     1       3.902  22.710   1.386  1.00  0.00     0.039 C 
ATOM     10  G   UNL     1       2.106  23.600   3.057  1.00  0.00     0.000 G0
ENDBRANCH   6   7
ENDBRANCH   5   6
ENDBRANCH   3   5
ENDBRANCH   1   3
BRANCH   1  11
ATOM     11  C   UNL     1       3.889  23.614   6.276  1.00  0.00     0.087 C 
BRANCH  11  12
ATOM     12  C   UNL     1       2.587  24.113   5.591  1.00  0.00     0.066 C 
BRANCH  12  13
ATOM     13  C   UNL     1       2.863  24.376   4.119  1.00  0.00     0.140 C 
ATOM     14  O   UNL     1       3.628  25.277   3.802  1.00  0.00    -0.299 OA
BRANCH  13  15
ATOM     15  C   UNL     1       2.123  23.620   3.043  1.00  0.00     0.106 CG0
ATOM     16  G   UNL     1       2.927  22.445   2.507  1.00  0.00     0.000 G0
ENDBRANCH  13  15
ENDBRANCH  12  13
BRANCH  12  17
ATOM     17  C   UNL     1       2.002  25.393   6.275  1.00  0.00    -0.006 C 
ATOM     18  C   UNL     1       3.101  26.273   6.904  1.00  0.00     0.008 C 
ATOM     19  C   UNL     1       0.983  25.029   7.374  1.00  0.00     0.008 C 
ENDBRANCH  12  17
ENDBRANCH  11  12
ENDBRANCH   1  11
TORSDOF 1
ENDMDL
MODEL 9
REMARK VINA RESULT:    -2.684      1.855      2.770
REMARK INTER + INTRA:          -4.408
REMARK INTER:                  -4.548
REMARK INTRA:                   0.140
REMARK UNBOUND:                -0.313
REMARK SMILES CC1=CCC[C@@H](C)C(=O)C[C@@H](C(C)C)C(=O)C1
REMARK SMILES IDX 8 1 9 2 6 3 7 4 5 5 4 6 3 7 2 8 1 9 10 11 11 12 15 13 16 14
REMARK SMILES IDX 17 15 12 17 13 18 14 19
REMARK H PARENT
REMARK Flexibility Score: 70.00
ROOT
ATOM      1  C   UNL     1       4.474  21.026   3.190  1.00  0.00     0.136 C 
ATOM      2  O   UNL     1       5.144  20.764   2.201  1.00  0.00    -0.299 OA
ENDROOT
BRANCH   1   3
ATOM      3  C   UNL     1       5.111  20.885   4.561  1.00  0.00     0.053 C 
ATOM      4  C   UNL     1       6.570  20.429   4.448  1.00  0.00     0.016 C 
BRANCH   3   5
ATOM      5  C   UNL     1       4.300  19.936   5.464  1.00  0.00     0.015 C 
BRANCH   5   6
ATOM      6  C   UNL     1       3.687  20.674   6.668  1.00  0.00     0.028 C 
BRANCH   6   7
ATOM      7  C   UNL     1       4.074  22.130   6.669  1.00  0.00    -0.028 C 
ATOM      8  C   UNL     1       3.336  23.121   6.114  1.00  0.00    -0.070 CG0
ATOM      9  C   UNL     1       3.843  24.535   6.239  1.00  0.00     0.039 C 
ATOM     10  G   UNL     1       2.032  22.867   5.373  1.00  0.00     0.000 G0
ENDBRANCH   6   7
ENDBRANCH   5   6
ENDBRANCH   3   5
ENDBRANCH   1   3
BRANCH   1  11
ATOM     11  C   UNL     1       3.033  21.448   2.999  1.00  0.00     0.087 C 
BRANCH  11  12
ATOM     12  C   UNL     1       2.883  22.988   2.861  1.00  0.00     0.066 C 
BRANCH  12  13
ATOM     13  C   UNL     1       2.014  23.510   3.995  1.00  0.00     0.140 C 
ATOM     14  O   UNL     1       1.359  24.530   3.830  1.00  0.00    -0.299 OA
BRANCH  13  15
ATOM     15  C   UNL     1       2.039  22.858   5.355  1.00  0.00     0.106 CG0
ATOM     16  G   UNL     1       3.337  23.127   6.101  1.00  0.00     0.000 G0
ENDBRANCH  13  15
ENDBRANCH  12  13
BRANCH  12  17
ATOM     17  C   UNL     1       2.289  23.412   1.477  1.00  0.00    -0.006 C 
ATOM     18  C   UNL     1       1.112  22.513   1.047  1.00  0.00     0.008 C 
ATOM     19  C   UNL     1       3.360  23.373   0.368  1.00  0.00     0.008 C 
ENDBRANCH  12  17
ENDBRANCH  11  12
ENDBRANCH   1  11
TORSDOF 1
ENDMDL
