MODEL 1
REMARK VINA RESULT:    -3.227      0.000      0.000
REMARK INTER + INTRA:          -3.321
REMARK INTER:                  -3.321
REMARK INTRA:                   0.000
REMARK UNBOUND:                 0.000
REMARK SMILES Nc1ncnc2nc[nH]c12
REMARK SMILES IDX 8 1 7 2 6 3 5 4 4 5 3 6 2 7 10 8 9 9 1 11
REMARK H PARENT 9 10 1 12 1 13
REMARK Flexibility Score: inf
ROOT
ATOM      1  C   UNL     1      98.892   5.740   7.808  1.00  0.00     0.199 A 
ATOM      2  N   UNL     1     100.121   6.311   7.690  1.00  0.00    -0.217 NA
ATOM      3  C   UNL     1      99.820   7.613   7.557  1.00  0.00     0.182 A 
ATOM      4  N   UNL     1     100.696   8.634   7.404  1.00  0.00    -0.215 NA
ATOM      5  C   UNL     1     100.197   9.901   7.283  1.00  0.00     0.226 A 
ATOM      6  N   UNL     1      98.843  10.122   7.318  1.00  0.00    -0.217 NA
ATOM      7  C   UNL     1      97.958   9.093   7.472  1.00  0.00     0.152 A 
ATOM      8  C   UNL     1      98.481   7.810   7.593  1.00  0.00     0.127 A 
ATOM      9  N   UNL     1      97.868   6.630   7.753  1.00  0.00    -0.340 N 
ATOM     10  H   UNL     1      96.847   6.429   7.820  1.00  0.00     0.168 HD
ENDROOT
BRANCH   7  11
ATOM     11  N   UNL     1      96.552   9.347   7.505  1.00  0.00    -0.382 N 
ATOM     12  H   UNL     1      96.197  10.278   7.820  1.00  0.00     0.158 HD
ATOM     13  H   UNL     1      95.861   8.619   7.220  1.00  0.00     0.158 HD
ENDBRANCH   7  11
TORSDOF 1
ENDMDL
MODEL 2
REMARK VINA RESULT:    -3.107      1.639      2.157
REMARK INTER + INTRA:          -3.198
REMARK INTER:                  -3.198
REMARK INTRA:                   0.000
REMARK UNBOUND:                 0.000
REMARK SMILES Nc1ncnc2nc[nH]c12
REMARK SMILES IDX 8 1 7 2 6 3 5 4 4 5 3 6 2 7 10 8 9 9 1 11
REMARK H PARENT 9 10 1 12 1 13
REMARK Flexibility Score: inf
ROOT
ATOM      1  C   UNL     1     100.172   5.140   8.225  1.00  0.00     0.199 A 
ATOM      2  N   UNL     1     100.407   6.205   7.411  1.00  0.00    -0.217 NA
ATOM      3  C   UNL     1      99.488   7.092   7.829  1.00  0.00     0.182 A 
ATOM      4  N   UNL     1      99.289   8.339   7.341  1.00  0.00    -0.215 NA
ATOM      5  C   UNL     1      98.299   9.100   7.898  1.00  0.00     0.226 A 
ATOM      6  N   UNL     1      97.533   8.603   8.922  1.00  0.00    -0.217 NA
ATOM      7  C   UNL     1      97.733   7.345   9.415  1.00  0.00     0.152 A 
ATOM      8  C   UNL     1      98.744   6.584   8.838  1.00  0.00     0.127 A 
ATOM      9  N   UNL     1      99.161   5.340   9.109  1.00  0.00    -0.340 N 
ATOM     10  H   UNL     1      98.803   4.673   9.826  1.00  0.00     0.168 HD
ENDROOT
BRANCH   7  11
ATOM     11  N   UNL     1      96.922   6.849  10.483  1.00  0.00    -0.382 N 
ATOM     12  H   UNL     1      96.122   7.419  10.838  1.00  0.00     0.158 HD
ATOM     13  H   UNL     1      97.111   5.922  10.923  1.00  0.00     0.158 HD
ENDBRANCH   7  11
TORSDOF 1
ENDMDL
MODEL 3
REMARK VINA RESULT:    -3.104      1.074      2.443
REMARK INTER + INTRA:          -3.195
REMARK INTER:                  -3.195
REMARK INTRA:                   0.000
REMARK UNBOUND:                 0.000
REMARK SMILES Nc1ncnc2nc[nH]c12
REMARK SMILES IDX 8 1 7 2 6 3 5 4 4 5 3 6 2 7 10 8 9 9 1 11
REMARK H PARENT 9 10 1 12 1 13
REMARK Flexibility Score: inf
ROOT
ATOM      1  C   UNL     1     100.237   5.727   7.942  1.00  0.00     0.199 A 
ATOM      2  N   UNL     1      98.877   5.760   7.968  1.00  0.00    -0.217 NA
ATOM      3  C   UNL     1      98.619   7.066   7.790  1.00  0.00     0.182 A 
ATOM      4  N   UNL     1      97.398   7.649   7.736  1.00  0.00    -0.215 NA
ATOM      5  C   UNL     1      97.335   9.002   7.547  1.00  0.00     0.226 A 
ATOM      6  N   UNL     1      98.485   9.740   7.417  1.00  0.00    -0.217 NA
ATOM      7  C   UNL     1      99.717   9.153   7.472  1.00  0.00     0.152 A 
ATOM      8  C   UNL     1      99.764   7.776   7.665  1.00  0.00     0.127 A 
ATOM      9  N   UNL     1     100.809   6.944   7.758  1.00  0.00    -0.340 N 
ATOM     10  H   UNL     1     101.827   7.167   7.704  1.00  0.00     0.168 HD
ENDROOT
BRANCH   7  11
ATOM     11  N   UNL     1     100.901   9.942   7.334  1.00  0.00    -0.382 N 
ATOM     12  H   UNL     1     101.415   9.956   6.425  1.00  0.00     0.158 HD
ATOM     13  H   UNL     1     101.270  10.512   8.126  1.00  0.00     0.158 HD
ENDBRANCH   7  11
TORSDOF 1
ENDMDL
MODEL 4
REMARK VINA RESULT:    -3.063      1.232      3.154
REMARK INTER + INTRA:          -3.153
REMARK INTER:                  -3.153
REMARK INTRA:                   0.000
REMARK UNBOUND:                 0.000
REMARK SMILES Nc1ncnc2nc[nH]c12
REMARK SMILES IDX 8 1 7 2 6 3 5 4 4 5 3 6 2 7 10 8 9 9 1 11
REMARK H PARENT 9 10 1 12 1 13
REMARK Flexibility Score: inf
ROOT
ATOM      1  C   UNL     1      98.360   9.347   7.309  1.00  0.00     0.199 A 
ATOM      2  N   UNL     1      99.636   8.988   7.001  1.00  0.00    -0.217 NA
ATOM      3  C   UNL     1      99.701   7.732   7.475  1.00  0.00     0.182 A 
ATOM      4  N   UNL     1     100.772   6.904   7.425  1.00  0.00    -0.215 NA
ATOM      5  C   UNL     1     100.646   5.654   7.965  1.00  0.00     0.226 A 
ATOM      6  N   UNL     1      99.464   5.258   8.538  1.00  0.00    -0.217 NA
ATOM      7  C   UNL     1      98.384   6.093   8.589  1.00  0.00     0.152 A 
ATOM      8  C   UNL     1      98.527   7.361   8.036  1.00  0.00     0.127 A 
ATOM      9  N   UNL     1      97.656   8.374   7.942  1.00  0.00    -0.340 N 
ATOM     10  H   UNL     1      96.668   8.418   8.273  1.00  0.00     0.168 HD
ENDROOT
BRANCH   7  11
ATOM     11  N   UNL     1      97.163   5.659   9.191  1.00  0.00    -0.382 N 
ATOM     12  H   UNL     1      96.628   4.865   8.773  1.00  0.00     0.158 HD
ATOM     13  H   UNL     1      96.785   6.120  10.047  1.00  0.00     0.158 HD
ENDBRANCH   7  11
TORSDOF 1
ENDMDL
MODEL 5
REMARK VINA RESULT:    -3.060      2.387      3.537
REMARK INTER + INTRA:          -3.149
REMARK INTER:                  -3.149
REMARK INTRA:                   0.000
REMARK UNBOUND:                 0.000
REMARK SMILES Nc1ncnc2nc[nH]c12
REMARK SMILES IDX 8 1 7 2 6 3 5 4 4 5 3 6 2 7 10 8 9 9 1 11
REMARK H PARENT 9 10 1 12 1 13
REMARK Flexibility Score: inf
ROOT
ATOM      1  C   UNL     1      97.504   4.896  11.125  1.00  0.00     0.199 A 
ATOM      2  N   UNL     1      98.800   4.487  11.059  1.00  0.00    -0.217 NA
ATOM      3  C   UNL     1      99.206   5.013   9.892  1.00  0.00     0.182 A 
ATOM      4  N   UNL     1     100.439   4.903   9.341  1.00  0.00    -0.215 NA
ATOM      5  C   UNL     1     100.664   5.511   8.137  1.00  0.00     0.226 A 
ATOM      6  N   UNL     1      99.663   6.211   7.512  1.00  0.00    -0.217 NA
ATOM      7  C   UNL     1      98.420   6.323   8.067  1.00  0.00     0.152 A 
ATOM      8  C   UNL     1      98.206   5.699   9.292  1.00  0.00     0.127 A 
ATOM      9  N   UNL     1      97.110   5.638  10.059  1.00  0.00    -0.340 N 
ATOM     10  H   UNL     1      96.171   6.058   9.889  1.00  0.00     0.168 HD
ENDROOT
BRANCH   7  11
ATOM     11  N   UNL     1      97.393   7.057   7.398  1.00  0.00    -0.382 N 
ATOM     12  H   UNL     1      97.298   6.994   6.359  1.00  0.00     0.158 HD
ATOM     13  H   UNL     1      96.726   7.663   7.924  1.00  0.00     0.158 HD
ENDBRANCH   7  11
TORSDOF 1
ENDMDL
MODEL 6
REMARK VINA RESULT:    -2.967      1.885      2.712
REMARK INTER + INTRA:          -3.053
REMARK INTER:                  -3.053
REMARK INTRA:                   0.000
REMARK UNBOUND:                 0.000
REMARK SMILES Nc1ncnc2nc[nH]c12
REMARK SMILES IDX 8 1 7 2 6 3 5 4 4 5 3 6 2 7 10 8 9 9 1 11
REMARK H PARENT 9 10 1 12 1 13
REMARK Flexibility Score: inf
ROOT
ATOM      1  C   UNL     1      98.275   5.633   9.883  1.00  0.00     0.199 A 
ATOM      2  N   UNL     1      97.473   5.859   8.808  1.00  0.00    -0.217 NA
ATOM      3  C   UNL     1      97.758   7.136   8.503  1.00  0.00     0.182 A 
ATOM      4  N   UNL     1      97.224   7.864   7.494  1.00  0.00    -0.215 NA
ATOM      5  C   UNL     1      97.641   9.157   7.339  1.00  0.00     0.226 A 
ATOM      6  N   UNL     1      98.576   9.693   8.189  1.00  0.00    -0.217 NA
ATOM      7  C   UNL     1      99.116   8.959   9.207  1.00  0.00     0.152 A 
ATOM      8  C   UNL     1      98.681   7.645   9.351  1.00  0.00     0.127 A 
ATOM      9  N   UNL     1      99.027   6.706  10.240  1.00  0.00    -0.340 N 
ATOM     10  H   UNL     1      99.709   6.771  11.026  1.00  0.00     0.168 HD
ENDROOT
BRANCH   7  11
ATOM     11  N   UNL     1     100.089   9.538  10.079  1.00  0.00    -0.382 N 
ATOM     12  H   UNL     1     100.102   9.278  11.091  1.00  0.00     0.158 HD
ATOM     13  H   UNL     1     100.794  10.222   9.729  1.00  0.00     0.158 HD
ENDBRANCH   7  11
TORSDOF 1
ENDMDL
MODEL 7
REMARK VINA RESULT:    -2.920      1.692      2.997
REMARK INTER + INTRA:          -3.006
REMARK INTER:                  -3.006
REMARK INTRA:                   0.000
REMARK UNBOUND:                 0.000
REMARK SMILES Nc1ncnc2nc[nH]c12
REMARK SMILES IDX 8 1 7 2 6 3 5 4 4 5 3 6 2 7 10 8 9 9 1 11
REMARK H PARENT 9 10 1 12 1 13
REMARK Flexibility Score: inf
ROOT
ATOM      1  C   UNL     1      97.251   7.574  10.438  1.00  0.00     0.199 A 
ATOM      2  N   UNL     1      97.329   8.821   9.898  1.00  0.00    -0.217 NA
ATOM      3  C   UNL     1      98.222   8.648   8.910  1.00  0.00     0.182 A 
ATOM      4  N   UNL     1      98.667   9.593   8.048  1.00  0.00    -0.215 NA
ATOM      5  C   UNL     1      99.584   9.224   7.102  1.00  0.00     0.226 A 
ATOM      6  N   UNL     1     100.035   7.930   7.037  1.00  0.00    -0.217 NA
ATOM      7  C   UNL     1      99.587   6.976   7.906  1.00  0.00     0.152 A 
ATOM      8  C   UNL     1      98.655   7.366   8.862  1.00  0.00     0.127 A 
ATOM      9  N   UNL     1      98.049   6.662   9.827  1.00  0.00    -0.340 N 
ATOM     10  H   UNL     1      98.157   5.652  10.063  1.00  0.00     0.168 HD
ENDROOT
BRANCH   7  11
ATOM     11  N   UNL     1     100.071   5.634   7.819  1.00  0.00    -0.382 N 
ATOM     12  H   UNL     1     100.997   5.441   7.377  1.00  0.00     0.158 HD
ATOM     13  H   UNL     1      99.517   4.831   8.189  1.00  0.00     0.158 HD
ENDBRANCH   7  11
TORSDOF 1
ENDMDL
MODEL 8
REMARK VINA RESULT:    -2.797      1.443      3.750
REMARK INTER + INTRA:          -2.878
REMARK INTER:                  -2.878
REMARK INTRA:                   0.000
REMARK UNBOUND:                 0.000
REMARK SMILES Nc1ncnc2nc[nH]c12
REMARK SMILES IDX 8 1 7 2 6 3 5 4 4 5 3 6 2 7 10 8 9 9 1 11
REMARK H PARENT 9 10 1 12 1 13
REMARK Flexibility Score: inf
ROOT
ATOM      1  C   UNL     1      99.556   9.528   7.111  1.00  0.00     0.199 A 
ATOM      2  N   UNL     1      98.549   9.736   8.003  1.00  0.00    -0.217 NA
ATOM      3  C   UNL     1      98.344   8.502   8.493  1.00  0.00     0.182 A 
ATOM      4  N   UNL     1      97.434   8.146   9.431  1.00  0.00    -0.215 NA
ATOM      5  C   UNL     1      97.372   6.832   9.805  1.00  0.00     0.226 A 
ATOM      6  N   UNL     1      98.214   5.907   9.241  1.00  0.00    -0.217 NA
ATOM      7  C   UNL     1      99.133   6.265   8.295  1.00  0.00     0.152 A 
ATOM      8  C   UNL     1      99.183   7.605   7.925  1.00  0.00     0.127 A 
ATOM      9  N   UNL     1      99.966   8.236   7.040  1.00  0.00    -0.340 N 
ATOM     10  H   UNL     1     100.716   7.840   6.434  1.00  0.00     0.168 HD
ENDROOT
BRANCH   7  11
ATOM     11  N   UNL     1     100.000   5.285   7.721  1.00  0.00    -0.382 N 
ATOM     12  H   UNL     1     100.695   4.788   8.322  1.00  0.00     0.158 HD
ATOM     13  H   UNL     1      99.958   5.049   6.706  1.00  0.00     0.158 HD
ENDBRANCH   7  11
TORSDOF 1
ENDMDL
