MODEL 1
REMARK VINA RESULT:    -3.990      0.000      0.000
REMARK INTER + INTRA:          -3.990
REMARK INTER:                  -3.990
REMARK INTRA:                   0.000
REMARK UNBOUND:                 0.000
REMARK SMILES C=C1CCC[C@]2(C)CC(=O)C(=C(C)C)C[C@@H]12
REMARK SMILES IDX 13 1 12 2 11 3 15 4 16 5 2 6 1 7 3 8 4 9 5 10 6 11 8 12 9 13
REMARK SMILES IDX 10 14 7 15 14 16
REMARK H PARENT
REMARK Flexibility Score: inf
ROOT
ATOM      1  C   UNL     1      -5.591  33.064  27.008  1.00  0.00     0.039 C 
ATOM      2  C   UNL     1      -4.417  32.114  27.066  1.00  0.00    -0.070 C 
ATOM      3  C   UNL     1      -4.420  31.014  27.876  1.00  0.00    -0.006 C 
ATOM      4  C   UNL     1      -3.254  30.034  27.877  1.00  0.00     0.047 C 
ATOM      5  C   UNL     1      -3.690  28.586  28.212  1.00  0.00     0.025 C 
ATOM      6  C   UNL     1      -2.554  27.562  28.268  1.00  0.00    -0.073 C 
ATOM      7  C   UNL     1      -1.258  27.862  28.058  1.00  0.00     0.008 C 
ATOM      8  C   UNL     1      -2.958  26.131  28.533  1.00  0.00     0.031 C 
ATOM      9  C   UNL     1      -3.819  26.046  29.796  1.00  0.00     0.005 C 
ATOM     10  C   UNL     1      -4.997  27.034  29.749  1.00  0.00     0.008 C 
ATOM     11  C   UNL     1      -4.548  28.509  29.514  1.00  0.00    -0.018 C 
ATOM     12  C   UNL     1      -5.817  29.373  29.320  1.00  0.00     0.088 C 
ATOM     13  C   UNL     1      -5.489  30.773  28.888  1.00  0.00     0.159 C 
ATOM     14  O   UNL     1      -6.125  31.729  29.408  1.00  0.00    -0.295 OA
ATOM     15  C   UNL     1      -3.763  29.018  30.754  1.00  0.00     0.012 C 
ATOM     16  C   UNL     1      -3.248  32.415  26.154  1.00  0.00     0.039 C 
ENDROOT
TORSDOF 0
ENDMDL
MODEL 2
REMARK VINA RESULT:    -2.389     20.387     21.620
REMARK INTER + INTRA:          -2.389
REMARK INTER:                  -2.389
REMARK INTRA:                   0.000
REMARK UNBOUND:                 0.000
REMARK SMILES C=C1CCC[C@]2(C)CC(=O)C(=C(C)C)C[C@@H]12
REMARK SMILES IDX 13 1 12 2 11 3 15 4 16 5 2 6 1 7 3 8 4 9 5 10 6 11 8 12 9 13
REMARK SMILES IDX 10 14 7 15 14 16
REMARK H PARENT
REMARK Flexibility Score: inf
ROOT
ATOM      1  C   UNL     1      11.784  39.023  34.571  1.00  0.00     0.039 C 
ATOM      2  C   UNL     1      11.208  38.433  35.838  1.00  0.00    -0.070 C 
ATOM      3  C   UNL     1      11.938  38.346  36.988  1.00  0.00    -0.006 C 
ATOM      4  C   UNL     1      11.322  37.805  38.272  1.00  0.00     0.047 C 
ATOM      5  C   UNL     1      11.946  38.431  39.545  1.00  0.00     0.025 C 
ATOM      6  C   UNL     1      11.395  37.895  40.868  1.00  0.00    -0.073 C 
ATOM      7  C   UNL     1      10.448  36.943  40.961  1.00  0.00     0.008 C 
ATOM      8  C   UNL     1      11.942  38.531  42.124  1.00  0.00     0.031 C 
ATOM      9  C   UNL     1      13.472  38.484  42.123  1.00  0.00     0.005 C 
ATOM     10  C   UNL     1      14.057  39.058  40.821  1.00  0.00     0.008 C 
ATOM     11  C   UNL     1      13.505  38.357  39.542  1.00  0.00    -0.018 C 
ATOM     12  C   UNL     1      14.033  39.125  38.306  1.00  0.00     0.088 C 
ATOM     13  C   UNL     1      13.398  38.652  37.031  1.00  0.00     0.159 C 
ATOM     14  O   UNL     1      14.125  38.508  36.012  1.00  0.00    -0.295 OA
ATOM     15  C   UNL     1      14.014  36.890  39.492  1.00  0.00     0.012 C 
ATOM     16  C   UNL     1       9.767  37.976  35.785  1.00  0.00     0.039 C 
ENDROOT
TORSDOF 0
ENDMDL
