MODEL 1
REMARK VINA RESULT:     0.777      0.000      0.000
REMARK INTER + INTRA:           0.777
REMARK INTER:                   0.777
REMARK INTRA:                   0.000
REMARK UNBOUND:                 0.000
REMARK SMILES CC1=CC[C@@]2(C)CCCC(C)(C)[C@@]23C[C@@H]13
REMARK SMILES IDX 1 1 2 2 3 3 4 4 5 5 7 6 8 7 9 8 10 9 13 10 15 11 14 12 11 13
REMARK SMILES IDX 12 14 6 15
REMARK H PARENT
REMARK Flexibility Score: inf
ROOT
ATOM      1  C   UNL     1       9.564   8.607  13.884  1.00  0.00     0.039 C 
ATOM      2  C   UNL     1       8.395   7.692  13.647  1.00  0.00    -0.074 C 
ATOM      3  C   UNL     1       8.588   6.539  12.974  1.00  0.00    -0.027 C 
ATOM      4  C   UNL     1       7.461   5.570  12.710  1.00  0.00     0.034 C 
ATOM      5  C   UNL     1       6.117   6.323  12.488  1.00  0.00    -0.022 C 
ATOM      6  C   UNL     1       4.971   5.287  12.401  1.00  0.00     0.008 C 
ATOM      7  C   UNL     1       3.573   5.930  12.330  1.00  0.00     0.001 C 
ATOM      8  C   UNL     1       3.300   6.874  13.510  1.00  0.00     0.007 C 
ATOM      9  C   UNL     1       4.364   7.990  13.716  1.00  0.00    -0.029 C 
ATOM     10  C   UNL     1       5.800   7.315  13.679  1.00  0.00    -0.012 C 
ATOM     11  C   UNL     1       7.027   8.097  14.175  1.00  0.00     0.022 C 
ATOM     12  C   UNL     1       6.419   7.023  15.074  1.00  0.00     0.017 C 
ATOM     13  C   UNL     1       4.010   8.695  15.058  1.00  0.00     0.012 C 
ATOM     14  C   UNL     1       4.237   9.078  12.619  1.00  0.00     0.012 C 
ATOM     15  C   UNL     1       6.261   7.084  11.131  1.00  0.00     0.012 C 
ENDROOT
TORSDOF 0
ENDMDL
MODEL 2
REMARK VINA RESULT:     1.889      1.879      4.365
REMARK INTER + INTRA:           1.889
REMARK INTER:                   1.889
REMARK INTRA:                   0.000
REMARK UNBOUND:                 0.000
REMARK SMILES CC1=CC[C@@]2(C)CCCC(C)(C)[C@@]23C[C@@H]13
REMARK SMILES IDX 1 1 2 2 3 3 4 4 5 5 7 6 8 7 9 8 10 9 13 10 15 11 14 12 11 13
REMARK SMILES IDX 12 14 6 15
REMARK H PARENT
REMARK Flexibility Score: inf
ROOT
ATOM      1  C   UNL     1       4.112   5.032  12.025  1.00  0.00     0.039 C 
ATOM      2  C   UNL     1       4.482   6.411  12.494  1.00  0.00    -0.074 C 
ATOM      3  C   UNL     1       5.429   6.551  13.445  1.00  0.00    -0.027 C 
ATOM      4  C   UNL     1       5.855   7.906  13.954  1.00  0.00     0.034 C 
ATOM      5  C   UNL     1       4.656   8.898  13.974  1.00  0.00    -0.022 C 
ATOM      6  C   UNL     1       5.180  10.311  14.330  1.00  0.00     0.008 C 
ATOM      7  C   UNL     1       4.100  11.404  14.232  1.00  0.00     0.001 C 
ATOM      8  C   UNL     1       3.440  11.455  12.846  1.00  0.00     0.007 C 
ATOM      9  C   UNL     1       2.844  10.105  12.355  1.00  0.00    -0.029 C 
ATOM     10  C   UNL     1       3.940   8.976  12.565  1.00  0.00    -0.012 C 
ATOM     11  C   UNL     1       3.774   7.610  11.880  1.00  0.00     0.022 C 
ATOM     12  C   UNL     1       4.759   8.619  11.294  1.00  0.00     0.017 C 
ATOM     13  C   UNL     1       2.413  10.325  10.875  1.00  0.00     0.012 C 
ATOM     14  C   UNL     1       1.545   9.763  13.129  1.00  0.00     0.012 C 
ATOM     15  C   UNL     1       3.683   8.388  15.084  1.00  0.00     0.012 C 
ENDROOT
TORSDOF 0
ENDMDL
MODEL 3
REMARK VINA RESULT:     2.533      1.301      4.215
REMARK INTER + INTRA:           2.533
REMARK INTER:                   2.533
REMARK INTRA:                   0.000
REMARK UNBOUND:                 0.000
REMARK SMILES CC1=CC[C@@]2(C)CCCC(C)(C)[C@@]23C[C@@H]13
REMARK SMILES IDX 1 1 2 2 3 3 4 4 5 5 7 6 8 7 9 8 10 9 13 10 15 11 14 12 11 13
REMARK SMILES IDX 12 14 6 15
REMARK H PARENT
REMARK Flexibility Score: inf
ROOT
ATOM      1  C   UNL     1       3.855  10.858  11.793  1.00  0.00     0.039 C 
ATOM      2  C   UNL     1       4.042   9.434  12.237  1.00  0.00    -0.074 C 
ATOM      3  C   UNL     1       3.151   8.889  13.091  1.00  0.00    -0.027 C 
ATOM      4  C   UNL     1       3.273   7.463  13.569  1.00  0.00     0.034 C 
ATOM      5  C   UNL     1       4.766   7.049  13.719  1.00  0.00    -0.022 C 
ATOM      6  C   UNL     1       4.837   5.535  14.036  1.00  0.00     0.008 C 
ATOM      7  C   UNL     1       6.275   4.985  14.058  1.00  0.00     0.001 C 
ATOM      8  C   UNL     1       7.027   5.253  12.746  1.00  0.00     0.007 C 
ATOM      9  C   UNL     1       7.059   6.743  12.302  1.00  0.00    -0.029 C 
ATOM     10  C   UNL     1       5.581   7.316  12.390  1.00  0.00    -0.012 C 
ATOM     11  C   UNL     1       5.235   8.651  11.710  1.00  0.00     0.022 C 
ATOM     12  C   UNL     1       4.813   7.346  11.039  1.00  0.00     0.017 C 
ATOM     13  C   UNL     1       7.682   6.765  10.875  1.00  0.00     0.012 C 
ATOM     14  C   UNL     1       8.022   7.562  13.198  1.00  0.00     0.012 C 
ATOM     15  C   UNL     1       5.332   7.878  14.915  1.00  0.00     0.012 C 
ENDROOT
TORSDOF 0
ENDMDL
MODEL 4
REMARK VINA RESULT:     3.352      1.849      3.293
REMARK INTER + INTRA:           3.352
REMARK INTER:                   3.352
REMARK INTRA:                   0.000
REMARK UNBOUND:                 0.000
REMARK SMILES CC1=CC[C@@]2(C)CCCC(C)(C)[C@@]23C[C@@H]13
REMARK SMILES IDX 1 1 2 2 3 3 4 4 5 5 7 6 8 7 9 8 10 9 13 10 15 11 14 12 11 13
REMARK SMILES IDX 12 14 6 15
REMARK H PARENT
REMARK Flexibility Score: inf
ROOT
ATOM      1  C   UNL     1       7.081   7.130  14.245  1.00  0.00     0.039 C 
ATOM      2  C   UNL     1       5.854   7.506  13.464  1.00  0.00    -0.074 C 
ATOM      3  C   UNL     1       5.629   6.921  12.268  1.00  0.00    -0.027 C 
ATOM      4  C   UNL     1       4.413   7.243  11.437  1.00  0.00     0.034 C 
ATOM      5  C   UNL     1       4.003   8.736  11.601  1.00  0.00    -0.022 C 
ATOM      6  C   UNL     1       2.656   8.969  10.875  1.00  0.00     0.008 C 
ATOM      7  C   UNL     1       2.080  10.380  11.098  1.00  0.00     0.001 C 
ATOM      8  C   UNL     1       1.906  10.715  12.587  1.00  0.00     0.007 C 
ATOM      9  C   UNL     1       3.189  10.546  13.450  1.00  0.00    -0.029 C 
ATOM     10  C   UNL     1       3.821   9.127  13.123  1.00  0.00    -0.012 C 
ATOM     11  C   UNL     1       4.899   8.538  14.046  1.00  0.00     0.022 C 
ATOM     12  C   UNL     1       3.470   8.007  14.142  1.00  0.00     0.017 C 
ATOM     13  C   UNL     1       2.751  10.737  14.932  1.00  0.00     0.012 C 
ATOM     14  C   UNL     1       4.201  11.682  13.157  1.00  0.00     0.012 C 
ATOM     15  C   UNL     1       5.132   9.577  10.924  1.00  0.00     0.012 C 
ENDROOT
TORSDOF 0
ENDMDL
