MODEL 1
REMARK VINA RESULT:    -3.534      0.000      0.000
REMARK INTER + INTRA:          -6.052
REMARK INTER:                  -5.393
REMARK INTRA:                  -0.659
REMARK UNBOUND:                -0.659
REMARK SMILES CC1=CCC[C@H](C)C(=O)C[C@H](C(C)C)C(=O)C1
REMARK SMILES IDX 8 1 9 2 6 3 7 4 5 5 4 6 3 7 2 8 1 9 10 11 11 12 15 13 16 14
REMARK SMILES IDX 17 15 12 17 13 18 14 19
REMARK H PARENT
REMARK Flexibility Score: 70.00
ROOT
ATOM      1  C   UNL     1      -5.511   1.783 -10.491  1.00  0.00     0.136 C 
ATOM      2  O   UNL     1      -6.388   2.579 -10.797  1.00  0.00    -0.299 OA
ENDROOT
BRANCH   1   3
ATOM      3  C   UNL     1      -5.642   1.036  -9.174  1.00  0.00     0.053 C 
ATOM      4  C   UNL     1      -5.838   1.975  -7.975  1.00  0.00     0.016 C 
BRANCH   3   5
ATOM      5  C   UNL     1      -6.621  -0.169  -9.273  1.00  0.00     0.015 C 
BRANCH   5   6
ATOM      6  C   UNL     1      -6.763  -0.928 -10.610  1.00  0.00     0.028 C 
BRANCH   6   7
ATOM      7  C   UNL     1      -6.051  -2.251 -10.734  1.00  0.00    -0.028 C 
ATOM      8  C   UNL     1      -4.889  -2.487 -11.384  1.00  0.00    -0.070 CG0
ATOM      9  C   UNL     1      -4.228  -3.824 -11.140  1.00  0.00     0.039 C 
ATOM     10  G   UNL     1      -4.167  -1.447 -12.221  1.00  0.00     0.000 G0
ENDBRANCH   6   7
ENDBRANCH   5   6
ENDBRANCH   3   5
ENDBRANCH   1   3
BRANCH   1  11
ATOM     11  C   UNL     1      -4.349   1.607 -11.444  1.00  0.00     0.087 C 
BRANCH  11  12
ATOM     12  C   UNL     1      -3.232   0.719 -10.836  1.00  0.00     0.066 C 
BRANCH  12  13
ATOM     13  C   UNL     1      -3.059  -0.639 -11.526  1.00  0.00     0.140 C 
ATOM     14  O   UNL     1      -1.918  -1.070 -11.626  1.00  0.00    -0.299 OA
BRANCH  13  15
ATOM     15  C   UNL     1      -4.150  -1.441 -12.216  1.00  0.00     0.106 CG0
ATOM     16  G   UNL     1      -4.861  -2.478 -11.367  1.00  0.00     0.000 G0
ENDBRANCH  13  15
ENDBRANCH  12  13
BRANCH  12  17
ATOM     17  C   UNL     1      -1.905   1.491 -10.561  1.00  0.00    -0.006 C 
ATOM     18  C   UNL     1      -1.660   2.593 -11.603  1.00  0.00     0.008 C 
ATOM     19  C   UNL     1      -1.769   2.058  -9.144  1.00  0.00     0.008 C 
ENDBRANCH  12  17
ENDBRANCH  11  12
ENDBRANCH   1  11
TORSDOF 1
ENDMDL
MODEL 2
REMARK VINA RESULT:    -3.531      6.274      8.076
REMARK INTER + INTRA:          -6.048
REMARK INTER:                  -5.919
REMARK INTRA:                  -0.129
REMARK UNBOUND:                -0.659
REMARK SMILES CC1=CCC[C@H](C)C(=O)C[C@H](C(C)C)C(=O)C1
REMARK SMILES IDX 8 1 9 2 6 3 7 4 5 5 4 6 3 7 2 8 1 9 10 11 11 12 15 13 16 14
REMARK SMILES IDX 17 15 12 17 13 18 14 19
REMARK H PARENT
REMARK Flexibility Score: 70.00
ROOT
ATOM      1  C   UNL     1     -10.175  -4.557 -15.726  1.00  0.00     0.136 C 
ATOM      2  O   UNL     1     -10.397  -4.902 -16.878  1.00  0.00    -0.299 OA
ENDROOT
BRANCH   1   3
ATOM      3  C   UNL     1     -10.982  -5.202 -14.611  1.00  0.00     0.053 C 
ATOM      4  C   UNL     1     -12.401  -4.625 -14.495  1.00  0.00     0.016 C 
BRANCH   3   5
ATOM      5  C   UNL     1     -10.867  -6.754 -14.620  1.00  0.00     0.015 C 
BRANCH   5   6
ATOM      6  C   UNL     1      -9.782  -7.442 -13.762  1.00  0.00     0.028 C 
BRANCH   6   7
ATOM      7  C   UNL     1      -8.631  -8.086 -14.492  1.00  0.00    -0.028 C 
ATOM      8  C   UNL     1      -7.353  -7.645 -14.535  1.00  0.00    -0.070 CG0
ATOM      9  C   UNL     1      -6.321  -8.597 -15.095  1.00  0.00     0.039 C 
ATOM     10  G   UNL     1      -6.896  -6.327 -13.939  1.00  0.00     0.000 G0
ENDBRANCH   6   7
ENDBRANCH   5   6
ENDBRANCH   3   5
ENDBRANCH   1   3
BRANCH   1  11
ATOM     11  C   UNL     1      -9.117  -3.501 -15.492  1.00  0.00     0.087 C 
BRANCH  11  12
ATOM     12  C   UNL     1      -8.118  -3.919 -14.381  1.00  0.00     0.066 C 
BRANCH  12  13
ATOM     13  C   UNL     1      -7.186  -5.073 -14.771  1.00  0.00     0.140 C 
ATOM     14  O   UNL     1      -6.709  -5.046 -15.897  1.00  0.00    -0.299 OA
BRANCH  13  15
ATOM     15  C   UNL     1      -6.899  -6.314 -13.942  1.00  0.00     0.106 CG0
ATOM     16  G   UNL     1      -7.332  -7.638 -14.542  1.00  0.00     0.000 G0
ENDBRANCH  13  15
ENDBRANCH  12  13
BRANCH  12  17
ATOM     17  C   UNL     1      -7.414  -2.710 -13.692  1.00  0.00    -0.006 C 
ATOM     18  C   UNL     1      -7.796  -2.596 -12.208  1.00  0.00     0.008 C 
ATOM     19  C   UNL     1      -5.890  -2.672 -13.853  1.00  0.00     0.008 C 
ENDBRANCH  12  17
ENDBRANCH  11  12
ENDBRANCH   1  11
TORSDOF 1
ENDMDL
MODEL 3
REMARK VINA RESULT:    -3.512      1.797      4.140
REMARK INTER + INTRA:          -6.019
REMARK INTER:                  -5.892
REMARK INTRA:                  -0.128
REMARK UNBOUND:                -0.659
REMARK SMILES CC1=CCC[C@H](C)C(=O)C[C@H](C(C)C)C(=O)C1
REMARK SMILES IDX 8 1 9 2 6 3 7 4 5 5 4 6 3 7 2 8 1 9 10 11 11 12 15 13 16 14
REMARK SMILES IDX 17 15 12 17 13 18 14 19
REMARK H PARENT
REMARK Flexibility Score: 70.00
ROOT
ATOM      1  C   UNL     1      -6.349   1.023  -9.471  1.00  0.00     0.136 C 
ATOM      2  O   UNL     1      -5.896   1.279  -8.365  1.00  0.00    -0.299 OA
ENDROOT
BRANCH   1   3
ATOM      3  C   UNL     1      -6.120   2.023 -10.593  1.00  0.00     0.053 C 
ATOM      4  C   UNL     1      -7.026   3.257 -10.483  1.00  0.00     0.016 C 
BRANCH   3   5
ATOM      5  C   UNL     1      -4.608   2.297 -10.841  1.00  0.00     0.015 C 
BRANCH   5   6
ATOM      6  C   UNL     1      -3.758   1.252 -11.596  1.00  0.00     0.028 C 
BRANCH   6   7
ATOM      7  C   UNL     1      -2.711   0.510 -10.804  1.00  0.00    -0.028 C 
ATOM      8  C   UNL     1      -2.666  -0.821 -10.569  1.00  0.00    -0.070 CG0
ATOM      9  C   UNL     1      -1.383  -1.369  -9.989  1.00  0.00     0.039 C 
ATOM     10  G   UNL     1      -3.766  -1.784 -10.973  1.00  0.00     0.000 G0
ENDBRANCH   6   7
ENDBRANCH   5   6
ENDBRANCH   3   5
ENDBRANCH   1   3
BRANCH   1  11
ATOM     11  C   UNL     1      -7.119  -0.268  -9.642  1.00  0.00     0.087 C 
BRANCH  11  12
ATOM     12  C   UNL     1      -6.410  -1.238 -10.624  1.00  0.00     0.066 C 
BRANCH  12  13
ATOM     13  C   UNL     1      -5.039  -1.731 -10.145  1.00  0.00     0.140 C 
ATOM     14  O   UNL     1      -4.934  -2.018  -8.961  1.00  0.00    -0.299 OA
BRANCH  13  15
ATOM     15  C   UNL     1      -3.763  -1.773 -10.970  1.00  0.00     0.106 CG0
ATOM     16  G   UNL     1      -2.664  -0.813 -10.556  1.00  0.00     0.000 G0
ENDBRANCH  13  15
ENDBRANCH  12  13
BRANCH  12  17
ATOM     17  C   UNL     1      -7.349  -2.350 -11.184  1.00  0.00    -0.006 C 
ATOM     18  C   UNL     1      -7.936  -1.967 -12.552  1.00  0.00     0.008 C 
ATOM     19  C   UNL     1      -6.728  -3.750 -11.246  1.00  0.00     0.008 C 
ENDBRANCH  12  17
ENDBRANCH  11  12
ENDBRANCH   1  11
TORSDOF 1
ENDMDL
MODEL 4
REMARK VINA RESULT:    -3.445      1.458      1.829
REMARK INTER + INTRA:          -5.917
REMARK INTER:                  -5.826
REMARK INTRA:                  -0.091
REMARK UNBOUND:                -0.659
REMARK SMILES CC1=CCC[C@H](C)C(=O)C[C@H](C(C)C)C(=O)C1
REMARK SMILES IDX 8 1 9 2 6 3 7 4 5 5 4 6 3 7 2 8 1 9 10 11 11 12 15 13 16 14
REMARK SMILES IDX 17 15 12 17 13 18 14 19
REMARK H PARENT
REMARK Flexibility Score: 70.00
ROOT
ATOM      1  C   UNL     1      -4.759   2.077  -9.858  1.00  0.00     0.136 C 
ATOM      2  O   UNL     1      -4.057   2.049  -8.858  1.00  0.00    -0.299 OA
ENDROOT
BRANCH   1   3
ATOM      3  C   UNL     1      -6.209   2.510  -9.710  1.00  0.00     0.053 C 
ATOM      4  C   UNL     1      -6.808   3.037 -11.021  1.00  0.00     0.016 C 
BRANCH   3   5
ATOM      5  C   UNL     1      -7.061   1.466  -8.932  1.00  0.00     0.015 C 
BRANCH   5   6
ATOM      6  C   UNL     1      -6.727  -0.036  -9.058  1.00  0.00     0.028 C 
BRANCH   6   7
ATOM      7  C   UNL     1      -6.814  -0.651 -10.432  1.00  0.00    -0.028 C 
ATOM      8  C   UNL     1      -5.854  -1.368 -11.059  1.00  0.00    -0.070 CG0
ATOM      9  C   UNL     1      -6.265  -2.113 -12.308  1.00  0.00     0.039 C 
ATOM     10  G   UNL     1      -4.454  -1.564 -10.508  1.00  0.00     0.000 G0
ENDBRANCH   6   7
ENDBRANCH   5   6
ENDBRANCH   3   5
ENDBRANCH   1   3
BRANCH   1  11
ATOM     11  C   UNL     1      -4.137   1.666 -11.174  1.00  0.00     0.087 C 
BRANCH  11  12
ATOM     12  C   UNL     1      -2.960   0.674 -10.973  1.00  0.00     0.066 C 
BRANCH  12  13
ATOM     13  C   UNL     1      -3.327  -0.797 -11.203  1.00  0.00     0.140 C 
ATOM     14  O   UNL     1      -2.741  -1.381 -12.103  1.00  0.00    -0.299 OA
BRANCH  13  15
ATOM     15  C   UNL     1      -4.441  -1.563 -10.509  1.00  0.00     0.106 CG0
ATOM     16  G   UNL     1      -5.836  -1.380 -11.076  1.00  0.00     0.000 G0
ENDBRANCH  13  15
ENDBRANCH  12  13
BRANCH  12  17
ATOM     17  C   UNL     1      -1.636   1.136 -11.654  1.00  0.00    -0.006 C 
ATOM     18  C   UNL     1      -1.566   2.665 -11.791  1.00  0.00     0.008 C 
ATOM     19  C   UNL     1      -0.355   0.601 -11.005  1.00  0.00     0.008 C 
ENDBRANCH  12  17
ENDBRANCH  11  12
ENDBRANCH   1  11
TORSDOF 1
ENDMDL
MODEL 5
REMARK VINA RESULT:    -3.398      2.064      4.053
REMARK INTER + INTRA:          -5.844
REMARK INTER:                  -5.536
REMARK INTRA:                  -0.309
REMARK UNBOUND:                -0.659
REMARK SMILES CC1=CCC[C@H](C)C(=O)C[C@H](C(C)C)C(=O)C1
REMARK SMILES IDX 8 1 9 2 6 3 7 4 5 5 4 6 3 7 2 8 1 9 10 11 11 12 15 13 16 14
REMARK SMILES IDX 17 15 12 17 13 18 14 19
REMARK H PARENT
REMARK Flexibility Score: 70.00
ROOT
ATOM      1  C   UNL     1      -6.709   0.538  -9.845  1.00  0.00     0.136 C 
ATOM      2  O   UNL     1      -6.799   0.689  -8.635  1.00  0.00    -0.299 OA
ENDROOT
BRANCH   1   3
ATOM      3  C   UNL     1      -6.440   1.761 -10.706  1.00  0.00     0.053 C 
ATOM      4  C   UNL     1      -7.016   3.051 -10.103  1.00  0.00     0.016 C 
BRANCH   3   5
ATOM      5  C   UNL     1      -4.963   1.828 -11.194  1.00  0.00     0.015 C 
BRANCH   5   6
ATOM      6  C   UNL     1      -3.820   1.875 -10.158  1.00  0.00     0.028 C 
BRANCH   6   7
ATOM      7  C   UNL     1      -2.672   0.917 -10.351  1.00  0.00    -0.028 C 
ATOM      8  C   UNL     1      -2.584  -0.346  -9.876  1.00  0.00    -0.070 CG0
ATOM      9  C   UNL     1      -1.469  -1.206 -10.426  1.00  0.00     0.039 C 
ATOM     10  G   UNL     1      -3.605  -0.967  -8.942  1.00  0.00     0.000 G0
ENDBRANCH   6   7
ENDBRANCH   5   6
ENDBRANCH   3   5
ENDBRANCH   1   3
BRANCH   1  11
ATOM     11  C   UNL     1      -6.885  -0.858 -10.402  1.00  0.00     0.087 C 
BRANCH  11  12
ATOM     12  C   UNL     1      -5.525  -1.508 -10.770  1.00  0.00     0.066 C 
BRANCH  12  13
ATOM     13  C   UNL     1      -4.652  -1.875  -9.564  1.00  0.00     0.140 C 
ATOM     14  O   UNL     1      -4.901  -2.930  -8.998  1.00  0.00    -0.299 OA
BRANCH  13  15
ATOM     15  C   UNL     1      -3.594  -0.993  -8.922  1.00  0.00     0.106 CG0
ATOM     16  G   UNL     1      -2.596  -0.347  -9.864  1.00  0.00     0.000 G0
ENDBRANCH  13  15
ENDBRANCH  12  13
BRANCH  12  17
ATOM     17  C   UNL     1      -5.644  -2.620 -11.857  1.00  0.00    -0.006 C 
ATOM     18  C   UNL     1      -6.793  -2.341 -12.838  1.00  0.00     0.008 C 
ATOM     19  C   UNL     1      -4.350  -2.914 -12.625  1.00  0.00     0.008 C 
ENDBRANCH  12  17
ENDBRANCH  11  12
ENDBRANCH   1  11
TORSDOF 1
ENDMDL
MODEL 6
REMARK VINA RESULT:    -3.184      2.232      4.245
REMARK INTER + INTRA:          -5.517
REMARK INTER:                  -4.986
REMARK INTRA:                  -0.531
REMARK UNBOUND:                -0.659
REMARK SMILES CC1=CCC[C@H](C)C(=O)C[C@H](C(C)C)C(=O)C1
REMARK SMILES IDX 8 1 9 2 6 3 7 4 5 5 4 6 3 7 2 8 1 9 10 11 11 12 15 13 16 14
REMARK SMILES IDX 17 15 12 17 13 18 14 19
REMARK H PARENT
REMARK Flexibility Score: 70.00
ROOT
ATOM      1  C   UNL     1      -3.265  -1.493  -9.818  1.00  0.00     0.136 C 
ATOM      2  O   UNL     1      -2.785  -2.608  -9.677  1.00  0.00    -0.299 OA
ENDROOT
BRANCH   1   3
ATOM      3  C   UNL     1      -4.150  -1.237 -11.027  1.00  0.00     0.053 C 
ATOM      4  C   UNL     1      -3.417  -1.458 -12.357  1.00  0.00     0.016 C 
BRANCH   3   5
ATOM      5  C   UNL     1      -5.548  -1.907 -10.889  1.00  0.00     0.015 C 
BRANCH   5   6
ATOM      6  C   UNL     1      -6.663  -1.189 -10.097  1.00  0.00     0.028 C 
BRANCH   6   7
ATOM      7  C   UNL     1      -6.955   0.244 -10.461  1.00  0.00    -0.028 C 
ATOM      8  C   UNL     1      -6.639   1.343  -9.739  1.00  0.00    -0.070 CG0
ATOM      9  C   UNL     1      -6.785   2.679 -10.430  1.00  0.00     0.039 C 
ATOM     10  G   UNL     1      -6.032   1.291  -8.350  1.00  0.00     0.000 G0
ENDBRANCH   6   7
ENDBRANCH   5   6
ENDBRANCH   3   5
ENDBRANCH   1   3
BRANCH   1  11
ATOM     11  C   UNL     1      -2.935  -0.441  -8.782  1.00  0.00     0.087 C 
BRANCH  11  12
ATOM     12  C   UNL     1      -3.460   0.960  -9.192  1.00  0.00     0.066 C 
BRANCH  12  13
ATOM     13  C   UNL     1      -4.523   1.537  -8.250  1.00  0.00     0.140 C 
ATOM     14  O   UNL     1      -4.123   2.151  -7.270  1.00  0.00    -0.299 OA
BRANCH  13  15
ATOM     15  C   UNL     1      -6.023   1.310  -8.344  1.00  0.00     0.106 CG0
ATOM     16  G   UNL     1      -6.623   1.350  -9.736  1.00  0.00     0.000 G0
ENDBRANCH  13  15
ENDBRANCH  12  13
BRANCH  12  17
ATOM     17  C   UNL     1      -2.327   1.954  -9.593  1.00  0.00    -0.006 C 
ATOM     18  C   UNL     1      -0.935   1.404  -9.248  1.00  0.00     0.008 C 
ATOM     19  C   UNL     1      -2.367   2.425 -11.051  1.00  0.00     0.008 C 
ENDBRANCH  12  17
ENDBRANCH  11  12
ENDBRANCH   1  11
TORSDOF 1
ENDMDL
MODEL 7
REMARK VINA RESULT:    -3.141      4.356      6.844
REMARK INTER + INTRA:          -5.453
REMARK INTER:                  -4.759
REMARK INTRA:                  -0.694
REMARK UNBOUND:                -0.659
REMARK SMILES CC1=CCC[C@H](C)C(=O)C[C@H](C(C)C)C(=O)C1
REMARK SMILES IDX 8 1 9 2 6 3 7 4 5 5 4 6 3 7 2 8 1 9 10 11 11 12 15 13 16 14
REMARK SMILES IDX 17 15 12 17 13 18 14 19
REMARK H PARENT
REMARK Flexibility Score: 70.00
ROOT
ATOM      1  C   UNL     1      -7.018  -4.010 -12.134  1.00  0.00     0.136 C 
ATOM      2  O   UNL     1      -6.934  -4.208 -10.930  1.00  0.00    -0.299 OA
ENDROOT
BRANCH   1   3
ATOM      3  C   UNL     1      -6.988  -2.574 -12.632  1.00  0.00     0.053 C 
ATOM      4  C   UNL     1      -8.303  -1.826 -12.371  1.00  0.00     0.016 C 
BRANCH   3   5
ATOM      5  C   UNL     1      -5.681  -1.834 -12.222  1.00  0.00     0.015 C 
BRANCH   5   6
ATOM      6  C   UNL     1      -4.312  -2.427 -12.623  1.00  0.00     0.028 C 
BRANCH   6   7
ATOM      7  C   UNL     1      -3.902  -2.305 -14.068  1.00  0.00    -0.028 C 
ATOM      8  C   UNL     1      -3.955  -3.275 -15.009  1.00  0.00    -0.070 CG0
ATOM      9  C   UNL     1      -3.754  -2.845 -16.444  1.00  0.00     0.039 C 
ATOM     10  G   UNL     1      -4.331  -4.714 -14.713  1.00  0.00     0.000 G0
ENDBRANCH   6   7
ENDBRANCH   5   6
ENDBRANCH   3   5
ENDBRANCH   1   3
BRANCH   1  11
ATOM     11  C   UNL     1      -7.160  -5.210 -13.044  1.00  0.00     0.087 C 
BRANCH  11  12
ATOM     12  C   UNL     1      -7.057  -4.817 -14.541  1.00  0.00     0.066 C 
BRANCH  12  13
ATOM     13  C   UNL     1      -5.716  -5.169 -15.196  1.00  0.00     0.140 C 
ATOM     14  O   UNL     1      -5.744  -5.963 -16.126  1.00  0.00    -0.299 OA
BRANCH  13  15
ATOM     15  C   UNL     1      -4.341  -4.730 -14.719  1.00  0.00     0.106 CG0
ATOM     16  G   UNL     1      -3.964  -3.287 -14.995  1.00  0.00     0.000 G0
ENDBRANCH  13  15
ENDBRANCH  12  13
BRANCH  12  17
ATOM     17  C   UNL     1      -8.317  -5.205 -15.373  1.00  0.00    -0.006 C 
ATOM     18  C   UNL     1      -9.183  -6.247 -14.647  1.00  0.00     0.008 C 
ATOM     19  C   UNL     1      -9.179  -4.023 -15.830  1.00  0.00     0.008 C 
ENDBRANCH  12  17
ENDBRANCH  11  12
ENDBRANCH   1  11
TORSDOF 1
ENDMDL
MODEL 8
REMARK VINA RESULT:    -3.094      1.872      4.257
REMARK INTER + INTRA:          -5.381
REMARK INTER:                  -5.253
REMARK INTRA:                  -0.128
REMARK UNBOUND:                -0.659
REMARK SMILES CC1=CCC[C@H](C)C(=O)C[C@H](C(C)C)C(=O)C1
REMARK SMILES IDX 8 1 9 2 6 3 7 4 5 5 4 6 3 7 2 8 1 9 10 11 11 12 15 13 16 14
REMARK SMILES IDX 17 15 12 17 13 18 14 19
REMARK H PARENT
REMARK Flexibility Score: 70.00
ROOT
ATOM      1  C   UNL     1      -6.269   0.439  -9.929  1.00  0.00     0.136 C 
ATOM      2  O   UNL     1      -7.041   0.345 -10.873  1.00  0.00    -0.299 OA
ENDROOT
BRANCH   1   3
ATOM      3  C   UNL     1      -5.952   1.826  -9.393  1.00  0.00     0.053 C 
ATOM      4  C   UNL     1      -7.006   2.870  -9.787  1.00  0.00     0.016 C 
BRANCH   3   5
ATOM      5  C   UNL     1      -5.534   1.799  -7.894  1.00  0.00     0.015 C 
BRANCH   5   6
ATOM      6  C   UNL     1      -4.058   1.541  -7.519  1.00  0.00     0.028 C 
BRANCH   6   7
ATOM      7  C   UNL     1      -3.007   1.984  -8.505  1.00  0.00    -0.028 C 
ATOM      8  C   UNL     1      -2.359   1.206  -9.402  1.00  0.00    -0.070 CG0
ATOM      9  C   UNL     1      -1.555   1.916 -10.466  1.00  0.00     0.039 C 
ATOM     10  G   UNL     1      -2.507  -0.302  -9.469  1.00  0.00     0.000 G0
ENDBRANCH   6   7
ENDBRANCH   5   6
ENDBRANCH   3   5
ENDBRANCH   1   3
BRANCH   1  11
ATOM     11  C   UNL     1      -5.674  -0.834  -9.368  1.00  0.00     0.087 C 
BRANCH  11  12
ATOM     12  C   UNL     1      -4.744  -1.537 -10.391  1.00  0.00     0.066 C 
BRANCH  12  13
ATOM     13  C   UNL     1      -3.384  -0.854 -10.584  1.00  0.00     0.140 C 
ATOM     14  O   UNL     1      -2.923  -0.842 -11.716  1.00  0.00    -0.299 OA
BRANCH  13  15
ATOM     15  C   UNL     1      -2.492  -0.305  -9.482  1.00  0.00     0.106 CG0
ATOM     16  G   UNL     1      -2.365   1.204  -9.410  1.00  0.00     0.000 G0
ENDBRANCH  13  15
ENDBRANCH  12  13
BRANCH  12  17
ATOM     17  C   UNL     1      -4.682  -3.085 -10.212  1.00  0.00    -0.006 C 
ATOM     18  C   UNL     1      -4.278  -3.479  -8.783  1.00  0.00     0.008 C 
ATOM     19  C   UNL     1      -5.950  -3.835 -10.633  1.00  0.00     0.008 C 
ENDBRANCH  12  17
ENDBRANCH  11  12
ENDBRANCH   1  11
TORSDOF 1
ENDMDL
MODEL 9
REMARK VINA RESULT:    -3.059      2.025      4.358
REMARK INTER + INTRA:          -5.328
REMARK INTER:                  -5.093
REMARK INTRA:                  -0.234
REMARK UNBOUND:                -0.659
REMARK SMILES CC1=CCC[C@H](C)C(=O)C[C@H](C(C)C)C(=O)C1
REMARK SMILES IDX 8 1 9 2 6 3 7 4 5 5 4 6 3 7 2 8 1 9 10 11 11 12 15 13 16 14
REMARK SMILES IDX 17 15 12 17 13 18 14 19
REMARK H PARENT
REMARK Flexibility Score: 70.00
ROOT
ATOM      1  C   UNL     1      -6.480  -0.829 -10.509  1.00  0.00     0.136 C 
ATOM      2  O   UNL     1      -6.692  -1.295 -11.620  1.00  0.00    -0.299 OA
ENDROOT
BRANCH   1   3
ATOM      3  C   UNL     1      -6.960   0.584 -10.217  1.00  0.00     0.053 C 
ATOM      4  C   UNL     1      -7.308   0.799  -8.737  1.00  0.00     0.016 C 
BRANCH   3   5
ATOM      5  C   UNL     1      -6.054   1.664 -10.877  1.00  0.00     0.015 C 
BRANCH   5   6
ATOM      6  C   UNL     1      -4.566   1.352 -11.143  1.00  0.00     0.028 C 
BRANCH   6   7
ATOM      7  C   UNL     1      -3.614   1.482  -9.981  1.00  0.00    -0.028 C 
ATOM      8  C   UNL     1      -2.641   0.610  -9.631  1.00  0.00    -0.070 CG0
ATOM      9  C   UNL     1      -1.639   1.082  -8.603  1.00  0.00     0.039 C 
ATOM     10  G   UNL     1      -2.434  -0.734 -10.302  1.00  0.00     0.000 G0
ENDBRANCH   6   7
ENDBRANCH   5   6
ENDBRANCH   3   5
ENDBRANCH   1   3
BRANCH   1  11
ATOM     11  C   UNL     1      -5.743  -1.689  -9.506  1.00  0.00     0.087 C 
BRANCH  11  12
ATOM     12  C   UNL     1      -4.549  -2.438 -10.154  1.00  0.00     0.066 C 
BRANCH  12  13
ATOM     13  C   UNL     1      -3.170  -1.927  -9.718  1.00  0.00     0.140 C 
ATOM     14  O   UNL     1      -2.669  -2.452  -8.734  1.00  0.00    -0.299 OA
BRANCH  13  15
ATOM     15  C   UNL     1      -2.425  -0.741 -10.309  1.00  0.00     0.106 CG0
ATOM     16  G   UNL     1      -2.641   0.596  -9.628  1.00  0.00     0.000 G0
ENDBRANCH  13  15
ENDBRANCH  12  13
BRANCH  12  17
ATOM     17  C   UNL     1      -4.708  -3.989 -10.141  1.00  0.00    -0.006 C 
ATOM     18  C   UNL     1      -6.138  -4.420 -10.501  1.00  0.00     0.008 C 
ATOM     19  C   UNL     1      -3.692  -4.750 -11.000  1.00  0.00     0.008 C 
ENDBRANCH  12  17
ENDBRANCH  11  12
ENDBRANCH   1  11
TORSDOF 1
ENDMDL
