MODEL 1
REMARK VINA RESULT:    -4.356      0.000      0.000
REMARK INTER + INTRA:          -6.134
REMARK INTER:                  -5.883
REMARK INTRA:                  -0.250
REMARK UNBOUND:                -0.250
REMARK SMILES CCCCCCCC(=O)[O-]
REMARK SMILES IDX 5 1 6 2 7 3 8 4 9 5 10 6 4 7 3 8 2 9 1 10
REMARK H PARENT
REMARK Flexibility Score: inf
ROOT
ATOM      1  C   UNL     1      50.236 -41.010  -2.611  1.00  0.00     0.000 C 
ENDROOT
BRANCH   1   2
ATOM      2  C   UNL     1      51.709 -40.782  -2.995  1.00  0.00     0.006 C 
BRANCH   2   3
ATOM      3  C   UNL     1      52.657 -41.712  -2.226  1.00  0.00     0.053 C 
BRANCH   3   4
ATOM      4  C   UNL     1      53.971 -41.053  -1.941  1.00  0.00     0.041 C 
ATOM      5  O   UNL     1      54.046 -39.800  -1.850  1.00  0.00    -0.550 OA
ATOM      6  O   UNL     1      55.109 -41.826  -1.746  1.00  0.00    -0.550 OA
ENDBRANCH   3   4
ENDBRANCH   2   3
ENDBRANCH   1   2
BRANCH   1   7
ATOM      7  C   UNL     1      49.466 -41.805  -3.677  1.00  0.00     0.000 C 
BRANCH   7   8
ATOM      8  C   UNL     1      49.103 -40.953  -4.905  1.00  0.00    -0.000 C 
BRANCH   8   9
ATOM      9  C   UNL     1      48.206 -39.758  -4.547  1.00  0.00    -0.003 C 
ATOM     10  C   UNL     1      46.759 -40.168  -4.272  1.00  0.00     0.004 C 
ENDBRANCH   8   9
ENDBRANCH   7   8
ENDBRANCH   1   7
TORSDOF 6
ENDMDL
MODEL 2
REMARK VINA RESULT:    -4.176      1.142      1.667
REMARK INTER + INTRA:          -5.892
REMARK INTER:                  -5.514
REMARK INTRA:                  -0.377
REMARK UNBOUND:                -0.250
REMARK SMILES CCCCCCCC(=O)[O-]
REMARK SMILES IDX 5 1 6 2 7 3 8 4 9 5 10 6 4 7 3 8 2 9 1 10
REMARK H PARENT
REMARK Flexibility Score: inf
ROOT
ATOM      1  C   UNL     1      50.147 -40.924  -2.720  1.00  0.00     0.000 C 
ENDROOT
BRANCH   1   2
ATOM      2  C   UNL     1      51.633 -41.316  -2.669  1.00  0.00     0.006 C 
BRANCH   2   3
ATOM      3  C   UNL     1      52.551 -40.091  -2.559  1.00  0.00     0.053 C 
BRANCH   3   4
ATOM      4  C   UNL     1      53.910 -40.459  -2.050  1.00  0.00     0.041 C 
ATOM      5  O   UNL     1      54.776 -39.568  -1.848  1.00  0.00    -0.550 OA
ATOM      6  O   UNL     1      54.212 -41.787  -1.771  1.00  0.00    -0.550 OA
ENDBRANCH   3   4
ENDBRANCH   2   3
ENDBRANCH   1   2
BRANCH   1   7
ATOM      7  C   UNL     1      49.359 -41.733  -3.763  1.00  0.00     0.000 C 
BRANCH   7   8
ATOM      8  C   UNL     1      49.142 -40.958  -5.074  1.00  0.00    -0.000 C 
BRANCH   8   9
ATOM      9  C   UNL     1      49.685 -39.522  -5.004  1.00  0.00    -0.003 C 
ATOM     10  C   UNL     1      50.841 -39.280  -5.975  1.00  0.00     0.004 C 
ENDBRANCH   8   9
ENDBRANCH   7   8
ENDBRANCH   1   7
TORSDOF 6
ENDMDL
MODEL 3
REMARK VINA RESULT:    -4.037     11.641     12.621
REMARK INTER + INTRA:          -5.704
REMARK INTER:                  -5.396
REMARK INTRA:                  -0.307
REMARK UNBOUND:                -0.250
REMARK SMILES CCCCCCCC(=O)[O-]
REMARK SMILES IDX 5 1 6 2 7 3 8 4 9 5 10 6 4 7 3 8 2 9 1 10
REMARK H PARENT
REMARK Flexibility Score: inf
ROOT
ATOM      1  C   UNL     1      49.702 -38.908   8.330  1.00  0.00     0.000 C 
ENDROOT
BRANCH   1   2
ATOM      2  C   UNL     1      51.040 -38.258   7.938  1.00  0.00     0.006 C 
BRANCH   2   3
ATOM      3  C   UNL     1      51.727 -37.583   9.133  1.00  0.00     0.053 C 
BRANCH   3   4
ATOM      4  C   UNL     1      51.178 -36.213   9.388  1.00  0.00     0.041 C 
ATOM      5  O   UNL     1      51.176 -35.737  10.553  1.00  0.00    -0.550 OA
ATOM      6  O   UNL     1      50.694 -35.450   8.332  1.00  0.00    -0.550 OA
ENDBRANCH   3   4
ENDBRANCH   2   3
ENDBRANCH   1   2
BRANCH   1   7
ATOM      7  C   UNL     1      49.838 -39.862   9.528  1.00  0.00     0.000 C 
BRANCH   7   8
ATOM      8  C   UNL     1      49.342 -41.284   9.212  1.00  0.00    -0.000 C 
BRANCH   8   9
ATOM      9  C   UNL     1      49.647 -41.704   7.765  1.00  0.00    -0.003 C 
ATOM     10  C   UNL     1      49.834 -43.213   7.616  1.00  0.00     0.004 C 
ENDBRANCH   8   9
ENDBRANCH   7   8
ENDBRANCH   1   7
TORSDOF 6
ENDMDL
MODEL 4
REMARK VINA RESULT:    -3.975      3.202      5.551
REMARK INTER + INTRA:          -5.620
REMARK INTER:                  -5.390
REMARK INTRA:                  -0.229
REMARK UNBOUND:                -0.250
REMARK SMILES CCCCCCCC(=O)[O-]
REMARK SMILES IDX 5 1 6 2 7 3 8 4 9 5 10 6 4 7 3 8 2 9 1 10
REMARK H PARENT
REMARK Flexibility Score: inf
ROOT
ATOM      1  C   UNL     1      49.519 -41.930  -3.705  1.00  0.00     0.000 C 
ENDROOT
BRANCH   1   2
ATOM      2  C   UNL     1      49.367 -40.651  -4.546  1.00  0.00     0.006 C 
BRANCH   2   3
ATOM      3  C   UNL     1      47.922 -40.132  -4.554  1.00  0.00     0.053 C 
BRANCH   3   4
ATOM      4  C   UNL     1      47.400 -39.922  -3.167  1.00  0.00     0.041 C 
ATOM      5  O   UNL     1      46.311 -40.445  -2.812  1.00  0.00    -0.550 OA
ATOM      6  O   UNL     1      48.131 -39.171  -2.254  1.00  0.00    -0.550 OA
ENDBRANCH   3   4
ENDBRANCH   2   3
ENDBRANCH   1   2
BRANCH   1   7
ATOM      7  C   UNL     1      50.978 -42.208  -3.312  1.00  0.00     0.000 C 
BRANCH   7   8
ATOM      8  C   UNL     1      51.645 -41.005  -2.622  1.00  0.00    -0.000 C 
BRANCH   8   9
ATOM      9  C   UNL     1      52.954 -41.387  -1.912  1.00  0.00    -0.003 C 
ATOM     10  C   UNL     1      54.003 -40.278  -1.973  1.00  0.00     0.004 C 
ENDBRANCH   8   9
ENDBRANCH   7   8
ENDBRANCH   1   7
TORSDOF 6
ENDMDL
MODEL 5
REMARK VINA RESULT:    -3.914      1.475      1.968
REMARK INTER + INTRA:          -5.537
REMARK INTER:                  -5.226
REMARK INTRA:                  -0.311
REMARK UNBOUND:                -0.250
REMARK SMILES CCCCCCCC(=O)[O-]
REMARK SMILES IDX 5 1 6 2 7 3 8 4 9 5 10 6 4 7 3 8 2 9 1 10
REMARK H PARENT
REMARK Flexibility Score: inf
ROOT
ATOM      1  C   UNL     1      50.352 -40.156  -4.803  1.00  0.00     0.000 C 
ENDROOT
BRANCH   1   2
ATOM      2  C   UNL     1      50.830 -39.777  -3.391  1.00  0.00     0.006 C 
BRANCH   2   3
ATOM      3  C   UNL     1      52.123 -38.949  -3.421  1.00  0.00     0.053 C 
BRANCH   3   4
ATOM      4  C   UNL     1      53.190 -39.555  -2.563  1.00  0.00     0.041 C 
ATOM      5  O   UNL     1      54.160 -38.857  -2.169  1.00  0.00    -0.550 OA
ATOM      6  O   UNL     1      53.098 -40.886  -2.175  1.00  0.00    -0.550 OA
ENDBRANCH   3   4
ENDBRANCH   2   3
ENDBRANCH   1   2
BRANCH   1   7
ATOM      7  C   UNL     1      49.035 -40.949  -4.787  1.00  0.00     0.000 C 
BRANCH   7   8
ATOM      8  C   UNL     1      47.797 -40.040  -4.710  1.00  0.00    -0.000 C 
BRANCH   8   9
ATOM      9  C   UNL     1      46.768 -40.535  -3.681  1.00  0.00    -0.003 C 
ATOM     10  C   UNL     1      47.246 -40.364  -2.239  1.00  0.00     0.004 C 
ENDBRANCH   8   9
ENDBRANCH   7   8
ENDBRANCH   1   7
TORSDOF 6
ENDMDL
MODEL 6
REMARK VINA RESULT:    -3.894     12.651     13.580
REMARK INTER + INTRA:          -5.510
REMARK INTER:                  -5.227
REMARK INTRA:                  -0.283
REMARK UNBOUND:                -0.250
REMARK SMILES CCCCCCCC(=O)[O-]
REMARK SMILES IDX 5 1 6 2 7 3 8 4 9 5 10 6 4 7 3 8 2 9 1 10
REMARK H PARENT
REMARK Flexibility Score: inf
ROOT
ATOM      1  C   UNL     1      50.246 -37.450   9.717  1.00  0.00     0.000 C 
ENDROOT
BRANCH   1   2
ATOM      2  C   UNL     1      49.608 -36.104   9.336  1.00  0.00     0.006 C 
BRANCH   2   3
ATOM      3  C   UNL     1      50.655 -34.997   9.155  1.00  0.00     0.053 C 
BRANCH   3   4
ATOM      4  C   UNL     1      50.746 -34.115  10.362  1.00  0.00     0.041 C 
ATOM      5  O   UNL     1      49.707 -33.604  10.854  1.00  0.00    -0.550 OA
ATOM      6  O   UNL     1      51.978 -33.881  10.961  1.00  0.00    -0.550 OA
ENDBRANCH   3   4
ENDBRANCH   2   3
ENDBRANCH   1   2
BRANCH   1   7
ATOM      7  C   UNL     1      51.271 -37.932   8.678  1.00  0.00     0.000 C 
BRANCH   7   8
ATOM      8  C   UNL     1      50.659 -38.894   7.645  1.00  0.00    -0.000 C 
BRANCH   8   9
ATOM      9  C   UNL     1      49.604 -39.824   8.262  1.00  0.00    -0.003 C 
ATOM     10  C   UNL     1      49.817 -41.290   7.886  1.00  0.00     0.004 C 
ENDBRANCH   8   9
ENDBRANCH   7   8
ENDBRANCH   1   7
TORSDOF 6
ENDMDL
MODEL 7
REMARK VINA RESULT:    -3.820     12.773     13.656
REMARK INTER + INTRA:          -5.410
REMARK INTER:                  -5.096
REMARK INTRA:                  -0.313
REMARK UNBOUND:                -0.250
REMARK SMILES CCCCCCCC(=O)[O-]
REMARK SMILES IDX 5 1 6 2 7 3 8 4 9 5 10 6 4 7 3 8 2 9 1 10
REMARK H PARENT
REMARK Flexibility Score: inf
ROOT
ATOM      1  C   UNL     1      51.705 -37.672   9.011  1.00  0.00     0.000 C 
ENDROOT
BRANCH   1   2
ATOM      2  C   UNL     1      51.322 -36.485   9.910  1.00  0.00     0.006 C 
BRANCH   2   3
ATOM      3  C   UNL     1      49.876 -36.586  10.415  1.00  0.00     0.053 C 
BRANCH   3   4
ATOM      4  C   UNL     1      49.810 -37.143  11.804  1.00  0.00     0.041 C 
ATOM      5  O   UNL     1      49.475 -36.407  12.768  1.00  0.00    -0.550 OA
ATOM      6  O   UNL     1      50.091 -38.485  12.029  1.00  0.00    -0.550 OA
ENDBRANCH   3   4
ENDBRANCH   2   3
ENDBRANCH   1   2
BRANCH   1   7
ATOM      7  C   UNL     1      50.630 -37.987   7.959  1.00  0.00     0.000 C 
BRANCH   7   8
ATOM      8  C   UNL     1      50.608 -39.473   7.560  1.00  0.00    -0.000 C 
BRANCH   8   9
ATOM      9  C   UNL     1      49.695 -40.311   8.468  1.00  0.00    -0.003 C 
ATOM     10  C   UNL     1      49.554 -41.756   7.990  1.00  0.00     0.004 C 
ENDBRANCH   8   9
ENDBRANCH   7   8
ENDBRANCH   1   7
TORSDOF 6
ENDMDL
MODEL 8
REMARK VINA RESULT:    -3.800      2.901      5.032
REMARK INTER + INTRA:          -5.383
REMARK INTER:                  -4.990
REMARK INTRA:                  -0.393
REMARK UNBOUND:                -0.250
REMARK SMILES CCCCCCCC(=O)[O-]
REMARK SMILES IDX 5 1 6 2 7 3 8 4 9 5 10 6 4 7 3 8 2 9 1 10
REMARK H PARENT
REMARK Flexibility Score: inf
ROOT
ATOM      1  C   UNL     1      51.051 -38.731  -4.786  1.00  0.00     0.000 C 
ENDROOT
BRANCH   1   2
ATOM      2  C   UNL     1      49.556 -39.080  -4.880  1.00  0.00     0.006 C 
BRANCH   2   3
ATOM      3  C   UNL     1      49.321 -40.593  -4.983  1.00  0.00     0.053 C 
BRANCH   3   4
ATOM      4  C   UNL     1      49.102 -41.214  -3.638  1.00  0.00     0.041 C 
ATOM      5  O   UNL     1      48.343 -40.661  -2.800  1.00  0.00    -0.550 OA
ATOM      6  O   UNL     1      49.715 -42.420  -3.321  1.00  0.00    -0.550 OA
ENDBRANCH   3   4
ENDBRANCH   2   3
ENDBRANCH   1   2
BRANCH   1   7
ATOM      7  C   UNL     1      51.487 -38.386  -3.352  1.00  0.00     0.000 C 
BRANCH   7   8
ATOM      8  C   UNL     1      52.814 -39.059  -2.959  1.00  0.00    -0.000 C 
BRANCH   8   9
ATOM      9  C   UNL     1      52.617 -40.503  -2.470  1.00  0.00    -0.003 C 
ATOM     10  C   UNL     1      53.905 -41.122  -1.927  1.00  0.00     0.004 C 
ENDBRANCH   8   9
ENDBRANCH   7   8
ENDBRANCH   1   7
TORSDOF 6
ENDMDL
MODEL 9
REMARK VINA RESULT:    -3.778     13.080     14.064
REMARK INTER + INTRA:          -5.354
REMARK INTER:                  -5.050
REMARK INTRA:                  -0.304
REMARK UNBOUND:                -0.250
REMARK SMILES CCCCCCCC(=O)[O-]
REMARK SMILES IDX 5 1 6 2 7 3 8 4 9 5 10 6 4 7 3 8 2 9 1 10
REMARK H PARENT
REMARK Flexibility Score: inf
ROOT
ATOM      1  C   UNL     1      50.207 -36.433   9.979  1.00  0.00     0.000 C 
ENDROOT
BRANCH   1   2
ATOM      2  C   UNL     1      51.225 -37.571   9.791  1.00  0.00     0.006 C 
BRANCH   2   3
ATOM      3  C   UNL     1      51.373 -37.976   8.318  1.00  0.00     0.053 C 
BRANCH   3   4
ATOM      4  C   UNL     1      50.167 -38.710   7.820  1.00  0.00     0.041 C 
ATOM      5  O   UNL     1      49.988 -39.918   8.124  1.00  0.00    -0.550 OA
ATOM      6  O   UNL     1      49.224 -38.051   7.041  1.00  0.00    -0.550 OA
ENDBRANCH   3   4
ENDBRANCH   2   3
ENDBRANCH   1   2
BRANCH   1   7
ATOM      7  C   UNL     1      50.714 -35.091   9.426  1.00  0.00     0.000 C 
BRANCH   7   8
ATOM      8  C   UNL     1      51.111 -34.104  10.538  1.00  0.00    -0.000 C 
BRANCH   8   9
ATOM      9  C   UNL     1      49.899 -33.601  11.337  1.00  0.00    -0.003 C 
ATOM     10  C   UNL     1      49.942 -34.025  12.805  1.00  0.00     0.004 C 
ENDBRANCH   8   9
ENDBRANCH   7   8
ENDBRANCH   1   7
TORSDOF 6
ENDMDL
