MODEL 1
REMARK VINA RESULT:    -3.824      0.000      0.000
REMARK INTER + INTRA:          -4.822
REMARK INTER:                  -4.606
REMARK INTRA:                  -0.216
REMARK UNBOUND:                -0.216
REMARK SMILES OCC(O)CO
REMARK SMILES IDX 3 1 5 2 6 3 2 5 1 6 4 8
REMARK H PARENT 6 4 1 7 4 9
REMARK Flexibility Score: inf
ROOT
ATOM      1  C   UNL     1      66.270  26.950  36.296  1.00  0.00     0.165 C 
ENDROOT
BRANCH   1   2
ATOM      2  C   UNL     1      64.789  26.568  36.127  1.00  0.00     0.190 C 
BRANCH   2   3
ATOM      3  O   UNL     1      64.578  25.248  36.547  1.00  0.00    -0.394 OA
ATOM      4  H   UNL     1      65.477  24.871  36.734  1.00  0.00     0.210 HD
ENDBRANCH   2   3
ENDBRANCH   1   2
BRANCH   1   5
ATOM      5  C   UNL     1      67.209  26.037  35.484  1.00  0.00     0.190 C 
BRANCH   5   6
ATOM      6  O   UNL     1      67.576  24.903  36.222  1.00  0.00    -0.394 OA
ATOM      7  H   UNL     1      68.464  25.098  36.620  1.00  0.00     0.210 HD
ENDBRANCH   5   6
ENDBRANCH   1   5
BRANCH   1   8
ATOM      8  O   UNL     1      66.467  28.292  35.929  1.00  0.00    -0.388 OA
ATOM      9  H   UNL     1      66.313  28.362  34.950  1.00  0.00     0.211 HD
ENDBRANCH   1   8
TORSDOF 5
ENDMDL
MODEL 2
REMARK VINA RESULT:    -3.813      1.898      2.497
REMARK INTER + INTRA:          -4.809
REMARK INTER:                  -4.586
REMARK INTRA:                  -0.223
REMARK UNBOUND:                -0.216
REMARK SMILES OCC(O)CO
REMARK SMILES IDX 3 1 5 2 6 3 2 5 1 6 4 8
REMARK H PARENT 6 4 1 7 4 9
REMARK Flexibility Score: inf
ROOT
ATOM      1  C   UNL     1      65.087  27.998  36.347  1.00  0.00     0.165 C 
ENDROOT
BRANCH   1   2
ATOM      2  C   UNL     1      63.856  28.903  36.168  1.00  0.00     0.190 C 
BRANCH   2   3
ATOM      3  O   UNL     1      62.697  28.127  36.039  1.00  0.00    -0.394 OA
ATOM      4  H   UNL     1      62.958  27.329  35.509  1.00  0.00     0.210 HD
ENDBRANCH   2   3
ENDBRANCH   1   2
BRANCH   1   5
ATOM      5  C   UNL     1      65.000  26.713  35.501  1.00  0.00     0.190 C 
BRANCH   5   6
ATOM      6  O   UNL     1      64.360  25.685  36.207  1.00  0.00    -0.394 OA
ATOM      7  H   UNL     1      65.069  25.046  36.481  1.00  0.00     0.210 HD
ENDBRANCH   5   6
ENDBRANCH   1   5
BRANCH   1   8
ATOM      8  O   UNL     1      66.258  28.707  36.027  1.00  0.00    -0.388 OA
ATOM      9  H   UNL     1      67.028  28.190  36.382  1.00  0.00     0.211 HD
ENDBRANCH   1   8
TORSDOF 5
ENDMDL
MODEL 3
REMARK VINA RESULT:    -3.797      1.788      3.037
REMARK INTER + INTRA:          -4.789
REMARK INTER:                  -4.573
REMARK INTRA:                  -0.216
REMARK UNBOUND:                -0.216
REMARK SMILES OCC(O)CO
REMARK SMILES IDX 3 1 5 2 6 3 2 5 1 6 4 8
REMARK H PARENT 6 4 1 7 4 9
REMARK Flexibility Score: inf
ROOT
ATOM      1  C   UNL     1      65.086  27.869  35.693  1.00  0.00     0.165 C 
ENDROOT
BRANCH   1   2
ATOM      2  C   UNL     1      65.419  26.430  36.122  1.00  0.00     0.190 C 
BRANCH   2   3
ATOM      3  O   UNL     1      64.245  25.673  36.232  1.00  0.00    -0.394 OA
ATOM      4  H   UNL     1      64.472  24.895  36.805  1.00  0.00     0.210 HD
ENDBRANCH   2   3
ENDBRANCH   1   2
BRANCH   1   5
ATOM      5  C   UNL     1      63.861  28.437  36.436  1.00  0.00     0.190 C 
BRANCH   5   6
ATOM      6  O   UNL     1      62.666  27.999  35.849  1.00  0.00    -0.394 OA
ATOM      7  H   UNL     1      61.947  28.588  36.197  1.00  0.00     0.210 HD
ENDBRANCH   5   6
ENDBRANCH   1   5
BRANCH   1   8
ATOM      8  O   UNL     1      66.200  28.703  35.894  1.00  0.00    -0.388 OA
ATOM      9  H   UNL     1      66.473  29.059  35.009  1.00  0.00     0.211 HD
ENDBRANCH   1   8
TORSDOF 5
ENDMDL
MODEL 4
REMARK VINA RESULT:    -3.756      2.090      3.162
REMARK INTER + INTRA:          -4.740
REMARK INTER:                  -4.526
REMARK INTRA:                  -0.214
REMARK UNBOUND:                -0.216
REMARK SMILES OCC(O)CO
REMARK SMILES IDX 3 1 5 2 6 3 2 5 1 6 4 8
REMARK H PARENT 6 4 1 7 4 9
REMARK Flexibility Score: inf
ROOT
ATOM      1  C   UNL     1      64.665  28.253  35.620  1.00  0.00     0.165 C 
ENDROOT
BRANCH   1   2
ATOM      2  C   UNL     1      64.313  29.521  36.416  1.00  0.00     0.190 C 
BRANCH   2   3
ATOM      3  O   UNL     1      65.375  29.876  37.258  1.00  0.00    -0.394 OA
ATOM      4  H   UNL     1      65.589  30.822  37.048  1.00  0.00     0.210 HD
ENDBRANCH   2   3
ENDBRANCH   1   2
BRANCH   1   5
ATOM      5  C   UNL     1      65.716  27.382  36.336  1.00  0.00     0.190 C 
BRANCH   5   6
ATOM      6  O   UNL     1      67.011  27.878  36.125  1.00  0.00    -0.394 OA
ATOM      7  H   UNL     1      67.479  27.827  36.998  1.00  0.00     0.210 HD
ENDBRANCH   5   6
ENDBRANCH   1   5
BRANCH   1   8
ATOM      8  O   UNL     1      63.503  27.500  35.374  1.00  0.00    -0.388 OA
ATOM      9  H   UNL     1      63.365  26.899  36.153  1.00  0.00     0.211 HD
ENDBRANCH   1   8
TORSDOF 5
ENDMDL
MODEL 5
REMARK VINA RESULT:    -3.736      2.370      3.595
REMARK INTER + INTRA:          -4.716
REMARK INTER:                  -4.712
REMARK INTRA:                  -0.004
REMARK UNBOUND:                -0.216
REMARK SMILES OCC(O)CO
REMARK SMILES IDX 3 1 5 2 6 3 2 5 1 6 4 8
REMARK H PARENT 6 4 1 7 4 9
REMARK Flexibility Score: inf
ROOT
ATOM      1  C   UNL     1      63.775  28.204  36.368  1.00  0.00     0.165 C 
ENDROOT
BRANCH   1   2
ATOM      2  C   UNL     1      64.592  27.213  35.521  1.00  0.00     0.190 C 
BRANCH   2   3
ATOM      3  O   UNL     1      64.429  25.910  36.009  1.00  0.00    -0.394 OA
ATOM      4  H   UNL     1      64.646  25.304  35.253  1.00  0.00     0.210 HD
ENDBRANCH   2   3
ENDBRANCH   1   2
BRANCH   1   5
ATOM      5  C   UNL     1      64.329  29.640  36.292  1.00  0.00     0.190 C 
BRANCH   5   6
ATOM      6  O   UNL     1      65.386  29.822  37.194  1.00  0.00    -0.394 OA
ATOM      7  H   UNL     1      66.018  30.458  36.767  1.00  0.00     0.210 HD
ENDBRANCH   5   6
ENDBRANCH   1   5
BRANCH   1   8
ATOM      8  O   UNL     1      62.429  28.186  35.965  1.00  0.00    -0.388 OA
ATOM      9  H   UNL     1      62.235  29.055  35.523  1.00  0.00     0.211 HD
ENDBRANCH   1   8
TORSDOF 5
ENDMDL
MODEL 6
REMARK VINA RESULT:    -3.722      1.001      2.371
REMARK INTER + INTRA:          -4.699
REMARK INTER:                  -4.486
REMARK INTRA:                  -0.213
REMARK UNBOUND:                -0.216
REMARK SMILES OCC(O)CO
REMARK SMILES IDX 3 1 5 2 6 3 2 5 1 6 4 8
REMARK H PARENT 6 4 1 7 4 9
REMARK Flexibility Score: inf
ROOT
ATOM      1  C   UNL     1      66.068  27.248  35.641  1.00  0.00     0.165 C 
ENDROOT
BRANCH   1   2
ATOM      2  C   UNL     1      67.286  26.406  36.055  1.00  0.00     0.190 C 
BRANCH   2   3
ATOM      3  O   UNL     1      67.658  26.706  37.372  1.00  0.00    -0.394 OA
ATOM      4  H   UNL     1      68.626  26.926  37.341  1.00  0.00     0.210 HD
ENDBRANCH   2   3
ENDBRANCH   1   2
BRANCH   1   5
ATOM      5  C   UNL     1      64.741  26.658  36.157  1.00  0.00     0.190 C 
BRANCH   5   6
ATOM      6  O   UNL     1      64.949  25.428  36.795  1.00  0.00    -0.394 OA
ATOM      7  H   UNL     1      64.419  25.449  37.634  1.00  0.00     0.210 HD
ENDBRANCH   5   6
ENDBRANCH   1   5
BRANCH   1   8
ATOM      8  O   UNL     1      66.217  28.569  36.097  1.00  0.00    -0.388 OA
ATOM      9  H   UNL     1      66.534  29.118  35.332  1.00  0.00     0.211 HD
ENDBRANCH   1   8
TORSDOF 5
ENDMDL
MODEL 7
REMARK VINA RESULT:    -3.711      1.127      2.343
REMARK INTER + INTRA:          -4.687
REMARK INTER:                  -4.479
REMARK INTRA:                  -0.208
REMARK UNBOUND:                -0.216
REMARK SMILES OCC(O)CO
REMARK SMILES IDX 3 1 5 2 6 3 2 5 1 6 4 8
REMARK H PARENT 6 4 1 7 4 9
REMARK Flexibility Score: inf
ROOT
ATOM      1  C   UNL     1      65.800  26.364  35.759  1.00  0.00     0.165 C 
ENDROOT
BRANCH   1   2
ATOM      2  C   UNL     1      65.248  27.741  36.166  1.00  0.00     0.190 C 
BRANCH   2   3
ATOM      3  O   UNL     1      66.240  28.721  36.025  1.00  0.00    -0.394 OA
ATOM      4  H   UNL     1      65.897  29.528  36.491  1.00  0.00     0.210 HD
ENDBRANCH   2   3
ENDBRANCH   1   2
BRANCH   1   5
ATOM      5  C   UNL     1      67.317  26.241  36.005  1.00  0.00     0.190 C 
BRANCH   5   6
ATOM      6  O   UNL     1      67.657  26.679  37.293  1.00  0.00    -0.394 OA
ATOM      7  H   UNL     1      67.055  27.441  37.501  1.00  0.00     0.210 HD
ENDBRANCH   5   6
ENDBRANCH   1   5
BRANCH   1   8
ATOM      8  O   UNL     1      65.117  25.348  36.449  1.00  0.00    -0.388 OA
ATOM      9  H   UNL     1      65.572  25.220  37.323  1.00  0.00     0.211 HD
ENDBRANCH   1   8
TORSDOF 5
ENDMDL
MODEL 8
REMARK VINA RESULT:    -3.616      1.465      3.234
REMARK INTER + INTRA:          -4.572
REMARK INTER:                  -4.348
REMARK INTRA:                  -0.224
REMARK UNBOUND:                -0.216
REMARK SMILES OCC(O)CO
REMARK SMILES IDX 3 1 5 2 6 3 2 5 1 6 4 8
REMARK H PARENT 6 4 1 7 4 9
REMARK Flexibility Score: inf
ROOT
ATOM      1  C   UNL     1      65.273  27.078  36.165  1.00  0.00     0.165 C 
ENDROOT
BRANCH   1   2
ATOM      2  C   UNL     1      66.646  26.532  35.739  1.00  0.00     0.190 C 
BRANCH   2   3
ATOM      3  O   UNL     1      67.662  27.413  36.133  1.00  0.00    -0.394 OA
ATOM      4  H   UNL     1      67.563  27.526  37.114  1.00  0.00     0.210 HD
ENDBRANCH   2   3
ENDBRANCH   1   2
BRANCH   1   5
ATOM      5  C   UNL     1      65.134  28.591  35.905  1.00  0.00     0.190 C 
BRANCH   5   6
ATOM      6  O   UNL     1      65.632  29.336  36.983  1.00  0.00    -0.394 OA
ATOM      7  H   UNL     1      65.818  28.690  37.713  1.00  0.00     0.210 HD
ENDBRANCH   5   6
ENDBRANCH   1   5
BRANCH   1   8
ATOM      8  O   UNL     1      64.249  26.380  35.501  1.00  0.00    -0.388 OA
ATOM      9  H   UNL     1      64.528  25.429  35.434  1.00  0.00     0.211 HD
ENDBRANCH   1   8
TORSDOF 5
ENDMDL
MODEL 9
REMARK VINA RESULT:    -3.595      1.731      2.897
REMARK INTER + INTRA:          -4.546
REMARK INTER:                  -4.538
REMARK INTRA:                  -0.008
REMARK UNBOUND:                -0.216
REMARK SMILES OCC(O)CO
REMARK SMILES IDX 3 1 5 2 6 3 2 5 1 6 4 8
REMARK H PARENT 6 4 1 7 4 9
REMARK Flexibility Score: inf
ROOT
ATOM      1  C   UNL     1      64.503  27.431  35.601  1.00  0.00     0.165 C 
ENDROOT
BRANCH   1   2
ATOM      2  C   UNL     1      65.291  28.715  35.914  1.00  0.00     0.190 C 
BRANCH   2   3
ATOM      3  O   UNL     1      66.654  28.424  36.060  1.00  0.00    -0.394 OA
ATOM      4  H   UNL     1      67.065  29.228  36.473  1.00  0.00     0.210 HD
ENDBRANCH   2   3
ENDBRANCH   1   2
BRANCH   1   5
ATOM      5  C   UNL     1      65.198  26.167  36.144  1.00  0.00     0.190 C 
BRANCH   5   6
ATOM      6  O   UNL     1      64.258  25.200  36.528  1.00  0.00    -0.394 OA
ATOM      7  H   UNL     1      63.364  25.622  36.439  1.00  0.00     0.210 HD
ENDBRANCH   5   6
ENDBRANCH   1   5
BRANCH   1   8
ATOM      8  O   UNL     1      63.201  27.526  36.122  1.00  0.00    -0.388 OA
ATOM      9  H   UNL     1      63.228  27.203  37.061  1.00  0.00     0.211 HD
ENDBRANCH   1   8
TORSDOF 5
ENDMDL
