MODEL 1
REMARK VINA RESULT:    -3.413      0.000      0.000
REMARK INTER + INTRA:          -4.123
REMARK INTER:                  -4.012
REMARK INTRA:                  -0.111
REMARK UNBOUND:                -0.111
REMARK SMILES O=C([O-])CCC(=O)[O-]
REMARK SMILES IDX 4 1 2 2 1 3 3 4 5 5 6 6 7 7 8 8
REMARK H PARENT
REMARK Flexibility Score: inf
ROOT
ATOM      1  C   UNL     1     -45.398  13.345  -9.856  1.00  0.00     0.059 C 
ENDROOT
BRANCH   1   2
ATOM      2  C   UNL     1     -46.182  14.618  -9.905  1.00  0.00     0.042 C 
ATOM      3  O   UNL     1     -47.091  14.836  -9.061  1.00  0.00    -0.550 OA
ATOM      4  O   UNL     1     -45.943  15.544 -10.912  1.00  0.00    -0.550 OA
ENDBRANCH   1   2
BRANCH   1   5
ATOM      5  C   UNL     1     -45.915  12.358 -10.903  1.00  0.00     0.059 C 
BRANCH   5   6
ATOM      6  C   UNL     1     -46.698  11.263 -10.249  1.00  0.00     0.042 C 
ATOM      7  O   UNL     1     -46.937  11.306  -9.014  1.00  0.00    -0.550 OA
ATOM      8  O   UNL     1     -47.121  10.170 -10.994  1.00  0.00    -0.550 OA
ENDBRANCH   5   6
ENDBRANCH   1   5
TORSDOF 3
ENDMDL
MODEL 2
REMARK VINA RESULT:    -3.232     17.398     18.832
REMARK INTER + INTRA:          -3.910
REMARK INTER:                  -3.744
REMARK INTRA:                  -0.166
REMARK UNBOUND:                -0.111
REMARK SMILES O=C([O-])CCC(=O)[O-]
REMARK SMILES IDX 4 1 2 2 1 3 3 4 5 5 6 6 7 7 8 8
REMARK H PARENT
REMARK Flexibility Score: inf
ROOT
ATOM      1  C   UNL     1     -43.418  28.152   2.276  1.00  0.00     0.059 C 
ENDROOT
BRANCH   1   2
ATOM      2  C   UNL     1     -44.491  27.283   2.851  1.00  0.00     0.042 C 
ATOM      3  O   UNL     1     -44.206  26.150   3.322  1.00  0.00    -0.550 OA
ATOM      4  O   UNL     1     -45.815  27.702   2.823  1.00  0.00    -0.550 OA
ENDBRANCH   1   2
BRANCH   1   5
ATOM      5  C   UNL     1     -42.839  27.520   1.010  1.00  0.00     0.059 C 
BRANCH   5   6
ATOM      6  C   UNL     1     -43.849  27.536  -0.093  1.00  0.00     0.042 C 
ATOM      7  O   UNL     1     -44.168  28.623  -0.644  1.00  0.00    -0.550 OA
ATOM      8  O   UNL     1     -44.475  26.359  -0.480  1.00  0.00    -0.550 OA
ENDBRANCH   5   6
ENDBRANCH   1   5
TORSDOF 3
ENDMDL
MODEL 3
REMARK VINA RESULT:    -3.223     17.451     18.864
REMARK INTER + INTRA:          -3.899
REMARK INTER:                  -3.733
REMARK INTRA:                  -0.167
REMARK UNBOUND:                -0.111
REMARK SMILES O=C([O-])CCC(=O)[O-]
REMARK SMILES IDX 4 1 2 2 1 3 3 4 5 5 6 6 7 7 8 8
REMARK H PARENT
REMARK Flexibility Score: inf
ROOT
ATOM      1  C   UNL     1     -42.803  27.466   1.101  1.00  0.00     0.059 C 
ENDROOT
BRANCH   1   2
ATOM      2  C   UNL     1     -43.787  27.537  -0.024  1.00  0.00     0.042 C 
ATOM      3  O   UNL     1     -44.036  28.639  -0.581  1.00  0.00    -0.550 OA
ATOM      4  O   UNL     1     -44.467  26.394  -0.426  1.00  0.00    -0.550 OA
ENDBRANCH   1   2
BRANCH   1   5
ATOM      5  C   UNL     1     -43.384  28.110   2.361  1.00  0.00     0.059 C 
BRANCH   5   6
ATOM      6  C   UNL     1     -44.458  27.246   2.943  1.00  0.00     0.042 C 
ATOM      7  O   UNL     1     -44.185  26.088   3.355  1.00  0.00    -0.550 OA
ATOM      8  O   UNL     1     -45.769  27.701   2.986  1.00  0.00    -0.550 OA
ENDBRANCH   5   6
ENDBRANCH   1   5
TORSDOF 3
ENDMDL
MODEL 4
REMARK VINA RESULT:    -3.045     20.038     21.776
REMARK INTER + INTRA:          -3.690
REMARK INTER:                  -3.663
REMARK INTRA:                  -0.027
REMARK UNBOUND:                -0.111
REMARK SMILES O=C([O-])CCC(=O)[O-]
REMARK SMILES IDX 4 1 2 2 1 3 3 4 5 5 6 6 7 7 8 8
REMARK H PARENT
REMARK Flexibility Score: inf
ROOT
ATOM      1  C   UNL     1     -43.995  27.846   5.014  1.00  0.00     0.059 C 
ENDROOT
BRANCH   1   2
ATOM      2  C   UNL     1     -44.740  27.147   3.920  1.00  0.00     0.042 C 
ATOM      3  O   UNL     1     -45.930  27.467   3.660  1.00  0.00    -0.550 OA
ATOM      4  O   UNL     1     -44.138  26.110   3.221  1.00  0.00    -0.550 OA
ENDBRANCH   1   2
BRANCH   1   5
ATOM      5  C   UNL     1     -43.826  26.922   6.220  1.00  0.00     0.059 C 
BRANCH   5   6
ATOM      6  C   UNL     1     -43.207  27.662   7.364  1.00  0.00     0.042 C 
ATOM      7  O   UNL     1     -43.824  27.771   8.456  1.00  0.00    -0.550 OA
ATOM      8  O   UNL     1     -41.970  28.273   7.208  1.00  0.00    -0.550 OA
ENDBRANCH   5   6
ENDBRANCH   1   5
TORSDOF 3
ENDMDL
MODEL 5
REMARK VINA RESULT:    -3.032     15.175     16.978
REMARK INTER + INTRA:          -3.675
REMARK INTER:                  -3.614
REMARK INTRA:                  -0.060
REMARK UNBOUND:                -0.111
REMARK SMILES O=C([O-])CCC(=O)[O-]
REMARK SMILES IDX 4 1 2 2 1 3 3 4 5 5 6 6 7 7 8 8
REMARK H PARENT
REMARK Flexibility Score: inf
ROOT
ATOM      1  C   UNL     1     -44.029  27.152  -0.596  1.00  0.00     0.059 C 
ENDROOT
BRANCH   1   2
ATOM      2  C   UNL     1     -43.812  27.277   0.879  1.00  0.00     0.042 C 
ATOM      3  O   UNL     1     -42.669  27.551   1.331  1.00  0.00    -0.550 OA
ATOM      4  O   UNL     1     -44.861  27.042   1.758  1.00  0.00    -0.550 OA
ENDBRANCH   1   2
BRANCH   1   5
ATOM      5  C   UNL     1     -45.521  27.037  -0.909  1.00  0.00     0.059 C 
BRANCH   5   6
ATOM      6  C   UNL     1     -45.758  25.993  -1.955  1.00  0.00     0.042 C 
ATOM      7  O   UNL     1     -45.713  24.772  -1.652  1.00  0.00    -0.550 OA
ATOM      8  O   UNL     1     -45.980  26.367  -3.273  1.00  0.00    -0.550 OA
ENDBRANCH   5   6
ENDBRANCH   1   5
TORSDOF 3
ENDMDL
MODEL 6
REMARK VINA RESULT:    -3.030     19.978     21.644
REMARK INTER + INTRA:          -3.672
REMARK INTER:                  -3.641
REMARK INTRA:                  -0.031
REMARK UNBOUND:                -0.111
REMARK SMILES O=C([O-])CCC(=O)[O-]
REMARK SMILES IDX 4 1 2 2 1 3 3 4 5 5 6 6 7 7 8 8
REMARK H PARENT
REMARK Flexibility Score: inf
ROOT
ATOM      1  C   UNL     1     -43.826  26.957   6.151  1.00  0.00     0.059 C 
ENDROOT
BRANCH   1   2
ATOM      2  C   UNL     1     -43.110  27.722   7.218  1.00  0.00     0.042 C 
ATOM      3  O   UNL     1     -41.971  28.210   6.993  1.00  0.00    -0.550 OA
ATOM      4  O   UNL     1     -43.678  27.854   8.479  1.00  0.00    -0.550 OA
ENDBRANCH   1   2
BRANCH   1   5
ATOM      5  C   UNL     1     -44.139  27.865   4.961  1.00  0.00     0.059 C 
BRANCH   5   6
ATOM      6  C   UNL     1     -44.780  27.081   3.858  1.00  0.00     0.042 C 
ATOM      7  O   UNL     1     -44.163  26.125   3.320  1.00  0.00    -0.550 OA
ATOM      8  O   UNL     1     -46.038  27.438   3.392  1.00  0.00    -0.550 OA
ENDBRANCH   5   6
ENDBRANCH   1   5
TORSDOF 3
ENDMDL
MODEL 7
REMARK VINA RESULT:    -2.974     15.406     17.323
REMARK INTER + INTRA:          -3.606
REMARK INTER:                  -3.506
REMARK INTRA:                  -0.100
REMARK UNBOUND:                -0.111
REMARK SMILES O=C([O-])CCC(=O)[O-]
REMARK SMILES IDX 4 1 2 2 1 3 3 4 5 5 6 6 7 7 8 8
REMARK H PARENT
REMARK Flexibility Score: inf
ROOT
ATOM      1  C   UNL     1     -45.185  27.432  -1.175  1.00  0.00     0.059 C 
ENDROOT
BRANCH   1   2
ATOM      2  C   UNL     1     -45.610  26.241  -1.974  1.00  0.00     0.042 C 
ATOM      3  O   UNL     1     -45.555  25.087  -1.471  1.00  0.00    -0.550 OA
ATOM      4  O   UNL     1     -46.021  26.397  -3.292  1.00  0.00    -0.550 OA
ENDBRANCH   1   2
BRANCH   1   5
ATOM      5  C   UNL     1     -43.859  27.155  -0.466  1.00  0.00     0.059 C 
BRANCH   5   6
ATOM      6  C   UNL     1     -43.971  27.466   0.993  1.00  0.00     0.042 C 
ATOM      7  O   UNL     1     -43.008  28.001   1.603  1.00  0.00    -0.550 OA
ATOM      8  O   UNL     1     -45.120  27.121   1.692  1.00  0.00    -0.550 OA
ENDBRANCH   5   6
ENDBRANCH   1   5
TORSDOF 3
ENDMDL
MODEL 8
REMARK VINA RESULT:    -2.968     19.468     21.249
REMARK INTER + INTRA:          -3.599
REMARK INTER:                  -3.485
REMARK INTRA:                  -0.114
REMARK UNBOUND:                -0.111
REMARK SMILES O=C([O-])CCC(=O)[O-]
REMARK SMILES IDX 4 1 2 2 1 3 3 4 5 5 6 6 7 7 8 8
REMARK H PARENT
REMARK Flexibility Score: inf
ROOT
ATOM      1  C   UNL     1     -43.661  28.299   3.807  1.00  0.00     0.059 C 
ENDROOT
BRANCH   1   2
ATOM      2  C   UNL     1     -44.501  27.215   3.209  1.00  0.00     0.042 C 
ATOM      3  O   UNL     1     -44.164  26.008   3.339  1.00  0.00    -0.550 OA
ATOM      4  O   UNL     1     -45.628  27.539   2.466  1.00  0.00    -0.550 OA
ENDBRANCH   1   2
BRANCH   1   5
ATOM      5  C   UNL     1     -44.121  28.607   5.233  1.00  0.00     0.059 C 
BRANCH   5   6
ATOM      6  C   UNL     1     -43.276  27.873   6.226  1.00  0.00     0.042 C 
ATOM      7  O   UNL     1     -43.575  26.698   6.567  1.00  0.00    -0.550 OA
ATOM      8  O   UNL     1     -42.186  28.503   6.812  1.00  0.00    -0.550 OA
ENDBRANCH   5   6
ENDBRANCH   1   5
TORSDOF 3
ENDMDL
MODEL 9
REMARK VINA RESULT:    -2.786     15.267     16.957
REMARK INTER + INTRA:          -3.386
REMARK INTER:                  -3.355
REMARK INTRA:                  -0.030
REMARK UNBOUND:                -0.111
REMARK SMILES O=C([O-])CCC(=O)[O-]
REMARK SMILES IDX 4 1 2 2 1 3 3 4 5 5 6 6 7 7 8 8
REMARK H PARENT
REMARK Flexibility Score: inf
ROOT
ATOM      1  C   UNL     1     -44.881  26.258  -1.484  1.00  0.00     0.059 C 
ENDROOT
BRANCH   1   2
ATOM      2  C   UNL     1     -46.244  25.869  -1.964  1.00  0.00     0.042 C 
ATOM      3  O   UNL     1     -46.989  25.153  -1.243  1.00  0.00    -0.550 OA
ATOM      4  O   UNL     1     -46.673  26.255  -3.227  1.00  0.00    -0.550 OA
ENDBRANCH   1   2
BRANCH   1   5
ATOM      5  C   UNL     1     -44.985  27.240  -0.317  1.00  0.00     0.059 C 
BRANCH   5   6
ATOM      6  C   UNL     1     -43.700  27.284   0.447  1.00  0.00     0.042 C 
ATOM      7  O   UNL     1     -42.686  27.842  -0.050  1.00  0.00    -0.550 OA
ATOM      8  O   UNL     1     -43.606  26.666   1.687  1.00  0.00    -0.550 OA
ENDBRANCH   5   6
ENDBRANCH   1   5
TORSDOF 3
ENDMDL
