MODEL 1
REMARK VINA RESULT:    -4.748      0.000      0.000
REMARK INTER + INTRA:         -10.484
REMARK INTER:                  -8.357
REMARK INTRA:                  -2.127
REMARK UNBOUND:                -2.127
REMARK SMILES CCCCCCC=CCCCCCCCC(=O)[O-]
REMARK SMILES IDX 10 1 11 2 12 3 13 4 14 5 15 6 16 7 17 8 18 9 9 10 8 11 7 12
REMARK SMILES IDX 6 13 5 14 4 15 3 16 2 17 1 18
REMARK H PARENT
REMARK Flexibility Score: inf
ROOT
ATOM      1  C   UNL     1       6.504  -2.491   2.334  1.00  0.00     0.004 C 
ENDROOT
BRANCH   1   2
ATOM      2  C   UNL     1       6.173  -2.424   3.832  1.00  0.00     0.000 C 
BRANCH   2   3
ATOM      3  C   UNL     1       7.109  -3.304   4.676  1.00  0.00     0.000 C 
BRANCH   3   4
ATOM      4  C   UNL     1       6.632  -3.463   6.130  1.00  0.00     0.000 C 
BRANCH   4   5
ATOM      5  C   UNL     1       5.226  -2.879   6.388  1.00  0.00     0.006 C 
BRANCH   5   6
ATOM      6  C   UNL     1       4.335  -3.842   7.183  1.00  0.00     0.053 C 
BRANCH   6   7
ATOM      7  C   UNL     1       2.898  -3.648   6.818  1.00  0.00     0.041 C 
ATOM      8  O   UNL     1       2.166  -2.891   7.508  1.00  0.00    -0.550 OA
ATOM      9  O   UNL     1       2.354  -4.341   5.745  1.00  0.00    -0.550 OA
ENDBRANCH   6   7
ENDBRANCH   5   6
ENDBRANCH   4   5
ENDBRANCH   3   4
ENDBRANCH   2   3
ENDBRANCH   1   2
BRANCH   1  10
ATOM     10  C   UNL     1       5.674  -1.499   1.505  1.00  0.00     0.027 C 
BRANCH  10  11
ATOM     11  C   UNL     1       5.439  -0.226   2.275  1.00  0.00    -0.031 C 
ATOM     12  C   UNL     1       6.177   0.892   2.142  1.00  0.00    -0.031 C 
BRANCH  12  13
ATOM     13  C   UNL     1       7.402   1.011   1.270  1.00  0.00     0.027 C 
BRANCH  13  14
ATOM     14  C   UNL     1       8.682   1.188   2.101  1.00  0.00     0.004 C 
BRANCH  14  15
ATOM     15  C   UNL     1       9.497  -0.115   2.197  1.00  0.00     0.000 C 
BRANCH  15  16
ATOM     16  C   UNL     1       9.541  -0.668   3.638  1.00  0.00    -0.000 C 
BRANCH  16  17
ATOM     17  C   UNL     1       8.893   0.264   4.675  1.00  0.00    -0.003 C 
ATOM     18  C   UNL     1       8.850  -0.338   6.078  1.00  0.00     0.004 C 
ENDBRANCH  16  17
ENDBRANCH  15  16
ENDBRANCH  14  15
ENDBRANCH  13  14
ENDBRANCH  12  13
ENDBRANCH  10  11
ENDBRANCH   1  10
TORSDOF 13
ENDMDL
MODEL 2
REMARK VINA RESULT:    -4.737      3.944      6.725
REMARK INTER + INTRA:         -10.463
REMARK INTER:                  -8.410
REMARK INTRA:                  -2.053
REMARK UNBOUND:                -2.127
REMARK SMILES CCCCCCC=CCCCCCCCC(=O)[O-]
REMARK SMILES IDX 10 1 11 2 12 3 13 4 14 5 15 6 16 7 17 8 18 9 9 10 8 11 7 12
REMARK SMILES IDX 6 13 5 14 4 15 3 16 2 17 1 18
REMARK H PARENT
REMARK Flexibility Score: inf
ROOT
ATOM      1  C   UNL     1      10.074  -0.615   2.680  1.00  0.00     0.004 C 
ENDROOT
BRANCH   1   2
ATOM      2  C   UNL     1       9.137   0.505   2.204  1.00  0.00     0.000 C 
BRANCH   2   3
ATOM      3  C   UNL     1       7.973  -0.030   1.353  1.00  0.00     0.000 C 
BRANCH   3   4
ATOM      4  C   UNL     1       6.954   1.060   0.980  1.00  0.00     0.000 C 
BRANCH   4   5
ATOM      5  C   UNL     1       7.406   2.487   1.358  1.00  0.00     0.006 C 
BRANCH   5   6
ATOM      6  C   UNL     1       7.432   3.427   0.147  1.00  0.00     0.053 C 
BRANCH   6   7
ATOM      7  C   UNL     1       6.482   2.953  -0.906  1.00  0.00     0.041 C 
ATOM      8  O   UNL     1       6.915   2.359  -1.929  1.00  0.00    -0.550 OA
ATOM      9  O   UNL     1       5.123   3.209  -0.783  1.00  0.00    -0.550 OA
ENDBRANCH   6   7
ENDBRANCH   5   6
ENDBRANCH   4   5
ENDBRANCH   3   4
ENDBRANCH   2   3
ENDBRANCH   1   2
BRANCH   1  10
ATOM     10  C   UNL     1       9.694  -1.145   4.071  1.00  0.00     0.027 C 
BRANCH  10  11
ATOM     11  C   UNL     1       9.554  -2.645   4.050  1.00  0.00    -0.031 C 
ATOM     12  C   UNL     1       8.388  -3.299   3.887  1.00  0.00    -0.031 C 
BRANCH  12  13
ATOM     13  C   UNL     1       7.038  -2.632   3.791  1.00  0.00     0.027 C 
BRANCH  13  14
ATOM     14  C   UNL     1       6.284  -2.669   5.129  1.00  0.00     0.004 C 
BRANCH  14  15
ATOM     15  C   UNL     1       5.676  -1.302   5.492  1.00  0.00     0.000 C 
BRANCH  15  16
ATOM     16  C   UNL     1       5.838  -0.273   4.352  1.00  0.00    -0.000 C 
BRANCH  16  17
ATOM     17  C   UNL     1       6.685   0.949   4.743  1.00  0.00    -0.003 C 
ATOM     18  C   UNL     1       7.189   0.893   6.184  1.00  0.00     0.004 C 
ENDBRANCH  16  17
ENDBRANCH  15  16
ENDBRANCH  14  15
ENDBRANCH  13  14
ENDBRANCH  12  13
ENDBRANCH  10  11
ENDBRANCH   1  10
TORSDOF 13
ENDMDL
MODEL 3
REMARK VINA RESULT:    -4.703      4.307      6.078
REMARK INTER + INTRA:         -10.405
REMARK INTER:                  -8.449
REMARK INTRA:                  -1.956
REMARK UNBOUND:                -2.127
REMARK SMILES CCCCCCC=CCCCCCCCC(=O)[O-]
REMARK SMILES IDX 10 1 11 2 12 3 13 4 14 5 15 6 16 7 17 8 18 9 9 10 8 11 7 12
REMARK SMILES IDX 6 13 5 14 4 15 3 16 2 17 1 18
REMARK H PARENT
REMARK Flexibility Score: inf
ROOT
ATOM      1  C   UNL     1       6.810  -2.300   3.342  1.00  0.00     0.004 C 
ENDROOT
BRANCH   1   2
ATOM      2  C   UNL     1       5.757  -2.629   2.273  1.00  0.00     0.000 C 
BRANCH   2   3
ATOM      3  C   UNL     1       5.602  -1.501   1.241  1.00  0.00     0.000 C 
BRANCH   3   4
ATOM      4  C   UNL     1       6.630  -0.372   1.428  1.00  0.00     0.000 C 
BRANCH   4   5
ATOM      5  C   UNL     1       6.054   1.038   1.179  1.00  0.00     0.006 C 
BRANCH   5   6
ATOM      6  C   UNL     1       7.143   2.051   0.801  1.00  0.00     0.053 C 
BRANCH   6   7
ATOM      7  C   UNL     1       6.772   2.777  -0.452  1.00  0.00     0.041 C 
ATOM      8  O   UNL     1       6.824   2.189  -1.565  1.00  0.00    -0.550 OA
ATOM      9  O   UNL     1       6.414   4.118  -0.398  1.00  0.00    -0.550 OA
ENDBRANCH   6   7
ENDBRANCH   5   6
ENDBRANCH   4   5
ENDBRANCH   3   4
ENDBRANCH   2   3
ENDBRANCH   1   2
BRANCH   1  10
ATOM     10  C   UNL     1       7.975  -3.302   3.346  1.00  0.00     0.027 C 
BRANCH  10  11
ATOM     11  C   UNL     1       8.953  -2.978   4.445  1.00  0.00    -0.031 C 
ATOM     12  C   UNL     1       9.754  -1.895   4.457  1.00  0.00    -0.031 C 
BRANCH  12  13
ATOM     13  C   UNL     1       9.859  -0.893   3.334  1.00  0.00     0.027 C 
BRANCH  13  14
ATOM     14  C   UNL     1       9.099   0.404   3.651  1.00  0.00     0.004 C 
BRANCH  14  15
ATOM     15  C   UNL     1       9.082   0.713   5.159  1.00  0.00     0.000 C 
BRANCH  15  16
ATOM     16  C   UNL     1       7.648   0.748   5.729  1.00  0.00    -0.000 C 
BRANCH  16  17
ATOM     17  C   UNL     1       6.618   1.360   4.766  1.00  0.00    -0.003 C 
ATOM     18  C   UNL     1       5.311   0.572   4.706  1.00  0.00     0.004 C 
ENDBRANCH  16  17
ENDBRANCH  15  16
ENDBRANCH  14  15
ENDBRANCH  13  14
ENDBRANCH  12  13
ENDBRANCH  10  11
ENDBRANCH   1  10
TORSDOF 13
ENDMDL
MODEL 4
REMARK VINA RESULT:    -4.678      0.909      3.157
REMARK INTER + INTRA:         -10.360
REMARK INTER:                  -8.580
REMARK INTRA:                  -1.780
REMARK UNBOUND:                -2.127
REMARK SMILES CCCCCCC=CCCCCCCCC(=O)[O-]
REMARK SMILES IDX 10 1 11 2 12 3 13 4 14 5 15 6 16 7 17 8 18 9 9 10 8 11 7 12
REMARK SMILES IDX 6 13 5 14 4 15 3 16 2 17 1 18
REMARK H PARENT
REMARK Flexibility Score: inf
ROOT
ATOM      1  C   UNL     1       8.985  -2.995   4.172  1.00  0.00     0.004 C 
ENDROOT
BRANCH   1   2
ATOM      2  C   UNL     1       8.146  -2.937   5.458  1.00  0.00     0.000 C 
BRANCH   2   3
ATOM      3  C   UNL     1       6.677  -3.318   5.214  1.00  0.00     0.000 C 
BRANCH   3   4
ATOM      4  C   UNL     1       5.697  -2.194   5.591  1.00  0.00     0.000 C 
BRANCH   4   5
ATOM      5  C   UNL     1       5.030  -2.390   6.969  1.00  0.00     0.006 C 
BRANCH   5   6
ATOM      6  C   UNL     1       4.363  -3.765   7.101  1.00  0.00     0.053 C 
BRANCH   6   7
ATOM      7  C   UNL     1       2.901  -3.670   6.801  1.00  0.00     0.041 C 
ATOM      8  O   UNL     1       2.422  -4.249   5.791  1.00  0.00    -0.550 OA
ATOM      9  O   UNL     1       2.075  -2.901   7.611  1.00  0.00    -0.550 OA
ENDBRANCH   6   7
ENDBRANCH   5   6
ENDBRANCH   4   5
ENDBRANCH   3   4
ENDBRANCH   2   3
ENDBRANCH   1   2
BRANCH   1  10
ATOM     10  C   UNL     1       9.638  -1.646   3.837  1.00  0.00     0.027 C 
BRANCH  10  11
ATOM     11  C   UNL     1       8.866  -0.511   4.456  1.00  0.00    -0.031 C 
ATOM     12  C   UNL     1       8.455   0.585   3.790  1.00  0.00    -0.031 C 
BRANCH  12  13
ATOM     13  C   UNL     1       8.783   0.883   2.347  1.00  0.00     0.027 C 
BRANCH  13  14
ATOM     14  C   UNL     1       7.840   0.149   1.381  1.00  0.00     0.004 C 
BRANCH  14  15
ATOM     15  C   UNL     1       6.400   0.689   1.454  1.00  0.00     0.000 C 
BRANCH  15  16
ATOM     16  C   UNL     1       5.413  -0.360   2.009  1.00  0.00    -0.000 C 
BRANCH  16  17
ATOM     17  C   UNL     1       5.928  -1.804   1.906  1.00  0.00    -0.003 C 
ATOM     18  C   UNL     1       5.240  -2.609   0.805  1.00  0.00     0.004 C 
ENDBRANCH  16  17
ENDBRANCH  15  16
ENDBRANCH  14  15
ENDBRANCH  13  14
ENDBRANCH  12  13
ENDBRANCH  10  11
ENDBRANCH   1  10
TORSDOF 13
ENDMDL
MODEL 5
REMARK VINA RESULT:    -4.674      4.078      7.014
REMARK INTER + INTRA:         -10.352
REMARK INTER:                  -8.618
REMARK INTRA:                  -1.734
REMARK UNBOUND:                -2.127
REMARK SMILES CCCCCCC=CCCCCCCCC(=O)[O-]
REMARK SMILES IDX 10 1 11 2 12 3 13 4 14 5 15 6 16 7 17 8 18 9 9 10 8 11 7 12
REMARK SMILES IDX 6 13 5 14 4 15 3 16 2 17 1 18
REMARK H PARENT
REMARK Flexibility Score: inf
ROOT
ATOM      1  C   UNL     1       9.369  -0.239   4.426  1.00  0.00     0.004 C 
ENDROOT
BRANCH   1   2
ATOM      2  C   UNL     1       9.765  -0.734   3.027  1.00  0.00     0.000 C 
BRANCH   2   3
ATOM      3  C   UNL     1       9.263   0.201   1.914  1.00  0.00     0.000 C 
BRANCH   3   4
ATOM      4  C   UNL     1       8.435   1.381   2.451  1.00  0.00     0.000 C 
BRANCH   4   5
ATOM      5  C   UNL     1       8.169   2.480   1.402  1.00  0.00     0.006 C 
BRANCH   5   6
ATOM      6  C   UNL     1       6.814   2.300   0.704  1.00  0.00     0.053 C 
BRANCH   6   7
ATOM      7  C   UNL     1       6.793   3.037  -0.597  1.00  0.00     0.041 C 
ATOM      8  O   UNL     1       6.735   4.295  -0.612  1.00  0.00    -0.550 OA
ATOM      9  O   UNL     1       6.787   2.333  -1.794  1.00  0.00    -0.550 OA
ENDBRANCH   6   7
ENDBRANCH   5   6
ENDBRANCH   4   5
ENDBRANCH   3   4
ENDBRANCH   2   3
ENDBRANCH   1   2
BRANCH   1  10
ATOM     10  C   UNL     1       9.886  -1.160   5.542  1.00  0.00     0.027 C 
BRANCH  10  11
ATOM     11  C   UNL     1       8.875  -1.272   6.653  1.00  0.00    -0.031 C 
ATOM     12  C   UNL     1       7.889  -2.188   6.697  1.00  0.00    -0.031 C 
BRANCH  12  13
ATOM     13  C   UNL     1       7.594  -3.183   5.600  1.00  0.00     0.027 C 
BRANCH  13  14
ATOM     14  C   UNL     1       6.246  -2.902   4.919  1.00  0.00     0.004 C 
BRANCH  14  15
ATOM     15  C   UNL     1       6.389  -2.732   3.396  1.00  0.00     0.000 C 
BRANCH  15  16
ATOM     16  C   UNL     1       6.116  -1.282   2.943  1.00  0.00    -0.000 C 
BRANCH  16  17
ATOM     17  C   UNL     1       5.597  -1.175   1.500  1.00  0.00    -0.003 C 
ATOM     18  C   UNL     1       5.355  -2.535   0.849  1.00  0.00     0.004 C 
ENDBRANCH  16  17
ENDBRANCH  15  16
ENDBRANCH  14  15
ENDBRANCH  13  14
ENDBRANCH  12  13
ENDBRANCH  10  11
ENDBRANCH   1  10
TORSDOF 13
ENDMDL
MODEL 6
REMARK VINA RESULT:    -4.651      3.876      6.437
REMARK INTER + INTRA:         -10.313
REMARK INTER:                  -7.953
REMARK INTRA:                  -2.360
REMARK UNBOUND:                -2.127
REMARK SMILES CCCCCCC=CCCCCCCCC(=O)[O-]
REMARK SMILES IDX 10 1 11 2 12 3 13 4 14 5 15 6 16 7 17 8 18 9 9 10 8 11 7 12
REMARK SMILES IDX 6 13 5 14 4 15 3 16 2 17 1 18
REMARK H PARENT
REMARK Flexibility Score: inf
ROOT
ATOM      1  C   UNL     1       7.143   0.655   4.970  1.00  0.00     0.004 C 
ENDROOT
BRANCH   1   2
ATOM      2  C   UNL     1       6.344   1.344   3.854  1.00  0.00     0.000 C 
BRANCH   2   3
ATOM      3  C   UNL     1       5.316   0.402   3.205  1.00  0.00     0.000 C 
BRANCH   3   4
ATOM      4  C   UNL     1       5.436   0.351   1.673  1.00  0.00     0.000 C 
BRANCH   4   5
ATOM      5  C   UNL     1       6.834   0.739   1.147  1.00  0.00     0.006 C 
BRANCH   5   6
ATOM      6  C   UNL     1       6.779   1.913   0.162  1.00  0.00     0.053 C 
BRANCH   6   7
ATOM      7  C   UNL     1       7.504   3.098   0.717  1.00  0.00     0.041 C 
ATOM      8  O   UNL     1       7.125   4.264   0.430  1.00  0.00    -0.550 OA
ATOM      9  O   UNL     1       8.628   2.915   1.511  1.00  0.00    -0.550 OA
ENDBRANCH   6   7
ENDBRANCH   5   6
ENDBRANCH   4   5
ENDBRANCH   3   4
ENDBRANCH   2   3
ENDBRANCH   1   2
BRANCH   1  10
ATOM     10  C   UNL     1       8.644   0.573   4.651  1.00  0.00     0.027 C 
BRANCH  10  11
ATOM     11  C   UNL     1       9.366  -0.247   5.688  1.00  0.00    -0.031 C 
ATOM     12  C   UNL     1       9.956  -1.433   5.446  1.00  0.00    -0.031 C 
BRANCH  12  13
ATOM     13  C   UNL     1       9.908  -2.161   4.125  1.00  0.00     0.027 C 
BRANCH  13  14
ATOM     14  C   UNL     1       8.855  -3.280   4.125  1.00  0.00     0.004 C 
BRANCH  14  15
ATOM     15  C   UNL     1       7.526  -2.826   3.495  1.00  0.00     0.000 C 
BRANCH  15  16
ATOM     16  C   UNL     1       6.359  -2.865   4.506  1.00  0.00    -0.000 C 
BRANCH  16  17
ATOM     17  C   UNL     1       6.751  -3.445   5.875  1.00  0.00    -0.003 C 
ATOM     18  C   UNL     1       6.576  -2.450   7.020  1.00  0.00     0.004 C 
ENDBRANCH  16  17
ENDBRANCH  15  16
ENDBRANCH  14  15
ENDBRANCH  13  14
ENDBRANCH  12  13
ENDBRANCH  10  11
ENDBRANCH   1  10
TORSDOF 13
ENDMDL
MODEL 7
REMARK VINA RESULT:    -4.629      2.077      4.155
REMARK INTER + INTRA:         -10.273
REMARK INTER:                  -7.827
REMARK INTRA:                  -2.447
REMARK UNBOUND:                -2.127
REMARK SMILES CCCCCCC=CCCCCCCCC(=O)[O-]
REMARK SMILES IDX 10 1 11 2 12 3 13 4 14 5 15 6 16 7 17 8 18 9 9 10 8 11 7 12
REMARK SMILES IDX 6 13 5 14 4 15 3 16 2 17 1 18
REMARK H PARENT
REMARK Flexibility Score: inf
ROOT
ATOM      1  C   UNL     1       7.514   0.579   5.724  1.00  0.00     0.004 C 
ENDROOT
BRANCH   1   2
ATOM      2  C   UNL     1       8.926   0.701   5.131  1.00  0.00     0.000 C 
BRANCH   2   3
ATOM      3  C   UNL     1       9.664  -0.647   5.097  1.00  0.00     0.000 C 
BRANCH   3   4
ATOM      4  C   UNL     1       9.357  -1.466   3.832  1.00  0.00     0.000 C 
BRANCH   4   5
ATOM      5  C   UNL     1       8.755  -2.857   4.124  1.00  0.00     0.006 C 
BRANCH   5   6
ATOM      6  C   UNL     1       7.258  -2.921   3.798  1.00  0.00     0.053 C 
BRANCH   6   7
ATOM      7  C   UNL     1       6.469  -3.267   5.021  1.00  0.00     0.041 C 
ATOM      8  O   UNL     1       5.213  -3.183   5.009  1.00  0.00    -0.550 OA
ATOM      9  O   UNL     1       7.125  -3.634   6.189  1.00  0.00    -0.550 OA
ENDBRANCH   6   7
ENDBRANCH   5   6
ENDBRANCH   4   5
ENDBRANCH   3   4
ENDBRANCH   2   3
ENDBRANCH   1   2
BRANCH   1  10
ATOM     10  C   UNL     1       6.456   1.295   4.872  1.00  0.00     0.027 C 
BRANCH  10  11
ATOM     11  C   UNL     1       5.383   0.332   4.434  1.00  0.00    -0.031 C 
ATOM     12  C   UNL     1       5.053   0.091   3.150  1.00  0.00    -0.031 C 
BRANCH  12  13
ATOM     13  C   UNL     1       5.644   0.813   1.964  1.00  0.00     0.027 C 
BRANCH  13  14
ATOM     14  C   UNL     1       6.934   0.141   1.469  1.00  0.00     0.004 C 
BRANCH  14  15
ATOM     15  C   UNL     1       8.113   1.128   1.397  1.00  0.00     0.000 C 
BRANCH  15  16
ATOM     16  C   UNL     1       7.701   2.557   1.814  1.00  0.00    -0.000 C 
BRANCH  16  17
ATOM     17  C   UNL     1       7.867   3.596   0.693  1.00  0.00    -0.003 C 
ATOM     18  C   UNL     1       6.848   3.431  -0.433  1.00  0.00     0.004 C 
ENDBRANCH  16  17
ENDBRANCH  15  16
ENDBRANCH  14  15
ENDBRANCH  13  14
ENDBRANCH  12  13
ENDBRANCH  10  11
ENDBRANCH   1  10
TORSDOF 13
ENDMDL
MODEL 8
REMARK VINA RESULT:    -4.565      1.805      3.508
REMARK INTER + INTRA:         -10.162
REMARK INTER:                  -7.936
REMARK INTRA:                  -2.226
REMARK UNBOUND:                -2.127
REMARK SMILES CCCCCCC=CCCCCCCCC(=O)[O-]
REMARK SMILES IDX 10 1 11 2 12 3 13 4 14 5 15 6 16 7 17 8 18 9 9 10 8 11 7 12
REMARK SMILES IDX 6 13 5 14 4 15 3 16 2 17 1 18
REMARK H PARENT
REMARK Flexibility Score: inf
ROOT
ATOM      1  C   UNL     1       7.283  -3.547   5.142  1.00  0.00     0.004 C 
ENDROOT
BRANCH   1   2
ATOM      2  C   UNL     1       6.131  -2.544   5.311  1.00  0.00     0.000 C 
BRANCH   2   3
ATOM      3  C   UNL     1       6.491  -1.399   6.272  1.00  0.00     0.000 C 
BRANCH   3   4
ATOM      4  C   UNL     1       5.826  -0.066   5.889  1.00  0.00     0.000 C 
BRANCH   4   5
ATOM      5  C   UNL     1       4.288  -0.149   5.783  1.00  0.00     0.006 C 
BRANCH   5   6
ATOM      6  C   UNL     1       3.625  -0.396   7.143  1.00  0.00     0.053 C 
BRANCH   6   7
ATOM      7  C   UNL     1       2.289  -1.044   6.965  1.00  0.00     0.041 C 
ATOM      8  O   UNL     1       1.524  -0.675   6.035  1.00  0.00    -0.550 OA
ATOM      9  O   UNL     1       1.867  -2.023   7.856  1.00  0.00    -0.550 OA
ENDBRANCH   6   7
ENDBRANCH   5   6
ENDBRANCH   4   5
ENDBRANCH   3   4
ENDBRANCH   2   3
ENDBRANCH   1   2
BRANCH   1  10
ATOM     10  C   UNL     1       8.073  -3.318   3.845  1.00  0.00     0.027 C 
BRANCH  10  11
ATOM     11  C   UNL     1       9.473  -2.850   4.149  1.00  0.00    -0.031 C 
ATOM     12  C   UNL     1       9.862  -1.560   4.149  1.00  0.00    -0.031 C 
BRANCH  12  13
ATOM     13  C   UNL     1       8.980  -0.399   3.758  1.00  0.00     0.027 C 
BRANCH  13  14
ATOM     14  C   UNL     1       9.228   0.045   2.308  1.00  0.00     0.004 C 
BRANCH  14  15
ATOM     15  C   UNL     1       7.942   0.006   1.461  1.00  0.00     0.000 C 
BRANCH  15  16
ATOM     16  C   UNL     1       6.686   0.341   2.295  1.00  0.00    -0.000 C 
BRANCH  16  17
ATOM     17  C   UNL     1       5.428  -0.417   1.841  1.00  0.00    -0.003 C 
ATOM     18  C   UNL     1       5.705  -1.873   1.474  1.00  0.00     0.004 C 
ENDBRANCH  16  17
ENDBRANCH  15  16
ENDBRANCH  14  15
ENDBRANCH  13  14
ENDBRANCH  12  13
ENDBRANCH  10  11
ENDBRANCH   1  10
TORSDOF 13
ENDMDL
MODEL 9
REMARK VINA RESULT:    -4.560      2.929      4.649
REMARK INTER + INTRA:         -10.153
REMARK INTER:                  -8.632
REMARK INTRA:                  -1.521
REMARK UNBOUND:                -2.127
REMARK SMILES CCCCCCC=CCCCCCCCC(=O)[O-]
REMARK SMILES IDX 10 1 11 2 12 3 13 4 14 5 15 6 16 7 17 8 18 9 9 10 8 11 7 12
REMARK SMILES IDX 6 13 5 14 4 15 3 16 2 17 1 18
REMARK H PARENT
REMARK Flexibility Score: inf
ROOT
ATOM      1  C   UNL     1       5.999  -2.654   3.253  1.00  0.00     0.004 C 
ENDROOT
BRANCH   1   2
ATOM      2  C   UNL     1       7.269  -2.204   3.990  1.00  0.00     0.000 C 
BRANCH   2   3
ATOM      3  C   UNL     1       8.445  -3.170   3.770  1.00  0.00     0.000 C 
BRANCH   3   4
ATOM      4  C   UNL     1       9.735  -2.712   4.472  1.00  0.00     0.000 C 
BRANCH   4   5
ATOM      5  C   UNL     1       9.799  -1.190   4.720  1.00  0.00     0.006 C 
BRANCH   5   6
ATOM      6  C   UNL     1      10.125  -0.853   6.181  1.00  0.00     0.053 C 
BRANCH   6   7
ATOM      7  C   UNL     1       8.885  -0.455   6.916  1.00  0.00     0.041 C 
ATOM      8  O   UNL     1       8.635   0.762   7.123  1.00  0.00    -0.550 OA
ATOM      9  O   UNL     1       8.030  -1.429   7.416  1.00  0.00    -0.550 OA
ENDBRANCH   6   7
ENDBRANCH   5   6
ENDBRANCH   4   5
ENDBRANCH   3   4
ENDBRANCH   2   3
ENDBRANCH   1   2
BRANCH   1  10
ATOM     10  C   UNL     1       6.012  -2.259   1.768  1.00  0.00     0.027 C 
BRANCH  10  11
ATOM     11  C   UNL     1       5.557  -0.833   1.592  1.00  0.00    -0.031 C 
ATOM     12  C   UNL     1       6.386   0.219   1.451  1.00  0.00    -0.031 C 
BRANCH  12  13
ATOM     13  C   UNL     1       7.890   0.142   1.538  1.00  0.00     0.027 C 
BRANCH  13  14
ATOM     14  C   UNL     1       8.515   1.504   1.878  1.00  0.00     0.004 C 
BRANCH  14  15
ATOM     15  C   UNL     1       7.493   2.652   1.781  1.00  0.00     0.000 C 
BRANCH  15  16
ATOM     16  C   UNL     1       7.910   3.716   0.742  1.00  0.00    -0.000 C 
BRANCH  16  17
ATOM     17  C   UNL     1       6.893   3.894  -0.397  1.00  0.00    -0.003 C 
ATOM     18  C   UNL     1       6.751   2.651  -1.274  1.00  0.00     0.004 C 
ENDBRANCH  16  17
ENDBRANCH  15  16
ENDBRANCH  14  15
ENDBRANCH  13  14
ENDBRANCH  12  13
ENDBRANCH  10  11
ENDBRANCH   1  10
TORSDOF 13
ENDMDL
