MODEL 1
REMARK VINA RESULT:    -4.897      0.000      0.000
REMARK INTER + INTRA:          -7.238
REMARK INTER:                  -6.901
REMARK INTRA:                  -0.337
REMARK UNBOUND:                -0.337
REMARK SMILES C=CCCCCCCC(=O)[O-]
REMARK SMILES IDX 6 1 7 2 8 3 9 4 10 5 11 6 5 7 4 8 3 9 2 10 1 11
REMARK H PARENT
REMARK Flexibility Score: inf
ROOT
ATOM      1  C   UNL     1      27.264  11.099  34.767  1.00  0.00     0.000 C 
ENDROOT
BRANCH   1   2
ATOM      2  C   UNL     1      28.352  11.740  33.887  1.00  0.00     0.006 C 
BRANCH   2   3
ATOM      3  C   UNL     1      27.812  12.672  32.791  1.00  0.00     0.053 C 
BRANCH   3   4
ATOM      4  C   UNL     1      28.196  12.208  31.419  1.00  0.00     0.041 C 
ATOM      5  O   UNL     1      28.918  12.931  30.683  1.00  0.00    -0.550 OA
ATOM      6  O   UNL     1      27.728  10.991  30.940  1.00  0.00    -0.550 OA
ENDBRANCH   3   4
ENDBRANCH   2   3
ENDBRANCH   1   2
BRANCH   1   7
ATOM      7  C   UNL     1      25.845  11.525  34.363  1.00  0.00     0.000 C 
BRANCH   7   8
ATOM      8  C   UNL     1      24.889  11.456  35.561  1.00  0.00     0.004 C 
BRANCH   8   9
ATOM      9  C   UNL     1      23.758  12.483  35.423  1.00  0.00     0.027 C 
BRANCH   9  10
ATOM     10  C   UNL     1      22.410  11.827  35.538  1.00  0.00    -0.035 C 
ATOM     11  C   UNL     1      22.282  10.521  35.792  1.00  0.00     0.004 C 
ENDBRANCH   9  10
ENDBRANCH   8   9
ENDBRANCH   7   8
ENDBRANCH   1   7
TORSDOF 7
ENDMDL
MODEL 2
REMARK VINA RESULT:    -4.846      3.779      5.759
REMARK INTER + INTRA:          -7.166
REMARK INTER:                  -6.593
REMARK INTRA:                  -0.573
REMARK UNBOUND:                -0.337
REMARK SMILES C=CCCCCCCC(=O)[O-]
REMARK SMILES IDX 6 1 7 2 8 3 9 4 10 5 11 6 5 7 4 8 3 9 2 10 1 11
REMARK H PARENT
REMARK Flexibility Score: inf
ROOT
ATOM      1  C   UNL     1      25.141  11.207  35.863  1.00  0.00     0.000 C 
ENDROOT
BRANCH   1   2
ATOM      2  C   UNL     1      24.255  12.464  35.818  1.00  0.00     0.006 C 
BRANCH   2   3
ATOM      3  C   UNL     1      23.060  12.363  34.856  1.00  0.00     0.053 C 
BRANCH   3   4
ATOM      4  C   UNL     1      21.824  11.872  35.546  1.00  0.00     0.041 C 
ATOM      5  O   UNL     1      20.905  12.678  35.850  1.00  0.00    -0.550 OA
ATOM      6  O   UNL     1      21.701  10.530  35.883  1.00  0.00    -0.550 OA
ENDBRANCH   3   4
ENDBRANCH   2   3
ENDBRANCH   1   2
BRANCH   1   7
ATOM      7  C   UNL     1      26.028  11.059  34.617  1.00  0.00     0.000 C 
BRANCH   7   8
ATOM      8  C   UNL     1      27.480  11.443  34.928  1.00  0.00     0.004 C 
BRANCH   8   9
ATOM      9  C   UNL     1      28.046  12.374  33.849  1.00  0.00     0.027 C 
BRANCH   9  10
ATOM     10  C   UNL     1      27.418  13.738  33.922  1.00  0.00    -0.035 C 
ATOM     11  C   UNL     1      27.379  14.434  35.063  1.00  0.00     0.004 C 
ENDBRANCH   9  10
ENDBRANCH   8   9
ENDBRANCH   7   8
ENDBRANCH   1   7
TORSDOF 7
ENDMDL
MODEL 3
REMARK VINA RESULT:    -4.815      1.740      2.254
REMARK INTER + INTRA:          -7.122
REMARK INTER:                  -6.761
REMARK INTRA:                  -0.361
REMARK UNBOUND:                -0.337
REMARK SMILES C=CCCCCCCC(=O)[O-]
REMARK SMILES IDX 6 1 7 2 8 3 9 4 10 5 11 6 5 7 4 8 3 9 2 10 1 11
REMARK H PARENT
REMARK Flexibility Score: inf
ROOT
ATOM      1  C   UNL     1      25.889  11.139  34.540  1.00  0.00     0.000 C 
ENDROOT
BRANCH   1   2
ATOM      2  C   UNL     1      27.408  11.175  34.782  1.00  0.00     0.006 C 
BRANCH   2   3
ATOM      3  C   UNL     1      28.164  12.197  33.917  1.00  0.00     0.053 C 
BRANCH   3   4
ATOM      4  C   UNL     1      27.358  13.439  33.682  1.00  0.00     0.041 C 
ATOM      5  O   UNL     1      26.746  13.600  32.593  1.00  0.00    -0.550 OA
ATOM      6  O   UNL     1      27.311  14.432  34.651  1.00  0.00    -0.550 OA
ENDBRANCH   3   4
ENDBRANCH   2   3
ENDBRANCH   1   2
BRANCH   1   7
ATOM      7  C   UNL     1      25.076  11.291  35.834  1.00  0.00     0.000 C 
BRANCH   7   8
ATOM      8  C   UNL     1      24.166  12.524  35.770  1.00  0.00     0.004 C 
BRANCH   8   9
ATOM      9  C   UNL     1      22.709  12.121  35.509  1.00  0.00     0.027 C 
BRANCH   9  10
ATOM     10  C   UNL     1      22.477  10.674  35.842  1.00  0.00    -0.035 C 
ATOM     11  C   UNL     1      21.372  10.031  35.452  1.00  0.00     0.004 C 
ENDBRANCH   9  10
ENDBRANCH   8   9
ENDBRANCH   7   8
ENDBRANCH   1   7
TORSDOF 7
ENDMDL
MODEL 4
REMARK VINA RESULT:    -4.793      3.675      5.858
REMARK INTER + INTRA:          -7.092
REMARK INTER:                  -6.669
REMARK INTRA:                  -0.423
REMARK UNBOUND:                -0.337
REMARK SMILES C=CCCCCCCC(=O)[O-]
REMARK SMILES IDX 6 1 7 2 8 3 9 4 10 5 11 6 5 7 4 8 3 9 2 10 1 11
REMARK H PARENT
REMARK Flexibility Score: inf
ROOT
ATOM      1  C   UNL     1      25.060  11.181  35.758  1.00  0.00     0.000 C 
ENDROOT
BRANCH   1   2
ATOM      2  C   UNL     1      23.886  12.175  35.769  1.00  0.00     0.006 C 
BRANCH   2   3
ATOM      3  C   UNL     1      22.510  11.533  35.532  1.00  0.00     0.053 C 
BRANCH   3   4
ATOM      4  C   UNL     1      21.461  12.554  35.213  1.00  0.00     0.041 C 
ATOM      5  O   UNL     1      20.432  12.654  35.933  1.00  0.00    -0.550 OA
ATOM      6  O   UNL     1      21.603  13.373  34.100  1.00  0.00    -0.550 OA
ENDBRANCH   3   4
ENDBRANCH   2   3
ENDBRANCH   1   2
BRANCH   1   7
ATOM      7  C   UNL     1      25.866  11.227  34.451  1.00  0.00     0.000 C 
BRANCH   7   8
ATOM      8  C   UNL     1      27.372  11.300  34.736  1.00  0.00     0.004 C 
BRANCH   8   9
ATOM      9  C   UNL     1      28.032  12.422  33.925  1.00  0.00     0.027 C 
BRANCH   9  10
ATOM     10  C   UNL     1      27.247  13.701  34.025  1.00  0.00    -0.035 C 
ATOM     11  C   UNL     1      27.324  14.491  35.100  1.00  0.00     0.004 C 
ENDBRANCH   9  10
ENDBRANCH   8   9
ENDBRANCH   7   8
ENDBRANCH   1   7
TORSDOF 7
ENDMDL
MODEL 5
REMARK VINA RESULT:    -4.594      2.882      5.531
REMARK INTER + INTRA:          -6.811
REMARK INTER:                  -6.381
REMARK INTRA:                  -0.430
REMARK UNBOUND:                -0.337
REMARK SMILES C=CCCCCCCC(=O)[O-]
REMARK SMILES IDX 6 1 7 2 8 3 9 4 10 5 11 6 5 7 4 8 3 9 2 10 1 11
REMARK H PARENT
REMARK Flexibility Score: inf
ROOT
ATOM      1  C   UNL     1      26.021  11.131  34.683  1.00  0.00     0.000 C 
ENDROOT
BRANCH   1   2
ATOM      2  C   UNL     1      25.293  11.787  35.870  1.00  0.00     0.006 C 
BRANCH   2   3
ATOM      3  C   UNL     1      23.938  12.419  35.511  1.00  0.00     0.053 C 
BRANCH   3   4
ATOM      4  C   UNL     1      22.961  11.404  35.003  1.00  0.00     0.041 C 
ATOM      5  O   UNL     1      22.599  11.420  33.796  1.00  0.00    -0.550 OA
ATOM      6  O   UNL     1      22.424  10.460  35.869  1.00  0.00    -0.550 OA
ENDBRANCH   3   4
ENDBRANCH   2   3
ENDBRANCH   1   2
BRANCH   1   7
ATOM      7  C   UNL     1      27.548  11.272  34.771  1.00  0.00     0.000 C 
BRANCH   7   8
ATOM      8  C   UNL     1      28.010  12.616  34.194  1.00  0.00     0.004 C 
BRANCH   8   9
ATOM      9  C   UNL     1      27.332  12.901  32.849  1.00  0.00     0.027 C 
BRANCH   9  10
ATOM     10  C   UNL     1      28.012  12.164  31.729  1.00  0.00    -0.035 C 
ATOM     11  C   UNL     1      28.791  12.793  30.844  1.00  0.00     0.004 C 
ENDBRANCH   9  10
ENDBRANCH   8   9
ENDBRANCH   7   8
ENDBRANCH   1   7
TORSDOF 7
ENDMDL
MODEL 6
REMARK VINA RESULT:    -4.569      1.828      2.690
REMARK INTER + INTRA:          -6.775
REMARK INTER:                  -6.265
REMARK INTRA:                  -0.510
REMARK UNBOUND:                -0.337
REMARK SMILES C=CCCCCCCC(=O)[O-]
REMARK SMILES IDX 6 1 7 2 8 3 9 4 10 5 11 6 5 7 4 8 3 9 2 10 1 11
REMARK H PARENT
REMARK Flexibility Score: inf
ROOT
ATOM      1  C   UNL     1      24.647  12.641  36.134  1.00  0.00     0.000 C 
ENDROOT
BRANCH   1   2
ATOM      2  C   UNL     1      25.967  12.929  35.398  1.00  0.00     0.006 C 
BRANCH   2   3
ATOM      3  C   UNL     1      26.038  12.353  33.975  1.00  0.00     0.053 C 
BRANCH   3   4
ATOM      4  C   UNL     1      27.294  11.567  33.748  1.00  0.00     0.041 C 
ATOM      5  O   UNL     1      27.751  11.424  32.583  1.00  0.00    -0.550 OA
ATOM      6  O   UNL     1      27.940  10.964  34.819  1.00  0.00    -0.550 OA
ENDBRANCH   3   4
ENDBRANCH   2   3
ENDBRANCH   1   2
BRANCH   1   7
ATOM      7  C   UNL     1      24.094  11.238  35.838  1.00  0.00     0.000 C 
BRANCH   7   8
ATOM      8  C   UNL     1      22.605  11.300  35.473  1.00  0.00     0.004 C 
BRANCH   8   9
ATOM      9  C   UNL     1      22.248  12.652  34.842  1.00  0.00     0.027 C 
BRANCH   9  10
ATOM     10  C   UNL     1      20.878  13.105  35.264  1.00  0.00    -0.035 C 
ATOM     11  C   UNL     1      20.018  12.278  35.867  1.00  0.00     0.004 C 
ENDBRANCH   9  10
ENDBRANCH   8   9
ENDBRANCH   7   8
ENDBRANCH   1   7
TORSDOF 7
ENDMDL
MODEL 7
REMARK VINA RESULT:    -4.541      1.558      2.337
REMARK INTER + INTRA:          -6.737
REMARK INTER:                  -6.298
REMARK INTRA:                  -0.439
REMARK UNBOUND:                -0.337
REMARK SMILES C=CCCCCCCC(=O)[O-]
REMARK SMILES IDX 6 1 7 2 8 3 9 4 10 5 11 6 5 7 4 8 3 9 2 10 1 11
REMARK H PARENT
REMARK Flexibility Score: inf
ROOT
ATOM      1  C   UNL     1      25.077  11.135  35.793  1.00  0.00     0.000 C 
ENDROOT
BRANCH   1   2
ATOM      2  C   UNL     1      26.362  11.180  34.948  1.00  0.00     0.006 C 
BRANCH   2   3
ATOM      3  C   UNL     1      26.193  11.845  33.572  1.00  0.00     0.053 C 
BRANCH   3   4
ATOM      4  C   UNL     1      27.282  12.834  33.289  1.00  0.00     0.041 C 
ATOM      5  O   UNL     1      27.282  13.958  33.857  1.00  0.00    -0.550 OA
ATOM      6  O   UNL     1      28.279  12.527  32.372  1.00  0.00    -0.550 OA
ENDBRANCH   3   4
ENDBRANCH   2   3
ENDBRANCH   1   2
BRANCH   1   7
ATOM      7  C   UNL     1      24.364  12.494  35.864  1.00  0.00     0.000 C 
BRANCH   7   8
ATOM      8  C   UNL     1      22.875  12.352  35.526  1.00  0.00     0.004 C 
BRANCH   8   9
ATOM      9  C   UNL     1      22.512  10.891  35.237  1.00  0.00     0.027 C 
BRANCH   9  10
ATOM     10  C   UNL     1      21.065  10.618  35.541  1.00  0.00    -0.035 C 
ATOM     11  C   UNL     1      20.624   9.388  35.820  1.00  0.00     0.004 C 
ENDBRANCH   9  10
ENDBRANCH   8   9
ENDBRANCH   7   8
ENDBRANCH   1   7
TORSDOF 7
ENDMDL
MODEL 8
REMARK VINA RESULT:    -4.375      3.385      5.927
REMARK INTER + INTRA:          -6.502
REMARK INTER:                  -6.197
REMARK INTRA:                  -0.305
REMARK UNBOUND:                -0.337
REMARK SMILES C=CCCCCCCC(=O)[O-]
REMARK SMILES IDX 6 1 7 2 8 3 9 4 10 5 11 6 5 7 4 8 3 9 2 10 1 11
REMARK H PARENT
REMARK Flexibility Score: inf
ROOT
ATOM      1  C   UNL     1      23.768  12.176  35.849  1.00  0.00     0.000 C 
ENDROOT
BRANCH   1   2
ATOM      2  C   UNL     1      22.403  11.558  35.500  1.00  0.00     0.006 C 
BRANCH   2   3
ATOM      3  C   UNL     1      21.241  12.564  35.471  1.00  0.00     0.053 C 
BRANCH   3   4
ATOM      4  C   UNL     1      21.222  13.363  34.204  1.00  0.00     0.041 C 
ATOM      5  O   UNL     1      20.713  14.515  34.189  1.00  0.00    -0.550 OA
ATOM      6  O   UNL     1      21.737  12.823  33.032  1.00  0.00    -0.550 OA
ENDBRANCH   3   4
ENDBRANCH   2   3
ENDBRANCH   1   2
BRANCH   1   7
ATOM      7  C   UNL     1      24.818  11.962  34.747  1.00  0.00     0.000 C 
BRANCH   7   8
ATOM      8  C   UNL     1      26.237  12.159  35.294  1.00  0.00     0.004 C 
BRANCH   8   9
ATOM      9  C   UNL     1      27.186  11.076  34.766  1.00  0.00     0.027 C 
BRANCH   9  10
ATOM     10  C   UNL     1      28.278  11.672  33.923  1.00  0.00    -0.035 C 
ATOM     11  C   UNL     1      28.013  12.529  32.932  1.00  0.00     0.004 C 
ENDBRANCH   9  10
ENDBRANCH   8   9
ENDBRANCH   7   8
ENDBRANCH   1   7
TORSDOF 7
ENDMDL
MODEL 9
REMARK VINA RESULT:    -4.228     15.090     15.892
REMARK INTER + INTRA:          -6.295
REMARK INTER:                  -5.556
REMARK INTRA:                  -0.739
REMARK UNBOUND:                -0.337
REMARK SMILES C=CCCCCCCC(=O)[O-]
REMARK SMILES IDX 6 1 7 2 8 3 9 4 10 5 11 6 5 7 4 8 3 9 2 10 1 11
REMARK H PARENT
REMARK Flexibility Score: inf
ROOT
ATOM      1  C   UNL     1      31.089   6.266  47.088  1.00  0.00     0.000 C 
ENDROOT
BRANCH   1   2
ATOM      2  C   UNL     1      32.496   5.933  47.617  1.00  0.00     0.006 C 
BRANCH   2   3
ATOM      3  C   UNL     1      33.622   6.775  46.995  1.00  0.00     0.053 C 
BRANCH   3   4
ATOM      4  C   UNL     1      34.034   6.258  45.651  1.00  0.00     0.041 C 
ATOM      5  O   UNL     1      33.663   6.850  44.603  1.00  0.00    -0.550 OA
ATOM      6  O   UNL     1      34.799   5.103  45.554  1.00  0.00    -0.550 OA
ENDBRANCH   3   4
ENDBRANCH   2   3
ENDBRANCH   1   2
BRANCH   1   7
ATOM      7  C   UNL     1      30.012   6.204  48.182  1.00  0.00     0.000 C 
BRANCH   7   8
ATOM      8  C   UNL     1      30.450   6.981  49.430  1.00  0.00     0.004 C 
BRANCH   8   9
ATOM      9  C   UNL     1      30.229   8.488  49.246  1.00  0.00     0.027 C 
BRANCH   9  10
ATOM     10  C   UNL     1      31.534   9.236  49.263  1.00  0.00    -0.035 C 
ATOM     11  C   UNL     1      31.956   9.937  48.207  1.00  0.00     0.004 C 
ENDBRANCH   9  10
ENDBRANCH   8   9
ENDBRANCH   7   8
ENDBRANCH   1   7
TORSDOF 7
ENDMDL
