MODEL 1
REMARK VINA RESULT:    -3.782      0.000      0.000
REMARK INTER + INTRA:          -4.003
REMARK INTER:                  -4.003
REMARK INTRA:                   0.000
REMARK UNBOUND:                 0.000
REMARK SMILES O=c1ccc2cc(O)c(O)cc2o1
REMARK SMILES IDX 4 1 3 2 2 3 1 4 13 5 12 6 11 7 9 8 7 9 6 10 5 11 8 12 10 14
REMARK H PARENT 8 13 10 15
REMARK Flexibility Score: inf
ROOT
ATOM      1  C   UNL     1      45.457  16.417   6.514  1.00  0.00     0.019 A 
ATOM      2  C   UNL     1      45.498  17.611   7.233  1.00  0.00     0.094 A 
ATOM      3  C   UNL     1      46.458  17.762   8.239  1.00  0.00     0.336 A 
ATOM      4  O   UNL     1      46.512  18.833   8.900  1.00  0.00    -0.246 OA
ATOM      5  O   UNL     1      47.317  16.781   8.504  1.00  0.00    -0.423 OA
ATOM      6  C   UNL     1      47.311  15.627   7.842  1.00  0.00     0.142 A 
ATOM      7  C   UNL     1      48.239  14.632   8.165  1.00  0.00     0.098 A 
ATOM      8  C   UNL     1      48.238  13.414   7.470  1.00  0.00     0.161 A 
ATOM      9  C   UNL     1      47.305  13.190   6.447  1.00  0.00     0.158 A 
ATOM     10  C   UNL     1      46.371  14.185   6.120  1.00  0.00     0.062 A 
ATOM     11  C   UNL     1      46.371  15.403   6.813  1.00  0.00     0.022 A 
ENDROOT
BRANCH   9  12
ATOM     12  O   UNL     1      47.310  11.976   5.762  1.00  0.00    -0.504 OA
ATOM     13  H   UNL     1      46.615  11.763   5.057  1.00  0.00     0.293 HD
ENDBRANCH   9  12
BRANCH   8  14
ATOM     14  O   UNL     1      49.162  12.420   7.789  1.00  0.00    -0.504 OA
ATOM     15  H   UNL     1      49.405  12.210   8.751  1.00  0.00     0.293 HD
ENDBRANCH   8  14
TORSDOF 2
ENDMDL
MODEL 2
REMARK VINA RESULT:    -3.717      1.829      4.419
REMARK INTER + INTRA:          -3.935
REMARK INTER:                  -3.935
REMARK INTRA:                   0.000
REMARK UNBOUND:                 0.000
REMARK SMILES O=c1ccc2cc(O)c(O)cc2o1
REMARK SMILES IDX 4 1 3 2 2 3 1 4 13 5 12 6 11 7 9 8 7 9 6 10 5 11 8 12 10 14
REMARK H PARENT 8 13 10 15
REMARK Flexibility Score: inf
ROOT
ATOM      1  C   UNL     1      47.106  13.049   6.377  1.00  0.00     0.019 A 
ATOM      2  C   UNL     1      46.214  12.860   5.321  1.00  0.00     0.094 A 
ATOM      3  C   UNL     1      45.329  13.891   4.990  1.00  0.00     0.336 A 
ATOM      4  O   UNL     1      44.516  13.740   4.041  1.00  0.00    -0.246 OA
ATOM      5  O   UNL     1      45.339  15.034   5.672  1.00  0.00    -0.423 OA
ATOM      6  C   UNL     1      46.173  15.255   6.685  1.00  0.00     0.142 A 
ATOM      7  C   UNL     1      46.138  16.476   7.365  1.00  0.00     0.098 A 
ATOM      8  C   UNL     1      47.016  16.714   8.433  1.00  0.00     0.161 A 
ATOM      9  C   UNL     1      47.932  15.727   8.823  1.00  0.00     0.158 A 
ATOM     10  C   UNL     1      47.971  14.499   8.144  1.00  0.00     0.062 A 
ATOM     11  C   UNL     1      47.096  14.260   7.076  1.00  0.00     0.022 A 
ENDROOT
BRANCH   9  12
ATOM     12  O   UNL     1      48.800  15.971   9.885  1.00  0.00    -0.504 OA
ATOM     13  H   UNL     1      48.492  15.905  10.847  1.00  0.00     0.293 HD
ENDBRANCH   9  12
BRANCH   8  14
ATOM     14  O   UNL     1      46.983  17.931   9.113  1.00  0.00    -0.504 OA
ATOM     15  H   UNL     1      46.186  18.554   9.048  1.00  0.00     0.293 HD
ENDBRANCH   8  14
TORSDOF 2
ENDMDL
MODEL 3
REMARK VINA RESULT:    -3.627      1.275      2.308
REMARK INTER + INTRA:          -3.839
REMARK INTER:                  -3.839
REMARK INTRA:                   0.000
REMARK UNBOUND:                 0.000
REMARK SMILES O=c1ccc2cc(O)c(O)cc2o1
REMARK SMILES IDX 4 1 3 2 2 3 1 4 13 5 12 6 11 7 9 8 7 9 6 10 5 11 8 12 10 14
REMARK H PARENT 8 13 10 15
REMARK Flexibility Score: inf
ROOT
ATOM      1  C   UNL     1      47.207  16.685   8.350  1.00  0.00     0.019 A 
ATOM      2  C   UNL     1      46.258  17.618   7.935  1.00  0.00     0.094 A 
ATOM      3  C   UNL     1      45.390  17.282   6.891  1.00  0.00     0.336 A 
ATOM      4  O   UNL     1      44.525  18.110   6.502  1.00  0.00    -0.246 OA
ATOM      5  O   UNL     1      45.470  16.090   6.305  1.00  0.00    -0.423 OA
ATOM      6  C   UNL     1      46.361  15.172   6.670  1.00  0.00     0.142 A 
ATOM      7  C   UNL     1      46.399  13.936   6.017  1.00  0.00     0.098 A 
ATOM      8  C   UNL     1      47.336  12.964   6.399  1.00  0.00     0.161 A 
ATOM      9  C   UNL     1      48.239  13.230   7.438  1.00  0.00     0.158 A 
ATOM     10  C   UNL     1      48.205  14.468   8.097  1.00  0.00     0.062 A 
ATOM     11  C   UNL     1      47.269  15.440   7.717  1.00  0.00     0.022 A 
ENDROOT
BRANCH   9  12
ATOM     12  O   UNL     1      49.166  12.259   7.811  1.00  0.00    -0.504 OA
ATOM     13  H   UNL     1      50.114  12.504   8.072  1.00  0.00     0.293 HD
ENDBRANCH   9  12
BRANCH   8  14
ATOM     14  O   UNL     1      47.375  11.731   5.749  1.00  0.00    -0.504 OA
ATOM     15  H   UNL     1      47.698  10.894   6.220  1.00  0.00     0.293 HD
ENDBRANCH   8  14
TORSDOF 2
ENDMDL
MODEL 4
REMARK VINA RESULT:    -3.620      1.377      4.256
REMARK INTER + INTRA:          -3.831
REMARK INTER:                  -3.831
REMARK INTRA:                   0.000
REMARK UNBOUND:                 0.000
REMARK SMILES O=c1ccc2cc(O)c(O)cc2o1
REMARK SMILES IDX 4 1 3 2 2 3 1 4 13 5 12 6 11 7 9 8 7 9 6 10 5 11 8 12 10 14
REMARK H PARENT 8 13 10 15
REMARK Flexibility Score: inf
ROOT
ATOM      1  C   UNL     1      45.306  15.416   5.598  1.00  0.00     0.019 A 
ATOM      2  C   UNL     1      45.312  14.174   4.964  1.00  0.00     0.094 A 
ATOM      3  C   UNL     1      46.106  13.149   5.490  1.00  0.00     0.336 A 
ATOM      4  O   UNL     1      46.125  12.021   4.933  1.00  0.00    -0.246 OA
ATOM      5  O   UNL     1      46.842  13.359   6.579  1.00  0.00    -0.423 OA
ATOM      6  C   UNL     1      46.865  14.528   7.213  1.00  0.00     0.142 A 
ATOM      7  C   UNL     1      47.659  14.690   8.353  1.00  0.00     0.098 A 
ATOM      8  C   UNL     1      47.686  15.920   9.026  1.00  0.00     0.161 A 
ATOM      9  C   UNL     1      46.915  16.994   8.556  1.00  0.00     0.158 A 
ATOM     10  C   UNL     1      46.118  16.837   7.413  1.00  0.00     0.062 A 
ATOM     11  C   UNL     1      46.089  15.608   6.740  1.00  0.00     0.022 A 
ENDROOT
BRANCH   9  12
ATOM     12  O   UNL     1      46.948  18.213   9.230  1.00  0.00    -0.504 OA
ATOM     13  H   UNL     1      46.651  18.294  10.195  1.00  0.00     0.293 HD
ENDBRANCH   9  12
BRANCH   8  14
ATOM     14  O   UNL     1      48.476  16.084  10.162  1.00  0.00    -0.504 OA
ATOM     15  H   UNL     1      48.415  16.917  10.736  1.00  0.00     0.293 HD
ENDBRANCH   8  14
TORSDOF 2
ENDMDL
MODEL 5
REMARK VINA RESULT:    -3.617      3.146      5.158
REMARK INTER + INTRA:          -3.828
REMARK INTER:                  -3.828
REMARK INTRA:                   0.000
REMARK UNBOUND:                 0.000
REMARK SMILES O=c1ccc2cc(O)c(O)cc2o1
REMARK SMILES IDX 4 1 3 2 2 3 1 4 13 5 12 6 11 7 9 8 7 9 6 10 5 11 8 12 10 14
REMARK H PARENT 8 13 10 15
REMARK Flexibility Score: inf
ROOT
ATOM      1  C   UNL     1      45.796  20.076   5.103  1.00  0.00     0.019 A 
ATOM      2  C   UNL     1      45.759  19.436   3.864  1.00  0.00     0.094 A 
ATOM      3  C   UNL     1      46.066  18.072   3.798  1.00  0.00     0.336 A 
ATOM      4  O   UNL     1      46.038  17.475   2.690  1.00  0.00    -0.246 OA
ATOM      5  O   UNL     1      46.386  17.399   4.901  1.00  0.00    -0.423 OA
ATOM      6  C   UNL     1      46.433  17.972   6.100  1.00  0.00     0.142 A 
ATOM      7  C   UNL     1      46.776  17.214   7.224  1.00  0.00     0.098 A 
ATOM      8  C   UNL     1      46.826  17.813   8.492  1.00  0.00     0.161 A 
ATOM      9  C   UNL     1      46.531  19.176   8.636  1.00  0.00     0.158 A 
ATOM     10  C   UNL     1      46.186  19.942   7.512  1.00  0.00     0.062 A 
ATOM     11  C   UNL     1      46.135  19.345   6.245  1.00  0.00     0.022 A 
ENDROOT
BRANCH   9  12
ATOM     12  O   UNL     1      46.583  19.764   9.898  1.00  0.00    -0.504 OA
ATOM     13  H   UNL     1      46.635  19.205  10.741  1.00  0.00     0.293 HD
ENDBRANCH   9  12
BRANCH   8  14
ATOM     14  O   UNL     1      47.168  17.059   9.613  1.00  0.00    -0.504 OA
ATOM     15  H   UNL     1      47.657  16.175   9.530  1.00  0.00     0.293 HD
ENDBRANCH   8  14
TORSDOF 2
ENDMDL
MODEL 6
REMARK VINA RESULT:    -3.572      1.041      4.505
REMARK INTER + INTRA:          -3.781
REMARK INTER:                  -3.781
REMARK INTRA:                   0.000
REMARK UNBOUND:                 0.000
REMARK SMILES O=c1ccc2cc(O)c(O)cc2o1
REMARK SMILES IDX 4 1 3 2 2 3 1 4 13 5 12 6 11 7 9 8 7 9 6 10 5 11 8 12 10 14
REMARK H PARENT 8 13 10 15
REMARK Flexibility Score: inf
ROOT
ATOM      1  C   UNL     1      46.509  13.701   6.037  1.00  0.00     0.019 A 
ATOM      2  C   UNL     1      47.412  12.673   6.306  1.00  0.00     0.094 A 
ATOM      3  C   UNL     1      48.345  12.843   7.335  1.00  0.00     0.336 A 
ATOM      4  O   UNL     1      49.168  11.927   7.594  1.00  0.00    -0.246 OA
ATOM      5  O   UNL     1      48.368  13.969   8.044  1.00  0.00    -0.423 OA
ATOM      6  C   UNL     1      47.524  14.973   7.820  1.00  0.00     0.142 A 
ATOM      7  C   UNL     1      47.596  16.133   8.598  1.00  0.00     0.098 A 
ATOM      8  C   UNL     1      46.709  17.195   8.366  1.00  0.00     0.161 A 
ATOM      9  C   UNL     1      45.746  17.096   7.351  1.00  0.00     0.158 A 
ATOM     10  C   UNL     1      45.670  15.935   6.568  1.00  0.00     0.062 A 
ATOM     11  C   UNL     1      46.555  14.873   6.798  1.00  0.00     0.022 A 
ENDROOT
BRANCH   9  12
ATOM     12  O   UNL     1      44.869  18.155   7.127  1.00  0.00    -0.504 OA
ATOM     13  H   UNL     1      44.385  18.613   7.890  1.00  0.00     0.293 HD
ENDBRANCH   9  12
BRANCH   8  14
ATOM     14  O   UNL     1      46.778  18.352   9.140  1.00  0.00    -0.504 OA
ATOM     15  H   UNL     1      47.483  18.468   9.860  1.00  0.00     0.293 HD
ENDBRANCH   8  14
TORSDOF 2
ENDMDL
MODEL 7
REMARK VINA RESULT:    -3.498      2.308      3.393
REMARK INTER + INTRA:          -3.702
REMARK INTER:                  -3.702
REMARK INTRA:                   0.000
REMARK UNBOUND:                 0.000
REMARK SMILES O=c1ccc2cc(O)c(O)cc2o1
REMARK SMILES IDX 4 1 3 2 2 3 1 4 13 5 12 6 11 7 9 8 7 9 6 10 5 11 8 12 10 14
REMARK H PARENT 8 13 10 15
REMARK Flexibility Score: inf
ROOT
ATOM      1  C   UNL     1      46.855  18.558   7.292  1.00  0.00     0.019 A 
ATOM      2  C   UNL     1      46.480  18.825   5.976  1.00  0.00     0.094 A 
ATOM      3  C   UNL     1      46.072  17.765   5.159  1.00  0.00     0.336 A 
ATOM      4  O   UNL     1      45.729  17.985   3.968  1.00  0.00    -0.246 OA
ATOM      5  O   UNL     1      46.043  16.522   5.634  1.00  0.00    -0.423 OA
ATOM      6  C   UNL     1      46.393  16.224   6.883  1.00  0.00     0.142 A 
ATOM      7  C   UNL     1      46.342  14.899   7.326  1.00  0.00     0.098 A 
ATOM      8  C   UNL     1      46.709  14.580   8.641  1.00  0.00     0.161 A 
ATOM      9  C   UNL     1      47.129  15.591   9.518  1.00  0.00     0.158 A 
ATOM     10  C   UNL     1      47.182  16.923   9.078  1.00  0.00     0.062 A 
ATOM     11  C   UNL     1      46.815  17.243   7.764  1.00  0.00     0.022 A 
ENDROOT
BRANCH   9  12
ATOM     12  O   UNL     1      47.492  15.266  10.823  1.00  0.00    -0.504 OA
ATOM     13  H   UNL     1      46.799  15.048  11.528  1.00  0.00     0.293 HD
ENDBRANCH   9  12
BRANCH   8  14
ATOM     14  O   UNL     1      46.659  13.260   9.086  1.00  0.00    -0.504 OA
ATOM     15  H   UNL     1      47.060  12.983   9.975  1.00  0.00     0.293 HD
ENDBRANCH   8  14
TORSDOF 2
ENDMDL
MODEL 8
REMARK VINA RESULT:    -3.486      2.091      2.776
REMARK INTER + INTRA:          -3.689
REMARK INTER:                  -3.689
REMARK INTRA:                   0.000
REMARK UNBOUND:                 0.000
REMARK SMILES O=c1ccc2cc(O)c(O)cc2o1
REMARK SMILES IDX 4 1 3 2 2 3 1 4 13 5 12 6 11 7 9 8 7 9 6 10 5 11 8 12 10 14
REMARK H PARENT 8 13 10 15
REMARK Flexibility Score: inf
ROOT
ATOM      1  C   UNL     1      45.551  15.922   5.290  1.00  0.00     0.019 A 
ATOM      2  C   UNL     1      45.544  17.149   4.629  1.00  0.00     0.094 A 
ATOM      3  C   UNL     1      46.145  18.253   5.244  1.00  0.00     0.336 A 
ATOM      4  O   UNL     1      46.150  19.370   4.664  1.00  0.00    -0.246 OA
ATOM      5  O   UNL     1      46.714  18.130   6.441  1.00  0.00    -0.423 OA
ATOM      6  C   UNL     1      46.741  16.978   7.105  1.00  0.00     0.142 A 
ATOM      7  C   UNL     1      47.354  16.909   8.360  1.00  0.00     0.098 A 
ATOM      8  C   UNL     1      47.386  15.696   9.064  1.00  0.00     0.161 A 
ATOM      9  C   UNL     1      46.804  14.547   8.510  1.00  0.00     0.158 A 
ATOM     10  C   UNL     1      46.189  14.610   7.251  1.00  0.00     0.062 A 
ATOM     11  C   UNL     1      46.156  15.821   6.546  1.00  0.00     0.022 A 
ENDROOT
BRANCH   9  12
ATOM     12  O   UNL     1      46.841  13.346   9.216  1.00  0.00    -0.504 OA
ATOM     13  H   UNL     1      46.274  12.553   8.943  1.00  0.00     0.293 HD
ENDBRANCH   9  12
BRANCH   8  14
ATOM     14  O   UNL     1      47.996  15.625  10.316  1.00  0.00    -0.504 OA
ATOM     15  H   UNL     1      47.465  15.416  11.154  1.00  0.00     0.293 HD
ENDBRANCH   8  14
TORSDOF 2
ENDMDL
MODEL 9
REMARK VINA RESULT:    -3.416      2.158      3.097
REMARK INTER + INTRA:          -3.616
REMARK INTER:                  -3.616
REMARK INTRA:                   0.000
REMARK UNBOUND:                 0.000
REMARK SMILES O=c1ccc2cc(O)c(O)cc2o1
REMARK SMILES IDX 4 1 3 2 2 3 1 4 13 5 12 6 11 7 9 8 7 9 6 10 5 11 8 12 10 14
REMARK H PARENT 8 13 10 15
REMARK Flexibility Score: inf
ROOT
ATOM      1  C   UNL     1      46.893  18.484   6.857  1.00  0.00     0.019 A 
ATOM      2  C   UNL     1      46.534  19.805   7.126  1.00  0.00     0.094 A 
ATOM      3  C   UNL     1      46.184  20.159   8.433  1.00  0.00     0.336 A 
ATOM      4  O   UNL     1      45.857  21.345   8.697  1.00  0.00    -0.246 OA
ATOM      5  O   UNL     1      46.194  19.248   9.404  1.00  0.00    -0.423 OA
ATOM      6  C   UNL     1      46.529  17.978   9.190  1.00  0.00     0.142 A 
ATOM      7  C   UNL     1      46.522  17.066  10.249  1.00  0.00     0.098 A 
ATOM      8  C   UNL     1      46.876  15.726  10.029  1.00  0.00     0.161 A 
ATOM      9  C   UNL     1      47.239  15.298   8.744  1.00  0.00     0.158 A 
ATOM     10  C   UNL     1      47.248  16.209   7.678  1.00  0.00     0.062 A 
ATOM     11  C   UNL     1      46.895  17.548   7.896  1.00  0.00     0.022 A 
ENDROOT
BRANCH   9  12
ATOM     12  O   UNL     1      47.588  13.965   8.534  1.00  0.00    -0.504 OA
ATOM     13  H   UNL     1      47.624  13.567   7.604  1.00  0.00     0.293 HD
ENDBRANCH   9  12
BRANCH   8  14
ATOM     14  O   UNL     1      46.869  14.814  11.084  1.00  0.00    -0.504 OA
ATOM     15  H   UNL     1      46.688  13.828  10.932  1.00  0.00     0.293 HD
ENDBRANCH   8  14
TORSDOF 2
ENDMDL
