MODEL 1
REMARK VINA RESULT:    -7.118      0.000      0.000
REMARK INTER + INTRA:          -7.827
REMARK INTER:                  -7.742
REMARK INTRA:                  -0.085
REMARK UNBOUND:                -0.085
REMARK SMILES CC(=O)[C@H]1CC[C@@H]2[C@@H]3CC=C4C[C@H](O)CC[C@]4(C)[C@H]3CC[C@]12C
REMARK SMILES IDX 4 1 5 2 6 3 7 4 22 5 21 6 20 7 19 8 8 9 9 10 10 11 11 12
REMARK SMILES IDX 17 13 16 14 15 15 13 16 12 17 18 18 23 19 2 20 1 21 3 22
REMARK SMILES IDX 14 23
REMARK H PARENT 14 24
REMARK Flexibility Score: inf
ROOT
ATOM      1  C   UNL     1     109.395 119.814 120.637  1.00  0.00     0.062 C 
ATOM      2  C   UNL     1     109.953 120.275 121.999  1.00  0.00     0.012 C 
ATOM      3  C   UNL     1     109.104 121.467 122.444  1.00  0.00     0.005 C 
ATOM      4  C   UNL     1     107.959 121.597 121.419  1.00  0.00    -0.001 C 
ATOM      5  C   UNL     1     108.576 121.022 120.103  1.00  0.00    -0.020 C 
ATOM      6  C   UNL     1     107.528 120.598 119.014  1.00  0.00     0.008 C 
ATOM      7  C   UNL     1     106.079 120.856 119.417  1.00  0.00     0.005 C 
ATOM      8  C   UNL     1     105.824 120.189 120.776  1.00  0.00     0.003 C 
ATOM      9  C   UNL     1     106.568 120.980 121.881  1.00  0.00     0.000 C 
ATOM     10  C   UNL     1     106.582 120.117 123.163  1.00  0.00     0.031 C 
ATOM     11  C   UNL     1     105.270 119.424 123.444  1.00  0.00    -0.027 C 
ATOM     12  C   UNL     1     104.269 119.284 122.544  1.00  0.00    -0.065 C 
ATOM     13  C   UNL     1     104.313 119.958 121.161  1.00  0.00    -0.008 C 
ATOM     14  C   UNL     1     103.648 118.989 120.134  1.00  0.00     0.014 C 
ATOM     15  C   UNL     1     102.231 118.487 120.513  1.00  0.00     0.033 C 
ATOM     16  C   UNL     1     101.912 118.514 122.025  1.00  0.00     0.118 C 
ATOM     17  C   UNL     1     103.155 118.319 122.898  1.00  0.00     0.063 C 
ATOM     18  C   UNL     1     103.529 121.298 121.204  1.00  0.00     0.016 C 
ATOM     19  C   UNL     1     109.518 122.093 119.473  1.00  0.00     0.012 C 
ENDROOT
BRANCH   1  20
ATOM     20  C   UNL     1     110.443 119.254 119.680  1.00  0.00     0.133 C 
ATOM     21  C   UNL     1     110.069 118.548 118.402  1.00  0.00     0.088 C 
ATOM     22  O   UNL     1     111.631 119.424 119.923  1.00  0.00    -0.300 OA
ENDBRANCH   1  20
BRANCH  16  23
ATOM     23  O   UNL     1     100.925 117.563 122.344  1.00  0.00    -0.393 OA
ATOM     24  H   UNL     1     100.077 117.849 121.912  1.00  0.00     0.210 HD
ENDBRANCH  16  23
TORSDOF 2
ENDMDL
MODEL 2
REMARK VINA RESULT:    -6.923      2.256      6.599
REMARK INTER + INTRA:          -7.614
REMARK INTER:                  -7.464
REMARK INTRA:                  -0.151
REMARK UNBOUND:                -0.085
REMARK SMILES CC(=O)[C@H]1CC[C@@H]2[C@@H]3CC=C4C[C@H](O)CC[C@]4(C)[C@H]3CC[C@]12C
REMARK SMILES IDX 4 1 5 2 6 3 7 4 22 5 21 6 20 7 19 8 8 9 9 10 10 11 11 12
REMARK SMILES IDX 17 13 16 14 15 15 13 16 12 17 18 18 23 19 2 20 1 21 3 22
REMARK SMILES IDX 14 23
REMARK H PARENT 14 24
REMARK Flexibility Score: inf
ROOT
ATOM      1  C   UNL     1     104.235 122.423 122.360  1.00  0.00     0.062 C 
ATOM      2  C   UNL     1     103.711 121.316 123.298  1.00  0.00     0.012 C 
ATOM      3  C   UNL     1     103.895 119.988 122.561  1.00  0.00     0.005 C 
ATOM      4  C   UNL     1     104.670 120.308 121.267  1.00  0.00    -0.001 C 
ATOM      5  C   UNL     1     104.255 121.781 120.944  1.00  0.00    -0.020 C 
ATOM      6  C   UNL     1     105.217 122.536 119.960  1.00  0.00     0.008 C 
ATOM      7  C   UNL     1     106.379 121.685 119.456  1.00  0.00     0.005 C 
ATOM      8  C   UNL     1     107.115 121.097 120.668  1.00  0.00     0.003 C 
ATOM      9  C   UNL     1     106.231 120.006 121.323  1.00  0.00     0.000 C 
ATOM     10  C   UNL     1     106.825 119.674 122.710  1.00  0.00     0.031 C 
ATOM     11  C   UNL     1     108.332 119.570 122.717  1.00  0.00    -0.027 C 
ATOM     12  C   UNL     1     109.135 120.020 121.726  1.00  0.00    -0.065 C 
ATOM     13  C   UNL     1     108.573 120.562 120.400  1.00  0.00    -0.008 C 
ATOM     14  C   UNL     1     109.490 121.736 119.935  1.00  0.00     0.014 C 
ATOM     15  C   UNL     1     111.003 121.410 119.857  1.00  0.00     0.033 C 
ATOM     16  C   UNL     1     111.466 120.241 120.756  1.00  0.00     0.118 C 
ATOM     17  C   UNL     1     110.620 120.097 122.024  1.00  0.00     0.063 C 
ATOM     18  C   UNL     1     108.574 119.437 119.328  1.00  0.00     0.016 C 
ATOM     19  C   UNL     1     102.827 121.780 120.317  1.00  0.00     0.012 C 
ENDROOT
BRANCH   1  20
ATOM     20  C   UNL     1     103.492 123.751 122.470  1.00  0.00     0.133 C 
ATOM     21  C   UNL     1     102.085 123.844 123.001  1.00  0.00     0.088 C 
ATOM     22  O   UNL     1     104.068 124.789 122.166  1.00  0.00    -0.300 OA
ENDBRANCH   1  20
BRANCH  16  23
ATOM     23  O   UNL     1     112.829 120.369 121.078  1.00  0.00    -0.393 OA
ATOM     24  H   UNL     1     113.342 119.766 120.477  1.00  0.00     0.210 HD
ENDBRANCH  16  23
TORSDOF 2
ENDMDL
MODEL 3
REMARK VINA RESULT:    -6.722      1.477      1.909
REMARK INTER + INTRA:          -7.396
REMARK INTER:                  -7.304
REMARK INTRA:                  -0.092
REMARK UNBOUND:                -0.085
REMARK SMILES CC(=O)[C@H]1CC[C@@H]2[C@@H]3CC=C4C[C@H](O)CC[C@]4(C)[C@H]3CC[C@]12C
REMARK SMILES IDX 4 1 5 2 6 3 7 4 22 5 21 6 20 7 19 8 8 9 9 10 10 11 11 12
REMARK SMILES IDX 17 13 16 14 15 15 13 16 12 17 18 18 23 19 2 20 1 21 3 22
REMARK SMILES IDX 14 23
REMARK H PARENT 14 24
REMARK Flexibility Score: inf
ROOT
ATOM      1  C   UNL     1     109.766 119.845 120.739  1.00  0.00     0.062 C 
ATOM      2  C   UNL     1     109.813 119.615 122.264  1.00  0.00     0.012 C 
ATOM      3  C   UNL     1     108.971 120.720 122.903  1.00  0.00     0.005 C 
ATOM      4  C   UNL     1     108.308 121.493 121.745  1.00  0.00    -0.001 C 
ATOM      5  C   UNL     1     109.318 121.323 120.563  1.00  0.00    -0.020 C 
ATOM      6  C   UNL     1     108.719 121.600 119.140  1.00  0.00     0.008 C 
ATOM      7  C   UNL     1     107.253 122.025 119.157  1.00  0.00     0.005 C 
ATOM      8  C   UNL     1     106.451 120.980 119.944  1.00  0.00     0.003 C 
ATOM      9  C   UNL     1     106.796 121.098 121.450  1.00  0.00     0.000 C 
ATOM     10  C   UNL     1     106.253 119.842 122.167  1.00  0.00     0.031 C 
ATOM     11  C   UNL     1     104.874 119.429 121.709  1.00  0.00    -0.027 C 
ATOM     12  C   UNL     1     104.274 119.878 120.583  1.00  0.00    -0.065 C 
ATOM     13  C   UNL     1     104.891 120.988 119.716  1.00  0.00    -0.008 C 
ATOM     14  C   UNL     1     104.574 120.663 118.222  1.00  0.00     0.014 C 
ATOM     15  C   UNL     1     103.079 120.408 117.899  1.00  0.00     0.033 C 
ATOM     16  C   UNL     1     102.222 119.943 119.098  1.00  0.00     0.118 C 
ATOM     17  C   UNL     1     103.026 119.146 120.129  1.00  0.00     0.063 C 
ATOM     18  C   UNL     1     104.272 122.361 120.098  1.00  0.00     0.016 C 
ATOM     19  C   UNL     1     110.519 122.294 120.778  1.00  0.00     0.012 C 
ENDROOT
BRANCH   1  20
ATOM     20  C   UNL     1     111.041 119.451 119.999  1.00  0.00     0.133 C 
ATOM     21  C   UNL     1     111.039 119.062 118.543  1.00  0.00     0.088 C 
ATOM     22  O   UNL     1     112.116 119.499 120.585  1.00  0.00    -0.300 OA
ENDBRANCH   1  20
BRANCH  16  23
ATOM     23  O   UNL     1     101.107 119.207 118.658  1.00  0.00    -0.393 OA
ATOM     24  H   UNL     1     101.051 118.382 119.209  1.00  0.00     0.210 HD
ENDBRANCH  16  23
TORSDOF 2
ENDMDL
MODEL 4
REMARK VINA RESULT:    -6.662      1.532      6.596
REMARK INTER + INTRA:          -7.331
REMARK INTER:                  -7.166
REMARK INTRA:                  -0.165
REMARK UNBOUND:                -0.085
REMARK SMILES CC(=O)[C@H]1CC[C@@H]2[C@@H]3CC=C4C[C@H](O)CC[C@]4(C)[C@H]3CC[C@]12C
REMARK SMILES IDX 4 1 5 2 6 3 7 4 22 5 21 6 20 7 19 8 8 9 9 10 10 11 11 12
REMARK SMILES IDX 17 13 16 14 15 15 13 16 12 17 18 18 23 19 2 20 1 21 3 22
REMARK SMILES IDX 14 23
REMARK H PARENT 14 24
REMARK Flexibility Score: inf
ROOT
ATOM      1  C   UNL     1     103.875 119.525 119.984  1.00  0.00     0.062 C 
ATOM      2  C   UNL     1     103.466 120.658 119.021  1.00  0.00     0.012 C 
ATOM      3  C   UNL     1     103.821 121.976 119.711  1.00  0.00     0.005 C 
ATOM      4  C   UNL     1     104.578 121.604 121.003  1.00  0.00    -0.001 C 
ATOM      5  C   UNL     1     103.999 120.201 121.378  1.00  0.00    -0.020 C 
ATOM      6  C   UNL     1     104.884 119.367 122.369  1.00  0.00     0.008 C 
ATOM      7  C   UNL     1     106.149 120.088 122.827  1.00  0.00     0.005 C 
ATOM      8  C   UNL     1     106.924 120.550 121.585  1.00  0.00     0.003 C 
ATOM      9  C   UNL     1     106.162 121.718 120.912  1.00  0.00     0.000 C 
ATOM     10  C   UNL     1     106.763 121.936 119.505  1.00  0.00     0.031 C 
ATOM     11  C   UNL     1     108.271 121.861 119.470  1.00  0.00    -0.027 C 
ATOM     12  C   UNL     1     109.036 121.348 120.461  1.00  0.00    -0.065 C 
ATOM     13  C   UNL     1     108.441 120.915 121.812  1.00  0.00    -0.008 C 
ATOM     14  C   UNL     1     109.222 119.655 122.299  1.00  0.00     0.014 C 
ATOM     15  C   UNL     1     110.764 119.802 122.342  1.00  0.00     0.033 C 
ATOM     16  C   UNL     1     111.343 120.881 121.399  1.00  0.00     0.118 C 
ATOM     17  C   UNL     1     110.495 121.087 120.141  1.00  0.00     0.063 C 
ATOM     18  C   UNL     1     108.596 122.063 122.848  1.00  0.00     0.016 C 
ATOM     19  C   UNL     1     102.594 120.389 122.028  1.00  0.00     0.012 C 
ENDROOT
BRANCH   1  20
ATOM     20  C   UNL     1     102.979 118.292 119.928  1.00  0.00     0.133 C 
ATOM     21  C   UNL     1     101.595 118.329 119.331  1.00  0.00     0.088 C 
ATOM     22  O   UNL     1     103.407 117.218 120.334  1.00  0.00    -0.300 OA
ENDBRANCH   1  20
BRANCH  16  23
ATOM     23  O   UNL     1     112.675 120.582 121.058  1.00  0.00    -0.393 OA
ATOM     24  H   UNL     1     113.152 121.443 120.915  1.00  0.00     0.210 HD
ENDBRANCH  16  23
TORSDOF 2
ENDMDL
MODEL 5
REMARK VINA RESULT:    -6.660      2.801      4.633
REMARK INTER + INTRA:          -7.329
REMARK INTER:                  -7.227
REMARK INTRA:                  -0.102
REMARK UNBOUND:                -0.085
REMARK SMILES CC(=O)[C@H]1CC[C@@H]2[C@@H]3CC=C4C[C@H](O)CC[C@]4(C)[C@H]3CC[C@]12C
REMARK SMILES IDX 4 1 5 2 6 3 7 4 22 5 21 6 20 7 19 8 8 9 9 10 10 11 11 12
REMARK SMILES IDX 17 13 16 14 15 15 13 16 12 17 18 18 23 19 2 20 1 21 3 22
REMARK SMILES IDX 14 23
REMARK H PARENT 14 24
REMARK Flexibility Score: inf
ROOT
ATOM      1  C   UNL     1     109.366 122.030 121.939  1.00  0.00     0.062 C 
ATOM      2  C   UNL     1     110.306 121.672 120.769  1.00  0.00     0.012 C 
ATOM      3  C   UNL     1     109.612 120.573 119.964  1.00  0.00     0.005 C 
ATOM      4  C   UNL     1     108.204 120.406 120.572  1.00  0.00    -0.001 C 
ATOM      5  C   UNL     1     108.398 120.820 122.067  1.00  0.00    -0.020 C 
ATOM      6  C   UNL     1     107.075 121.193 122.825  1.00  0.00     0.008 C 
ATOM      7  C   UNL     1     105.815 121.050 121.975  1.00  0.00     0.005 C 
ATOM      8  C   UNL     1     106.003 121.855 120.683  1.00  0.00     0.003 C 
ATOM      9  C   UNL     1     107.035 121.135 119.778  1.00  0.00     0.000 C 
ATOM     10  C   UNL     1     107.460 122.114 118.661  1.00  0.00     0.031 C 
ATOM     11  C   UNL     1     106.312 122.898 118.070  1.00  0.00    -0.027 C 
ATOM     12  C   UNL     1     105.086 123.004 118.633  1.00  0.00    -0.065 C 
ATOM     13  C   UNL     1     104.690 122.200 119.883  1.00  0.00    -0.008 C 
ATOM     14  C   UNL     1     103.760 123.100 120.757  1.00  0.00     0.014 C 
ATOM     15  C   UNL     1     102.539 123.709 120.021  1.00  0.00     0.033 C 
ATOM     16  C   UNL     1     102.700 123.842 118.490  1.00  0.00     0.118 C 
ATOM     17  C   UNL     1     104.154 124.054 118.061  1.00  0.00     0.063 C 
ATOM     18  C   UNL     1     103.930 120.912 119.463  1.00  0.00     0.016 C 
ATOM     19  C   UNL     1     109.079 119.647 122.836  1.00  0.00     0.012 C 
ENDROOT
BRANCH   1  20
ATOM     20  C   UNL     1     110.080 122.441 123.223  1.00  0.00     0.133 C 
ATOM     21  C   UNL     1     109.402 123.256 124.295  1.00  0.00     0.088 C 
ATOM     22  O   UNL     1     111.226 122.059 123.422  1.00  0.00    -0.300 OA
ENDBRANCH   1  20
BRANCH  16  23
ATOM     23  O   UNL     1     101.878 124.869 117.990  1.00  0.00    -0.393 OA
ATOM     24  H   UNL     1     101.239 124.461 117.347  1.00  0.00     0.210 HD
ENDBRANCH  16  23
TORSDOF 2
ENDMDL
MODEL 6
REMARK VINA RESULT:    -6.418      3.706      7.170
REMARK INTER + INTRA:          -7.065
REMARK INTER:                  -6.900
REMARK INTRA:                  -0.166
REMARK UNBOUND:                -0.085
REMARK SMILES CC(=O)[C@H]1CC[C@@H]2[C@@H]3CC=C4C[C@H](O)CC[C@]4(C)[C@H]3CC[C@]12C
REMARK SMILES IDX 4 1 5 2 6 3 7 4 22 5 21 6 20 7 19 8 8 9 9 10 10 11 11 12
REMARK SMILES IDX 17 13 16 14 15 15 13 16 12 17 18 18 23 19 2 20 1 21 3 22
REMARK SMILES IDX 14 23
REMARK H PARENT 14 24
REMARK Flexibility Score: inf
ROOT
ATOM      1  C   UNL     1     103.108 121.767 115.919  1.00  0.00     0.062 C 
ATOM      2  C   UNL     1     102.927 123.285 115.715  1.00  0.00     0.012 C 
ATOM      3  C   UNL     1     102.899 123.919 117.106  1.00  0.00     0.005 C 
ATOM      4  C   UNL     1     103.222 122.792 118.108  1.00  0.00    -0.001 C 
ATOM      5  C   UNL     1     102.697 121.504 117.395  1.00  0.00    -0.020 C 
ATOM      6  C   UNL     1     103.285 120.158 117.947  1.00  0.00     0.008 C 
ATOM      7  C   UNL     1     104.249 120.338 119.117  1.00  0.00     0.005 C 
ATOM      8  C   UNL     1     105.339 121.335 118.702  1.00  0.00     0.003 C 
ATOM      9  C   UNL     1     104.728 122.756 118.621  1.00  0.00     0.000 C 
ATOM     10  C   UNL     1     105.734 123.670 117.886  1.00  0.00     0.031 C 
ATOM     11  C   UNL     1     107.169 123.458 118.306  1.00  0.00    -0.027 C 
ATOM     12  C   UNL     1     107.612 122.387 119.005  1.00  0.00    -0.065 C 
ATOM     13  C   UNL     1     106.651 121.330 119.576  1.00  0.00    -0.008 C 
ATOM     14  C   UNL     1     107.351 119.939 119.471  1.00  0.00     0.014 C 
ATOM     15  C   UNL     1     108.770 119.858 120.089  1.00  0.00     0.033 C 
ATOM     16  C   UNL     1     109.515 121.208 120.190  1.00  0.00     0.118 C 
ATOM     17  C   UNL     1     109.113 122.193 119.089  1.00  0.00     0.063 C 
ATOM     18  C   UNL     1     106.340 121.650 121.064  1.00  0.00     0.016 C 
ATOM     19  C   UNL     1     101.144 121.444 117.534  1.00  0.00     0.012 C 
ENDROOT
BRANCH   1  20
ATOM     20  C   UNL     1     102.409 120.900 114.876  1.00  0.00     0.133 C 
ATOM     21  C   UNL     1     101.335 121.441 113.968  1.00  0.00     0.088 C 
ATOM     22  O   UNL     1     102.761 119.736 114.729  1.00  0.00    -0.300 OA
ENDBRANCH   1  20
BRANCH  16  23
ATOM     23  O   UNL     1     110.908 121.010 120.196  1.00  0.00    -0.393 OA
ATOM     24  H   UNL     1     111.268 121.348 119.334  1.00  0.00     0.210 HD
ENDBRANCH  16  23
TORSDOF 2
ENDMDL
MODEL 7
REMARK VINA RESULT:    -6.377      4.029      7.520
REMARK INTER + INTRA:          -7.021
REMARK INTER:                  -6.857
REMARK INTRA:                  -0.164
REMARK UNBOUND:                -0.085
REMARK SMILES CC(=O)[C@H]1CC[C@@H]2[C@@H]3CC=C4C[C@H](O)CC[C@]4(C)[C@H]3CC[C@]12C
REMARK SMILES IDX 4 1 5 2 6 3 7 4 22 5 21 6 20 7 19 8 8 9 9 10 10 11 11 12
REMARK SMILES IDX 17 13 16 14 15 15 13 16 12 17 18 18 23 19 2 20 1 21 3 22
REMARK SMILES IDX 14 23
REMARK H PARENT 14 24
REMARK Flexibility Score: inf
ROOT
ATOM      1  C   UNL     1     102.152 122.835 116.309  1.00  0.00     0.062 C 
ATOM      2  C   UNL     1     102.155 124.373 116.186  1.00  0.00     0.012 C 
ATOM      3  C   UNL     1     102.352 124.930 117.597  1.00  0.00     0.005 C 
ATOM      4  C   UNL     1     102.622 123.718 118.512  1.00  0.00    -0.001 C 
ATOM      5  C   UNL     1     101.860 122.548 117.809  1.00  0.00    -0.020 C 
ATOM      6  C   UNL     1     102.317 121.111 118.241  1.00  0.00     0.008 C 
ATOM      7  C   UNL     1     103.409 121.103 119.307  1.00  0.00     0.005 C 
ATOM      8  C   UNL     1     104.575 121.973 118.819  1.00  0.00     0.003 C 
ATOM      9  C   UNL     1     104.153 123.463 118.859  1.00  0.00     0.000 C 
ATOM     10  C   UNL     1     105.192 124.279 118.058  1.00  0.00     0.031 C 
ATOM     11  C   UNL     1     106.621 123.862 118.314  1.00  0.00    -0.027 C 
ATOM     12  C   UNL     1     106.986 122.708 118.918  1.00  0.00    -0.065 C 
ATOM     13  C   UNL     1     105.956 121.753 119.546  1.00  0.00    -0.008 C 
ATOM     14  C   UNL     1     106.451 120.291 119.311  1.00  0.00     0.014 C 
ATOM     15  C   UNL     1     107.901 119.997 119.771  1.00  0.00     0.033 C 
ATOM     16  C   UNL     1     108.826 121.233 119.845  1.00  0.00     0.118 C 
ATOM     17  C   UNL     1     108.449 122.319 118.833  1.00  0.00     0.063 C 
ATOM     18  C   UNL     1     105.841 122.031 121.071  1.00  0.00     0.016 C 
ATOM     19  C   UNL     1     100.336 122.680 118.110  1.00  0.00     0.012 C 
ENDROOT
BRANCH   1  20
ATOM     20  C   UNL     1     101.243 122.121 115.313  1.00  0.00     0.133 C 
ATOM     21  C   UNL     1     100.121 122.829 114.597  1.00  0.00     0.088 C 
ATOM     22  O   UNL     1     101.456 120.946 115.040  1.00  0.00    -0.300 OA
ENDBRANCH   1  20
BRANCH  16  23
ATOM     23  O   UNL     1     110.173 120.858 119.695  1.00  0.00    -0.393 OA
ATOM     24  H   UNL     1     110.202 119.873 119.564  1.00  0.00     0.210 HD
ENDBRANCH  16  23
TORSDOF 2
ENDMDL
MODEL 8
REMARK VINA RESULT:    -6.315      2.777      6.581
REMARK INTER + INTRA:          -6.954
REMARK INTER:                  -6.866
REMARK INTRA:                  -0.088
REMARK UNBOUND:                -0.085
REMARK SMILES CC(=O)[C@H]1CC[C@@H]2[C@@H]3CC=C4C[C@H](O)CC[C@]4(C)[C@H]3CC[C@]12C
REMARK SMILES IDX 4 1 5 2 6 3 7 4 22 5 21 6 20 7 19 8 8 9 9 10 10 11 11 12
REMARK SMILES IDX 17 13 16 14 15 15 13 16 12 17 18 18 23 19 2 20 1 21 3 22
REMARK SMILES IDX 14 23
REMARK H PARENT 14 24
REMARK Flexibility Score: inf
ROOT
ATOM      1  C   UNL     1     103.960 119.012 122.987  1.00  0.00     0.062 C 
ATOM      2  C   UNL     1     104.693 117.701 122.639  1.00  0.00     0.012 C 
ATOM      3  C   UNL     1     104.434 117.429 121.156  1.00  0.00     0.005 C 
ATOM      4  C   UNL     1     103.685 118.661 120.609  1.00  0.00    -0.001 C 
ATOM      5  C   UNL     1     102.913 119.206 121.854  1.00  0.00    -0.020 C 
ATOM      6  C   UNL     1     102.434 120.695 121.733  1.00  0.00     0.008 C 
ATOM      7  C   UNL     1     102.776 121.348 120.396  1.00  0.00     0.005 C 
ATOM      8  C   UNL     1     104.281 121.188 120.145  1.00  0.00     0.003 C 
ATOM      9  C   UNL     1     104.590 119.705 119.821  1.00  0.00     0.000 C 
ATOM     10  C   UNL     1     106.120 119.503 119.908  1.00  0.00     0.031 C 
ATOM     11  C   UNL     1     106.918 120.624 119.286  1.00  0.00    -0.027 C 
ATOM     12  C   UNL     1     106.413 121.837 118.962  1.00  0.00    -0.065 C 
ATOM     13  C   UNL     1     104.910 122.149 119.065  1.00  0.00    -0.008 C 
ATOM     14  C   UNL     1     104.759 123.633 119.526  1.00  0.00     0.014 C 
ATOM     15  C   UNL     1     105.533 124.675 118.680  1.00  0.00     0.033 C 
ATOM     16  C   UNL     1     106.752 124.117 117.911  1.00  0.00     0.118 C 
ATOM     17  C   UNL     1     107.407 122.929 118.620  1.00  0.00     0.063 C 
ATOM     18  C   UNL     1     104.235 121.958 117.679  1.00  0.00     0.016 C 
ATOM     19  C   UNL     1     101.658 118.315 122.103  1.00  0.00     0.012 C 
ENDROOT
BRANCH   1  20
ATOM     20  C   UNL     1     103.410 119.073 124.409  1.00  0.00     0.133 C 
ATOM     21  C   UNL     1     103.218 120.376 125.143  1.00  0.00     0.088 C 
ATOM     22  O   UNL     1     103.061 118.038 124.963  1.00  0.00    -0.300 OA
ENDBRANCH   1  20
BRANCH  16  23
ATOM     23  O   UNL     1     107.694 125.132 117.665  1.00  0.00    -0.393 OA
ATOM     24  H   UNL     1     107.519 125.872 118.306  1.00  0.00     0.210 HD
ENDBRANCH  16  23
TORSDOF 2
ENDMDL
MODEL 9
REMARK VINA RESULT:    -6.011      2.991      6.659
REMARK INTER + INTRA:          -6.623
REMARK INTER:                  -6.518
REMARK INTRA:                  -0.105
REMARK UNBOUND:                -0.085
REMARK SMILES CC(=O)[C@H]1CC[C@@H]2[C@@H]3CC=C4C[C@H](O)CC[C@]4(C)[C@H]3CC[C@]12C
REMARK SMILES IDX 4 1 5 2 6 3 7 4 22 5 21 6 20 7 19 8 8 9 9 10 10 11 11 12
REMARK SMILES IDX 17 13 16 14 15 15 13 16 12 17 18 18 23 19 2 20 1 21 3 22
REMARK SMILES IDX 14 23
REMARK H PARENT 14 24
REMARK Flexibility Score: inf
ROOT
ATOM      1  C   UNL     1     102.962 123.455 119.258  1.00  0.00     0.062 C 
ATOM      2  C   UNL     1     102.023 123.251 120.465  1.00  0.00     0.012 C 
ATOM      3  C   UNL     1     102.138 121.781 120.872  1.00  0.00     0.005 C 
ATOM      4  C   UNL     1     103.260 121.173 120.005  1.00  0.00    -0.001 C 
ATOM      5  C   UNL     1     103.219 122.029 118.697  1.00  0.00    -0.020 C 
ATOM      6  C   UNL     1     104.520 121.957 117.822  1.00  0.00     0.008 C 
ATOM      7  C   UNL     1     105.594 121.030 118.385  1.00  0.00     0.005 C 
ATOM      8  C   UNL     1     105.879 121.438 119.837  1.00  0.00     0.003 C 
ATOM      9  C   UNL     1     104.672 121.041 120.724  1.00  0.00     0.000 C 
ATOM     10  C   UNL     1     104.826 121.751 122.088  1.00  0.00     0.031 C 
ATOM     11  C   UNL     1     106.236 121.732 122.629  1.00  0.00    -0.027 C 
ATOM     12  C   UNL     1     107.332 121.425 121.898  1.00  0.00    -0.065 C 
ATOM     13  C   UNL     1     107.233 120.913 120.451  1.00  0.00    -0.008 C 
ATOM     14  C   UNL     1     108.438 121.500 119.651  1.00  0.00     0.014 C 
ATOM     15  C   UNL     1     109.834 121.259 120.278  1.00  0.00     0.033 C 
ATOM     16  C   UNL     1     109.831 121.017 121.805  1.00  0.00     0.118 C 
ATOM     17  C   UNL     1     108.682 121.735 122.517  1.00  0.00     0.063 C 
ATOM     18  C   UNL     1     107.296 119.361 120.435  1.00  0.00     0.016 C 
ATOM     19  C   UNL     1     102.021 121.556 117.818  1.00  0.00     0.012 C 
ENDROOT
BRANCH   1  20
ATOM     20  C   UNL     1     102.474 124.484 118.243  1.00  0.00     0.133 C 
ATOM     21  C   UNL     1     101.010 124.751 118.008  1.00  0.00     0.088 C 
ATOM     22  O   UNL     1     103.293 125.158 117.629  1.00  0.00    -0.300 OA
ENDBRANCH   1  20
BRANCH  16  23
ATOM     23  O   UNL     1     111.069 121.377 122.369  1.00  0.00    -0.393 OA
ATOM     24  H   UNL     1     110.920 121.564 123.334  1.00  0.00     0.210 HD
ENDBRANCH  16  23
TORSDOF 2
ENDMDL
