MODEL 1
REMARK VINA RESULT:    86.805      0.000      0.000
REMARK INTER + INTRA:          94.855
REMARK INTER:                  94.417
REMARK INTRA:                   0.438
REMARK UNBOUND:                 0.438
REMARK SMILES C[C@H]1[C@H](C)CC[C@]2(C(=O)[O-])CC[C@@]3(C)C(=CC[C@@H]4[C@@]5(C)CC[C@H](O)C(C)(C)[C@@H]5CC[C@@]43C)[C@H]12
REMARK SMILES IDX 7 1 6 2 11 3 33 4 5 5 12 6 15 7 2 8 3 9 13 10 16 11 1 12
REMARK SMILES IDX 4 13 14 14 31 15 17 16 18 17 30 18 32 19 19 20 29 21 28 22
REMARK SMILES IDX 21 23 20 24 25 25 22 26 23 27 26 28 27 29 8 30 9 31 10 32
REMARK SMILES IDX 24 33
REMARK H PARENT 24 34
REMARK Flexibility Score: inf
ROOT
ATOM      1  C   UNL     1      21.291  45.804  31.655  1.00  0.00     0.017 C 
ATOM      2  C   UNL     1      20.480  46.728  32.614  1.00  0.00     0.014 C 
ATOM      3  C   UNL     1      20.386  45.589  30.387  1.00  0.00     0.014 C 
ATOM      4  C   UNL     1      21.699  44.401  32.289  1.00  0.00     0.030 C 
ATOM      5  C   UNL     1      20.904  46.653  34.074  1.00  0.00     0.004 C 
ATOM      6  C   UNL     1      20.891  44.528  29.377  1.00  0.00     0.013 C 
ATOM      7  C   UNL     1      21.091  43.235  31.485  1.00  0.00    -0.063 C 
ATOM      8  C   UNL     1      21.696  44.248  33.869  1.00  0.00    -0.003 C 
ATOM      9  C   UNL     1      20.763  45.231  34.629  1.00  0.00    -0.011 C 
ATOM     10  C   UNL     1      21.451  43.183  29.991  1.00  0.00    -0.006 C 
ATOM     11  C   UNL     1      19.977  42.634  31.920  1.00  0.00    -0.027 C 
ATOM     12  C   UNL     1      23.125  44.325  34.487  1.00  0.00     0.008 C 
ATOM     13  C   UNL     1      19.297  44.769  34.695  1.00  0.00     0.008 C 
ATOM     14  C   UNL     1      23.013  43.194  29.840  1.00  0.00     0.017 C 
ATOM     15  C   UNL     1      20.878  41.874  29.231  1.00  0.00    -0.020 C 
ATOM     16  C   UNL     1      19.247  41.573  31.181  1.00  0.00     0.032 C 
ATOM     17  C   UNL     1      19.362  41.585  29.624  1.00  0.00     0.006 C 
ATOM     18  C   UNL     1      21.703  40.587  29.632  1.00  0.00     0.008 C 
ATOM     19  C   UNL     1      21.050  42.136  27.682  1.00  0.00     0.012 C 
ATOM     20  C   UNL     1      18.707  40.240  28.976  1.00  0.00    -0.025 C 
ATOM     21  C   UNL     1      21.020  39.213  29.373  1.00  0.00     0.005 C 
ATOM     22  C   UNL     1      19.831  39.314  28.391  1.00  0.00     0.003 C 
ATOM     23  C   UNL     1      17.747  40.596  27.801  1.00  0.00     0.010 C 
ATOM     24  C   UNL     1      17.825  39.478  30.031  1.00  0.00     0.012 C 
ATOM     25  C   UNL     1      19.372  37.995  27.651  1.00  0.00    -0.006 C 
ATOM     26  C   UNL     1      17.209  39.359  27.043  1.00  0.00     0.033 C 
ATOM     27  C   UNL     1      18.319  38.400  26.552  1.00  0.00     0.120 C 
ATOM     28  C   UNL     1      18.824  36.894  28.602  1.00  0.00     0.014 C 
ATOM     29  C   UNL     1      20.586  37.374  26.894  1.00  0.00     0.014 C 
ENDROOT
BRANCH   1  30
ATOM     30  C   UNL     1      22.560  46.560  31.251  1.00  0.00     0.048 C 
ATOM     31  O   UNL     1      23.124  47.323  32.075  1.00  0.00    -0.550 OA
ATOM     32  O   UNL     1      23.119  46.402  29.987  1.00  0.00    -0.550 OA
ENDBRANCH   1  30
BRANCH  27  33
ATOM     33  O   UNL     1      17.725  37.250  26.000  1.00  0.00    -0.393 OA
ATOM     34  H   UNL     1      17.461  36.662  26.750  1.00  0.00     0.210 HD
ENDBRANCH  27  33
TORSDOF 2
ENDMDL
MODEL 2
REMARK VINA RESULT:    87.005     12.859     17.541
REMARK INTER + INTRA:          95.072
REMARK INTER:                  95.181
REMARK INTRA:                  -0.109
REMARK UNBOUND:                 0.438
REMARK SMILES C[C@H]1[C@H](C)CC[C@]2(C(=O)[O-])CC[C@@]3(C)C(=CC[C@@H]4[C@@]5(C)CC[C@H](O)C(C)(C)[C@@H]5CC[C@@]43C)[C@H]12
REMARK SMILES IDX 7 1 6 2 11 3 33 4 5 5 12 6 15 7 2 8 3 9 13 10 16 11 1 12
REMARK SMILES IDX 4 13 14 14 31 15 17 16 18 17 30 18 32 19 19 20 29 21 28 22
REMARK SMILES IDX 21 23 20 24 25 25 22 26 23 27 26 28 27 29 8 30 9 31 10 32
REMARK SMILES IDX 24 33
REMARK H PARENT 24 34
REMARK Flexibility Score: inf
ROOT
ATOM      1  C   UNL     1      15.809  29.016  18.010  1.00  0.00     0.017 C 
ATOM      2  C   UNL     1      14.792  28.298  17.069  1.00  0.00     0.014 C 
ATOM      3  C   UNL     1      16.173  27.976  19.132  1.00  0.00     0.014 C 
ATOM      4  C   UNL     1      15.259  30.362  18.660  1.00  0.00     0.030 C 
ATOM      5  C   UNL     1      13.924  29.237  16.244  1.00  0.00     0.004 C 
ATOM      6  C   UNL     1      17.011  28.531  20.311  1.00  0.00     0.013 C 
ATOM      7  C   UNL     1      15.238  30.263  20.198  1.00  0.00    -0.063 C 
ATOM      8  C   UNL     1      14.020  31.087  17.981  1.00  0.00    -0.003 C 
ATOM      9  C   UNL     1      13.096  30.169  17.135  1.00  0.00    -0.011 C 
ATOM     10  C   UNL     1      16.582  29.945  20.873  1.00  0.00    -0.006 C 
ATOM     11  C   UNL     1      14.094  29.984  20.833  1.00  0.00    -0.027 C 
ATOM     12  C   UNL     1      14.438  32.318  17.119  1.00  0.00     0.008 C 
ATOM     13  C   UNL     1      12.049  29.408  17.968  1.00  0.00     0.008 C 
ATOM     14  C   UNL     1      17.651  30.996  20.408  1.00  0.00     0.017 C 
ATOM     15  C   UNL     1      16.517  29.970  22.491  1.00  0.00    -0.020 C 
ATOM     16  C   UNL     1      13.973  29.764  22.296  1.00  0.00     0.032 C 
ATOM     17  C   UNL     1      15.230  29.209  23.037  1.00  0.00     0.006 C 
ATOM     18  C   UNL     1      16.426  31.455  23.024  1.00  0.00     0.008 C 
ATOM     19  C   UNL     1      17.859  29.317  23.010  1.00  0.00     0.012 C 
ATOM     20  C   UNL     1      15.021  29.241  24.654  1.00  0.00    -0.025 C 
ATOM     21  C   UNL     1      15.897  31.642  24.477  1.00  0.00     0.005 C 
ATOM     22  C   UNL     1      15.943  30.335  25.300  1.00  0.00     0.003 C 
ATOM     23  C   UNL     1      15.411  27.875  25.296  1.00  0.00     0.010 C 
ATOM     24  C   UNL     1      13.511  29.471  25.023  1.00  0.00     0.012 C 
ATOM     25  C   UNL     1      15.930  30.456  26.876  1.00  0.00    -0.006 C 
ATOM     26  C   UNL     1      15.382  27.886  26.843  1.00  0.00     0.033 C 
ATOM     27  C   UNL     1      16.216  29.027  27.471  1.00  0.00     0.120 C 
ATOM     28  C   UNL     1      14.625  31.074  27.452  1.00  0.00     0.014 C 
ATOM     29  C   UNL     1      17.106  31.371  27.337  1.00  0.00     0.014 C 
ENDROOT
BRANCH   1  30
ATOM     30  C   UNL     1      17.058  29.331  17.183  1.00  0.00     0.048 C 
ATOM     31  O   UNL     1      18.033  28.538  17.195  1.00  0.00    -0.550 OA
ATOM     32  O   UNL     1      17.129  30.475  16.396  1.00  0.00    -0.550 OA
ENDBRANCH   1  30
BRANCH  27  33
ATOM     33  O   UNL     1      16.016  29.030  28.864  1.00  0.00    -0.393 OA
ATOM     34  H   UNL     1      15.148  29.472  29.039  1.00  0.00     0.210 HD
ENDBRANCH  27  33
TORSDOF 2
ENDMDL
