MODEL 1
REMARK VINA RESULT:    -5.817      0.000      0.000
REMARK INTER + INTRA:          -9.385
REMARK INTER:                  -8.877
REMARK INTRA:                  -0.508
REMARK UNBOUND:                -0.508
REMARK SMILES O=C([O-])CCCCCCCCC(=O)[O-]
REMARK SMILES IDX 7 1 6 2 5 3 4 4 2 5 1 6 3 7 8 8 9 9 10 10 11 11 12 12 13 13
REMARK SMILES IDX 14 14
REMARK H PARENT
REMARK Flexibility Score: inf
ROOT
ATOM      1  C   UNL     1      -6.565 -15.501  -2.811  1.00  0.00     0.000 C 
ENDROOT
BRANCH   1   2
ATOM      2  C   UNL     1      -5.469 -16.467  -2.340  1.00  0.00     0.000 C 
BRANCH   2   3
ATOM      3  C   UNL     1      -4.250 -15.749  -1.735  1.00  0.00     0.006 C 
BRANCH   3   4
ATOM      4  C   UNL     1      -2.994 -16.633  -1.624  1.00  0.00     0.053 C 
BRANCH   4   5
ATOM      5  C   UNL     1      -2.836 -17.248  -0.267  1.00  0.00     0.041 C 
ATOM      6  O   UNL     1      -3.436 -16.760   0.727  1.00  0.00    -0.550 OA
ATOM      7  O   UNL     1      -2.000 -18.344  -0.093  1.00  0.00    -0.550 OA
ENDBRANCH   4   5
ENDBRANCH   3   4
ENDBRANCH   2   3
ENDBRANCH   1   2
BRANCH   1   8
ATOM      8  C   UNL     1      -6.159 -14.044  -2.563  1.00  0.00     0.000 C 
BRANCH   8   9
ATOM      9  C   UNL     1      -6.799 -13.110  -3.602  1.00  0.00     0.000 C 
BRANCH   9  10
ATOM     10  C   UNL     1      -6.857 -13.735  -5.004  1.00  0.00     0.006 C 
BRANCH  10  11
ATOM     11  C   UNL     1      -8.262 -13.683  -5.618  1.00  0.00     0.053 C 
BRANCH  11  12
ATOM     12  C   UNL     1      -8.737 -15.061  -5.954  1.00  0.00     0.041 C 
ATOM     13  O   UNL     1      -9.670 -15.588  -5.294  1.00  0.00    -0.550 OA
ATOM     14  O   UNL     1      -8.183 -15.744  -7.029  1.00  0.00    -0.550 OA
ENDBRANCH  11  12
ENDBRANCH  10  11
ENDBRANCH   9  10
ENDBRANCH   8   9
ENDBRANCH   1   8
TORSDOF 9
ENDMDL
MODEL 2
REMARK VINA RESULT:    -5.810      1.233      7.226
REMARK INTER + INTRA:          -9.375
REMARK INTER:                  -8.969
REMARK INTRA:                  -0.406
REMARK UNBOUND:                -0.508
REMARK SMILES O=C([O-])CCCCCCCCC(=O)[O-]
REMARK SMILES IDX 7 1 6 2 5 3 4 4 2 5 1 6 3 7 8 8 9 9 10 10 11 11 12 12 13 13
REMARK SMILES IDX 14 14
REMARK H PARENT
REMARK Flexibility Score: inf
ROOT
ATOM      1  C   UNL     1      -6.904 -15.523  -3.097  1.00  0.00     0.000 C 
ENDROOT
BRANCH   1   2
ATOM      2  C   UNL     1      -6.494 -14.082  -2.763  1.00  0.00     0.000 C 
BRANCH   2   3
ATOM      3  C   UNL     1      -6.749 -13.098  -3.919  1.00  0.00     0.006 C 
BRANCH   3   4
ATOM      4  C   UNL     1      -7.085 -13.779  -5.258  1.00  0.00     0.053 C 
BRANCH   4   5
ATOM      5  C   UNL     1      -8.508 -13.562  -5.678  1.00  0.00     0.041 C 
ATOM      6  O   UNL     1      -8.892 -12.425  -6.058  1.00  0.00    -0.550 OA
ATOM      7  O   UNL     1      -9.418 -14.611  -5.618  1.00  0.00    -0.550 OA
ENDBRANCH   4   5
ENDBRANCH   3   4
ENDBRANCH   2   3
ENDBRANCH   1   2
BRANCH   1   8
ATOM      8  C   UNL     1      -5.824 -16.519  -2.656  1.00  0.00     0.000 C 
BRANCH   8   9
ATOM      9  C   UNL     1      -4.694 -15.805  -1.898  1.00  0.00     0.000 C 
BRANCH   9  10
ATOM     10  C   UNL     1      -3.841 -16.770  -1.061  1.00  0.00     0.006 C 
BRANCH  10  11
ATOM     11  C   UNL     1      -2.429 -16.959  -1.630  1.00  0.00     0.053 C 
BRANCH  11  12
ATOM     12  C   UNL     1      -1.751 -18.119  -0.973  1.00  0.00     0.041 C 
ATOM     13  O   UNL     1      -1.096 -18.944  -1.663  1.00  0.00    -0.550 OA
ATOM     14  O   UNL     1      -1.802 -18.263   0.407  1.00  0.00    -0.550 OA
ENDBRANCH  11  12
ENDBRANCH  10  11
ENDBRANCH   9  10
ENDBRANCH   8   9
ENDBRANCH   1   8
TORSDOF 9
ENDMDL
MODEL 3
REMARK VINA RESULT:    -5.769      0.739      6.841
REMARK INTER + INTRA:          -9.312
REMARK INTER:                  -8.802
REMARK INTRA:                  -0.511
REMARK UNBOUND:                -0.508
REMARK SMILES O=C([O-])CCCCCCCCC(=O)[O-]
REMARK SMILES IDX 7 1 6 2 5 3 4 4 2 5 1 6 3 7 8 8 9 9 10 10 11 11 12 12 13 13
REMARK SMILES IDX 14 14
REMARK H PARENT
REMARK Flexibility Score: inf
ROOT
ATOM      1  C   UNL     1      -6.092 -13.991  -2.670  1.00  0.00     0.000 C 
ENDROOT
BRANCH   1   2
ATOM      2  C   UNL     1      -6.905 -12.991  -3.505  1.00  0.00     0.000 C 
BRANCH   2   3
ATOM      3  C   UNL     1      -6.897 -13.314  -5.010  1.00  0.00     0.006 C 
BRANCH   3   4
ATOM      4  C   UNL     1      -8.298 -13.538  -5.609  1.00  0.00     0.053 C 
BRANCH   4   5
ATOM      5  C   UNL     1      -8.599 -14.985  -5.853  1.00  0.00     0.041 C 
ATOM      6  O   UNL     1      -9.542 -15.551  -5.239  1.00  0.00    -0.550 OA
ATOM      7  O   UNL     1      -7.818 -15.719  -6.738  1.00  0.00    -0.550 OA
ENDBRANCH   4   5
ENDBRANCH   3   4
ENDBRANCH   2   3
ENDBRANCH   1   2
BRANCH   1   8
ATOM      8  C   UNL     1      -6.756 -15.374  -2.667  1.00  0.00     0.000 C 
BRANCH   8   9
ATOM      9  C   UNL     1      -5.701 -16.490  -2.643  1.00  0.00     0.000 C 
BRANCH   9  10
ATOM     10  C   UNL     1      -4.472 -16.125  -1.796  1.00  0.00     0.006 C 
BRANCH  10  11
ATOM     11  C   UNL     1      -4.134 -17.196  -0.751  1.00  0.00     0.053 C 
BRANCH  11  12
ATOM     12  C   UNL     1      -2.671 -17.511  -0.780  1.00  0.00     0.041 C 
ATOM     13  O   UNL     1      -2.007 -17.337  -1.836  1.00  0.00    -0.550 OA
ATOM     14  O   UNL     1      -2.032 -17.948   0.372  1.00  0.00    -0.550 OA
ENDBRANCH  11  12
ENDBRANCH  10  11
ENDBRANCH   9  10
ENDBRANCH   8   9
ENDBRANCH   1   8
TORSDOF 9
ENDMDL
MODEL 4
REMARK VINA RESULT:    -5.768      1.618      1.993
REMARK INTER + INTRA:          -9.311
REMARK INTER:                  -8.857
REMARK INTRA:                  -0.454
REMARK UNBOUND:                -0.508
REMARK SMILES O=C([O-])CCCCCCCCC(=O)[O-]
REMARK SMILES IDX 7 1 6 2 5 3 4 4 2 5 1 6 3 7 8 8 9 9 10 10 11 11 12 12 13 13
REMARK SMILES IDX 14 14
REMARK H PARENT
REMARK Flexibility Score: inf
ROOT
ATOM      1  C   UNL     1      -6.149 -15.501  -2.576  1.00  0.00     0.000 C 
ENDROOT
BRANCH   1   2
ATOM      2  C   UNL     1      -5.137 -16.496  -1.992  1.00  0.00     0.000 C 
BRANCH   2   3
ATOM      3  C   UNL     1      -3.774 -15.856  -1.674  1.00  0.00     0.006 C 
BRANCH   3   4
ATOM      4  C   UNL     1      -2.635 -16.874  -1.476  1.00  0.00     0.053 C 
BRANCH   4   5
ATOM      5  C   UNL     1      -2.541 -17.370  -0.065  1.00  0.00     0.041 C 
ATOM      6  O   UNL     1      -3.165 -16.784   0.858  1.00  0.00    -0.550 OA
ATOM      7  O   UNL     1      -1.737 -18.463   0.235  1.00  0.00    -0.550 OA
ENDBRANCH   4   5
ENDBRANCH   3   4
ENDBRANCH   2   3
ENDBRANCH   1   2
BRANCH   1   8
ATOM      8  C   UNL     1      -7.149 -16.209  -3.498  1.00  0.00     0.000 C 
BRANCH   8   9
ATOM      9  C   UNL     1      -6.558 -16.403  -4.903  1.00  0.00     0.000 C 
BRANCH   9  10
ATOM     10  C   UNL     1      -7.160 -15.439  -5.937  1.00  0.00     0.006 C 
BRANCH  10  11
ATOM     11  C   UNL     1      -8.414 -14.723  -5.419  1.00  0.00     0.053 C 
BRANCH  11  12
ATOM     12  C   UNL     1      -8.210 -13.241  -5.428  1.00  0.00     0.041 C 
ATOM     13  O   UNL     1      -7.311 -12.721  -4.716  1.00  0.00    -0.550 OA
ATOM     14  O   UNL     1      -8.981 -12.439  -6.259  1.00  0.00    -0.550 OA
ENDBRANCH  11  12
ENDBRANCH  10  11
ENDBRANCH   9  10
ENDBRANCH   8   9
ENDBRANCH   1   8
TORSDOF 9
ENDMDL
MODEL 5
REMARK VINA RESULT:    -5.748      3.230      5.579
REMARK INTER + INTRA:          -9.281
REMARK INTER:                  -8.245
REMARK INTRA:                  -1.036
REMARK UNBOUND:                -0.508
REMARK SMILES O=C([O-])CCCCCCCCC(=O)[O-]
REMARK SMILES IDX 7 1 6 2 5 3 4 4 2 5 1 6 3 7 8 8 9 9 10 10 11 11 12 12 13 13
REMARK SMILES IDX 14 14
REMARK H PARENT
REMARK Flexibility Score: inf
ROOT
ATOM      1  C   UNL     1      -6.900 -13.993  -2.903  1.00  0.00     0.000 C 
ENDROOT
BRANCH   1   2
ATOM      2  C   UNL     1      -6.506 -12.983  -3.991  1.00  0.00     0.000 C 
BRANCH   2   3
ATOM      3  C   UNL     1      -6.955 -13.407  -5.401  1.00  0.00     0.006 C 
BRANCH   3   4
ATOM      4  C   UNL     1      -8.483 -13.456  -5.582  1.00  0.00     0.053 C 
BRANCH   4   5
ATOM      5  C   UNL     1      -8.981 -14.825  -5.933  1.00  0.00     0.041 C 
ATOM      6  O   UNL     1      -9.766 -15.434  -5.159  1.00  0.00    -0.550 OA
ATOM      7  O   UNL     1      -8.554 -15.442  -7.102  1.00  0.00    -0.550 OA
ENDBRANCH   4   5
ENDBRANCH   3   4
ENDBRANCH   2   3
ENDBRANCH   1   2
BRANCH   1   8
ATOM      8  C   UNL     1      -5.660 -14.647  -2.284  1.00  0.00     0.000 C 
BRANCH   8   9
ATOM      9  C   UNL     1      -5.541 -16.118  -2.714  1.00  0.00     0.000 C 
BRANCH   9  10
ATOM     10  C   UNL     1      -6.764 -16.603  -3.507  1.00  0.00     0.006 C 
BRANCH  10  11
ATOM     11  C   UNL     1      -6.389 -17.183  -4.877  1.00  0.00     0.053 C 
BRANCH  11  12
ATOM     12  C   UNL     1      -7.398 -18.199  -5.308  1.00  0.00     0.041 C 
ATOM     13  O   UNL     1      -7.236 -18.836  -6.382  1.00  0.00    -0.550 OA
ATOM     14  O   UNL     1      -8.492 -18.478  -4.500  1.00  0.00    -0.550 OA
ENDBRANCH  11  12
ENDBRANCH  10  11
ENDBRANCH   9  10
ENDBRANCH   8   9
ENDBRANCH   1   8
TORSDOF 9
ENDMDL
MODEL 6
REMARK VINA RESULT:    -5.569      1.294      1.763
REMARK INTER + INTRA:          -9.008
REMARK INTER:                  -8.640
REMARK INTRA:                  -0.368
REMARK UNBOUND:                -0.508
REMARK SMILES O=C([O-])CCCCCCCCC(=O)[O-]
REMARK SMILES IDX 7 1 6 2 5 3 4 4 2 5 1 6 3 7 8 8 9 9 10 10 11 11 12 12 13 13
REMARK SMILES IDX 14 14
REMARK H PARENT
REMARK Flexibility Score: inf
ROOT
ATOM      1  C   UNL     1      -5.734 -16.506  -2.232  1.00  0.00     0.000 C 
ENDROOT
BRANCH   1   2
ATOM      2  C   UNL     1      -4.333 -15.940  -1.962  1.00  0.00     0.000 C 
BRANCH   2   3
ATOM      3  C   UNL     1      -3.542 -16.755  -0.923  1.00  0.00     0.006 C 
BRANCH   3   4
ATOM      4  C   UNL     1      -2.036 -16.861  -1.227  1.00  0.00     0.053 C 
BRANCH   4   5
ATOM      5  C   UNL     1      -1.243 -17.359  -0.056  1.00  0.00     0.041 C 
ATOM      6  O   UNL     1      -0.238 -16.719   0.350  1.00  0.00    -0.550 OA
ATOM      7  O   UNL     1      -1.597 -18.550   0.567  1.00  0.00    -0.550 OA
ENDBRANCH   4   5
ENDBRANCH   3   4
ENDBRANCH   2   3
ENDBRANCH   1   2
BRANCH   1   8
ATOM      8  C   UNL     1      -6.510 -15.615  -3.210  1.00  0.00     0.000 C 
BRANCH   8   9
ATOM      9  C   UNL     1      -6.461 -14.144  -2.769  1.00  0.00     0.000 C 
BRANCH   9  10
ATOM     10  C   UNL     1      -6.811 -13.173  -3.908  1.00  0.00     0.006 C 
BRANCH  10  11
ATOM     11  C   UNL     1      -7.040 -13.888  -5.246  1.00  0.00     0.053 C 
BRANCH  11  12
ATOM     12  C   UNL     1      -8.467 -13.752  -5.673  1.00  0.00     0.041 C 
ATOM     13  O   UNL     1      -9.242 -14.743  -5.619  1.00  0.00    -0.550 OA
ATOM     14  O   UNL     1      -8.954 -12.518  -6.084  1.00  0.00    -0.550 OA
ENDBRANCH  11  12
ENDBRANCH  10  11
ENDBRANCH   9  10
ENDBRANCH   8   9
ENDBRANCH   1   8
TORSDOF 9
ENDMDL
MODEL 7
REMARK VINA RESULT:    -5.546      1.432      1.887
REMARK INTER + INTRA:          -8.972
REMARK INTER:                  -8.398
REMARK INTRA:                  -0.575
REMARK UNBOUND:                -0.508
REMARK SMILES O=C([O-])CCCCCCCCC(=O)[O-]
REMARK SMILES IDX 7 1 6 2 5 3 4 4 2 5 1 6 3 7 8 8 9 9 10 10 11 11 12 12 13 13
REMARK SMILES IDX 14 14
REMARK H PARENT
REMARK Flexibility Score: inf
ROOT
ATOM      1  C   UNL     1      -6.708 -13.502  -2.999  1.00  0.00     0.000 C 
ENDROOT
BRANCH   1   2
ATOM      2  C   UNL     1      -6.480 -14.975  -2.631  1.00  0.00     0.000 C 
BRANCH   2   3
ATOM      3  C   UNL     1      -5.026 -15.280  -2.231  1.00  0.00     0.006 C 
BRANCH   3   4
ATOM      4  C   UNL     1      -4.830 -16.666  -1.588  1.00  0.00     0.053 C 
BRANCH   4   5
ATOM      5  C   UNL     1      -3.552 -16.770  -0.814  1.00  0.00     0.041 C 
ATOM      6  O   UNL     1      -3.570 -17.083   0.406  1.00  0.00    -0.550 OA
ATOM      7  O   UNL     1      -2.339 -16.491  -1.433  1.00  0.00    -0.550 OA
ENDBRANCH   4   5
ENDBRANCH   3   4
ENDBRANCH   2   3
ENDBRANCH   1   2
BRANCH   1   8
ATOM      8  C   UNL     1      -6.521 -13.276  -4.504  1.00  0.00     0.000 C 
BRANCH   8   9
ATOM      9  C   UNL     1      -7.878 -13.127  -5.210  1.00  0.00     0.000 C 
BRANCH   9  10
ATOM     10  C   UNL     1      -8.453 -14.473  -5.678  1.00  0.00     0.006 C 
BRANCH  10  11
ATOM     11  C   UNL     1      -7.381 -15.404  -6.261  1.00  0.00     0.053 C 
BRANCH  11  12
ATOM     12  C   UNL     1      -7.540 -16.788  -5.715  1.00  0.00     0.041 C 
ATOM     13  O   UNL     1      -8.478 -17.051  -4.917  1.00  0.00    -0.550 OA
ATOM     14  O   UNL     1      -6.682 -17.799  -6.127  1.00  0.00    -0.550 OA
ENDBRANCH  11  12
ENDBRANCH  10  11
ENDBRANCH   9  10
ENDBRANCH   8   9
ENDBRANCH   1   8
TORSDOF 9
ENDMDL
MODEL 8
REMARK VINA RESULT:    -5.532      3.153      3.733
REMARK INTER + INTRA:          -8.951
REMARK INTER:                  -8.099
REMARK INTRA:                  -0.851
REMARK UNBOUND:                -0.508
REMARK SMILES O=C([O-])CCCCCCCCC(=O)[O-]
REMARK SMILES IDX 7 1 6 2 5 3 4 4 2 5 1 6 3 7 8 8 9 9 10 10 11 11 12 12 13 13
REMARK SMILES IDX 14 14
REMARK H PARENT
REMARK Flexibility Score: inf
ROOT
ATOM      1  C   UNL     1      -6.526 -14.136  -2.600  1.00  0.00     0.000 C 
ENDROOT
BRANCH   1   2
ATOM      2  C   UNL     1      -5.757 -15.453  -2.420  1.00  0.00     0.000 C 
BRANCH   2   3
ATOM      3  C   UNL     1      -6.077 -16.493  -3.508  1.00  0.00     0.006 C 
BRANCH   3   4
ATOM      4  C   UNL     1      -7.464 -17.146  -3.361  1.00  0.00     0.053 C 
BRANCH   4   5
ATOM      5  C   UNL     1      -7.725 -18.193  -4.400  1.00  0.00     0.041 C 
ATOM      6  O   UNL     1      -8.734 -18.942  -4.310  1.00  0.00    -0.550 OA
ATOM      7  O   UNL     1      -6.835 -18.364  -5.453  1.00  0.00    -0.550 OA
ENDBRANCH   4   5
ENDBRANCH   3   4
ENDBRANCH   2   3
ENDBRANCH   1   2
BRANCH   1   8
ATOM      8  C   UNL     1      -6.343 -13.580  -4.017  1.00  0.00     0.000 C 
BRANCH   8   9
ATOM      9  C   UNL     1      -7.545 -12.716  -4.428  1.00  0.00     0.000 C 
BRANCH   9  10
ATOM     10  C   UNL     1      -8.309 -13.297  -5.628  1.00  0.00     0.006 C 
BRANCH  10  11
ATOM     11  C   UNL     1      -7.763 -14.659  -6.074  1.00  0.00     0.053 C 
BRANCH  11  12
ATOM     12  C   UNL     1      -8.886 -15.595  -6.389  1.00  0.00     0.041 C 
ATOM     13  O   UNL     1      -9.840 -15.735  -5.579  1.00  0.00    -0.550 OA
ATOM     14  O   UNL     1      -8.906 -16.275  -7.599  1.00  0.00    -0.550 OA
ENDBRANCH  11  12
ENDBRANCH  10  11
ENDBRANCH   9  10
ENDBRANCH   8   9
ENDBRANCH   1   8
TORSDOF 9
ENDMDL
MODEL 9
REMARK VINA RESULT:    -5.454      3.929      4.918
REMARK INTER + INTRA:          -8.832
REMARK INTER:                  -7.908
REMARK INTRA:                  -0.924
REMARK UNBOUND:                -0.508
REMARK SMILES O=C([O-])CCCCCCCCC(=O)[O-]
REMARK SMILES IDX 7 1 6 2 5 3 4 4 2 5 1 6 3 7 8 8 9 9 10 10 11 11 12 12 13 13
REMARK SMILES IDX 14 14
REMARK H PARENT
REMARK Flexibility Score: inf
ROOT
ATOM      1  C   UNL     1      -6.038 -16.282  -3.062  1.00  0.00     0.000 C 
ENDROOT
BRANCH   1   2
ATOM      2  C   UNL     1      -7.543 -16.555  -3.186  1.00  0.00     0.000 C 
BRANCH   2   3
ATOM      3  C   UNL     1      -7.863 -17.821  -4.000  1.00  0.00     0.006 C 
BRANCH   3   4
ATOM      4  C   UNL     1      -7.309 -17.798  -5.437  1.00  0.00     0.053 C 
BRANCH   4   5
ATOM      5  C   UNL     1      -8.360 -17.480  -6.458  1.00  0.00     0.041 C 
ATOM      6  O   UNL     1      -8.072 -16.795  -7.474  1.00  0.00    -0.550 OA
ATOM      7  O   UNL     1      -9.665 -17.916  -6.270  1.00  0.00    -0.550 OA
ENDBRANCH   4   5
ENDBRANCH   3   4
ENDBRANCH   2   3
ENDBRANCH   1   2
BRANCH   1   8
ATOM      8  C   UNL     1      -5.775 -14.844  -2.600  1.00  0.00     0.000 C 
BRANCH   8   9
ATOM      9  C   UNL     1      -6.925 -13.914  -3.016  1.00  0.00     0.000 C 
BRANCH   9  10
ATOM     10  C   UNL     1      -6.612 -13.118  -4.293  1.00  0.00     0.006 C 
BRANCH  10  11
ATOM     11  C   UNL     1      -7.119 -13.815  -5.563  1.00  0.00     0.053 C 
BRANCH  11  12
ATOM     12  C   UNL     1      -8.582 -13.565  -5.746  1.00  0.00     0.041 C 
ATOM     13  O   UNL     1      -9.418 -14.463  -5.462  1.00  0.00    -0.550 OA
ATOM     14  O   UNL     1      -9.026 -12.325  -6.184  1.00  0.00    -0.550 OA
ENDBRANCH  11  12
ENDBRANCH  10  11
ENDBRANCH   9  10
ENDBRANCH   8   9
ENDBRANCH   1   8
TORSDOF 9
ENDMDL
