MODEL 1
REMARK VINA RESULT:    -3.313      0.000      0.000
REMARK INTER + INTRA:          -4.006
REMARK INTER:                  -3.894
REMARK INTRA:                  -0.112
REMARK UNBOUND:                -0.112
REMARK SMILES CCCCC(=O)[O-]
REMARK SMILES IDX 4 1 5 2 6 3 7 4 3 5 2 6 1 7
REMARK H PARENT
REMARK Flexibility Score: inf
ROOT
ATOM      1  C   UNL     1      34.064   7.063  10.499  1.00  0.00     0.053 C 
ENDROOT
BRANCH   1   2
ATOM      2  C   UNL     1      34.180   7.176   9.012  1.00  0.00     0.041 C 
ATOM      3  O   UNL     1      33.739   8.197   8.418  1.00  0.00    -0.550 OA
ATOM      4  O   UNL     1      34.729   6.135   8.275  1.00  0.00    -0.550 OA
ENDBRANCH   1   2
BRANCH   1   5
ATOM      5  C   UNL     1      35.302   7.664  11.179  1.00  0.00     0.006 C 
BRANCH   5   6
ATOM      6  C   UNL     1      36.365   6.607  11.509  1.00  0.00    -0.003 C 
ATOM      7  C   UNL     1      37.606   6.720  10.624  1.00  0.00     0.004 C 
ENDBRANCH   5   6
ENDBRANCH   1   5
TORSDOF 3
ENDMDL
MODEL 2
REMARK VINA RESULT:    -3.309     15.619     15.713
REMARK INTER + INTRA:          -4.001
REMARK INTER:                  -3.967
REMARK INTRA:                  -0.034
REMARK UNBOUND:                -0.112
REMARK SMILES CCCCC(=O)[O-]
REMARK SMILES IDX 4 1 5 2 6 3 7 4 3 5 2 6 1 7
REMARK H PARENT
REMARK Flexibility Score: inf
ROOT
ATOM      1  C   UNL     1      40.997  20.626  14.960  1.00  0.00     0.053 C 
ENDROOT
BRANCH   1   2
ATOM      2  C   UNL     1      39.890  21.406  14.326  1.00  0.00     0.041 C 
ATOM      3  O   UNL     1      38.887  21.751  15.006  1.00  0.00    -0.550 OA
ATOM      4  O   UNL     1      39.941  21.712  12.972  1.00  0.00    -0.550 OA
ENDBRANCH   1   2
BRANCH   1   5
ATOM      5  C   UNL     1      40.659  20.311  16.423  1.00  0.00     0.006 C 
BRANCH   5   6
ATOM      6  C   UNL     1      41.721  19.429  17.097  1.00  0.00    -0.003 C 
ATOM      7  C   UNL     1      43.082  19.511  16.406  1.00  0.00     0.004 C 
ENDBRANCH   5   6
ENDBRANCH   1   5
TORSDOF 3
ENDMDL
MODEL 3
REMARK VINA RESULT:    -3.295      2.836      3.253
REMARK INTER + INTRA:          -3.985
REMARK INTER:                  -3.867
REMARK INTRA:                  -0.118
REMARK UNBOUND:                -0.112
REMARK SMILES CCCCC(=O)[O-]
REMARK SMILES IDX 4 1 5 2 6 3 7 4 3 5 2 6 1 7
REMARK H PARENT
REMARK Flexibility Score: inf
ROOT
ATOM      1  C   UNL     1      34.458   7.362  12.197  1.00  0.00     0.053 C 
ENDROOT
BRANCH   1   2
ATOM      2  C   UNL     1      34.537   5.978  12.760  1.00  0.00     0.041 C 
ATOM      3  O   UNL     1      35.203   5.757  13.805  1.00  0.00    -0.550 OA
ATOM      4  O   UNL     1      33.916   4.924  12.102  1.00  0.00    -0.550 OA
ENDBRANCH   1   2
BRANCH   1   5
ATOM      5  C   UNL     1      35.236   7.449  10.877  1.00  0.00     0.006 C 
BRANCH   5   6
ATOM      6  C   UNL     1      36.757   7.402  11.085  1.00  0.00    -0.003 C 
ATOM      7  C   UNL     1      37.413   6.212  10.386  1.00  0.00     0.004 C 
ENDBRANCH   5   6
ENDBRANCH   1   5
TORSDOF 3
ENDMDL
MODEL 4
REMARK VINA RESULT:    -3.279      1.833      2.982
REMARK INTER + INTRA:          -3.966
REMARK INTER:                  -3.834
REMARK INTRA:                  -0.132
REMARK UNBOUND:                -0.112
REMARK SMILES CCCCC(=O)[O-]
REMARK SMILES IDX 4 1 5 2 6 3 7 4 3 5 2 6 1 7
REMARK H PARENT
REMARK Flexibility Score: inf
ROOT
ATOM      1  C   UNL     1      35.065   7.505  10.921  1.00  0.00     0.053 C 
ENDROOT
BRANCH   1   2
ATOM      2  C   UNL     1      34.198   7.087   9.776  1.00  0.00     0.041 C 
ATOM      3  O   UNL     1      33.977   7.884   8.826  1.00  0.00    -0.550 OA
ATOM      4  O   UNL     1      33.594   5.837   9.781  1.00  0.00    -0.550 OA
ENDBRANCH   1   2
BRANCH   1   5
ATOM      5  C   UNL     1      34.256   7.527  12.225  1.00  0.00     0.006 C 
BRANCH   5   6
ATOM      6  C   UNL     1      33.196   8.638  12.242  1.00  0.00    -0.003 C 
ATOM      7  C   UNL     1      31.790   8.110  12.527  1.00  0.00     0.004 C 
ENDBRANCH   5   6
ENDBRANCH   1   5
TORSDOF 3
ENDMDL
MODEL 5
REMARK VINA RESULT:    -3.274      3.163      3.721
REMARK INTER + INTRA:          -3.961
REMARK INTER:                  -3.857
REMARK INTRA:                  -0.104
REMARK UNBOUND:                -0.112
REMARK SMILES CCCCC(=O)[O-]
REMARK SMILES IDX 4 1 5 2 6 3 7 4 3 5 2 6 1 7
REMARK H PARENT
REMARK Flexibility Score: inf
ROOT
ATOM      1  C   UNL     1      33.323   7.887  11.309  1.00  0.00     0.053 C 
ENDROOT
BRANCH   1   2
ATOM      2  C   UNL     1      32.394   8.640  12.207  1.00  0.00     0.041 C 
ATOM      3  O   UNL     1      32.051   8.152  13.317  1.00  0.00    -0.550 OA
ATOM      4  O   UNL     1      31.867   9.858  11.798  1.00  0.00    -0.550 OA
ENDBRANCH   1   2
BRANCH   1   5
ATOM      5  C   UNL     1      34.752   7.922  11.868  1.00  0.00     0.006 C 
BRANCH   5   6
ATOM      6  C   UNL     1      35.342   6.519  12.068  1.00  0.00    -0.003 C 
ATOM      7  C   UNL     1      34.780   5.812  13.301  1.00  0.00     0.004 C 
ENDBRANCH   5   6
ENDBRANCH   1   5
TORSDOF 3
ENDMDL
MODEL 6
REMARK VINA RESULT:    -3.269      3.127      4.338
REMARK INTER + INTRA:          -3.954
REMARK INTER:                  -3.906
REMARK INTRA:                  -0.049
REMARK UNBOUND:                -0.112
REMARK SMILES CCCCC(=O)[O-]
REMARK SMILES IDX 4 1 5 2 6 3 7 4 3 5 2 6 1 7
REMARK H PARENT
REMARK Flexibility Score: inf
ROOT
ATOM      1  C   UNL     1      34.636   7.934  11.921  1.00  0.00     0.053 C 
ENDROOT
BRANCH   1   2
ATOM      2  C   UNL     1      35.277   6.624  12.252  1.00  0.00     0.041 C 
ATOM      3  O   UNL     1      34.925   5.989  13.281  1.00  0.00    -0.550 OA
ATOM      4  O   UNL     1      36.298   6.128  11.452  1.00  0.00    -0.550 OA
ENDBRANCH   1   2
BRANCH   1   5
ATOM      5  C   UNL     1      33.150   7.734  11.591  1.00  0.00     0.006 C 
BRANCH   5   6
ATOM      6  C   UNL     1      32.223   8.308  12.672  1.00  0.00    -0.003 C 
ATOM      7  C   UNL     1      31.506   9.580  12.221  1.00  0.00     0.004 C 
ENDBRANCH   5   6
ENDBRANCH   1   5
TORSDOF 3
ENDMDL
MODEL 7
REMARK VINA RESULT:    -3.267      2.238      3.537
REMARK INTER + INTRA:          -3.952
REMARK INTER:                  -3.844
REMARK INTRA:                  -0.107
REMARK UNBOUND:                -0.112
REMARK SMILES CCCCC(=O)[O-]
REMARK SMILES IDX 4 1 5 2 6 3 7 4 3 5 2 6 1 7
REMARK H PARENT
REMARK Flexibility Score: inf
ROOT
ATOM      1  C   UNL     1      36.398   7.609  11.124  1.00  0.00     0.053 C 
ENDROOT
BRANCH   1   2
ATOM      2  C   UNL     1      37.352   6.529  10.723  1.00  0.00     0.041 C 
ATOM      3  O   UNL     1      36.928   5.492  10.147  1.00  0.00    -0.550 OA
ATOM      4  O   UNL     1      38.702   6.645  11.028  1.00  0.00    -0.550 OA
ENDBRANCH   1   2
BRANCH   1   5
ATOM      5  C   UNL     1      35.059   7.004  11.567  1.00  0.00     0.006 C 
BRANCH   5   6
ATOM      6  C   UNL     1      33.860   7.632  10.842  1.00  0.00    -0.003 C 
ATOM      7  C   UNL     1      33.989   7.570   9.321  1.00  0.00     0.004 C 
ENDBRANCH   5   6
ENDBRANCH   1   5
TORSDOF 3
ENDMDL
MODEL 8
REMARK VINA RESULT:    -3.254      1.002      1.362
REMARK INTER + INTRA:          -3.937
REMARK INTER:                  -3.868
REMARK INTRA:                  -0.070
REMARK UNBOUND:                -0.112
REMARK SMILES CCCCC(=O)[O-]
REMARK SMILES IDX 4 1 5 2 6 3 7 4 3 5 2 6 1 7
REMARK H PARENT
REMARK Flexibility Score: inf
ROOT
ATOM      1  C   UNL     1      35.091   7.574  11.130  1.00  0.00     0.053 C 
ENDROOT
BRANCH   1   2
ATOM      2  C   UNL     1      34.187   7.137  10.021  1.00  0.00     0.041 C 
ATOM      3  O   UNL     1      33.928   7.921   9.069  1.00  0.00    -0.550 OA
ATOM      4  O   UNL     1      33.592   5.883  10.062  1.00  0.00    -0.550 OA
ENDBRANCH   1   2
BRANCH   1   5
ATOM      5  C   UNL     1      36.057   6.443  11.509  1.00  0.00     0.006 C 
BRANCH   5   6
ATOM      6  C   UNL     1      37.228   6.314  10.524  1.00  0.00    -0.003 C 
ATOM      7  C   UNL     1      38.570   6.700  11.146  1.00  0.00     0.004 C 
ENDBRANCH   5   6
ENDBRANCH   1   5
TORSDOF 3
ENDMDL
MODEL 9
REMARK VINA RESULT:    -3.211     15.708     16.379
REMARK INTER + INTRA:          -3.886
REMARK INTER:                  -3.823
REMARK INTRA:                  -0.062
REMARK UNBOUND:                -0.112
REMARK SMILES CCCCC(=O)[O-]
REMARK SMILES IDX 4 1 5 2 6 3 7 4 3 5 2 6 1 7
REMARK H PARENT
REMARK Flexibility Score: inf
ROOT
ATOM      1  C   UNL     1      41.414  19.466  16.963  1.00  0.00     0.053 C 
ENDROOT
BRANCH   1   2
ATOM      2  C   UNL     1      42.897  19.659  16.952  1.00  0.00     0.041 C 
ATOM      3  O   UNL     1      43.643  18.803  16.407  1.00  0.00    -0.550 OA
ATOM      4  O   UNL     1      43.459  20.760  17.585  1.00  0.00    -0.550 OA
ENDBRANCH   1   2
BRANCH   1   5
ATOM      5  C   UNL     1      40.712  20.672  16.322  1.00  0.00     0.006 C 
BRANCH   5   6
ATOM      6  C   UNL     1      40.672  20.584  14.789  1.00  0.00    -0.003 C 
ATOM      7  C   UNL     1      39.551  21.425  14.178  1.00  0.00     0.004 C 
ENDBRANCH   5   6
ENDBRANCH   1   5
TORSDOF 3
ENDMDL
