MODEL 1
REMARK VINA RESULT:    92.663      0.000      0.000
REMARK INTER + INTRA:         227.034
REMARK INTER:                 219.965
REMARK INTRA:                   7.068
REMARK UNBOUND:                 7.068
REMARK SMILES O=C(OC[C@H]1O[C@@H](OC(=O)c2cc(O)c(O)c(O)c2)[C@@H](OC(=O)c2cc(O)c(O)c(O)c2)[C@@H](OC(=O)c2cc(O)c(O)c(O)c2)[C@@H]1OC(=O)c1cc(O)c(O)c(O)c1)c1cc(O)c(O)c(O)c1
REMARK SMILES IDX 5 1 46 2 33 3 20 4 7 5 6 6 4 7 3 8 2 9 1 10 59 11 60 12
REMARK SMILES IDX 61 13 67 14 63 15 65 16 62 17 64 19 66 21 47 23 48 24 49 25
REMARK SMILES IDX 50 26 58 27 51 28 56 29 52 30 54 31 57 32 53 34 55 36 34 38
REMARK SMILES IDX 35 39 36 40 37 41 45 42 38 43 43 44 39 45 41 46 44 47 40 49
REMARK SMILES IDX 42 51 8 53 9 54 10 55 11 56 19 57 12 58 17 59 13 60 15 61
REMARK SMILES IDX 18 62 14 64 16 66 21 68 22 69 23 70 24 71 32 72 25 73 30 74
REMARK SMILES IDX 26 75 28 76 31 77 27 79 29 81
REMARK H PARENT 62 18 64 20 66 22 57 33 53 35 55 37 44 48 40 50 42 52 18 63
REMARK H PARENT 14 65 16 67 31 78 27 80 29 82
REMARK Flexibility Score: inf
ROOT
ATOM      1  C   UNL     1      11.557  59.658  20.983  1.00  0.00     0.205 C 
ATOM      2  C   UNL     1      11.176  58.611  22.079  1.00  0.00     0.254 C 
ATOM      3  C   UNL     1      10.418  59.302  23.230  1.00  0.00     0.267 C 
ATOM      4  C   UNL     1      11.246  60.503  23.721  1.00  0.00     0.290 C 
ATOM      5  C   UNL     1      11.644  61.420  22.529  1.00  0.00     0.357 C 
ATOM      6  O   UNL     1      11.087  60.956  21.308  1.00  0.00    -0.329 OA
ENDROOT
BRANCH   1   7
ATOM      7  C   UNL     1      10.970  59.284  19.610  1.00  0.00     0.269 C 
BRANCH   7   8
ATOM      8  O   UNL     1      11.983  59.346  18.604  1.00  0.00    -0.459 OA
BRANCH   8   9
ATOM      9  C   UNL     1      11.843  58.798  17.314  1.00  0.00     0.338 C 
ATOM     10  O   UNL     1      12.241  57.621  17.102  1.00  0.00    -0.246 OA
BRANCH   9  11
ATOM     11  C   UNL     1      11.232  59.558  16.208  1.00  0.00     0.067 A 
ATOM     12  C   UNL     1      11.898  60.664  15.661  1.00  0.00     0.066 A 
ATOM     13  C   UNL     1      11.286  61.441  14.673  1.00  0.00     0.162 A 
ATOM     14  C   UNL     1       9.953  59.221  15.750  1.00  0.00     0.066 A 
ATOM     15  C   UNL     1       9.995  61.112  14.219  1.00  0.00     0.200 A 
ATOM     16  C   UNL     1       9.325  60.002  14.767  1.00  0.00     0.162 A 
BRANCH  13  17
ATOM     17  O   UNL     1      11.972  62.540  14.159  1.00  0.00    -0.504 OA
ATOM     18  H   UNL     1      12.520  62.482  13.306  1.00  0.00     0.293 HD
ENDBRANCH  13  17
BRANCH  15  19
ATOM     19  O   UNL     1       9.392  61.891  13.230  1.00  0.00    -0.502 OA
ATOM     20  H   UNL     1       9.456  62.901  13.224  1.00  0.00     0.293 HD
ENDBRANCH  15  19
BRANCH  16  21
ATOM     21  O   UNL     1       8.039  59.680  14.339  1.00  0.00    -0.504 OA
ATOM     22  H   UNL     1       7.769  59.761  13.366  1.00  0.00     0.293 HD
ENDBRANCH  16  21
ENDBRANCH   9  11
ENDBRANCH   8   9
ENDBRANCH   7   8
ENDBRANCH   1   7
BRANCH   2  23
ATOM     23  O   UNL     1      12.364  58.013  22.601  1.00  0.00    -0.452 OA
BRANCH  23  24
ATOM     24  C   UNL     1      12.542  56.627  22.686  1.00  0.00     0.338 C 
ATOM     25  O   UNL     1      11.552  55.854  22.553  1.00  0.00    -0.246 OA
BRANCH  24  26
ATOM     26  C   UNL     1      13.882  56.071  22.973  1.00  0.00     0.067 A 
ATOM     27  C   UNL     1      14.986  56.409  22.172  1.00  0.00     0.066 A 
ATOM     28  C   UNL     1      14.055  55.153  24.023  1.00  0.00     0.066 A 
ATOM     29  C   UNL     1      16.242  55.843  22.410  1.00  0.00     0.162 A 
ATOM     30  C   UNL     1      15.307  54.573  24.263  1.00  0.00     0.162 A 
ATOM     31  C   UNL     1      16.407  54.920  23.459  1.00  0.00     0.200 A 
BRANCH  29  32
ATOM     32  O   UNL     1      17.312  56.206  21.595  1.00  0.00    -0.504 OA
ATOM     33  H   UNL     1      17.569  57.173  21.442  1.00  0.00     0.293 HD
ENDBRANCH  29  32
BRANCH  30  34
ATOM     34  O   UNL     1      15.461  53.648  25.294  1.00  0.00    -0.504 OA
ATOM     35  H   UNL     1      16.366  53.455  25.704  1.00  0.00     0.293 HD
ENDBRANCH  30  34
BRANCH  31  36
ATOM     36  O   UNL     1      17.661  54.348  23.682  1.00  0.00    -0.502 OA
ATOM     37  H   UNL     1      17.769  53.430  24.096  1.00  0.00     0.293 HD
ENDBRANCH  31  36
ENDBRANCH  24  26
ENDBRANCH  23  24
ENDBRANCH   2  23
BRANCH   3  38
ATOM     38  O   UNL     1       9.158  59.784  22.768  1.00  0.00    -0.450 OA
BRANCH  38  39
ATOM     39  C   UNL     1       8.746  59.788  21.433  1.00  0.00     0.338 C 
ATOM     40  O   UNL     1       8.952  60.793  20.699  1.00  0.00    -0.246 OA
BRANCH  39  41
ATOM     41  C   UNL     1       8.071  58.589  20.896  1.00  0.00     0.067 A 
ATOM     42  C   UNL     1       7.320  58.693  19.711  1.00  0.00     0.066 A 
ATOM     43  C   UNL     1       8.167  57.345  21.542  1.00  0.00     0.066 A 
ATOM     44  C   UNL     1       6.684  57.570  19.173  1.00  0.00     0.162 A 
ATOM     45  C   UNL     1       7.516  56.221  21.013  1.00  0.00     0.162 A 
ATOM     46  C   UNL     1       6.788  56.332  19.815  1.00  0.00     0.200 A 
BRANCH  44  47
ATOM     47  O   UNL     1       5.949  57.675  17.992  1.00  0.00    -0.504 OA
ATOM     48  H   UNL     1       6.293  57.291  17.119  1.00  0.00     0.293 HD
ENDBRANCH  44  47
BRANCH  45  49
ATOM     49  O   UNL     1       7.569  54.997  21.681  1.00  0.00    -0.504 OA
ATOM     50  H   UNL     1       7.613  54.934  22.692  1.00  0.00     0.293 HD
ENDBRANCH  45  49
BRANCH  46  51
ATOM     51  O   UNL     1       6.151  55.221  19.257  1.00  0.00    -0.502 OA
ATOM     52  H   UNL     1       5.505  55.312  18.485  1.00  0.00     0.293 HD
ENDBRANCH  46  51
ENDBRANCH  39  41
ENDBRANCH  38  39
ENDBRANCH   3  38
BRANCH   5  53
ATOM     53  O   UNL     1      11.171  62.750  22.746  1.00  0.00    -0.428 OA
BRANCH  53  54
ATOM     54  C   UNL     1      12.034  63.851  22.726  1.00  0.00     0.340 C 
ATOM     55  O   UNL     1      13.099  63.829  23.404  1.00  0.00    -0.246 OA
BRANCH  54  56
ATOM     56  C   UNL     1      11.733  65.007  21.854  1.00  0.00     0.067 A 
ATOM     57  C   UNL     1      11.845  64.900  20.461  1.00  0.00     0.066 A 
ATOM     58  C   UNL     1      11.260  66.204  22.413  1.00  0.00     0.066 A 
ATOM     59  C   UNL     1      11.473  65.967  19.633  1.00  0.00     0.162 A 
ATOM     60  C   UNL     1      10.892  67.281  21.597  1.00  0.00     0.162 A 
ATOM     61  C   UNL     1      11.002  67.164  20.191  1.00  0.00     0.200 A 
BRANCH  59  62
ATOM     62  O   UNL     1      11.557  65.835  18.247  1.00  0.00    -0.504 OA
ATOM     63  H   UNL     1      12.263  66.324  17.712  1.00  0.00     0.293 HD
ENDBRANCH  59  62
BRANCH  60  64
ATOM     64  O   UNL     1      10.414  68.434  22.225  1.00  0.00    -0.504 OA
ATOM     65  H   UNL     1       9.776  69.090  21.800  1.00  0.00     0.293 HD
ENDBRANCH  60  64
BRANCH  61  66
ATOM     66  O   UNL     1      10.653  68.199  19.323  1.00  0.00    -0.502 OA
ATOM     67  H   UNL     1      10.702  69.179  19.569  1.00  0.00     0.293 HD
ENDBRANCH  61  66
ENDBRANCH  54  56
ENDBRANCH  53  54
ENDBRANCH   5  53
BRANCH   4  68
ATOM     68  O   UNL     1      10.495  61.221  24.702  1.00  0.00    -0.448 OA
BRANCH  68  69
ATOM     69  C   UNL     1      10.864  62.492  25.159  1.00  0.00     0.339 C 
ATOM     70  O   UNL     1      12.020  62.682  25.629  1.00  0.00    -0.246 OA
BRANCH  69  71
ATOM     71  C   UNL     1       9.892  63.603  25.112  1.00  0.00     0.067 A 
ATOM     72  C   UNL     1       8.542  63.376  25.417  1.00  0.00     0.066 A 
ATOM     73  C   UNL     1      10.313  64.905  24.805  1.00  0.00     0.066 A 
ATOM     74  C   UNL     1       7.620  64.432  25.432  1.00  0.00     0.162 A 
ATOM     75  C   UNL     1       9.402  65.968  24.808  1.00  0.00     0.162 A 
ATOM     76  C   UNL     1       8.055  65.744  25.126  1.00  0.00     0.200 A 
BRANCH  74  77
ATOM     77  O   UNL     1       6.295  64.134  25.761  1.00  0.00    -0.504 OA
ATOM     78  H   UNL     1       5.811  64.518  26.560  1.00  0.00     0.293 HD
ENDBRANCH  74  77
BRANCH  75  79
ATOM     79  O   UNL     1       9.832  67.257  24.499  1.00  0.00    -0.504 OA
ATOM     80  H   UNL     1      10.049  67.531  23.548  1.00  0.00     0.293 HD
ENDBRANCH  75  79
BRANCH  76  81
ATOM     81  O   UNL     1       7.192  66.842  25.130  1.00  0.00    -0.502 OA
ATOM     82  H   UNL     1       6.634  67.126  24.337  1.00  0.00     0.293 HD
ENDBRANCH  76  81
ENDBRANCH  69  71
ENDBRANCH  68  69
ENDBRANCH   4  68
TORSDOF 31
ENDMDL
MODEL 2
REMARK VINA RESULT:    92.805      0.181      1.789
REMARK INTER + INTRA:         227.370
REMARK INTER:                 220.482
REMARK INTRA:                   6.889
REMARK UNBOUND:                 7.068
REMARK SMILES O=C(OC[C@H]1O[C@@H](OC(=O)c2cc(O)c(O)c(O)c2)[C@@H](OC(=O)c2cc(O)c(O)c(O)c2)[C@@H](OC(=O)c2cc(O)c(O)c(O)c2)[C@@H]1OC(=O)c1cc(O)c(O)c(O)c1)c1cc(O)c(O)c(O)c1
REMARK SMILES IDX 5 1 46 2 33 3 20 4 7 5 6 6 4 7 3 8 2 9 1 10 59 11 60 12
REMARK SMILES IDX 61 13 67 14 63 15 65 16 62 17 64 19 66 21 47 23 48 24 49 25
REMARK SMILES IDX 50 26 58 27 51 28 56 29 52 30 54 31 57 32 53 34 55 36 34 38
REMARK SMILES IDX 35 39 36 40 37 41 45 42 38 43 43 44 39 45 41 46 44 47 40 49
REMARK SMILES IDX 42 51 8 53 9 54 10 55 11 56 19 57 12 58 17 59 13 60 15 61
REMARK SMILES IDX 18 62 14 64 16 66 21 68 22 69 23 70 24 71 32 72 25 73 30 74
REMARK SMILES IDX 26 75 28 76 31 77 27 79 29 81
REMARK H PARENT 62 18 64 20 66 22 57 33 53 35 55 37 44 48 40 50 42 52 18 63
REMARK H PARENT 14 65 16 67 31 78 27 80 29 82
REMARK Flexibility Score: inf
ROOT
ATOM      1  C   UNL     1      11.591  59.517  21.091  1.00  0.00     0.205 C 
ATOM      2  C   UNL     1      11.178  58.528  22.230  1.00  0.00     0.254 C 
ATOM      3  C   UNL     1      10.389  59.277  23.321  1.00  0.00     0.267 C 
ATOM      4  C   UNL     1      11.203  60.502  23.772  1.00  0.00     0.290 C 
ATOM      5  C   UNL     1      11.636  61.357  22.547  1.00  0.00     0.357 C 
ATOM      6  O   UNL     1      11.114  60.830  21.336  1.00  0.00    -0.329 OA
ENDROOT
BRANCH   1   7
ATOM      7  C   UNL     1      11.043  59.073  19.724  1.00  0.00     0.269 C 
BRANCH   7   8
ATOM      8  O   UNL     1      11.872  59.571  18.671  1.00  0.00    -0.459 OA
BRANCH   8   9
ATOM      9  C   UNL     1      11.860  59.066  17.357  1.00  0.00     0.338 C 
ATOM     10  O   UNL     1      12.449  57.978  17.115  1.00  0.00    -0.246 OA
BRANCH   9  11
ATOM     11  C   UNL     1      11.168  59.766  16.260  1.00  0.00     0.067 A 
ATOM     12  C   UNL     1       9.904  59.333  15.834  1.00  0.00     0.066 A 
ATOM     13  C   UNL     1       9.281  59.935  14.738  1.00  0.00     0.162 A 
ATOM     14  C   UNL     1      11.802  60.818  15.590  1.00  0.00     0.066 A 
ATOM     15  C   UNL     1       9.923  60.986  14.055  1.00  0.00     0.200 A 
ATOM     16  C   UNL     1      11.191  61.422  14.480  1.00  0.00     0.162 A 
BRANCH  13  17
ATOM     17  O   UNL     1       8.029  59.473  14.335  1.00  0.00    -0.504 OA
ATOM     18  H   UNL     1       7.420  60.021  13.735  1.00  0.00     0.293 HD
ENDBRANCH  13  17
BRANCH  15  19
ATOM     19  O   UNL     1       9.293  61.585  12.962  1.00  0.00    -0.502 OA
ATOM     20  H   UNL     1       8.504  61.160  12.494  1.00  0.00     0.293 HD
ENDBRANCH  15  19
BRANCH  16  21
ATOM     21  O   UNL     1      11.844  62.448  13.800  1.00  0.00    -0.504 OA
ATOM     22  H   UNL     1      12.777  62.323  13.423  1.00  0.00     0.293 HD
ENDBRANCH  16  21
ENDBRANCH   9  11
ENDBRANCH   8   9
ENDBRANCH   7   8
ENDBRANCH   1   7
BRANCH   2  23
ATOM     23  O   UNL     1      12.351  57.958  22.814  1.00  0.00    -0.452 OA
BRANCH  23  24
ATOM     24  C   UNL     1      12.587  56.578  22.851  1.00  0.00     0.338 C 
ATOM     25  O   UNL     1      11.619  55.770  22.780  1.00  0.00    -0.246 OA
BRANCH  24  26
ATOM     26  C   UNL     1      13.966  56.070  23.016  1.00  0.00     0.067 A 
ATOM     27  C   UNL     1      14.997  56.506  22.167  1.00  0.00     0.066 A 
ATOM     28  C   UNL     1      14.249  55.101  23.994  1.00  0.00     0.066 A 
ATOM     29  C   UNL     1      16.290  55.986  22.288  1.00  0.00     0.162 A 
ATOM     30  C   UNL     1      15.537  54.568  24.115  1.00  0.00     0.162 A 
ATOM     31  C   UNL     1      16.565  55.012  23.264  1.00  0.00     0.200 A 
BRANCH  29  32
ATOM     32  O   UNL     1      17.285  56.446  21.429  1.00  0.00    -0.504 OA
ATOM     33  H   UNL     1      18.182  56.773  21.768  1.00  0.00     0.293 HD
ENDBRANCH  29  32
BRANCH  30  34
ATOM     34  O   UNL     1      15.800  53.591  25.075  1.00  0.00    -0.504 OA
ATOM     35  H   UNL     1      15.926  52.618  24.822  1.00  0.00     0.293 HD
ENDBRANCH  30  34
BRANCH  31  36
ATOM     36  O   UNL     1      17.855  54.488  23.370  1.00  0.00    -0.502 OA
ATOM     37  H   UNL     1      18.556  54.900  23.974  1.00  0.00     0.293 HD
ENDBRANCH  31  36
ENDBRANCH  24  26
ENDBRANCH  23  24
ENDBRANCH   2  23
BRANCH   3  38
ATOM     38  O   UNL     1       9.143  59.734  22.799  1.00  0.00    -0.450 OA
BRANCH  38  39
ATOM     39  C   UNL     1       8.810  59.767  21.442  1.00  0.00     0.338 C 
ATOM     40  O   UNL     1       9.116  60.762  20.729  1.00  0.00    -0.246 OA
BRANCH  39  41
ATOM     41  C   UNL     1       8.099  58.613  20.858  1.00  0.00     0.067 A 
ATOM     42  C   UNL     1       8.210  57.352  21.471  1.00  0.00     0.066 A 
ATOM     43  C   UNL     1       7.308  58.749  19.704  1.00  0.00     0.066 A 
ATOM     44  C   UNL     1       7.533  56.245  20.948  1.00  0.00     0.162 A 
ATOM     45  C   UNL     1       6.642  57.637  19.168  1.00  0.00     0.162 A 
ATOM     46  C   UNL     1       6.742  56.386  19.804  1.00  0.00     0.200 A 
BRANCH  44  47
ATOM     47  O   UNL     1       7.638  54.999  21.565  1.00  0.00    -0.504 OA
ATOM     48  H   UNL     1       6.935  54.281  21.430  1.00  0.00     0.293 HD
ENDBRANCH  44  47
BRANCH  45  49
ATOM     49  O   UNL     1       5.898  57.761  17.993  1.00  0.00    -0.504 OA
ATOM     50  H   UNL     1       4.889  57.850  18.000  1.00  0.00     0.293 HD
ENDBRANCH  45  49
BRANCH  46  51
ATOM     51  O   UNL     1       6.068  55.271  19.301  1.00  0.00    -0.502 OA
ATOM     52  H   UNL     1       6.080  54.382  19.782  1.00  0.00     0.293 HD
ENDBRANCH  46  51
ENDBRANCH  39  41
ENDBRANCH  38  39
ENDBRANCH   3  38
BRANCH   5  53
ATOM     53  O   UNL     1      11.158  62.696  22.681  1.00  0.00    -0.428 OA
BRANCH  53  54
ATOM     54  C   UNL     1      12.029  63.791  22.685  1.00  0.00     0.340 C 
ATOM     55  O   UNL     1      13.089  63.751  23.370  1.00  0.00    -0.246 OA
BRANCH  54  56
ATOM     56  C   UNL     1      11.741  64.963  21.830  1.00  0.00     0.067 A 
ATOM     57  C   UNL     1      11.830  64.869  20.434  1.00  0.00     0.066 A 
ATOM     58  C   UNL     1      11.305  66.164  22.409  1.00  0.00     0.066 A 
ATOM     59  C   UNL     1      11.470  65.953  19.624  1.00  0.00     0.162 A 
ATOM     60  C   UNL     1      10.950  67.259  21.611  1.00  0.00     0.162 A 
ATOM     61  C   UNL     1      11.035  67.154  20.202  1.00  0.00     0.200 A 
BRANCH  59  62
ATOM     62  O   UNL     1      11.528  65.835  18.235  1.00  0.00    -0.504 OA
ATOM     63  H   UNL     1      11.525  66.650  17.635  1.00  0.00     0.293 HD
ENDBRANCH  59  62
BRANCH  60  64
ATOM     64  O   UNL     1      10.509  68.416  22.258  1.00  0.00    -0.504 OA
ATOM     65  H   UNL     1       9.971  69.145  21.815  1.00  0.00     0.293 HD
ENDBRANCH  60  64
BRANCH  61  66
ATOM     66  O   UNL     1      10.697  68.207  19.350  1.00  0.00    -0.502 OA
ATOM     67  H   UNL     1      10.863  69.181  19.568  1.00  0.00     0.293 HD
ENDBRANCH  61  66
ENDBRANCH  54  56
ENDBRANCH  53  54
ENDBRANCH   5  53
BRANCH   4  68
ATOM     68  O   UNL     1      10.426  61.270  24.694  1.00  0.00    -0.448 OA
BRANCH  68  69
ATOM     69  C   UNL     1      10.835  62.519  25.175  1.00  0.00     0.339 C 
ATOM     70  O   UNL     1      12.003  62.667  25.632  1.00  0.00    -0.246 OA
BRANCH  69  71
ATOM     71  C   UNL     1       9.892  63.656  25.170  1.00  0.00     0.067 A 
ATOM     72  C   UNL     1      10.350  64.954  24.900  1.00  0.00     0.066 A 
ATOM     73  C   UNL     1       8.523  63.446  25.391  1.00  0.00     0.066 A 
ATOM     74  C   UNL     1       9.456  66.033  24.836  1.00  0.00     0.162 A 
ATOM     75  C   UNL     1       7.621  64.515  25.338  1.00  0.00     0.162 A 
ATOM     76  C   UNL     1       8.076  65.811  25.056  1.00  0.00     0.200 A 
BRANCH  74  77
ATOM     77  O   UNL     1       9.981  67.295  24.547  1.00  0.00    -0.504 OA
ATOM     78  H   UNL     1       9.652  68.153  24.966  1.00  0.00     0.293 HD
ENDBRANCH  74  77
BRANCH  75  79
ATOM     79  O   UNL     1       6.263  64.294  25.563  1.00  0.00    -0.504 OA
ATOM     80  H   UNL     1       5.554  64.911  25.186  1.00  0.00     0.293 HD
ENDBRANCH  75  79
BRANCH  76  81
ATOM     81  O   UNL     1       7.131  66.838  25.000  1.00  0.00    -0.502 OA
ATOM     82  H   UNL     1       7.362  67.815  24.894  1.00  0.00     0.293 HD
ENDBRANCH  76  81
ENDBRANCH  69  71
ENDBRANCH  68  69
ENDBRANCH   4  68
TORSDOF 31
ENDMDL
MODEL 3
REMARK VINA RESULT:    93.439      0.224      2.070
REMARK INTER + INTRA:         228.875
REMARK INTER:                 222.072
REMARK INTRA:                   6.803
REMARK UNBOUND:                 7.068
REMARK SMILES O=C(OC[C@H]1O[C@@H](OC(=O)c2cc(O)c(O)c(O)c2)[C@@H](OC(=O)c2cc(O)c(O)c(O)c2)[C@@H](OC(=O)c2cc(O)c(O)c(O)c2)[C@@H]1OC(=O)c1cc(O)c(O)c(O)c1)c1cc(O)c(O)c(O)c1
REMARK SMILES IDX 5 1 46 2 33 3 20 4 7 5 6 6 4 7 3 8 2 9 1 10 59 11 60 12
REMARK SMILES IDX 61 13 67 14 63 15 65 16 62 17 64 19 66 21 47 23 48 24 49 25
REMARK SMILES IDX 50 26 58 27 51 28 56 29 52 30 54 31 57 32 53 34 55 36 34 38
REMARK SMILES IDX 35 39 36 40 37 41 45 42 38 43 43 44 39 45 41 46 44 47 40 49
REMARK SMILES IDX 42 51 8 53 9 54 10 55 11 56 19 57 12 58 17 59 13 60 15 61
REMARK SMILES IDX 18 62 14 64 16 66 21 68 22 69 23 70 24 71 32 72 25 73 30 74
REMARK SMILES IDX 26 75 28 76 31 77 27 79 29 81
REMARK H PARENT 62 18 64 20 66 22 57 33 53 35 55 37 44 48 40 50 42 52 18 63
REMARK H PARENT 14 65 16 67 31 78 27 80 29 82
REMARK Flexibility Score: inf
ROOT
ATOM      1  C   UNL     1      11.609  59.534  21.079  1.00  0.00     0.205 C 
ATOM      2  C   UNL     1      11.252  58.530  22.223  1.00  0.00     0.254 C 
ATOM      3  C   UNL     1      10.486  59.256  23.346  1.00  0.00     0.267 C 
ATOM      4  C   UNL     1      11.293  60.494  23.779  1.00  0.00     0.290 C 
ATOM      5  C   UNL     1      11.669  61.364  22.546  1.00  0.00     0.357 C 
ATOM      6  O   UNL     1      11.116  60.836  21.349  1.00  0.00    -0.329 OA
ENDROOT
BRANCH   1   7
ATOM      7  C   UNL     1      11.023  59.089  19.727  1.00  0.00     0.269 C 
BRANCH   7   8
ATOM      8  O   UNL     1      11.841  59.560  18.653  1.00  0.00    -0.459 OA
BRANCH   8   9
ATOM      9  C   UNL     1      11.791  59.043  17.345  1.00  0.00     0.338 C 
ATOM     10  O   UNL     1      12.295  57.910  17.115  1.00  0.00    -0.246 OA
BRANCH   9  11
ATOM     11  C   UNL     1      11.157  59.782  16.239  1.00  0.00     0.067 A 
ATOM     12  C   UNL     1       9.910  59.374  15.742  1.00  0.00     0.066 A 
ATOM     13  C   UNL     1       9.344  60.016  14.637  1.00  0.00     0.162 A 
ATOM     14  C   UNL     1      11.829  60.849  15.632  1.00  0.00     0.066 A 
ATOM     15  C   UNL     1      10.024  61.081  14.017  1.00  0.00     0.200 A 
ATOM     16  C   UNL     1      11.275  61.492  14.514  1.00  0.00     0.162 A 
BRANCH  13  17
ATOM     17  O   UNL     1       8.108  59.578  14.164  1.00  0.00    -0.504 OA
ATOM     18  H   UNL     1       7.800  58.616  14.268  1.00  0.00     0.293 HD
ENDBRANCH  13  17
BRANCH  15  19
ATOM     19  O   UNL     1       9.451  61.718  12.916  1.00  0.00    -0.502 OA
ATOM     20  H   UNL     1       9.398  62.726  12.841  1.00  0.00     0.293 HD
ENDBRANCH  15  19
BRANCH  16  21
ATOM     21  O   UNL     1      11.967  62.531  13.896  1.00  0.00    -0.504 OA
ATOM     22  H   UNL     1      12.675  62.351  13.193  1.00  0.00     0.293 HD
ENDBRANCH  16  21
ENDBRANCH   9  11
ENDBRANCH   8   9
ENDBRANCH   7   8
ENDBRANCH   1   7
BRANCH   2  23
ATOM     23  O   UNL     1      12.454  57.977  22.764  1.00  0.00    -0.452 OA
BRANCH  23  24
ATOM     24  C   UNL     1      12.654  56.601  22.921  1.00  0.00     0.338 C 
ATOM     25  O   UNL     1      11.662  55.830  23.051  1.00  0.00    -0.246 OA
BRANCH  24  26
ATOM     26  C   UNL     1      14.027  56.055  22.976  1.00  0.00     0.067 A 
ATOM     27  C   UNL     1      14.377  55.084  23.929  1.00  0.00     0.066 A 
ATOM     28  C   UNL     1      15.015  56.544  22.104  1.00  0.00     0.066 A 
ATOM     29  C   UNL     1      15.688  54.607  24.015  1.00  0.00     0.162 A 
ATOM     30  C   UNL     1      16.333  56.079  22.190  1.00  0.00     0.162 A 
ATOM     31  C   UNL     1      16.674  55.105  23.144  1.00  0.00     0.200 A 
BRANCH  29  32
ATOM     32  O   UNL     1      15.994  53.641  24.972  1.00  0.00    -0.504 OA
ATOM     33  H   UNL     1      15.672  52.684  24.895  1.00  0.00     0.293 HD
ENDBRANCH  29  32
BRANCH  30  34
ATOM     34  O   UNL     1      17.309  56.588  21.333  1.00  0.00    -0.504 OA
ATOM     35  H   UNL     1      17.660  57.533  21.430  1.00  0.00     0.293 HD
ENDBRANCH  30  34
BRANCH  31  36
ATOM     36  O   UNL     1      17.984  54.633  23.244  1.00  0.00    -0.502 OA
ATOM     37  H   UNL     1      18.263  53.733  22.873  1.00  0.00     0.293 HD
ENDBRANCH  31  36
ENDBRANCH  24  26
ENDBRANCH  23  24
ENDBRANCH   2  23
BRANCH   3  38
ATOM     38  O   UNL     1       9.215  59.694  22.869  1.00  0.00    -0.450 OA
BRANCH  38  39
ATOM     39  C   UNL     1       8.841  59.742  21.524  1.00  0.00     0.338 C 
ATOM     40  O   UNL     1       9.109  60.753  20.818  1.00  0.00    -0.246 OA
BRANCH  39  41
ATOM     41  C   UNL     1       8.132  58.584  20.943  1.00  0.00     0.067 A 
ATOM     42  C   UNL     1       7.356  58.761  19.784  1.00  0.00     0.066 A 
ATOM     43  C   UNL     1       8.220  57.307  21.524  1.00  0.00     0.066 A 
ATOM     44  C   UNL     1       6.687  57.678  19.205  1.00  0.00     0.162 A 
ATOM     45  C   UNL     1       7.537  56.223  20.954  1.00  0.00     0.162 A 
ATOM     46  C   UNL     1       6.783  56.408  19.781  1.00  0.00     0.200 A 
BRANCH  44  47
ATOM     47  O   UNL     1       5.927  57.856  18.049  1.00  0.00    -0.504 OA
ATOM     48  H   UNL     1       5.314  58.656  17.938  1.00  0.00     0.293 HD
ENDBRANCH  44  47
BRANCH  45  49
ATOM     49  O   UNL     1       7.583  54.966  21.558  1.00  0.00    -0.504 OA
ATOM     50  H   UNL     1       8.023  54.814  22.459  1.00  0.00     0.293 HD
ENDBRANCH  45  49
BRANCH  46  51
ATOM     51  O   UNL     1       6.114  55.337  19.183  1.00  0.00    -0.502 OA
ATOM     52  H   UNL     1       6.431  54.932  18.313  1.00  0.00     0.293 HD
ENDBRANCH  46  51
ENDBRANCH  39  41
ENDBRANCH  38  39
ENDBRANCH   3  38
BRANCH   5  53
ATOM     53  O   UNL     1      11.171  62.693  22.706  1.00  0.00    -0.428 OA
BRANCH  53  54
ATOM     54  C   UNL     1      12.013  63.809  22.627  1.00  0.00     0.340 C 
ATOM     55  O   UNL     1      13.131  63.797  23.214  1.00  0.00    -0.246 OA
BRANCH  54  56
ATOM     56  C   UNL     1      11.622  64.969  21.799  1.00  0.00     0.067 A 
ATOM     57  C   UNL     1      11.211  66.168  22.398  1.00  0.00     0.066 A 
ATOM     58  C   UNL     1      11.729  64.904  20.402  1.00  0.00     0.066 A 
ATOM     59  C   UNL     1      10.927  67.294  21.614  1.00  0.00     0.162 A 
ATOM     60  C   UNL     1      11.440  66.019  19.606  1.00  0.00     0.162 A 
ATOM     61  C   UNL     1      11.032  67.228  20.218  1.00  0.00     0.200 A 
BRANCH  59  62
ATOM     62  O   UNL     1      10.553  68.491  22.224  1.00  0.00    -0.504 OA
ATOM     63  H   UNL     1      10.014  69.190  21.729  1.00  0.00     0.293 HD
ENDBRANCH  59  62
BRANCH  60  64
ATOM     64  O   UNL     1      11.586  65.883  18.223  1.00  0.00    -0.504 OA
ATOM     65  H   UNL     1      12.388  66.201  17.701  1.00  0.00     0.293 HD
ENDBRANCH  60  64
BRANCH  61  66
ATOM     66  O   UNL     1      10.730  68.376  19.482  1.00  0.00    -0.502 OA
ATOM     67  H   UNL     1      10.670  69.301  19.886  1.00  0.00     0.293 HD
ENDBRANCH  61  66
ENDBRANCH  54  56
ENDBRANCH  53  54
ENDBRANCH   5  53
BRANCH   4  68
ATOM     68  O   UNL     1      10.533  61.240  24.731  1.00  0.00    -0.448 OA
BRANCH  68  69
ATOM     69  C   UNL     1      10.924  62.504  25.191  1.00  0.00     0.339 C 
ATOM     70  O   UNL     1      12.098  62.682  25.622  1.00  0.00    -0.246 OA
BRANCH  69  71
ATOM     71  C   UNL     1       9.956  63.619  25.194  1.00  0.00     0.067 A 
ATOM     72  C   UNL     1      10.378  64.924  24.899  1.00  0.00     0.066 A 
ATOM     73  C   UNL     1       8.597  63.381  25.448  1.00  0.00     0.066 A 
ATOM     74  C   UNL     1       9.459  65.981  24.842  1.00  0.00     0.162 A 
ATOM     75  C   UNL     1       7.670  64.429  25.403  1.00  0.00     0.162 A 
ATOM     76  C   UNL     1       8.089  65.731  25.096  1.00  0.00     0.200 A 
BRANCH  74  77
ATOM     77  O   UNL     1       9.949  67.251  24.527  1.00  0.00    -0.504 OA
ATOM     78  H   UNL     1      10.906  67.438  24.264  1.00  0.00     0.293 HD
ENDBRANCH  74  77
BRANCH  75  79
ATOM     79  O   UNL     1       6.323  64.180  25.660  1.00  0.00    -0.504 OA
ATOM     80  H   UNL     1       5.939  64.251  26.595  1.00  0.00     0.293 HD
ENDBRANCH  75  79
BRANCH  76  81
ATOM     81  O   UNL     1       7.120  66.736  25.049  1.00  0.00    -0.502 OA
ATOM     82  H   UNL     1       6.575  66.960  24.228  1.00  0.00     0.293 HD
ENDBRANCH  76  81
ENDBRANCH  69  71
ENDBRANCH  68  69
ENDBRANCH   4  68
TORSDOF 31
ENDMDL
MODEL 4
REMARK VINA RESULT:    93.490      4.195      9.932
REMARK INTER + INTRA:         228.995
REMARK INTER:                 232.027
REMARK INTRA:                  -3.032
REMARK UNBOUND:                 7.068
REMARK SMILES O=C(OC[C@H]1O[C@@H](OC(=O)c2cc(O)c(O)c(O)c2)[C@@H](OC(=O)c2cc(O)c(O)c(O)c2)[C@@H](OC(=O)c2cc(O)c(O)c(O)c2)[C@@H]1OC(=O)c1cc(O)c(O)c(O)c1)c1cc(O)c(O)c(O)c1
REMARK SMILES IDX 5 1 46 2 33 3 20 4 7 5 6 6 4 7 3 8 2 9 1 10 59 11 60 12
REMARK SMILES IDX 61 13 67 14 63 15 65 16 62 17 64 19 66 21 47 23 48 24 49 25
REMARK SMILES IDX 50 26 58 27 51 28 56 29 52 30 54 31 57 32 53 34 55 36 34 38
REMARK SMILES IDX 35 39 36 40 37 41 45 42 38 43 43 44 39 45 41 46 44 47 40 49
REMARK SMILES IDX 42 51 8 53 9 54 10 55 11 56 19 57 12 58 17 59 13 60 15 61
REMARK SMILES IDX 18 62 14 64 16 66 21 68 22 69 23 70 24 71 32 72 25 73 30 74
REMARK SMILES IDX 26 75 28 76 31 77 27 79 29 81
REMARK H PARENT 62 18 64 20 66 22 57 33 53 35 55 37 44 48 40 50 42 52 18 63
REMARK H PARENT 14 65 16 67 31 78 27 80 29 82
REMARK Flexibility Score: inf
ROOT
ATOM      1  C   UNL     1       6.586  54.314  20.673  1.00  0.00     0.205 C 
ATOM      2  C   UNL     1       5.839  54.292  19.300  1.00  0.00     0.254 C 
ATOM      3  C   UNL     1       6.416  55.374  18.366  1.00  0.00     0.267 C 
ATOM      4  C   UNL     1       6.406  56.725  19.103  1.00  0.00     0.290 C 
ATOM      5  C   UNL     1       7.093  56.598  20.493  1.00  0.00     0.357 C 
ATOM      6  O   UNL     1       7.612  55.292  20.698  1.00  0.00    -0.329 OA
ENDROOT
BRANCH   1   7
ATOM      7  C   UNL     1       7.234  52.955  20.991  1.00  0.00     0.269 C 
BRANCH   7   8
ATOM      8  O   UNL     1       7.328  52.161  19.806  1.00  0.00    -0.459 OA
BRANCH   8   9
ATOM      9  C   UNL     1       8.414  51.315  19.512  1.00  0.00     0.338 C 
ATOM     10  O   UNL     1       8.257  50.067  19.596  1.00  0.00    -0.246 OA
BRANCH   9  11
ATOM     11  C   UNL     1       9.725  51.846  19.097  1.00  0.00     0.067 A 
ATOM     12  C   UNL     1      10.162  53.092  19.570  1.00  0.00     0.066 A 
ATOM     13  C   UNL     1      11.363  53.641  19.112  1.00  0.00     0.162 A 
ATOM     14  C   UNL     1      10.506  51.142  18.173  1.00  0.00     0.066 A 
ATOM     15  C   UNL     1      12.144  52.941  18.173  1.00  0.00     0.200 A 
ATOM     16  C   UNL     1      11.707  51.690  17.699  1.00  0.00     0.162 A 
BRANCH  13  17
ATOM     17  O   UNL     1      11.762  54.886  19.595  1.00  0.00    -0.504 OA
ATOM     18  H   UNL     1      12.311  54.985  20.443  1.00  0.00     0.293 HD
ENDBRANCH  13  17
BRANCH  15  19
ATOM     19  O   UNL     1      13.343  53.494  17.724  1.00  0.00    -0.502 OA
ATOM     20  H   UNL     1      13.374  54.336  17.164  1.00  0.00     0.293 HD
ENDBRANCH  15  19
BRANCH  16  21
ATOM     21  O   UNL     1      12.462  50.997  16.754  1.00  0.00    -0.504 OA
ATOM     22  H   UNL     1      12.074  50.218  16.235  1.00  0.00     0.293 HD
ENDBRANCH  16  21
ENDBRANCH   9  11
ENDBRANCH   8   9
ENDBRANCH   7   8
ENDBRANCH   1   7
BRANCH   2  23
ATOM     23  O   UNL     1       4.449  54.553  19.509  1.00  0.00    -0.452 OA
BRANCH  23  24
ATOM     24  C   UNL     1       3.438  53.886  18.808  1.00  0.00     0.338 C 
ATOM     25  O   UNL     1       3.416  53.920  17.547  1.00  0.00    -0.246 OA
BRANCH  24  26
ATOM     26  C   UNL     1       2.372  53.176  19.549  1.00  0.00     0.067 A 
ATOM     27  C   UNL     1       2.643  52.564  20.785  1.00  0.00     0.066 A 
ATOM     28  C   UNL     1       1.085  53.061  18.996  1.00  0.00     0.066 A 
ATOM     29  C   UNL     1       1.649  51.848  21.460  1.00  0.00     0.162 A 
ATOM     30  C   UNL     1       0.087  52.338  19.660  1.00  0.00     0.162 A 
ATOM     31  C   UNL     1       0.365  51.731  20.898  1.00  0.00     0.200 A 
BRANCH  29  32
ATOM     32  O   UNL     1       1.956  51.258  22.684  1.00  0.00    -0.504 OA
ATOM     33  H   UNL     1       1.833  51.745  23.563  1.00  0.00     0.293 HD
ENDBRANCH  29  32
BRANCH  30  34
ATOM     34  O   UNL     1      -1.179  52.212  19.091  1.00  0.00    -0.504 OA
ATOM     35  H   UNL     1      -1.887  51.614  19.497  1.00  0.00     0.293 HD
ENDBRANCH  30  34
BRANCH  31  36
ATOM     36  O   UNL     1      -0.618  51.003  21.571  1.00  0.00    -0.502 OA
ATOM     37  H   UNL     1      -1.543  51.379  21.745  1.00  0.00     0.293 HD
ENDBRANCH  31  36
ENDBRANCH  24  26
ENDBRANCH  23  24
ENDBRANCH   2  23
BRANCH   3  38
ATOM     38  O   UNL     1       7.765  55.059  18.025  1.00  0.00    -0.450 OA
BRANCH  38  39
ATOM     39  C   UNL     1       8.150  54.021  17.173  1.00  0.00     0.338 C 
ATOM     40  O   UNL     1       7.561  52.906  17.209  1.00  0.00    -0.246 OA
BRANCH  39  41
ATOM     41  C   UNL     1       9.258  54.256  16.225  1.00  0.00     0.067 A 
ATOM     42  C   UNL     1       9.307  53.524  15.026  1.00  0.00     0.066 A 
ATOM     43  C   UNL     1      10.263  55.200  16.496  1.00  0.00     0.066 A 
ATOM     44  C   UNL     1      10.336  53.739  14.103  1.00  0.00     0.162 A 
ATOM     45  C   UNL     1      11.306  55.405  15.581  1.00  0.00     0.162 A 
ATOM     46  C   UNL     1      11.330  54.685  14.373  1.00  0.00     0.200 A 
BRANCH  44  47
ATOM     47  O   UNL     1      10.375  53.018  12.910  1.00  0.00    -0.504 OA
ATOM     48  H   UNL     1       9.704  53.187  12.169  1.00  0.00     0.293 HD
ENDBRANCH  44  47
BRANCH  45  49
ATOM     49  O   UNL     1      12.331  56.306  15.872  1.00  0.00    -0.504 OA
ATOM     50  H   UNL     1      13.045  56.551  15.195  1.00  0.00     0.293 HD
ENDBRANCH  45  49
BRANCH  46  51
ATOM     51  O   UNL     1      12.346  54.890  13.436  1.00  0.00    -0.502 OA
ATOM     52  H   UNL     1      12.243  55.549  12.678  1.00  0.00     0.293 HD
ENDBRANCH  46  51
ENDBRANCH  39  41
ENDBRANCH  38  39
ENDBRANCH   3  38
BRANCH   5  53
ATOM     53  O   UNL     1       8.178  57.520  20.597  1.00  0.00    -0.428 OA
BRANCH  53  54
ATOM     54  C   UNL     1       8.003  58.807  21.118  1.00  0.00     0.340 C 
ATOM     55  O   UNL     1       6.841  59.288  21.233  1.00  0.00    -0.246 OA
BRANCH  54  56
ATOM     56  C   UNL     1       9.173  59.572  21.600  1.00  0.00     0.067 A 
ATOM     57  C   UNL     1      10.213  59.913  20.725  1.00  0.00     0.066 A 
ATOM     58  C   UNL     1       9.217  60.028  22.926  1.00  0.00     0.066 A 
ATOM     59  C   UNL     1      11.276  60.714  21.160  1.00  0.00     0.162 A 
ATOM     60  C   UNL     1      10.278  60.823  23.377  1.00  0.00     0.162 A 
ATOM     61  C   UNL     1      11.322  61.168  22.486  1.00  0.00     0.200 A 
BRANCH  59  62
ATOM     62  O   UNL     1      12.287  61.075  20.270  1.00  0.00    -0.504 OA
ATOM     63  H   UNL     1      12.966  60.401  19.940  1.00  0.00     0.293 HD
ENDBRANCH  59  62
BRANCH  60  64
ATOM     64  O   UNL     1      10.245  61.253  24.706  1.00  0.00    -0.504 OA
ATOM     65  H   UNL     1       9.973  62.180  24.998  1.00  0.00     0.293 HD
ENDBRANCH  60  64
BRANCH  61  66
ATOM     66  O   UNL     1      12.408  61.956  22.872  1.00  0.00    -0.502 OA
ATOM     67  H   UNL     1      13.131  61.643  23.506  1.00  0.00     0.293 HD
ENDBRANCH  61  66
ENDBRANCH  54  56
ENDBRANCH  53  54
ENDBRANCH   5  53
BRANCH   4  68
ATOM     68  O   UNL     1       7.052  57.708  18.291  1.00  0.00    -0.448 OA
BRANCH  68  69
ATOM     69  C   UNL     1       6.347  58.685  17.579  1.00  0.00     0.339 C 
ATOM     70  O   UNL     1       5.265  59.144  18.041  1.00  0.00    -0.246 OA
BRANCH  69  71
ATOM     71  C   UNL     1       6.856  59.158  16.275  1.00  0.00     0.067 A 
ATOM     72  C   UNL     1       5.968  59.627  15.296  1.00  0.00     0.066 A 
ATOM     73  C   UNL     1       8.234  59.187  16.018  1.00  0.00     0.066 A 
ATOM     74  C   UNL     1       6.443  60.132  14.077  1.00  0.00     0.162 A 
ATOM     75  C   UNL     1       8.722  59.681  14.803  1.00  0.00     0.162 A 
ATOM     76  C   UNL     1       7.836  60.161  13.828  1.00  0.00     0.200 A 
BRANCH  74  77
ATOM     77  O   UNL     1       5.501  60.596  13.156  1.00  0.00    -0.504 OA
ATOM     78  H   UNL     1       5.720  60.848  12.202  1.00  0.00     0.293 HD
ENDBRANCH  74  77
BRANCH  75  79
ATOM     79  O   UNL     1      10.094  59.701  14.557  1.00  0.00    -0.504 OA
ATOM     80  H   UNL     1      10.768  59.513  15.290  1.00  0.00     0.293 HD
ENDBRANCH  75  79
BRANCH  76  81
ATOM     81  O   UNL     1       8.376  60.658  12.640  1.00  0.00    -0.502 OA
ATOM     82  H   UNL     1       7.825  60.957  11.848  1.00  0.00     0.293 HD
ENDBRANCH  76  81
ENDBRANCH  69  71
ENDBRANCH  68  69
ENDBRANCH   4  68
TORSDOF 31
ENDMDL
MODEL 5
REMARK VINA RESULT:    94.329      3.989     11.065
REMARK INTER + INTRA:         230.987
REMARK INTER:                 230.627
REMARK INTRA:                   0.360
REMARK UNBOUND:                 7.068
REMARK SMILES O=C(OC[C@H]1O[C@@H](OC(=O)c2cc(O)c(O)c(O)c2)[C@@H](OC(=O)c2cc(O)c(O)c(O)c2)[C@@H](OC(=O)c2cc(O)c(O)c(O)c2)[C@@H]1OC(=O)c1cc(O)c(O)c(O)c1)c1cc(O)c(O)c(O)c1
REMARK SMILES IDX 5 1 46 2 33 3 20 4 7 5 6 6 4 7 3 8 2 9 1 10 59 11 60 12
REMARK SMILES IDX 61 13 67 14 63 15 65 16 62 17 64 19 66 21 47 23 48 24 49 25
REMARK SMILES IDX 50 26 58 27 51 28 56 29 52 30 54 31 57 32 53 34 55 36 34 38
REMARK SMILES IDX 35 39 36 40 37 41 45 42 38 43 43 44 39 45 41 46 44 47 40 49
REMARK SMILES IDX 42 51 8 53 9 54 10 55 11 56 19 57 12 58 17 59 13 60 15 61
REMARK SMILES IDX 18 62 14 64 16 66 21 68 22 69 23 70 24 71 32 72 25 73 30 74
REMARK SMILES IDX 26 75 28 76 31 77 27 79 29 81
REMARK H PARENT 62 18 64 20 66 22 57 33 53 35 55 37 44 48 40 50 42 52 18 63
REMARK H PARENT 14 65 16 67 31 78 27 80 29 82
REMARK Flexibility Score: inf
ROOT
ATOM      1  C   UNL     1       7.526  56.680  19.975  1.00  0.00     0.205 C 
ATOM      2  C   UNL     1       6.083  56.739  19.377  1.00  0.00     0.254 C 
ATOM      3  C   UNL     1       5.545  55.313  19.147  1.00  0.00     0.267 C 
ATOM      4  C   UNL     1       6.573  54.521  18.320  1.00  0.00     0.290 C 
ATOM      5  C   UNL     1       7.986  54.614  18.963  1.00  0.00     0.357 C 
ATOM      6  O   UNL     1       7.956  55.344  20.180  1.00  0.00    -0.329 OA
ENDROOT
BRANCH   1   7
ATOM      7  C   UNL     1       7.612  57.406  21.330  1.00  0.00     0.269 C 
BRANCH   7   8
ATOM      8  O   UNL     1       8.180  58.707  21.160  1.00  0.00    -0.459 OA
BRANCH   8   9
ATOM      9  C   UNL     1       9.556  58.982  21.276  1.00  0.00     0.338 C 
ATOM     10  O   UNL     1      10.372  58.338  20.562  1.00  0.00    -0.246 OA
BRANCH   9  11
ATOM     11  C   UNL     1      10.069  60.011  22.199  1.00  0.00     0.067 A 
ATOM     12  C   UNL     1       9.331  60.366  23.338  1.00  0.00     0.066 A 
ATOM     13  C   UNL     1       9.768  61.401  24.170  1.00  0.00     0.162 A 
ATOM     14  C   UNL     1      11.258  60.687  21.903  1.00  0.00     0.066 A 
ATOM     15  C   UNL     1      10.957  62.092  23.868  1.00  0.00     0.200 A 
ATOM     16  C   UNL     1      11.699  61.736  22.725  1.00  0.00     0.162 A 
BRANCH  13  17
ATOM     17  O   UNL     1       9.006  61.735  25.288  1.00  0.00    -0.504 OA
ATOM     18  H   UNL     1       8.448  62.582  25.326  1.00  0.00     0.293 HD
ENDBRANCH  13  17
BRANCH  15  19
ATOM     19  O   UNL     1      11.388  63.122  24.705  1.00  0.00    -0.502 OA
ATOM     20  H   UNL     1      11.836  63.956  24.349  1.00  0.00     0.293 HD
ENDBRANCH  15  19
BRANCH  16  21
ATOM     21  O   UNL     1      12.866  62.427  22.405  1.00  0.00    -0.504 OA
ATOM     22  H   UNL     1      13.712  62.316  22.952  1.00  0.00     0.293 HD
ENDBRANCH  16  21
ENDBRANCH   9  11
ENDBRANCH   8   9
ENDBRANCH   7   8
ENDBRANCH   1   7
BRANCH   2  23
ATOM     23  O   UNL     1       6.114  57.430  18.126  1.00  0.00    -0.452 OA
BRANCH  23  24
ATOM     24  C   UNL     1       6.561  58.750  17.999  1.00  0.00     0.338 C 
ATOM     25  O   UNL     1       6.612  59.500  19.013  1.00  0.00    -0.246 OA
BRANCH  24  26
ATOM     26  C   UNL     1       6.936  59.277  16.669  1.00  0.00     0.067 A 
ATOM     27  C   UNL     1       5.952  59.716  15.767  1.00  0.00     0.066 A 
ATOM     28  C   UNL     1       8.284  59.295  16.271  1.00  0.00     0.066 A 
ATOM     29  C   UNL     1       6.302  60.165  14.490  1.00  0.00     0.162 A 
ATOM     30  C   UNL     1       8.643  59.733  14.991  1.00  0.00     0.162 A 
ATOM     31  C   UNL     1       7.653  60.174  14.096  1.00  0.00     0.200 A 
BRANCH  29  32
ATOM     32  O   UNL     1       5.297  60.594  13.626  1.00  0.00    -0.504 OA
ATOM     33  H   UNL     1       4.867  61.507  13.711  1.00  0.00     0.293 HD
ENDBRANCH  29  32
BRANCH  30  34
ATOM     34  O   UNL     1       9.982  59.726  14.601  1.00  0.00    -0.504 OA
ATOM     35  H   UNL     1      10.533  60.575  14.579  1.00  0.00     0.293 HD
ENDBRANCH  30  34
BRANCH  31  36
ATOM     36  O   UNL     1       7.993  60.611  12.814  1.00  0.00    -0.502 OA
ATOM     37  H   UNL     1       8.784  60.231  12.308  1.00  0.00     0.293 HD
ENDBRANCH  31  36
ENDBRANCH  24  26
ENDBRANCH  23  24
ENDBRANCH   2  23
BRANCH   3  38
ATOM     38  O   UNL     1       5.368  54.648  20.397  1.00  0.00    -0.450 OA
BRANCH  38  39
ATOM     39  C   UNL     1       4.197  54.678  21.158  1.00  0.00     0.338 C 
ATOM     40  O   UNL     1       4.131  55.372  22.210  1.00  0.00    -0.246 OA
BRANCH  39  41
ATOM     41  C   UNL     1       3.036  53.887  20.705  1.00  0.00     0.067 A 
ATOM     42  C   UNL     1       2.493  52.909  21.556  1.00  0.00     0.066 A 
ATOM     43  C   UNL     1       2.460  54.094  19.440  1.00  0.00     0.066 A 
ATOM     44  C   UNL     1       1.384  52.156  21.157  1.00  0.00     0.162 A 
ATOM     45  C   UNL     1       1.358  53.329  19.031  1.00  0.00     0.162 A 
ATOM     46  C   UNL     1       0.809  52.370  19.901  1.00  0.00     0.200 A 
BRANCH  44  47
ATOM     47  O   UNL     1       0.842  51.194  22.009  1.00  0.00    -0.504 OA
ATOM     48  H   UNL     1       0.585  51.418  22.964  1.00  0.00     0.293 HD
ENDBRANCH  44  47
BRANCH  45  49
ATOM     49  O   UNL     1       0.817  53.499  17.756  1.00  0.00    -0.504 OA
ATOM     50  H   UNL     1       0.394  54.371  17.460  1.00  0.00     0.293 HD
ENDBRANCH  45  49
BRANCH  46  51
ATOM     51  O   UNL     1      -0.303  51.613  19.524  1.00  0.00    -0.502 OA
ATOM     52  H   UNL     1      -0.457  50.681  19.883  1.00  0.00     0.293 HD
ENDBRANCH  46  51
ENDBRANCH  39  41
ENDBRANCH  38  39
ENDBRANCH   3  38
BRANCH   5  53
ATOM     53  O   UNL     1       8.488  53.308  19.250  1.00  0.00    -0.428 OA
BRANCH  53  54
ATOM     54  C   UNL     1       9.578  52.769  18.556  1.00  0.00     0.340 C 
ATOM     55  O   UNL     1      10.096  51.684  18.941  1.00  0.00    -0.246 OA
BRANCH  54  56
ATOM     56  C   UNL     1      10.074  53.435  17.332  1.00  0.00     0.067 A 
ATOM     57  C   UNL     1      11.003  54.481  17.415  1.00  0.00     0.066 A 
ATOM     58  C   UNL     1       9.671  52.976  16.069  1.00  0.00     0.066 A 
ATOM     59  C   UNL     1      11.540  55.050  16.252  1.00  0.00     0.162 A 
ATOM     60  C   UNL     1      10.192  53.541  14.899  1.00  0.00     0.162 A 
ATOM     61  C   UNL     1      11.136  54.592  14.990  1.00  0.00     0.200 A 
BRANCH  59  62
ATOM     62  O   UNL     1      12.491  56.065  16.348  1.00  0.00    -0.504 OA
ATOM     63  H   UNL     1      13.276  56.116  15.711  1.00  0.00     0.293 HD
ENDBRANCH  59  62
BRANCH  60  64
ATOM     64  O   UNL     1       9.756  53.020  13.678  1.00  0.00    -0.504 OA
ATOM     65  H   UNL     1       9.117  52.245  13.587  1.00  0.00     0.293 HD
ENDBRANCH  60  64
BRANCH  61  66
ATOM     66  O   UNL     1      11.694  55.198  13.863  1.00  0.00    -0.502 OA
ATOM     67  H   UNL     1      11.161  55.458  13.043  1.00  0.00     0.293 HD
ENDBRANCH  61  66
ENDBRANCH  54  56
ENDBRANCH  53  54
ENDBRANCH   5  53
BRANCH   4  68
ATOM     68  O   UNL     1       6.140  53.164  18.207  1.00  0.00    -0.448 OA
BRANCH  68  69
ATOM     69  C   UNL     1       4.895  52.807  17.674  1.00  0.00     0.339 C 
ATOM     70  O   UNL     1       4.382  51.691  17.965  1.00  0.00    -0.246 OA
BRANCH  69  71
ATOM     71  C   UNL     1       4.197  53.727  16.753  1.00  0.00     0.067 A 
ATOM     72  C   UNL     1       3.189  54.577  17.230  1.00  0.00     0.066 A 
ATOM     73  C   UNL     1       4.564  53.793  15.401  1.00  0.00     0.066 A 
ATOM     74  C   UNL     1       2.559  55.494  16.378  1.00  0.00     0.162 A 
ATOM     75  C   UNL     1       3.938  54.698  14.537  1.00  0.00     0.162 A 
ATOM     76  C   UNL     1       2.938  55.557  15.016  1.00  0.00     0.200 A 
BRANCH  74  77
ATOM     77  O   UNL     1       1.575  56.320  16.926  1.00  0.00    -0.504 OA
ATOM     78  H   UNL     1       1.151  56.170  17.831  1.00  0.00     0.293 HD
ENDBRANCH  74  77
BRANCH  75  79
ATOM     79  O   UNL     1       4.308  54.752  13.194  1.00  0.00    -0.504 OA
ATOM     80  H   UNL     1       3.938  54.100  12.513  1.00  0.00     0.293 HD
ENDBRANCH  75  79
BRANCH  76  81
ATOM     81  O   UNL     1       2.357  56.452  14.114  1.00  0.00    -0.502 OA
ATOM     82  H   UNL     1       2.101  56.215  13.166  1.00  0.00     0.293 HD
ENDBRANCH  76  81
ENDBRANCH  69  71
ENDBRANCH  68  69
ENDBRANCH   4  68
TORSDOF 31
ENDMDL
MODEL 6
REMARK VINA RESULT:    94.606      3.947     10.671
REMARK INTER + INTRA:         231.645
REMARK INTER:                 229.716
REMARK INTRA:                   1.929
REMARK UNBOUND:                 7.068
REMARK SMILES O=C(OC[C@H]1O[C@@H](OC(=O)c2cc(O)c(O)c(O)c2)[C@@H](OC(=O)c2cc(O)c(O)c(O)c2)[C@@H](OC(=O)c2cc(O)c(O)c(O)c2)[C@@H]1OC(=O)c1cc(O)c(O)c(O)c1)c1cc(O)c(O)c(O)c1
REMARK SMILES IDX 5 1 46 2 33 3 20 4 7 5 6 6 4 7 3 8 2 9 1 10 59 11 60 12
REMARK SMILES IDX 61 13 67 14 63 15 65 16 62 17 64 19 66 21 47 23 48 24 49 25
REMARK SMILES IDX 50 26 58 27 51 28 56 29 52 30 54 31 57 32 53 34 55 36 34 38
REMARK SMILES IDX 35 39 36 40 37 41 45 42 38 43 43 44 39 45 41 46 44 47 40 49
REMARK SMILES IDX 42 51 8 53 9 54 10 55 11 56 19 57 12 58 17 59 13 60 15 61
REMARK SMILES IDX 18 62 14 64 16 66 21 68 22 69 23 70 24 71 32 72 25 73 30 74
REMARK SMILES IDX 26 75 28 76 31 77 27 79 29 81
REMARK H PARENT 62 18 64 20 66 22 57 33 53 35 55 37 44 48 40 50 42 52 18 63
REMARK H PARENT 14 65 16 67 31 78 27 80 29 82
REMARK Flexibility Score: inf
ROOT
ATOM      1  C   UNL     1       6.646  57.035  20.597  1.00  0.00     0.205 C 
ATOM      2  C   UNL     1       6.644  55.477  20.473  1.00  0.00     0.254 C 
ATOM      3  C   UNL     1       7.375  55.047  19.186  1.00  0.00     0.267 C 
ATOM      4  C   UNL     1       6.769  55.806  17.992  1.00  0.00     0.290 C 
ATOM      5  C   UNL     1       6.738  57.336  18.272  1.00  0.00     0.357 C 
ATOM      6  O   UNL     1       7.338  57.648  19.521  1.00  0.00    -0.329 OA
ENDROOT
BRANCH   1   7
ATOM      7  C   UNL     1       7.315  57.502  21.902  1.00  0.00     0.269 C 
BRANCH   7   8
ATOM      8  O   UNL     1       7.958  58.764  21.706  1.00  0.00    -0.459 OA
BRANCH   8   9
ATOM      9  C   UNL     1       9.355  58.937  21.678  1.00  0.00     0.338 C 
ATOM     10  O   UNL     1      10.069  58.057  21.126  1.00  0.00    -0.246 OA
BRANCH   9  11
ATOM     11  C   UNL     1      10.005  60.122  22.265  1.00  0.00     0.067 A 
ATOM     12  C   UNL     1      11.191  60.624  21.708  1.00  0.00     0.066 A 
ATOM     13  C   UNL     1      11.859  61.692  22.312  1.00  0.00     0.162 A 
ATOM     14  C   UNL     1       9.481  60.707  23.424  1.00  0.00     0.066 A 
ATOM     15  C   UNL     1      11.341  62.274  23.484  1.00  0.00     0.200 A 
ATOM     16  C   UNL     1      10.151  61.773  24.044  1.00  0.00     0.162 A 
BRANCH  13  17
ATOM     17  O   UNL     1      13.041  62.159  21.738  1.00  0.00    -0.504 OA
ATOM     18  H   UNL     1      13.262  63.149  21.690  1.00  0.00     0.293 HD
ENDBRANCH  13  17
BRANCH  15  19
ATOM     19  O   UNL     1      12.013  63.343  24.079  1.00  0.00    -0.502 OA
ATOM     20  H   UNL     1      12.560  63.236  24.923  1.00  0.00     0.293 HD
ENDBRANCH  15  19
BRANCH  16  21
ATOM     21  O   UNL     1       9.640  62.327  25.216  1.00  0.00    -0.504 OA
ATOM     22  H   UNL     1      10.220  62.455  26.037  1.00  0.00     0.293 HD
ENDBRANCH  16  21
ENDBRANCH   9  11
ENDBRANCH   8   9
ENDBRANCH   7   8
ENDBRANCH   1   7
BRANCH   2  23
ATOM     23  O   UNL     1       5.297  55.004  20.421  1.00  0.00    -0.452 OA
BRANCH  23  24
ATOM     24  C   UNL     1       4.850  54.088  19.462  1.00  0.00     0.338 C 
ATOM     25  O   UNL     1       5.638  53.678  18.565  1.00  0.00    -0.246 OA
BRANCH  24  26
ATOM     26  C   UNL     1       3.443  53.633  19.475  1.00  0.00     0.067 A 
ATOM     27  C   UNL     1       2.929  52.921  20.572  1.00  0.00     0.066 A 
ATOM     28  C   UNL     1       2.616  53.864  18.362  1.00  0.00     0.066 A 
ATOM     29  C   UNL     1       1.615  52.445  20.562  1.00  0.00     0.162 A 
ATOM     30  C   UNL     1       1.302  53.382  18.340  1.00  0.00     0.162 A 
ATOM     31  C   UNL     1       0.794  52.673  19.443  1.00  0.00     0.200 A 
BRANCH  29  32
ATOM     32  O   UNL     1       1.142  51.745  21.671  1.00  0.00    -0.504 OA
ATOM     33  H   UNL     1       0.346  51.122  21.616  1.00  0.00     0.293 HD
ENDBRANCH  29  32
BRANCH  30  34
ATOM     34  O   UNL     1       0.498  53.599  17.221  1.00  0.00    -0.504 OA
ATOM     35  H   UNL     1      -0.282  54.244  17.244  1.00  0.00     0.293 HD
ENDBRANCH  30  34
BRANCH  31  36
ATOM     36  O   UNL     1      -0.513  52.183  19.435  1.00  0.00    -0.502 OA
ATOM     37  H   UNL     1      -1.201  52.493  18.759  1.00  0.00     0.293 HD
ENDBRANCH  31  36
ENDBRANCH  24  26
ENDBRANCH  23  24
ENDBRANCH   2  23
BRANCH   3  38
ATOM     38  O   UNL     1       8.759  55.380  19.273  1.00  0.00    -0.450 OA
BRANCH  38  39
ATOM     39  C   UNL     1       9.745  54.555  19.820  1.00  0.00     0.338 C 
ATOM     40  O   UNL     1      10.759  55.052  20.383  1.00  0.00    -0.246 OA
BRANCH  39  41
ATOM     41  C   UNL     1       9.575  53.091  19.732  1.00  0.00     0.067 A 
ATOM     42  C   UNL     1      10.544  52.324  19.061  1.00  0.00     0.066 A 
ATOM     43  C   UNL     1       8.467  52.448  20.308  1.00  0.00     0.066 A 
ATOM     44  C   UNL     1      10.415  50.933  18.977  1.00  0.00     0.162 A 
ATOM     45  C   UNL     1       8.327  51.056  20.211  1.00  0.00     0.162 A 
ATOM     46  C   UNL     1       9.314  50.297  19.558  1.00  0.00     0.200 A 
BRANCH  44  47
ATOM     47  O   UNL     1      11.383  50.175  18.319  1.00  0.00    -0.504 OA
ATOM     48  H   UNL     1      12.199  49.822  18.806  1.00  0.00     0.293 HD
ENDBRANCH  44  47
BRANCH  45  49
ATOM     49  O   UNL     1       7.201  50.423  20.739  1.00  0.00    -0.504 OA
ATOM     50  H   UNL     1       6.296  50.458  20.284  1.00  0.00     0.293 HD
ENDBRANCH  45  49
BRANCH  46  51
ATOM     51  O   UNL     1       9.208  48.907  19.469  1.00  0.00    -0.502 OA
ATOM     52  H   UNL     1       8.316  48.451  19.332  1.00  0.00     0.293 HD
ENDBRANCH  46  51
ENDBRANCH  39  41
ENDBRANCH  38  39
ENDBRANCH   3  38
BRANCH   5  53
ATOM     53  O   UNL     1       7.454  58.040  17.257  1.00  0.00    -0.428 OA
BRANCH  53  54
ATOM     54  C   UNL     1       6.893  59.130  16.581  1.00  0.00     0.340 C 
ATOM     55  O   UNL     1       5.808  59.632  16.988  1.00  0.00    -0.246 OA
BRANCH  54  56
ATOM     56  C   UNL     1       7.608  59.735  15.438  1.00  0.00     0.067 A 
ATOM     57  C   UNL     1       8.916  60.216  15.586  1.00  0.00     0.066 A 
ATOM     58  C   UNL     1       7.007  59.767  14.170  1.00  0.00     0.066 A 
ATOM     59  C   UNL     1       9.624  60.706  14.481  1.00  0.00     0.162 A 
ATOM     60  C   UNL     1       7.700  60.263  13.059  1.00  0.00     0.162 A 
ATOM     61  C   UNL     1       9.023  60.740  13.215  1.00  0.00     0.200 A 
BRANCH  59  62
ATOM     62  O   UNL     1      10.938  61.149  14.636  1.00  0.00    -0.504 OA
ATOM     63  H   UNL     1      11.611  60.625  15.181  1.00  0.00     0.293 HD
ENDBRANCH  59  62
BRANCH  60  64
ATOM     64  O   UNL     1       7.042  60.248  11.826  1.00  0.00    -0.504 OA
ATOM     65  H   UNL     1       7.390  60.692  10.990  1.00  0.00     0.293 HD
ENDBRANCH  60  64
BRANCH  61  66
ATOM     66  O   UNL     1       9.768  61.247  12.149  1.00  0.00    -0.502 OA
ATOM     67  H   UNL     1      10.226  62.149  12.162  1.00  0.00     0.293 HD
ENDBRANCH  61  66
ENDBRANCH  54  56
ENDBRANCH  53  54
ENDBRANCH   5  53
BRANCH   4  68
ATOM     68  O   UNL     1       7.520  55.507  16.814  1.00  0.00    -0.448 OA
BRANCH  68  69
ATOM     69  C   UNL     1       8.248  54.320  16.661  1.00  0.00     0.339 C 
ATOM     70  O   UNL     1       7.969  53.313  17.369  1.00  0.00    -0.246 OA
BRANCH  69  71
ATOM     71  C   UNL     1       9.359  54.258  15.689  1.00  0.00     0.067 A 
ATOM     72  C   UNL     1       9.299  53.375  14.602  1.00  0.00     0.066 A 
ATOM     73  C   UNL     1      10.465  55.111  15.817  1.00  0.00     0.066 A 
ATOM     74  C   UNL     1      10.320  53.347  13.641  1.00  0.00     0.162 A 
ATOM     75  C   UNL     1      11.495  55.088  14.870  1.00  0.00     0.162 A 
ATOM     76  C   UNL     1      11.430  54.214  13.775  1.00  0.00     0.200 A 
BRANCH  74  77
ATOM     77  O   UNL     1      10.186  52.452  12.576  1.00  0.00    -0.504 OA
ATOM     78  H   UNL     1       9.489  51.722  12.537  1.00  0.00     0.293 HD
ENDBRANCH  74  77
BRANCH  75  79
ATOM     79  O   UNL     1      12.591  55.938  15.009  1.00  0.00    -0.504 OA
ATOM     80  H   UNL     1      13.449  55.789  14.492  1.00  0.00     0.293 HD
ENDBRANCH  75  79
BRANCH  76  81
ATOM     81  O   UNL     1      12.478  54.243  12.852  1.00  0.00    -0.502 OA
ATOM     82  H   UNL     1      12.867  55.090  12.463  1.00  0.00     0.293 HD
ENDBRANCH  76  81
ENDBRANCH  69  71
ENDBRANCH  68  69
ENDBRANCH   4  68
TORSDOF 31
ENDMDL
MODEL 7
REMARK VINA RESULT:    94.652      4.193     10.722
REMARK INTER + INTRA:         231.753
REMARK INTER:                 233.227
REMARK INTRA:                  -1.474
REMARK UNBOUND:                 7.068
REMARK SMILES O=C(OC[C@H]1O[C@@H](OC(=O)c2cc(O)c(O)c(O)c2)[C@@H](OC(=O)c2cc(O)c(O)c(O)c2)[C@@H](OC(=O)c2cc(O)c(O)c(O)c2)[C@@H]1OC(=O)c1cc(O)c(O)c(O)c1)c1cc(O)c(O)c(O)c1
REMARK SMILES IDX 5 1 46 2 33 3 20 4 7 5 6 6 4 7 3 8 2 9 1 10 59 11 60 12
REMARK SMILES IDX 61 13 67 14 63 15 65 16 62 17 64 19 66 21 47 23 48 24 49 25
REMARK SMILES IDX 50 26 58 27 51 28 56 29 52 30 54 31 57 32 53 34 55 36 34 38
REMARK SMILES IDX 35 39 36 40 37 41 45 42 38 43 43 44 39 45 41 46 44 47 40 49
REMARK SMILES IDX 42 51 8 53 9 54 10 55 11 56 19 57 12 58 17 59 13 60 15 61
REMARK SMILES IDX 18 62 14 64 16 66 21 68 22 69 23 70 24 71 32 72 25 73 30 74
REMARK SMILES IDX 26 75 28 76 31 77 27 79 29 81
REMARK H PARENT 62 18 64 20 66 22 57 33 53 35 55 37 44 48 40 50 42 52 18 63
REMARK H PARENT 14 65 16 67 31 78 27 80 29 82
REMARK Flexibility Score: inf
ROOT
ATOM      1  C   UNL     1       5.782  57.044  19.188  1.00  0.00     0.205 C 
ATOM      2  C   UNL     1       7.323  56.798  19.289  1.00  0.00     0.254 C 
ATOM      3  C   UNL     1       7.661  55.363  18.837  1.00  0.00     0.267 C 
ATOM      4  C   UNL     1       6.779  54.374  19.620  1.00  0.00     0.290 C 
ATOM      5  C   UNL     1       5.280  54.776  19.522  1.00  0.00     0.357 C 
ATOM      6  O   UNL     1       5.100  55.908  18.683  1.00  0.00    -0.329 OA
ENDROOT
BRANCH   1   7
ATOM      7  C   UNL     1       5.454  58.229  18.263  1.00  0.00     0.269 C 
BRANCH   7   8
ATOM      8  O   UNL     1       6.609  58.602  17.507  1.00  0.00    -0.459 OA
BRANCH   8   9
ATOM      9  C   UNL     1       6.742  59.831  16.833  1.00  0.00     0.338 C 
ATOM     10  O   UNL     1       6.106  60.833  17.257  1.00  0.00    -0.246 OA
BRANCH   9  11
ATOM     11  C   UNL     1       7.613  59.983  15.653  1.00  0.00     0.067 A 
ATOM     12  C   UNL     1       8.970  60.297  15.816  1.00  0.00     0.066 A 
ATOM     13  C   UNL     1       9.781  60.528  14.701  1.00  0.00     0.162 A 
ATOM     14  C   UNL     1       7.072  59.885  14.366  1.00  0.00     0.066 A 
ATOM     15  C   UNL     1       9.237  60.443  13.405  1.00  0.00     0.200 A 
ATOM     16  C   UNL     1       7.875  60.128  13.241  1.00  0.00     0.162 A 
BRANCH  13  17
ATOM     17  O   UNL     1      11.123  60.848  14.899  1.00  0.00    -0.504 OA
ATOM     18  H   UNL     1      11.648  61.407  14.233  1.00  0.00     0.293 HD
ENDBRANCH  13  17
BRANCH  15  19
ATOM     19  O   UNL     1      10.054  60.673  12.298  1.00  0.00    -0.502 OA
ATOM     20  H   UNL     1      10.958  60.231  12.191  1.00  0.00     0.293 HD
ENDBRANCH  15  19
BRANCH  16  21
ATOM     21  O   UNL     1       7.322  60.061  11.964  1.00  0.00    -0.504 OA
ATOM     22  H   UNL     1       6.359  59.780  11.819  1.00  0.00     0.293 HD
ENDBRANCH  16  21
ENDBRANCH   9  11
ENDBRANCH   8   9
ENDBRANCH   7   8
ENDBRANCH   1   7
BRANCH   2  23
ATOM     23  O   UNL     1       7.745  56.968  20.644  1.00  0.00    -0.452 OA
BRANCH  23  24
ATOM     24  C   UNL     1       7.600  58.176  21.338  1.00  0.00     0.338 C 
ATOM     25  O   UNL     1       6.453  58.569  21.688  1.00  0.00    -0.246 OA
BRANCH  24  26
ATOM     26  C   UNL     1       8.788  59.009  21.623  1.00  0.00     0.067 A 
ATOM     27  C   UNL     1       8.969  59.591  22.889  1.00  0.00     0.066 A 
ATOM     28  C   UNL     1       9.727  59.271  20.610  1.00  0.00     0.066 A 
ATOM     29  C   UNL     1      10.065  60.422  23.144  1.00  0.00     0.162 A 
ATOM     30  C   UNL     1      10.821  60.109  20.853  1.00  0.00     0.162 A 
ATOM     31  C   UNL     1      10.997  60.685  22.123  1.00  0.00     0.200 A 
BRANCH  29  32
ATOM     32  O   UNL     1      10.210  60.978  24.413  1.00  0.00    -0.504 OA
ATOM     33  H   UNL     1       9.802  60.554  25.237  1.00  0.00     0.293 HD
ENDBRANCH  29  32
BRANCH  30  34
ATOM     34  O   UNL     1      11.733  60.379  19.833  1.00  0.00    -0.504 OA
ATOM     35  H   UNL     1      12.675  60.008  19.851  1.00  0.00     0.293 HD
ENDBRANCH  30  34
BRANCH  31  36
ATOM     36  O   UNL     1      12.081  61.526  22.381  1.00  0.00    -0.502 OA
ATOM     37  H   UNL     1      11.977  62.531  22.457  1.00  0.00     0.293 HD
ENDBRANCH  31  36
ENDBRANCH  24  26
ENDBRANCH  23  24
ENDBRANCH   2  23
BRANCH   3  38
ATOM     38  O   UNL     1       7.382  55.209  17.447  1.00  0.00    -0.450 OA
BRANCH  38  39
ATOM     39  C   UNL     1       7.687  54.073  16.693  1.00  0.00     0.338 C 
ATOM     40  O   UNL     1       6.980  53.032  16.785  1.00  0.00    -0.246 OA
BRANCH  39  41
ATOM     41  C   UNL     1       8.849  54.116  15.783  1.00  0.00     0.067 A 
ATOM     42  C   UNL     1       9.894  55.020  16.042  1.00  0.00     0.066 A 
ATOM     43  C   UNL     1       8.933  53.269  14.665  1.00  0.00     0.066 A 
ATOM     44  C   UNL     1      11.014  55.070  15.205  1.00  0.00     0.162 A 
ATOM     45  C   UNL     1      10.047  53.329  13.815  1.00  0.00     0.162 A 
ATOM     46  C   UNL     1      11.098  54.221  14.098  1.00  0.00     0.200 A 
BRANCH  44  47
ATOM     47  O   UNL     1      12.053  55.961  15.472  1.00  0.00    -0.504 OA
ATOM     48  H   UNL     1      12.517  56.470  14.727  1.00  0.00     0.293 HD
ENDBRANCH  44  47
BRANCH  45  49
ATOM     49  O   UNL     1      10.108  52.524  12.676  1.00  0.00    -0.504 OA
ATOM     50  H   UNL     1      10.954  52.036  12.404  1.00  0.00     0.293 HD
ENDBRANCH  45  49
BRANCH  46  51
ATOM     51  O   UNL     1      12.227  54.281  13.278  1.00  0.00    -0.502 OA
ATOM     52  H   UNL     1      12.785  55.121  13.205  1.00  0.00     0.293 HD
ENDBRANCH  46  51
ENDBRANCH  39  41
ENDBRANCH  38  39
ENDBRANCH   3  38
BRANCH   5  53
ATOM     53  O   UNL     1       4.512  53.703  18.977  1.00  0.00    -0.428 OA
BRANCH  53  54
ATOM     54  C   UNL     1       3.149  53.843  18.693  1.00  0.00     0.340 C 
ATOM     55  O   UNL     1       2.780  54.533  17.703  1.00  0.00    -0.246 OA
BRANCH  54  56
ATOM     56  C   UNL     1       2.149  53.124  19.512  1.00  0.00     0.067 A 
ATOM     57  C   UNL     1       0.836  52.955  19.050  1.00  0.00     0.066 A 
ATOM     58  C   UNL     1       2.526  52.540  20.730  1.00  0.00     0.066 A 
ATOM     59  C   UNL     1      -0.084  52.197  19.784  1.00  0.00     0.162 A 
ATOM     60  C   UNL     1       1.614  51.787  21.479  1.00  0.00     0.162 A 
ATOM     61  C   UNL     1       0.292  51.614  21.003  1.00  0.00     0.200 A 
BRANCH  59  62
ATOM     62  O   UNL     1      -1.377  52.006  19.297  1.00  0.00    -0.504 OA
ATOM     63  H   UNL     1      -1.561  51.923  18.305  1.00  0.00     0.293 HD
ENDBRANCH  59  62
BRANCH  60  64
ATOM     64  O   UNL     1       2.067  51.222  22.674  1.00  0.00    -0.504 OA
ATOM     65  H   UNL     1       1.472  50.983  23.452  1.00  0.00     0.293 HD
ENDBRANCH  60  64
BRANCH  61  66
ATOM     66  O   UNL     1      -0.666  50.876  21.701  1.00  0.00    -0.502 OA
ATOM     67  H   UNL     1      -1.663  50.983  21.568  1.00  0.00     0.293 HD
ENDBRANCH  61  66
ENDBRANCH  54  56
ENDBRANCH  53  54
ENDBRANCH   5  53
BRANCH   4  68
ATOM     68  O   UNL     1       6.998  53.053  19.120  1.00  0.00    -0.448 OA
BRANCH  68  69
ATOM     69  C   UNL     1       8.055  52.244  19.553  1.00  0.00     0.339 C 
ATOM     70  O   UNL     1       7.831  51.278  20.335  1.00  0.00    -0.246 OA
BRANCH  69  71
ATOM     71  C   UNL     1       9.435  52.538  19.115  1.00  0.00     0.067 A 
ATOM     72  C   UNL     1      10.153  51.598  18.361  1.00  0.00     0.066 A 
ATOM     73  C   UNL     1      10.028  53.774  19.410  1.00  0.00     0.066 A 
ATOM     74  C   UNL     1      11.442  51.888  17.890  1.00  0.00     0.162 A 
ATOM     75  C   UNL     1      11.316  54.073  18.953  1.00  0.00     0.162 A 
ATOM     76  C   UNL     1      12.030  53.140  18.188  1.00  0.00     0.200 A 
BRANCH  74  77
ATOM     77  O   UNL     1      12.091  50.911  17.131  1.00  0.00    -0.504 OA
ATOM     78  H   UNL     1      12.400  50.023  17.500  1.00  0.00     0.293 HD
ENDBRANCH  74  77
BRANCH  75  79
ATOM     79  O   UNL     1      11.896  55.305  19.255  1.00  0.00    -0.504 OA
ATOM     80  H   UNL     1      12.816  55.557  18.917  1.00  0.00     0.293 HD
ENDBRANCH  75  79
BRANCH  76  81
ATOM     81  O   UNL     1      13.306  53.496  17.745  1.00  0.00    -0.502 OA
ATOM     82  H   UNL     1      14.050  53.810  18.353  1.00  0.00     0.293 HD
ENDBRANCH  76  81
ENDBRANCH  69  71
ENDBRANCH  68  69
ENDBRANCH   4  68
TORSDOF 31
ENDMDL
MODEL 8
REMARK VINA RESULT:    94.690      2.551     10.084
REMARK INTER + INTRA:         231.845
REMARK INTER:                 233.690
REMARK INTRA:                  -1.845
REMARK UNBOUND:                 7.068
REMARK SMILES O=C(OC[C@H]1O[C@@H](OC(=O)c2cc(O)c(O)c(O)c2)[C@@H](OC(=O)c2cc(O)c(O)c(O)c2)[C@@H](OC(=O)c2cc(O)c(O)c(O)c2)[C@@H]1OC(=O)c1cc(O)c(O)c(O)c1)c1cc(O)c(O)c(O)c1
REMARK SMILES IDX 5 1 46 2 33 3 20 4 7 5 6 6 4 7 3 8 2 9 1 10 59 11 60 12
REMARK SMILES IDX 61 13 67 14 63 15 65 16 62 17 64 19 66 21 47 23 48 24 49 25
REMARK SMILES IDX 50 26 58 27 51 28 56 29 52 30 54 31 57 32 53 34 55 36 34 38
REMARK SMILES IDX 35 39 36 40 37 41 45 42 38 43 43 44 39 45 41 46 44 47 40 49
REMARK SMILES IDX 42 51 8 53 9 54 10 55 11 56 19 57 12 58 17 59 13 60 15 61
REMARK SMILES IDX 18 62 14 64 16 66 21 68 22 69 23 70 24 71 32 72 25 73 30 74
REMARK SMILES IDX 26 75 28 76 31 77 27 79 29 81
REMARK H PARENT 62 18 64 20 66 22 57 33 53 35 55 37 44 48 40 50 42 52 18 63
REMARK H PARENT 14 65 16 67 31 78 27 80 29 82
REMARK Flexibility Score: inf
ROOT
ATOM      1  C   UNL     1      10.892  58.777  21.602  1.00  0.00     0.205 C 
ATOM      2  C   UNL     1      10.264  58.774  20.170  1.00  0.00     0.254 C 
ATOM      3  C   UNL     1       9.857  57.341  19.773  1.00  0.00     0.267 C 
ATOM      4  C   UNL     1      11.065  56.408  19.967  1.00  0.00     0.290 C 
ATOM      5  C   UNL     1      11.660  56.569  21.395  1.00  0.00     0.357 C 
ATOM      6  O   UNL     1      10.899  57.480  22.175  1.00  0.00    -0.329 OA
ENDROOT
BRANCH   1   7
ATOM      7  C   UNL     1      10.122  59.702  22.560  1.00  0.00     0.269 C 
BRANCH   7   8
ATOM      8  O   UNL     1      10.738  60.991  22.607  1.00  0.00    -0.459 OA
BRANCH   8   9
ATOM      9  C   UNL     1      11.013  61.686  23.800  1.00  0.00     0.338 C 
ATOM     10  O   UNL     1      11.474  61.051  24.786  1.00  0.00    -0.246 OA
BRANCH   9  11
ATOM     11  C   UNL     1      10.788  63.138  23.925  1.00  0.00     0.067 A 
ATOM     12  C   UNL     1       9.756  63.623  24.743  1.00  0.00     0.066 A 
ATOM     13  C   UNL     1       9.481  64.992  24.797  1.00  0.00     0.162 A 
ATOM     14  C   UNL     1      11.555  64.033  23.172  1.00  0.00     0.066 A 
ATOM     15  C   UNL     1      10.243  65.894  24.031  1.00  0.00     0.200 A 
ATOM     16  C   UNL     1      11.279  65.409  23.210  1.00  0.00     0.162 A 
BRANCH  13  17
ATOM     17  O   UNL     1       8.442  65.439  25.612  1.00  0.00    -0.504 OA
ATOM     18  H   UNL     1       7.470  65.388  25.323  1.00  0.00     0.293 HD
ENDBRANCH  13  17
BRANCH  15  19
ATOM     19  O   UNL     1       9.964  67.260  24.093  1.00  0.00    -0.502 OA
ATOM     20  H   UNL     1      10.380  67.866  24.789  1.00  0.00     0.293 HD
ENDBRANCH  15  19
BRANCH  16  21
ATOM     21  O   UNL     1      12.027  66.290  22.432  1.00  0.00    -0.504 OA
ATOM     22  H   UNL     1      12.013  67.289  22.603  1.00  0.00     0.293 HD
ENDBRANCH  16  21
ENDBRANCH   9  11
ENDBRANCH   8   9
ENDBRANCH   7   8
ENDBRANCH   1   7
BRANCH   2  23
ATOM     23  O   UNL     1      11.222  59.262  19.228  1.00  0.00    -0.452 OA
BRANCH  23  24
ATOM     24  C   UNL     1      11.417  58.676  17.971  1.00  0.00     0.338 C 
ATOM     25  O   UNL     1      12.022  57.572  17.876  1.00  0.00    -0.246 OA
BRANCH  24  26
ATOM     26  C   UNL     1      10.949  59.372  16.753  1.00  0.00     0.067 A 
ATOM     27  C   UNL     1      11.715  60.399  16.174  1.00  0.00     0.066 A 
ATOM     28  C   UNL     1       9.703  59.048  16.189  1.00  0.00     0.066 A 
ATOM     29  C   UNL     1      11.248  61.092  15.053  1.00  0.00     0.162 A 
ATOM     30  C   UNL     1       9.224  59.744  15.074  1.00  0.00     0.162 A 
ATOM     31  C   UNL     1       9.997  60.767  14.498  1.00  0.00     0.200 A 
BRANCH  29  32
ATOM     32  O   UNL     1      12.038  62.102  14.507  1.00  0.00    -0.504 OA
ATOM     33  H   UNL     1      12.981  61.931  14.179  1.00  0.00     0.293 HD
ENDBRANCH  29  32
BRANCH  30  34
ATOM     34  O   UNL     1       7.977  59.428  14.537  1.00  0.00    -0.504 OA
ATOM     35  H   UNL     1       7.316  60.146  14.268  1.00  0.00     0.293 HD
ENDBRANCH  30  34
BRANCH  31  36
ATOM     36  O   UNL     1       9.532  61.474  13.387  1.00  0.00    -0.502 OA
ATOM     37  H   UNL     1       9.004  62.333  13.478  1.00  0.00     0.293 HD
ENDBRANCH  31  36
ENDBRANCH  24  26
ENDBRANCH  23  24
ENDBRANCH   2  23
BRANCH   3  38
ATOM     38  O   UNL     1       8.797  56.883  20.610  1.00  0.00    -0.450 OA
BRANCH  38  39
ATOM     39  C   UNL     1       7.450  56.839  20.241  1.00  0.00     0.338 C 
ATOM     40  O   UNL     1       6.720  57.861  20.351  1.00  0.00    -0.246 OA
BRANCH  39  41
ATOM     41  C   UNL     1       6.900  55.574  19.715  1.00  0.00     0.067 A 
ATOM     42  C   UNL     1       5.604  55.558  19.171  1.00  0.00     0.066 A 
ATOM     43  C   UNL     1       7.648  54.384  19.743  1.00  0.00     0.066 A 
ATOM     44  C   UNL     1       5.065  54.377  18.651  1.00  0.00     0.162 A 
ATOM     45  C   UNL     1       7.104  53.195  19.237  1.00  0.00     0.162 A 
ATOM     46  C   UNL     1       5.816  53.197  18.674  1.00  0.00     0.200 A 
BRANCH  44  47
ATOM     47  O   UNL     1       3.782  54.368  18.104  1.00  0.00    -0.504 OA
ATOM     48  H   UNL     1       3.392  53.531  17.685  1.00  0.00     0.293 HD
ENDBRANCH  44  47
BRANCH  45  49
ATOM     49  O   UNL     1       7.827  52.003  19.310  1.00  0.00    -0.504 OA
ATOM     50  H   UNL     1       7.377  51.105  19.444  1.00  0.00     0.293 HD
ENDBRANCH  45  49
BRANCH  46  51
ATOM     51  O   UNL     1       5.263  52.029  18.143  1.00  0.00    -0.502 OA
ATOM     52  H   UNL     1       4.818  52.017  17.236  1.00  0.00     0.293 HD
ENDBRANCH  46  51
ENDBRANCH  39  41
ENDBRANCH  38  39
ENDBRANCH   3  38
BRANCH   5  53
ATOM     53  O   UNL     1      11.667  55.313  22.074  1.00  0.00    -0.428 OA
BRANCH  53  54
ATOM     54  C   UNL     1      12.450  55.097  23.215  1.00  0.00     0.340 C 
ATOM     55  O   UNL     1      11.896  54.949  24.340  1.00  0.00    -0.246 OA
BRANCH  54  56
ATOM     56  C   UNL     1      13.917  54.973  23.088  1.00  0.00     0.067 A 
ATOM     57  C   UNL     1      14.645  55.870  22.294  1.00  0.00     0.066 A 
ATOM     58  C   UNL     1      14.606  53.995  23.822  1.00  0.00     0.066 A 
ATOM     59  C   UNL     1      16.043  55.806  22.246  1.00  0.00     0.162 A 
ATOM     60  C   UNL     1      16.003  53.914  23.777  1.00  0.00     0.162 A 
ATOM     61  C   UNL     1      16.731  54.828  22.978  1.00  0.00     0.200 A 
BRANCH  59  62
ATOM     62  O   UNL     1      16.757  56.727  21.480  1.00  0.00    -0.504 OA
ATOM     63  H   UNL     1      17.711  56.547  21.191  1.00  0.00     0.293 HD
ENDBRANCH  59  62
BRANCH  60  64
ATOM     64  O   UNL     1      16.620  52.925  24.548  1.00  0.00    -0.504 OA
ATOM     65  H   UNL     1      17.290  53.109  25.279  1.00  0.00     0.293 HD
ENDBRANCH  60  64
BRANCH  61  66
ATOM     66  O   UNL     1      18.125  54.802  22.890  1.00  0.00    -0.502 OA
ATOM     67  H   UNL     1      18.683  53.977  23.069  1.00  0.00     0.293 HD
ENDBRANCH  61  66
ENDBRANCH  54  56
ENDBRANCH  53  54
ENDBRANCH   5  53
BRANCH   4  68
ATOM     68  O   UNL     1      10.662  55.060  19.719  1.00  0.00    -0.448 OA
BRANCH  68  69
ATOM     69  C   UNL     1      11.396  54.186  18.908  1.00  0.00     0.339 C 
ATOM     70  O   UNL     1      12.327  53.494  19.408  1.00  0.00    -0.246 OA
BRANCH  69  71
ATOM     71  C   UNL     1      11.097  54.095  17.464  1.00  0.00     0.067 A 
ATOM     72  C   UNL     1      11.557  55.083  16.582  1.00  0.00     0.066 A 
ATOM     73  C   UNL     1      10.390  52.997  16.952  1.00  0.00     0.066 A 
ATOM     74  C   UNL     1      11.329  54.978  15.202  1.00  0.00     0.162 A 
ATOM     75  C   UNL     1      10.148  52.883  15.579  1.00  0.00     0.162 A 
ATOM     76  C   UNL     1      10.618  53.865  14.694  1.00  0.00     0.200 A 
BRANCH  74  77
ATOM     77  O   UNL     1      11.829  55.993  14.382  1.00  0.00    -0.504 OA
ATOM     78  H   UNL     1      11.416  56.261  13.501  1.00  0.00     0.293 HD
ENDBRANCH  74  77
BRANCH  75  79
ATOM     79  O   UNL     1       9.441  51.789  15.082  1.00  0.00    -0.504 OA
ATOM     80  H   UNL     1       9.422  51.573  14.093  1.00  0.00     0.293 HD
ENDBRANCH  75  79
BRANCH  76  81
ATOM     81  O   UNL     1      10.362  53.694  13.332  1.00  0.00    -0.502 OA
ATOM     82  H   UNL     1       9.838  54.347  12.768  1.00  0.00     0.293 HD
ENDBRANCH  76  81
ENDBRANCH  69  71
ENDBRANCH  68  69
ENDBRANCH   4  68
TORSDOF 31
ENDMDL
MODEL 9
REMARK VINA RESULT:    95.204      3.640     10.074
REMARK INTER + INTRA:         233.065
REMARK INTER:                 230.390
REMARK INTRA:                   2.674
REMARK UNBOUND:                 7.068
REMARK SMILES O=C(OC[C@H]1O[C@@H](OC(=O)c2cc(O)c(O)c(O)c2)[C@@H](OC(=O)c2cc(O)c(O)c(O)c2)[C@@H](OC(=O)c2cc(O)c(O)c(O)c2)[C@@H]1OC(=O)c1cc(O)c(O)c(O)c1)c1cc(O)c(O)c(O)c1
REMARK SMILES IDX 5 1 46 2 33 3 20 4 7 5 6 6 4 7 3 8 2 9 1 10 59 11 60 12
REMARK SMILES IDX 61 13 67 14 63 15 65 16 62 17 64 19 66 21 47 23 48 24 49 25
REMARK SMILES IDX 50 26 58 27 51 28 56 29 52 30 54 31 57 32 53 34 55 36 34 38
REMARK SMILES IDX 35 39 36 40 37 41 45 42 38 43 43 44 39 45 41 46 44 47 40 49
REMARK SMILES IDX 42 51 8 53 9 54 10 55 11 56 19 57 12 58 17 59 13 60 15 61
REMARK SMILES IDX 18 62 14 64 16 66 21 68 22 69 23 70 24 71 32 72 25 73 30 74
REMARK SMILES IDX 26 75 28 76 31 77 27 79 29 81
REMARK H PARENT 62 18 64 20 66 22 57 33 53 35 55 37 44 48 40 50 42 52 18 63
REMARK H PARENT 14 65 16 67 31 78 27 80 29 82
REMARK Flexibility Score: inf
ROOT
ATOM      1  C   UNL     1       8.058  58.457  20.848  1.00  0.00     0.205 C 
ATOM      2  C   UNL     1       7.700  57.072  21.479  1.00  0.00     0.254 C 
ATOM      3  C   UNL     1       7.350  56.059  20.370  1.00  0.00     0.267 C 
ATOM      4  C   UNL     1       6.271  56.671  19.459  1.00  0.00     0.290 C 
ATOM      5  C   UNL     1       6.699  58.084  18.971  1.00  0.00     0.357 C 
ATOM      6  O   UNL     1       8.000  58.420  19.431  1.00  0.00    -0.329 OA
ENDROOT
BRANCH   1   7
ATOM      7  C   UNL     1       9.474  58.912  21.241  1.00  0.00     0.269 C 
BRANCH   7   8
ATOM      8  O   UNL     1       9.410  59.871  22.300  1.00  0.00    -0.459 OA
BRANCH   8   9
ATOM      9  C   UNL     1      10.540  60.499  22.858  1.00  0.00     0.338 C 
ATOM     10  O   UNL     1      11.634  59.874  22.891  1.00  0.00    -0.246 OA
BRANCH   9  11
ATOM     11  C   UNL     1      10.482  61.872  23.394  1.00  0.00     0.067 A 
ATOM     12  C   UNL     1       9.452  62.243  24.270  1.00  0.00     0.066 A 
ATOM     13  C   UNL     1       9.341  63.564  24.712  1.00  0.00     0.162 A 
ATOM     14  C   UNL     1      11.413  62.828  22.973  1.00  0.00     0.066 A 
ATOM     15  C   UNL     1      10.269  64.531  24.280  1.00  0.00     0.200 A 
ATOM     16  C   UNL     1      11.304  64.160  23.401  1.00  0.00     0.162 A 
BRANCH  13  17
ATOM     17  O   UNL     1       8.299  63.901  25.574  1.00  0.00    -0.504 OA
ATOM     18  H   UNL     1       7.426  64.296  25.237  1.00  0.00     0.293 HD
ENDBRANCH  13  17
BRANCH  15  19
ATOM     19  O   UNL     1      10.153  65.847  24.729  1.00  0.00    -0.502 OA
ATOM     20  H   UNL     1      10.160  66.637  24.096  1.00  0.00     0.293 HD
ENDBRANCH  15  19
BRANCH  16  21
ATOM     21  O   UNL     1      12.215  65.112  22.951  1.00  0.00    -0.504 OA
ATOM     22  H   UNL     1      12.094  65.581  22.061  1.00  0.00     0.293 HD
ENDBRANCH  16  21
ENDBRANCH   9  11
ENDBRANCH   8   9
ENDBRANCH   7   8
ENDBRANCH   1   7
BRANCH   2  23
ATOM     23  O   UNL     1       6.572  57.220  22.344  1.00  0.00    -0.452 OA
BRANCH  23  24
ATOM     24  C   UNL     1       5.619  56.211  22.527  1.00  0.00     0.338 C 
ATOM     25  O   UNL     1       5.534  55.263  21.697  1.00  0.00    -0.246 OA
BRANCH  24  26
ATOM     26  C   UNL     1       4.684  56.278  23.672  1.00  0.00     0.067 A 
ATOM     27  C   UNL     1       3.819  57.374  23.828  1.00  0.00     0.066 A 
ATOM     28  C   UNL     1       4.688  55.266  24.647  1.00  0.00     0.066 A 
ATOM     29  C   UNL     1       2.973  57.464  24.938  1.00  0.00     0.162 A 
ATOM     30  C   UNL     1       3.852  55.353  25.766  1.00  0.00     0.162 A 
ATOM     31  C   UNL     1       2.987  56.451  25.914  1.00  0.00     0.200 A 
BRANCH  29  32
ATOM     32  O   UNL     1       2.128  58.566  25.055  1.00  0.00    -0.504 OA
ATOM     33  H   UNL     1       1.182  58.485  25.408  1.00  0.00     0.293 HD
ENDBRANCH  29  32
BRANCH  30  34
ATOM     34  O   UNL     1       3.882  54.353  26.738  1.00  0.00    -0.504 OA
ATOM     35  H   UNL     1       3.118  54.224  27.390  1.00  0.00     0.293 HD
ENDBRANCH  30  34
BRANCH  31  36
ATOM     36  O   UNL     1       2.149  56.554  27.026  1.00  0.00    -0.502 OA
ATOM     37  H   UNL     1       1.150  56.396  26.964  1.00  0.00     0.293 HD
ENDBRANCH  31  36
ENDBRANCH  24  26
ENDBRANCH  23  24
ENDBRANCH   2  23
BRANCH   3  38
ATOM     38  O   UNL     1       8.503  55.784  19.576  1.00  0.00    -0.450 OA
BRANCH  38  39
ATOM     39  C   UNL     1       8.743  54.580  18.908  1.00  0.00     0.338 C 
ATOM     40  O   UNL     1       8.292  53.493  19.361  1.00  0.00    -0.246 OA
BRANCH  39  41
ATOM     41  C   UNL     1       9.529  54.607  17.659  1.00  0.00     0.067 A 
ATOM     42  C   UNL     1       9.110  53.833  16.563  1.00  0.00     0.066 A 
ATOM     43  C   UNL     1      10.687  55.395  17.541  1.00  0.00     0.066 A 
ATOM     44  C   UNL     1       9.828  53.853  15.362  1.00  0.00     0.162 A 
ATOM     45  C   UNL     1      11.418  55.404  16.344  1.00  0.00     0.162 A 
ATOM     46  C   UNL     1      10.975  54.644  15.247  1.00  0.00     0.200 A 
BRANCH  44  47
ATOM     47  O   UNL     1       9.402  53.091  14.275  1.00  0.00    -0.504 OA
ATOM     48  H   UNL     1       8.435  52.804  14.177  1.00  0.00     0.293 HD
ENDBRANCH  44  47
BRANCH  45  49
ATOM     49  O   UNL     1      12.595  56.147  16.243  1.00  0.00    -0.504 OA
ATOM     50  H   UNL     1      12.826  56.684  15.415  1.00  0.00     0.293 HD
ENDBRANCH  45  49
BRANCH  46  51
ATOM     51  O   UNL     1      11.674  54.656  14.037  1.00  0.00    -0.502 OA
ATOM     52  H   UNL     1      11.752  53.829  13.462  1.00  0.00     0.293 HD
ENDBRANCH  46  51
ENDBRANCH  39  41
ENDBRANCH  38  39
ENDBRANCH   3  38
BRANCH   5  53
ATOM     53  O   UNL     1       6.715  58.133  17.544  1.00  0.00    -0.428 OA
BRANCH  53  54
ATOM     54  C   UNL     1       6.392  59.301  16.844  1.00  0.00     0.340 C 
ATOM     55  O   UNL     1       5.409  60.004  17.211  1.00  0.00    -0.246 OA
BRANCH  54  56
ATOM     56  C   UNL     1       7.244  59.746  15.721  1.00  0.00     0.067 A 
ATOM     57  C   UNL     1       8.608  60.007  15.919  1.00  0.00     0.066 A 
ATOM     58  C   UNL     1       6.710  59.842  14.428  1.00  0.00     0.066 A 
ATOM     59  C   UNL     1       9.432  60.341  14.837  1.00  0.00     0.162 A 
ATOM     60  C   UNL     1       7.521  60.184  13.339  1.00  0.00     0.162 A 
ATOM     61  C   UNL     1       8.898  60.439  13.544  1.00  0.00     0.200 A 
BRANCH  59  62
ATOM     62  O   UNL     1      10.794  60.563  15.041  1.00  0.00    -0.504 OA
ATOM     63  H   UNL     1      11.479  60.329  14.333  1.00  0.00     0.293 HD
ENDBRANCH  59  62
BRANCH  60  64
ATOM     64  O   UNL     1       6.921  60.243  12.078  1.00  0.00    -0.504 OA
ATOM     65  H   UNL     1       7.047  59.552  11.355  1.00  0.00     0.293 HD
ENDBRANCH  60  64
BRANCH  61  66
ATOM     66  O   UNL     1       9.760  60.783  12.502  1.00  0.00    -0.502 OA
ATOM     67  H   UNL     1      10.716  60.459  12.434  1.00  0.00     0.293 HD
ENDBRANCH  61  66
ENDBRANCH  54  56
ENDBRANCH  53  54
ENDBRANCH   5  53
BRANCH   4  68
ATOM     68  O   UNL     1       6.030  55.791  18.360  1.00  0.00    -0.448 OA
BRANCH  68  69
ATOM     69  C   UNL     1       5.659  54.451  18.528  1.00  0.00     0.339 C 
ATOM     70  O   UNL     1       6.544  53.550  18.551  1.00  0.00    -0.246 OA
BRANCH  69  71
ATOM     71  C   UNL     1       4.232  54.092  18.653  1.00  0.00     0.067 A 
ATOM     72  C   UNL     1       3.339  54.366  17.607  1.00  0.00     0.066 A 
ATOM     73  C   UNL     1       3.761  53.434  19.798  1.00  0.00     0.066 A 
ATOM     74  C   UNL     1       1.994  53.978  17.689  1.00  0.00     0.162 A 
ATOM     75  C   UNL     1       2.419  53.048  19.897  1.00  0.00     0.162 A 
ATOM     76  C   UNL     1       1.529  53.311  18.847  1.00  0.00     0.200 A 
BRANCH  74  77
ATOM     77  O   UNL     1       1.166  54.271  16.602  1.00  0.00    -0.504 OA
ATOM     78  H   UNL     1       1.387  54.954  15.892  1.00  0.00     0.293 HD
ENDBRANCH  74  77
BRANCH  75  79
ATOM     79  O   UNL     1       1.963  52.398  21.043  1.00  0.00    -0.504 OA
ATOM     80  H   UNL     1       2.092  51.402  21.176  1.00  0.00     0.293 HD
ENDBRANCH  75  79
BRANCH  76  81
ATOM     81  O   UNL     1       0.204  52.891  18.991  1.00  0.00    -0.502 OA
ATOM     82  H   UNL     1      -0.116  51.951  18.804  1.00  0.00     0.293 HD
ENDBRANCH  76  81
ENDBRANCH  69  71
ENDBRANCH  68  69
ENDBRANCH   4  68
TORSDOF 31
ENDMDL
