MODEL 1
REMARK VINA RESULT:    -2.659      0.000      0.000
REMARK INTER + INTRA:          -3.720
REMARK INTER:                  -3.436
REMARK INTRA:                  -0.283
REMARK UNBOUND:                -0.283
REMARK SMILES CCCCCCC(=O)[O-]
REMARK SMILES IDX 5 1 6 2 7 3 8 4 9 5 4 6 3 7 2 8 1 9
REMARK H PARENT
REMARK Flexibility Score: inf
ROOT
ATOM      1  C   UNL     1     -11.973  61.316  -9.951  1.00  0.00     0.006 C 
ENDROOT
BRANCH   1   2
ATOM      2  C   UNL     1     -12.132  59.970  -9.230  1.00  0.00     0.053 C 
BRANCH   2   3
ATOM      3  C   UNL     1     -13.417  59.293  -9.595  1.00  0.00     0.041 C 
ATOM      4  O   UNL     1     -14.460  59.971  -9.785  1.00  0.00    -0.550 OA
ATOM      5  O   UNL     1     -13.455  57.913  -9.756  1.00  0.00    -0.550 OA
ENDBRANCH   2   3
ENDBRANCH   1   2
BRANCH   1   6
ATOM      6  C   UNL     1     -11.949  62.501  -8.974  1.00  0.00     0.000 C 
BRANCH   6   7
ATOM      7  C   UNL     1     -12.907  63.610  -9.433  1.00  0.00    -0.000 C 
BRANCH   7   8
ATOM      8  C   UNL     1     -14.164  63.706  -8.555  1.00  0.00    -0.003 C 
ATOM      9  C   UNL     1     -15.449  63.402  -9.327  1.00  0.00     0.004 C 
ENDBRANCH   7   8
ENDBRANCH   6   7
ENDBRANCH   1   6
TORSDOF 5
ENDMDL
MODEL 2
REMARK VINA RESULT:    -2.552      2.607      4.538
REMARK INTER + INTRA:          -3.581
REMARK INTER:                  -3.425
REMARK INTRA:                  -0.156
REMARK UNBOUND:                -0.283
REMARK SMILES CCCCCCC(=O)[O-]
REMARK SMILES IDX 5 1 6 2 7 3 8 4 9 5 4 6 3 7 2 8 1 9
REMARK H PARENT
REMARK Flexibility Score: inf
ROOT
ATOM      1  C   UNL     1     -12.489  62.033  -9.885  1.00  0.00     0.006 C 
ENDROOT
BRANCH   1   2
ATOM      2  C   UNL     1     -14.016  62.159  -9.979  1.00  0.00     0.053 C 
BRANCH   2   3
ATOM      3  C   UNL     1     -14.534  63.289  -9.144  1.00  0.00     0.041 C 
ATOM      4  O   UNL     1     -13.802  63.815  -8.266  1.00  0.00    -0.550 OA
ATOM      5  O   UNL     1     -15.815  63.783  -9.358  1.00  0.00    -0.550 OA
ENDBRANCH   2   3
ENDBRANCH   1   2
BRANCH   1   6
ATOM      6  C   UNL     1     -12.053  60.715  -9.227  1.00  0.00     0.000 C 
BRANCH   6   7
ATOM      7  C   UNL     1     -12.861  59.532  -9.781  1.00  0.00    -0.000 C 
BRANCH   7   8
ATOM      8  C   UNL     1     -12.599  58.227  -9.012  1.00  0.00    -0.003 C 
ATOM      9  C   UNL     1     -12.923  56.981  -9.837  1.00  0.00     0.004 C 
ENDBRANCH   7   8
ENDBRANCH   6   7
ENDBRANCH   1   6
TORSDOF 5
ENDMDL
MODEL 3
REMARK VINA RESULT:    -2.404     24.061     25.020
REMARK INTER + INTRA:          -3.390
REMARK INTER:                  -3.234
REMARK INTRA:                  -0.156
REMARK UNBOUND:                -0.283
REMARK SMILES CCCCCCC(=O)[O-]
REMARK SMILES IDX 5 1 6 2 7 3 8 4 9 5 4 6 3 7 2 8 1 9
REMARK H PARENT
REMARK Flexibility Score: inf
ROOT
ATOM      1  C   UNL     1     -28.797  58.073   9.512  1.00  0.00     0.006 C 
ENDROOT
BRANCH   1   2
ATOM      2  C   UNL     1     -27.436  58.432  10.125  1.00  0.00     0.053 C 
BRANCH   2   3
ATOM      3  C   UNL     1     -26.397  57.398   9.815  1.00  0.00     0.041 C 
ATOM      4  O   UNL     1     -26.589  56.193  10.125  1.00  0.00    -0.550 OA
ATOM      5  O   UNL     1     -25.230  57.760   9.154  1.00  0.00    -0.550 OA
ENDBRANCH   2   3
ENDBRANCH   1   2
BRANCH   1   6
ATOM      6  C   UNL     1     -29.868  59.131   9.815  1.00  0.00     0.000 C 
BRANCH   6   7
ATOM      7  C   UNL     1     -31.247  58.480   9.996  1.00  0.00    -0.000 C 
BRANCH   7   8
ATOM      8  C   UNL     1     -31.604  57.525   8.846  1.00  0.00    -0.003 C 
ATOM      9  C   UNL     1     -32.060  56.151   9.339  1.00  0.00     0.004 C 
ENDBRANCH   7   8
ENDBRANCH   6   7
ENDBRANCH   1   6
TORSDOF 5
ENDMDL
MODEL 4
REMARK VINA RESULT:    -2.175     23.896     24.860
REMARK INTER + INTRA:          -3.094
REMARK INTER:                  -2.977
REMARK INTRA:                  -0.117
REMARK UNBOUND:                -0.283
REMARK SMILES CCCCCCC(=O)[O-]
REMARK SMILES IDX 5 1 6 2 7 3 8 4 9 5 4 6 3 7 2 8 1 9
REMARK H PARENT
REMARK Flexibility Score: inf
ROOT
ATOM      1  C   UNL     1     -28.845  57.736   9.983  1.00  0.00     0.006 C 
ENDROOT
BRANCH   1   2
ATOM      2  C   UNL     1     -29.730  58.989  10.039  1.00  0.00     0.053 C 
BRANCH   2   3
ATOM      3  C   UNL     1     -31.038  58.777   9.341  1.00  0.00     0.041 C 
ATOM      4  O   UNL     1     -32.054  59.436   9.685  1.00  0.00    -0.550 OA
ATOM      5  O   UNL     1     -31.127  57.875   8.288  1.00  0.00    -0.550 OA
ENDBRANCH   2   3
ENDBRANCH   1   2
BRANCH   1   6
ATOM      6  C   UNL     1     -27.353  58.070  10.125  1.00  0.00     0.000 C 
BRANCH   6   7
ATOM      7  C   UNL     1     -26.501  56.792  10.121  1.00  0.00    -0.000 C 
BRANCH   7   8
ATOM      8  C   UNL     1     -24.998  57.084   9.990  1.00  0.00    -0.003 C 
ATOM      9  C   UNL     1     -24.700  58.224   9.015  1.00  0.00     0.004 C 
ENDBRANCH   7   8
ENDBRANCH   6   7
ENDBRANCH   1   6
TORSDOF 5
ENDMDL
MODEL 5
REMARK VINA RESULT:    -1.734      1.516      2.202
REMARK INTER + INTRA:          -2.524
REMARK INTER:                  -2.651
REMARK INTRA:                   0.127
REMARK UNBOUND:                -0.283
REMARK SMILES CCCCCCC(=O)[O-]
REMARK SMILES IDX 5 1 6 2 7 3 8 4 9 5 4 6 3 7 2 8 1 9
REMARK H PARENT
REMARK Flexibility Score: inf
ROOT
ATOM      1  C   UNL     1     -13.757  61.209  -9.775  1.00  0.00     0.006 C 
ENDROOT
BRANCH   1   2
ATOM      2  C   UNL     1     -14.062  59.735 -10.074  1.00  0.00     0.053 C 
BRANCH   2   3
ATOM      3  C   UNL     1     -13.012  58.825  -9.513  1.00  0.00     0.041 C 
ATOM      4  O   UNL     1     -13.106  57.579  -9.665  1.00  0.00    -0.550 OA
ATOM      5  O   UNL     1     -11.913  59.357  -8.851  1.00  0.00    -0.550 OA
ENDBRANCH   2   3
ENDBRANCH   1   2
BRANCH   1   6
ATOM      6  C   UNL     1     -14.936  62.129 -10.125  1.00  0.00     0.000 C 
BRANCH   6   7
ATOM      7  C   UNL     1     -15.191  63.145  -9.001  1.00  0.00    -0.000 C 
BRANCH   7   8
ATOM      8  C   UNL     1     -13.990  64.073  -8.761  1.00  0.00    -0.003 C 
ATOM      9  C   UNL     1     -13.219  64.386 -10.044  1.00  0.00     0.004 C 
ENDBRANCH   7   8
ENDBRANCH   6   7
ENDBRANCH   1   6
TORSDOF 5
ENDMDL
MODEL 6
REMARK VINA RESULT:    -0.970     25.387     26.407
REMARK INTER + INTRA:          -1.537
REMARK INTER:                  -1.376
REMARK INTRA:                  -0.161
REMARK UNBOUND:                -0.283
REMARK SMILES CCCCCCC(=O)[O-]
REMARK SMILES IDX 5 1 6 2 7 3 8 4 9 5 4 6 3 7 2 8 1 9
REMARK H PARENT
REMARK Flexibility Score: inf
ROOT
ATOM      1  C   UNL     1     -31.020  56.934   9.870  1.00  0.00     0.006 C 
ENDROOT
BRANCH   1   2
ATOM      2  C   UNL     1     -29.543  56.599  10.123  1.00  0.00     0.053 C 
BRANCH   2   3
ATOM      3  C   UNL     1     -28.665  57.801   9.959  1.00  0.00     0.041 C 
ATOM      4  O   UNL     1     -27.428  57.662   9.771  1.00  0.00    -0.550 OA
ATOM      5  O   UNL     1     -29.218  59.076   9.982  1.00  0.00    -0.550 OA
ENDBRANCH   2   3
ENDBRANCH   1   2
BRANCH   1   6
ATOM      6  C   UNL     1     -31.790  55.750   9.268  1.00  0.00     0.000 C 
BRANCH   6   7
ATOM      7  C   UNL     1     -31.398  54.433   9.956  1.00  0.00    -0.000 C 
BRANCH   7   8
ATOM      8  C   UNL     1     -32.125  53.217   9.362  1.00  0.00    -0.003 C 
ATOM      9  C   UNL     1     -31.852  53.038   7.868  1.00  0.00     0.004 C 
ENDBRANCH   7   8
ENDBRANCH   6   7
ENDBRANCH   1   6
TORSDOF 5
ENDMDL
MODEL 7
REMARK VINA RESULT:    -0.209      9.891     10.808
REMARK INTER + INTRA:          -0.553
REMARK INTER:                  -0.463
REMARK INTRA:                  -0.090
REMARK UNBOUND:                -0.283
REMARK SMILES CCCCCCC(=O)[O-]
REMARK SMILES IDX 5 1 6 2 7 3 8 4 9 5 4 6 3 7 2 8 1 9
REMARK H PARENT
REMARK Flexibility Score: inf
ROOT
ATOM      1  C   UNL     1     -19.859  62.224  -2.461  1.00  0.00     0.006 C 
ENDROOT
BRANCH   1   2
ATOM      2  C   UNL     1     -20.247  62.563  -1.016  1.00  0.00     0.053 C 
BRANCH   2   3
ATOM      3  C   UNL     1     -19.370  63.633  -0.441  1.00  0.00     0.041 C 
ATOM      4  O   UNL     1     -19.858  64.748  -0.122  1.00  0.00    -0.550 OA
ATOM      5  O   UNL     1     -18.020  63.386  -0.227  1.00  0.00    -0.550 OA
ENDBRANCH   2   3
ENDBRANCH   1   2
BRANCH   1   6
ATOM      6  C   UNL     1     -19.914  60.714  -2.740  1.00  0.00     0.000 C 
BRANCH   6   7
ATOM      7  C   UNL     1     -21.184  60.346  -3.521  1.00  0.00    -0.000 C 
BRANCH   7   8
ATOM      8  C   UNL     1     -20.878  59.588  -4.822  1.00  0.00    -0.003 C 
ATOM      9  C   UNL     1     -22.078  59.530  -5.768  1.00  0.00     0.004 C 
ENDBRANCH   7   8
ENDBRANCH   6   7
ENDBRANCH   1   6
TORSDOF 5
ENDMDL
MODEL 8
REMARK VINA RESULT:    -0.165      9.895     10.878
REMARK INTER + INTRA:          -0.497
REMARK INTER:                  -0.401
REMARK INTRA:                  -0.095
REMARK UNBOUND:                -0.283
REMARK SMILES CCCCCCC(=O)[O-]
REMARK SMILES IDX 5 1 6 2 7 3 8 4 9 5 4 6 3 7 2 8 1 9
REMARK H PARENT
REMARK Flexibility Score: inf
ROOT
ATOM      1  C   UNL     1     -19.807  62.220  -2.431  1.00  0.00     0.006 C 
ENDROOT
BRANCH   1   2
ATOM      2  C   UNL     1     -20.238  62.549  -0.995  1.00  0.00     0.053 C 
BRANCH   2   3
ATOM      3  C   UNL     1     -19.358  63.592  -0.376  1.00  0.00     0.041 C 
ATOM      4  O   UNL     1     -18.130  63.371  -0.216  1.00  0.00    -0.550 OA
ATOM      5  O   UNL     1     -19.891  64.820  -0.005  1.00  0.00    -0.550 OA
ENDBRANCH   2   3
ENDBRANCH   1   2
BRANCH   1   6
ATOM      6  C   UNL     1     -19.864  60.714  -2.726  1.00  0.00     0.000 C 
BRANCH   6   7
ATOM      7  C   UNL     1     -21.150  60.352  -3.484  1.00  0.00    -0.000 C 
BRANCH   7   8
ATOM      8  C   UNL     1     -20.869  59.623  -4.808  1.00  0.00    -0.003 C 
ATOM      9  C   UNL     1     -22.096  59.554  -5.717  1.00  0.00     0.004 C 
ENDBRANCH   7   8
ENDBRANCH   6   7
ENDBRANCH   1   6
TORSDOF 5
ENDMDL
MODEL 9
REMARK VINA RESULT:    -0.081      2.457      5.122
REMARK INTER + INTRA:          -0.388
REMARK INTER:                  -0.235
REMARK INTRA:                  -0.154
REMARK UNBOUND:                -0.283
REMARK SMILES CCCCCCC(=O)[O-]
REMARK SMILES IDX 5 1 6 2 7 3 8 4 9 5 4 6 3 7 2 8 1 9
REMARK H PARENT
REMARK Flexibility Score: inf
ROOT
ATOM      1  C   UNL     1     -13.576  59.406  -9.994  1.00  0.00     0.006 C 
ENDROOT
BRANCH   1   2
ATOM      2  C   UNL     1     -12.714  60.670 -10.121  1.00  0.00     0.053 C 
BRANCH   2   3
ATOM      3  C   UNL     1     -13.424  61.881  -9.600  1.00  0.00     0.041 C 
ATOM      4  O   UNL     1     -12.774  62.815  -9.063  1.00  0.00    -0.550 OA
ATOM      5  O   UNL     1     -14.802  61.993  -9.739  1.00  0.00    -0.550 OA
ENDBRANCH   2   3
ENDBRANCH   1   2
BRANCH   1   6
ATOM      6  C   UNL     1     -13.119  58.503  -8.838  1.00  0.00     0.000 C 
BRANCH   6   7
ATOM      7  C   UNL     1     -11.915  57.645  -9.255  1.00  0.00    -0.000 C 
BRANCH   7   8
ATOM      8  C   UNL     1     -12.318  56.445 -10.125  1.00  0.00    -0.003 C 
ATOM      9  C   UNL     1     -12.218  55.114  -9.379  1.00  0.00     0.004 C 
ENDBRANCH   7   8
ENDBRANCH   6   7
ENDBRANCH   1   6
TORSDOF 5
ENDMDL
