MODEL 1
REMARK VINA RESULT:    -3.457      0.000      0.000
REMARK INTER + INTRA:          -5.410
REMARK INTER:                  -4.872
REMARK INTRA:                  -0.538
REMARK UNBOUND:                -0.538
REMARK SMILES CCCCCCCCC(=O)[O-]
REMARK SMILES IDX 6 1 7 2 8 3 9 4 10 5 11 6 5 7 4 8 3 9 2 10 1 11
REMARK H PARENT
REMARK Flexibility Score: inf
ROOT
ATOM      1  C   UNL     1      15.631  11.258   0.868  1.00  0.00     0.000 C 
ENDROOT
BRANCH   1   2
ATOM      2  C   UNL     1      17.077  10.961   1.301  1.00  0.00     0.006 C 
BRANCH   2   3
ATOM      3  C   UNL     1      17.877  12.243   1.564  1.00  0.00     0.053 C 
BRANCH   3   4
ATOM      4  C   UNL     1      19.048  12.371   0.637  1.00  0.00     0.041 C 
ATOM      5  O   UNL     1      18.965  13.092  -0.392  1.00  0.00    -0.550 OA
ATOM      6  O   UNL     1      20.221  11.673   0.895  1.00  0.00    -0.550 OA
ENDBRANCH   3   4
ENDBRANCH   2   3
ENDBRANCH   1   2
BRANCH   1   7
ATOM      7  C   UNL     1      15.399  12.740   0.523  1.00  0.00     0.000 C 
BRANCH   7   8
ATOM      8  C   UNL     1      15.252  13.048  -0.979  1.00  0.00    -0.000 C 
BRANCH   8   9
ATOM      9  C   UNL     1      14.987  11.792  -1.825  1.00  0.00    -0.000 C 
BRANCH   9  10
ATOM     10  C   UNL     1      15.973  11.652  -2.996  1.00  0.00    -0.003 C 
ATOM     11  C   UNL     1      17.101  12.683  -2.947  1.00  0.00     0.004 C 
ENDBRANCH   9  10
ENDBRANCH   8   9
ENDBRANCH   7   8
ENDBRANCH   1   7
TORSDOF 7
ENDMDL
MODEL 2
REMARK VINA RESULT:    -3.393     10.875     12.265
REMARK INTER + INTRA:          -5.319
REMARK INTER:                  -4.571
REMARK INTRA:                  -0.748
REMARK UNBOUND:                -0.538
REMARK SMILES CCCCCCCCC(=O)[O-]
REMARK SMILES IDX 6 1 7 2 8 3 9 4 10 5 11 6 5 7 4 8 3 9 2 10 1 11
REMARK H PARENT
REMARK Flexibility Score: inf
ROOT
ATOM      1  C   UNL     1       4.604   7.884   0.197  1.00  0.00     0.000 C 
ENDROOT
BRANCH   1   2
ATOM      2  C   UNL     1       5.913   8.514  -0.310  1.00  0.00     0.006 C 
BRANCH   2   3
ATOM      3  C   UNL     1       7.145   7.939   0.400  1.00  0.00     0.053 C 
BRANCH   3   4
ATOM      4  C   UNL     1       8.043   9.018   0.922  1.00  0.00     0.041 C 
ATOM      5  O   UNL     1       9.272   8.797   1.084  1.00  0.00    -0.550 OA
ATOM      6  O   UNL     1       7.518  10.261   1.255  1.00  0.00    -0.550 OA
ENDBRANCH   3   4
ENDBRANCH   2   3
ENDBRANCH   1   2
BRANCH   1   7
ATOM      7  C   UNL     1       3.935   8.707   1.313  1.00  0.00     0.000 C 
BRANCH   7   8
ATOM      8  C   UNL     1       3.603   7.923   2.597  1.00  0.00    -0.000 C 
BRANCH   8   9
ATOM      9  C   UNL     1       4.304   8.489   3.843  1.00  0.00    -0.000 C 
BRANCH   9  10
ATOM     10  C   UNL     1       5.820   8.233   3.833  1.00  0.00    -0.003 C 
ATOM     11  C   UNL     1       6.169   6.744   3.847  1.00  0.00     0.004 C 
ENDBRANCH   9  10
ENDBRANCH   8   9
ENDBRANCH   7   8
ENDBRANCH   1   7
TORSDOF 7
ENDMDL
MODEL 3
REMARK VINA RESULT:    -3.251     10.944     12.109
REMARK INTER + INTRA:          -5.119
REMARK INTER:                  -4.289
REMARK INTRA:                  -0.830
REMARK UNBOUND:                -0.538
REMARK SMILES CCCCCCCCC(=O)[O-]
REMARK SMILES IDX 6 1 7 2 8 3 9 4 10 5 11 6 5 7 4 8 3 9 2 10 1 11
REMARK H PARENT
REMARK Flexibility Score: inf
ROOT
ATOM      1  C   UNL     1       6.948   7.911   0.211  1.00  0.00     0.000 C 
ENDROOT
BRANCH   1   2
ATOM      2  C   UNL     1       6.264   6.879   1.125  1.00  0.00     0.006 C 
BRANCH   2   3
ATOM      3  C   UNL     1       5.074   7.478   1.885  1.00  0.00     0.053 C 
BRANCH   3   4
ATOM      4  C   UNL     1       5.369   7.642   3.344  1.00  0.00     0.041 C 
ATOM      5  O   UNL     1       4.597   8.318   4.075  1.00  0.00    -0.550 OA
ATOM      6  O   UNL     1       6.511   7.073   3.893  1.00  0.00    -0.550 OA
ENDBRANCH   3   4
ENDBRANCH   2   3
ENDBRANCH   1   2
BRANCH   1   7
ATOM      7  C   UNL     1       8.129   8.627   0.892  1.00  0.00     0.000 C 
BRANCH   7   8
ATOM      8  C   UNL     1       8.061  10.165   0.874  1.00  0.00    -0.000 C 
BRANCH   8   9
ATOM      9  C   UNL     1       6.636  10.699   0.650  1.00  0.00    -0.000 C 
BRANCH   9  10
ATOM     10  C   UNL     1       5.958  11.133   1.960  1.00  0.00    -0.003 C 
ATOM     11  C   UNL     1       4.432  11.139   1.864  1.00  0.00     0.004 C 
ENDBRANCH   9  10
ENDBRANCH   8   9
ENDBRANCH   7   8
ENDBRANCH   1   7
TORSDOF 7
ENDMDL
MODEL 4
REMARK VINA RESULT:    -3.205     11.355     12.390
REMARK INTER + INTRA:          -5.054
REMARK INTER:                  -4.278
REMARK INTRA:                  -0.776
REMARK UNBOUND:                -0.538
REMARK SMILES CCCCCCCCC(=O)[O-]
REMARK SMILES IDX 6 1 7 2 8 3 9 4 10 5 11 6 5 7 4 8 3 9 2 10 1 11
REMARK H PARENT
REMARK Flexibility Score: inf
ROOT
ATOM      1  C   UNL     1       4.110   9.519   2.412  1.00  0.00     0.000 C 
ENDROOT
BRANCH   1   2
ATOM      2  C   UNL     1       4.237   8.381   3.439  1.00  0.00     0.006 C 
BRANCH   2   3
ATOM      3  C   UNL     1       5.691   8.144   3.864  1.00  0.00     0.053 C 
BRANCH   3   4
ATOM      4  C   UNL     1       6.159   6.766   3.509  1.00  0.00     0.041 C 
ATOM      5  O   UNL     1       6.738   6.051   4.370  1.00  0.00    -0.550 OA
ATOM      6  O   UNL     1       5.982   6.280   2.220  1.00  0.00    -0.550 OA
ENDBRANCH   3   4
ENDBRANCH   2   3
ENDBRANCH   1   2
BRANCH   1   7
ATOM      7  C   UNL     1       4.064   9.014   0.958  1.00  0.00     0.000 C 
BRANCH   7   8
ATOM      8  C   UNL     1       5.066   9.683  -0.000  1.00  0.00    -0.000 C 
BRANCH   8   9
ATOM      9  C   UNL     1       6.339   8.849  -0.214  1.00  0.00    -0.000 C 
BRANCH   9  10
ATOM     10  C   UNL     1       7.457   9.216   0.775  1.00  0.00    -0.003 C 
ATOM     11  C   UNL     1       7.747  10.717   0.811  1.00  0.00     0.004 C 
ENDBRANCH   9  10
ENDBRANCH   8   9
ENDBRANCH   7   8
ENDBRANCH   1   7
TORSDOF 7
ENDMDL
MODEL 5
REMARK VINA RESULT:    -3.184     10.463     11.540
REMARK INTER + INTRA:          -5.025
REMARK INTER:                  -4.354
REMARK INTRA:                  -0.672
REMARK UNBOUND:                -0.538
REMARK SMILES CCCCCCCCC(=O)[O-]
REMARK SMILES IDX 6 1 7 2 8 3 9 4 10 5 11 6 5 7 4 8 3 9 2 10 1 11
REMARK H PARENT
REMARK Flexibility Score: inf
ROOT
ATOM      1  C   UNL     1       7.401   7.962   0.506  1.00  0.00     0.000 C 
ENDROOT
BRANCH   1   2
ATOM      2  C   UNL     1       5.981   7.974   1.097  1.00  0.00     0.006 C 
BRANCH   2   3
ATOM      3  C   UNL     1       5.731   6.782   2.029  1.00  0.00     0.053 C 
BRANCH   3   4
ATOM      4  C   UNL     1       6.135   7.081   3.440  1.00  0.00     0.041 C 
ATOM      5  O   UNL     1       6.086   8.262   3.876  1.00  0.00    -0.550 OA
ATOM      6  O   UNL     1       6.593   6.062   4.266  1.00  0.00    -0.550 OA
ENDBRANCH   3   4
ENDBRANCH   2   3
ENDBRANCH   1   2
BRANCH   1   7
ATOM      7  C   UNL     1       8.224   9.203   0.896  1.00  0.00     0.000 C 
BRANCH   7   8
ATOM      8  C   UNL     1       7.411  10.497   1.086  1.00  0.00    -0.000 C 
BRANCH   8   9
ATOM      9  C   UNL     1       7.404  11.389  -0.166  1.00  0.00    -0.000 C 
BRANCH   9  10
ATOM     10  C   UNL     1       6.004  11.518  -0.789  1.00  0.00    -0.003 C 
ATOM     11  C   UNL     1       5.683  10.388  -1.767  1.00  0.00     0.004 C 
ENDBRANCH   9  10
ENDBRANCH   8   9
ENDBRANCH   7   8
ENDBRANCH   1   7
TORSDOF 7
ENDMDL
MODEL 6
REMARK VINA RESULT:    -3.179     11.169     12.193
REMARK INTER + INTRA:          -5.018
REMARK INTER:                  -4.535
REMARK INTRA:                  -0.483
REMARK UNBOUND:                -0.538
REMARK SMILES CCCCCCCCC(=O)[O-]
REMARK SMILES IDX 6 1 7 2 8 3 9 4 10 5 11 6 5 7 4 8 3 9 2 10 1 11
REMARK H PARENT
REMARK Flexibility Score: inf
ROOT
ATOM      1  C   UNL     1       5.047   9.324   1.746  1.00  0.00     0.000 C 
ENDROOT
BRANCH   1   2
ATOM      2  C   UNL     1       4.618   8.320   2.830  1.00  0.00     0.006 C 
BRANCH   2   3
ATOM      3  C   UNL     1       5.753   8.012   3.815  1.00  0.00     0.053 C 
BRANCH   3   4
ATOM      4  C   UNL     1       6.248   6.606   3.674  1.00  0.00     0.041 C 
ATOM      5  O   UNL     1       6.868   6.054   4.622  1.00  0.00    -0.550 OA
ATOM      6  O   UNL     1       6.051   5.912   2.487  1.00  0.00    -0.550 OA
ENDBRANCH   3   4
ENDBRANCH   2   3
ENDBRANCH   1   2
BRANCH   1   7
ATOM      7  C   UNL     1       6.575   9.485   1.646  1.00  0.00     0.000 C 
BRANCH   7   8
ATOM      8  C   UNL     1       7.254   8.635   0.557  1.00  0.00    -0.000 C 
BRANCH   8   9
ATOM      9  C   UNL     1       6.262   8.090  -0.483  1.00  0.00    -0.000 C 
BRANCH   9  10
ATOM     10  C   UNL     1       6.481   6.598  -0.781  1.00  0.00    -0.003 C 
ATOM     11  C   UNL     1       7.526   6.358  -1.871  1.00  0.00     0.004 C 
ENDBRANCH   9  10
ENDBRANCH   8   9
ENDBRANCH   7   8
ENDBRANCH   1   7
TORSDOF 7
ENDMDL
MODEL 7
REMARK VINA RESULT:    -3.132     10.563     11.941
REMARK INTER + INTRA:          -4.951
REMARK INTER:                  -4.214
REMARK INTRA:                  -0.737
REMARK UNBOUND:                -0.538
REMARK SMILES CCCCCCCCC(=O)[O-]
REMARK SMILES IDX 6 1 7 2 8 3 9 4 10 5 11 6 5 7 4 8 3 9 2 10 1 11
REMARK H PARENT
REMARK Flexibility Score: inf
ROOT
ATOM      1  C   UNL     1       6.171   8.760  -0.350  1.00  0.00     0.000 C 
ENDROOT
BRANCH   1   2
ATOM      2  C   UNL     1       7.335   8.532   0.629  1.00  0.00     0.006 C 
BRANCH   2   3
ATOM      3  C   UNL     1       8.140   9.814   0.880  1.00  0.00     0.053 C 
BRANCH   3   4
ATOM      4  C   UNL     1       7.254  10.969   1.236  1.00  0.00     0.041 C 
ATOM      5  O   UNL     1       6.626  10.972   2.328  1.00  0.00    -0.550 OA
ATOM      6  O   UNL     1       7.101  12.029   0.352  1.00  0.00    -0.550 OA
ENDBRANCH   3   4
ENDBRANCH   2   3
ENDBRANCH   1   2
BRANCH   1   7
ATOM      7  C   UNL     1       4.799   8.413   0.258  1.00  0.00     0.000 C 
BRANCH   7   8
ATOM      8  C   UNL     1       4.839   7.458   1.466  1.00  0.00    -0.000 C 
BRANCH   8   9
ATOM      9  C   UNL     1       4.389   8.129   2.774  1.00  0.00    -0.000 C 
BRANCH   9  10
ATOM     10  C   UNL     1       5.474   8.083   3.862  1.00  0.00    -0.003 C 
ATOM     11  C   UNL     1       6.303   6.798   3.819  1.00  0.00     0.004 C 
ENDBRANCH   9  10
ENDBRANCH   8   9
ENDBRANCH   7   8
ENDBRANCH   1   7
TORSDOF 7
ENDMDL
