MODEL 1
REMARK VINA RESULT:    -2.923      0.000      0.000
REMARK INTER + INTRA:          -3.550
REMARK INTER:                  -3.521
REMARK INTRA:                  -0.029
REMARK UNBOUND:                -0.029
REMARK SMILES CCCCCO
REMARK SMILES IDX 4 1 3 2 2 3 1 4 5 5 6 6
REMARK H PARENT 6 7
REMARK Flexibility Score: inf
ROOT
ATOM      1  C   UNL     1     160.297 162.651 181.026  1.00  0.00     0.028 C 
ENDROOT
BRANCH   1   2
ATOM      2  C   UNL     1     160.224 161.125 181.185  1.00  0.00     0.002 C 
BRANCH   2   3
ATOM      3  C   UNL     1     160.124 160.689 182.655  1.00  0.00    -0.003 C 
ATOM      4  C   UNL     1     160.763 161.693 183.615  1.00  0.00     0.004 C 
ENDBRANCH   2   3
ENDBRANCH   1   2
BRANCH   1   5
ATOM      5  C   UNL     1     160.968 163.034 179.704  1.00  0.00     0.156 C 
BRANCH   5   6
ATOM      6  O   UNL     1     160.029 163.598 178.831  1.00  0.00    -0.396 OA
ATOM      7  H   UNL     1     159.199 163.060 178.919  1.00  0.00     0.210 HD
ENDBRANCH   5   6
ENDBRANCH   1   5
TORSDOF 4
ENDMDL
MODEL 2
REMARK VINA RESULT:    -2.730      2.275      2.354
REMARK INTER + INTRA:          -3.318
REMARK INTER:                  -3.246
REMARK INTRA:                  -0.072
REMARK UNBOUND:                -0.029
REMARK SMILES CCCCCO
REMARK SMILES IDX 4 1 3 2 2 3 1 4 5 5 6 6
REMARK H PARENT 6 7
REMARK Flexibility Score: inf
ROOT
ATOM      1  C   UNL     1     160.239 160.149 180.659  1.00  0.00     0.028 C 
ENDROOT
BRANCH   1   2
ATOM      2  C   UNL     1     159.898 160.573 182.095  1.00  0.00     0.002 C 
BRANCH   2   3
ATOM      3  C   UNL     1     161.128 161.070 182.871  1.00  0.00    -0.003 C 
ATOM      4  C   UNL     1     160.853 162.353 183.656  1.00  0.00     0.004 C 
ENDBRANCH   2   3
ENDBRANCH   1   2
BRANCH   1   5
ATOM      5  C   UNL     1     161.435 160.941 180.121  1.00  0.00     0.156 C 
BRANCH   5   6
ATOM      6  O   UNL     1     162.459 160.066 179.732  1.00  0.00    -0.396 OA
ATOM      7  H   UNL     1     162.952 159.821 180.557  1.00  0.00     0.210 HD
ENDBRANCH   5   6
ENDBRANCH   1   5
TORSDOF 4
ENDMDL
MODEL 3
REMARK VINA RESULT:    -2.720     20.850     21.578
REMARK INTER + INTRA:          -3.305
REMARK INTER:                  -3.244
REMARK INTRA:                  -0.061
REMARK UNBOUND:                -0.029
REMARK SMILES CCCCCO
REMARK SMILES IDX 4 1 3 2 2 3 1 4 5 5 6 6
REMARK H PARENT 6 7
REMARK Flexibility Score: inf
ROOT
ATOM      1  C   UNL     1     178.392 174.825 182.196  1.00  0.00     0.028 C 
ENDROOT
BRANCH   1   2
ATOM      2  C   UNL     1     178.026 175.170 183.647  1.00  0.00     0.002 C 
BRANCH   2   3
ATOM      3  C   UNL     1     176.530 175.477 183.820  1.00  0.00    -0.003 C 
ATOM      4  C   UNL     1     175.783 174.374 184.569  1.00  0.00     0.004 C 
ENDBRANCH   2   3
ENDBRANCH   1   2
BRANCH   1   5
ATOM      5  C   UNL     1     177.428 175.494 181.212  1.00  0.00     0.156 C 
BRANCH   5   6
ATOM      6  O   UNL     1     178.137 176.303 180.314  1.00  0.00    -0.396 OA
ATOM      7  H   UNL     1     177.699 176.198 179.429  1.00  0.00     0.210 HD
ENDBRANCH   5   6
ENDBRANCH   1   5
TORSDOF 4
ENDMDL
MODEL 4
REMARK VINA RESULT:    -2.719      1.911      2.301
REMARK INTER + INTRA:          -3.304
REMARK INTER:                  -3.285
REMARK INTRA:                  -0.019
REMARK UNBOUND:                -0.029
REMARK SMILES CCCCCO
REMARK SMILES IDX 4 1 3 2 2 3 1 4 5 5 6 6
REMARK H PARENT 6 7
REMARK Flexibility Score: inf
ROOT
ATOM      1  C   UNL     1     159.972 163.963 182.123  1.00  0.00     0.028 C 
ENDROOT
BRANCH   1   2
ATOM      2  C   UNL     1     161.109 163.246 182.865  1.00  0.00     0.002 C 
BRANCH   2   3
ATOM      3  C   UNL     1     160.628 161.995 183.616  1.00  0.00    -0.003 C 
ATOM      4  C   UNL     1     160.270 160.843 182.677  1.00  0.00     0.004 C 
ENDBRANCH   2   3
ENDBRANCH   1   2
BRANCH   1   5
ATOM      5  C   UNL     1     160.519 164.834 180.989  1.00  0.00     0.156 C 
BRANCH   5   6
ATOM      6  O   UNL     1     159.875 166.079 180.982  1.00  0.00    -0.396 OA
ATOM      7  H   UNL     1     159.157 166.032 181.665  1.00  0.00     0.210 HD
ENDBRANCH   5   6
ENDBRANCH   1   5
TORSDOF 4
ENDMDL
MODEL 5
REMARK VINA RESULT:    -2.705     16.775     17.460
REMARK INTER + INTRA:          -3.287
REMARK INTER:                  -3.278
REMARK INTRA:                  -0.009
REMARK UNBOUND:                -0.029
REMARK SMILES CCCCCO
REMARK SMILES IDX 4 1 3 2 2 3 1 4 5 5 6 6
REMARK H PARENT 6 7
REMARK Flexibility Score: inf
ROOT
ATOM      1  C   UNL     1     166.682 179.133 182.195  1.00  0.00     0.028 C 
ENDROOT
BRANCH   1   2
ATOM      2  C   UNL     1     165.896 178.026 182.915  1.00  0.00     0.002 C 
BRANCH   2   3
ATOM      3  C   UNL     1     166.183 177.985 184.424  1.00  0.00    -0.003 C 
ATOM      4  C   UNL     1     166.970 176.743 184.843  1.00  0.00     0.004 C 
ENDBRANCH   2   3
ENDBRANCH   1   2
BRANCH   1   5
ATOM      5  C   UNL     1     166.530 179.014 180.676  1.00  0.00     0.156 C 
BRANCH   5   6
ATOM      6  O   UNL     1     165.631 179.980 180.203  1.00  0.00    -0.396 OA
ATOM      7  H   UNL     1     164.998 180.167 180.945  1.00  0.00     0.210 HD
ENDBRANCH   5   6
ENDBRANCH   1   5
TORSDOF 4
ENDMDL
MODEL 6
REMARK VINA RESULT:    -2.690     21.053     21.694
REMARK INTER + INTRA:          -3.269
REMARK INTER:                  -3.206
REMARK INTRA:                  -0.063
REMARK UNBOUND:                -0.029
REMARK SMILES CCCCCO
REMARK SMILES IDX 4 1 3 2 2 3 1 4 5 5 6 6
REMARK H PARENT 6 7
REMARK Flexibility Score: inf
ROOT
ATOM      1  C   UNL     1     175.827 176.077 182.884  1.00  0.00     0.028 C 
ENDROOT
BRANCH   1   2
ATOM      2  C   UNL     1     176.832 175.461 183.869  1.00  0.00     0.002 C 
BRANCH   2   3
ATOM      3  C   UNL     1     178.090 174.925 183.170  1.00  0.00    -0.003 C 
ATOM      4  C   UNL     1     179.379 175.307 183.897  1.00  0.00     0.004 C 
ENDBRANCH   2   3
ENDBRANCH   1   2
BRANCH   1   5
ATOM      5  C   UNL     1     176.343 175.986 181.445  1.00  0.00     0.156 C 
BRANCH   5   6
ATOM      6  O   UNL     1     176.073 177.178 180.759  1.00  0.00    -0.396 OA
ATOM      7  H   UNL     1     176.722 177.228 180.009  1.00  0.00     0.210 HD
ENDBRANCH   5   6
ENDBRANCH   1   5
TORSDOF 4
ENDMDL
MODEL 7
REMARK VINA RESULT:    -2.658     17.270     17.623
REMARK INTER + INTRA:          -3.231
REMARK INTER:                  -3.157
REMARK INTRA:                  -0.074
REMARK UNBOUND:                -0.029
REMARK SMILES CCCCCO
REMARK SMILES IDX 4 1 3 2 2 3 1 4 5 5 6 6
REMARK H PARENT 6 7
REMARK Flexibility Score: inf
ROOT
ATOM      1  C   UNL     1     177.783 165.629 182.961  1.00  0.00     0.028 C 
ENDROOT
BRANCH   1   2
ATOM      2  C   UNL     1     177.570 164.524 184.006  1.00  0.00     0.002 C 
BRANCH   2   3
ATOM      3  C   UNL     1     177.084 163.206 183.382  1.00  0.00    -0.003 C 
ATOM      4  C   UNL     1     177.977 162.018 183.739  1.00  0.00     0.004 C 
ENDBRANCH   2   3
ENDBRANCH   1   2
BRANCH   1   5
ATOM      5  C   UNL     1     177.504 165.109 181.548  1.00  0.00     0.156 C 
BRANCH   5   6
ATOM      6  O   UNL     1     178.630 165.295 180.734  1.00  0.00    -0.396 OA
ATOM      7  H   UNL     1     178.294 165.408 179.806  1.00  0.00     0.210 HD
ENDBRANCH   5   6
ENDBRANCH   1   5
TORSDOF 4
ENDMDL
MODEL 8
REMARK VINA RESULT:    -2.638      2.862      3.339
REMARK INTER + INTRA:          -3.207
REMARK INTER:                  -3.144
REMARK INTRA:                  -0.062
REMARK UNBOUND:                -0.029
REMARK SMILES CCCCCO
REMARK SMILES IDX 4 1 3 2 2 3 1 4 5 5 6 6
REMARK H PARENT 6 7
REMARK Flexibility Score: inf
ROOT
ATOM      1  C   UNL     1     162.919 161.001 182.867  1.00  0.00     0.028 C 
ENDROOT
BRANCH   1   2
ATOM      2  C   UNL     1     162.128 162.269 183.218  1.00  0.00     0.002 C 
BRANCH   2   3
ATOM      3  C   UNL     1     160.644 161.982 183.494  1.00  0.00    -0.003 C 
ATOM      4  C   UNL     1     160.161 160.687 182.840  1.00  0.00     0.004 C 
ENDBRANCH   2   3
ENDBRANCH   1   2
BRANCH   1   5
ATOM      5  C   UNL     1     163.809 161.230 181.642  1.00  0.00     0.156 C 
BRANCH   5   6
ATOM      6  O   UNL     1     163.430 160.371 180.601  1.00  0.00    -0.396 OA
ATOM      7  H   UNL     1     162.690 159.809 180.951  1.00  0.00     0.210 HD
ENDBRANCH   5   6
ENDBRANCH   1   5
TORSDOF 4
ENDMDL
MODEL 9
REMARK VINA RESULT:    -2.623     14.141     14.777
REMARK INTER + INTRA:          -3.188
REMARK INTER:                  -3.177
REMARK INTRA:                  -0.011
REMARK UNBOUND:                -0.029
REMARK SMILES CCCCCO
REMARK SMILES IDX 4 1 3 2 2 3 1 4 5 5 6 6
REMARK H PARENT 6 7
REMARK Flexibility Score: inf
ROOT
ATOM      1  C   UNL     1     162.636 176.219 181.822  1.00  0.00     0.028 C 
ENDROOT
BRANCH   1   2
ATOM      2  C   UNL     1     161.349 176.988 182.156  1.00  0.00     0.002 C 
BRANCH   2   3
ATOM      3  C   UNL     1     160.128 176.065 182.288  1.00  0.00    -0.003 C 
ATOM      4  C   UNL     1     159.938 175.534 183.709  1.00  0.00     0.004 C 
ENDBRANCH   2   3
ENDBRANCH   1   2
BRANCH   1   5
ATOM      5  C   UNL     1     163.863 177.130 181.925  1.00  0.00     0.156 C 
BRANCH   5   6
ATOM      6  O   UNL     1     163.951 177.951 180.792  1.00  0.00    -0.396 OA
ATOM      7  H   UNL     1     164.520 177.469 180.136  1.00  0.00     0.210 HD
ENDBRANCH   5   6
ENDBRANCH   1   5
TORSDOF 4
ENDMDL
