MODEL 1
REMARK VINA RESULT:    -3.541      0.000      0.000
REMARK INTER + INTRA:          -4.496
REMARK INTER:                  -4.369
REMARK INTRA:                  -0.127
REMARK UNBOUND:                -0.127
REMARK SMILES CCCCC=CC(C)=O
REMARK SMILES IDX 4 1 3 2 2 3 1 4 5 5 6 6 7 7 9 8 8 9
REMARK H PARENT
REMARK Flexibility Score: inf
ROOT
ATOM      1  C   UNL     1      12.818   9.770   6.048  1.00  0.00     0.027 C 
ENDROOT
BRANCH   1   2
ATOM      2  C   UNL     1      11.469   9.351   5.451  1.00  0.00     0.004 C 
BRANCH   2   3
ATOM      3  C   UNL     1      11.662   8.638   4.107  1.00  0.00    -0.003 C 
ATOM      4  C   UNL     1      11.200   9.515   2.947  1.00  0.00     0.004 C 
ENDBRANCH   2   3
ENDBRANCH   1   2
BRANCH   1   5
ATOM      5  C   UNL     1      12.778   9.752   7.549  1.00  0.00    -0.023 C 
ATOM      6  C   UNL     1      11.696  10.154   8.224  1.00  0.00     0.042 C 
BRANCH   6   7
ATOM      7  C   UNL     1      11.640  10.155   9.698  1.00  0.00     0.152 C 
ATOM      8  O   UNL     1      12.347   9.357  10.371  1.00  0.00    -0.295 OA
ATOM      9  C   UNL     1      10.735  11.112  10.403  1.00  0.00     0.093 C 
ENDBRANCH   6   7
ENDBRANCH   1   5
TORSDOF 4
ENDMDL
MODEL 2
REMARK VINA RESULT:    -3.517      2.661      5.435
REMARK INTER + INTRA:          -4.466
REMARK INTER:                  -4.298
REMARK INTRA:                  -0.168
REMARK UNBOUND:                -0.127
REMARK SMILES CCCCC=CC(C)=O
REMARK SMILES IDX 4 1 3 2 2 3 1 4 5 5 6 6 7 7 9 8 8 9
REMARK H PARENT
REMARK Flexibility Score: inf
ROOT
ATOM      1  C   UNL     1      11.652  10.321   7.722  1.00  0.00     0.027 C 
ENDROOT
BRANCH   1   2
ATOM      2  C   UNL     1      12.607   9.695   8.744  1.00  0.00     0.004 C 
BRANCH   2   3
ATOM      3  C   UNL     1      12.024   9.774  10.160  1.00  0.00    -0.003 C 
ATOM      4  C   UNL     1      10.946  10.850  10.252  1.00  0.00     0.004 C 
ENDBRANCH   2   3
ENDBRANCH   1   2
BRANCH   1   5
ATOM      5  C   UNL     1      11.825   9.703   6.365  1.00  0.00    -0.023 C 
ATOM      6  C   UNL     1      11.168  10.168   5.296  1.00  0.00     0.042 C 
BRANCH   6   7
ATOM      7  C   UNL     1      11.314   9.568   3.957  1.00  0.00     0.152 C 
ATOM      8  O   UNL     1      10.961  10.201   2.924  1.00  0.00    -0.295 OA
ATOM      9  C   UNL     1      11.884   8.194   3.820  1.00  0.00     0.093 C 
ENDBRANCH   6   7
ENDBRANCH   1   5
TORSDOF 4
ENDMDL
MODEL 3
REMARK VINA RESULT:    -3.501      1.422      1.800
REMARK INTER + INTRA:          -4.446
REMARK INTER:                  -4.302
REMARK INTRA:                  -0.144
REMARK UNBOUND:                -0.127
REMARK SMILES CCCCC=CC(C)=O
REMARK SMILES IDX 4 1 3 2 2 3 1 4 5 5 6 6 7 7 9 8 8 9
REMARK H PARENT
REMARK Flexibility Score: inf
ROOT
ATOM      1  C   UNL     1      11.759   9.117   5.176  1.00  0.00     0.027 C 
ENDROOT
BRANCH   1   2
ATOM      2  C   UNL     1      11.267   9.856   3.926  1.00  0.00     0.004 C 
BRANCH   2   3
ATOM      3  C   UNL     1      11.265   8.928   2.705  1.00  0.00    -0.003 C 
ATOM      4  C   UNL     1      11.899   7.580   3.037  1.00  0.00     0.004 C 
ENDBRANCH   2   3
ENDBRANCH   1   2
BRANCH   1   5
ATOM      5  C   UNL     1      11.285   9.793   6.430  1.00  0.00    -0.023 C 
ATOM      6  C   UNL     1      12.051   9.850   7.525  1.00  0.00     0.042 C 
BRANCH   6   7
ATOM      7  C   UNL     1      11.600  10.498   8.771  1.00  0.00     0.152 C 
ATOM      8  O   UNL     1      10.934  11.568   8.737  1.00  0.00    -0.295 OA
ATOM      9  C   UNL     1      11.936   9.881  10.090  1.00  0.00     0.093 C 
ENDBRANCH   6   7
ENDBRANCH   1   5
TORSDOF 4
ENDMDL
MODEL 4
REMARK VINA RESULT:    -3.476     21.101     21.875
REMARK INTER + INTRA:          -4.415
REMARK INTER:                  -4.104
REMARK INTRA:                  -0.311
REMARK UNBOUND:                -0.127
REMARK SMILES CCCCC=CC(C)=O
REMARK SMILES IDX 4 1 3 2 2 3 1 4 5 5 6 6 7 7 9 8 8 9
REMARK H PARENT
REMARK Flexibility Score: inf
ROOT
ATOM      1  C   UNL     1       1.346  -4.751  16.122  1.00  0.00     0.027 C 
ENDROOT
BRANCH   1   2
ATOM      2  C   UNL     1       1.707  -6.112  15.517  1.00  0.00     0.004 C 
BRANCH   2   3
ATOM      3  C   UNL     1       1.143  -6.249  14.098  1.00  0.00    -0.003 C 
ATOM      4  C   UNL     1       0.239  -7.473  13.980  1.00  0.00     0.004 C 
ENDBRANCH   2   3
ENDBRANCH   1   2
BRANCH   1   5
ATOM      5  C   UNL     1      -0.088  -4.715  16.568  1.00  0.00    -0.023 C 
ATOM      6  C   UNL     1      -0.566  -5.597  17.453  1.00  0.00     0.042 C 
BRANCH   6   7
ATOM      7  C   UNL     1      -1.973  -5.588  17.896  1.00  0.00     0.152 C 
ATOM      8  O   UNL     1      -2.263  -5.626  19.123  1.00  0.00    -0.295 OA
ATOM      9  C   UNL     1      -3.067  -5.535  16.881  1.00  0.00     0.093 C 
ENDBRANCH   6   7
ENDBRANCH   1   5
TORSDOF 4
ENDMDL
MODEL 5
REMARK VINA RESULT:    -3.409      4.303      6.999
REMARK INTER + INTRA:          -4.333
REMARK INTER:                  -4.118
REMARK INTRA:                  -0.215
REMARK UNBOUND:                -0.127
REMARK SMILES CCCCC=CC(C)=O
REMARK SMILES IDX 4 1 3 2 2 3 1 4 5 5 6 6 7 7 9 8 8 9
REMARK H PARENT
REMARK Flexibility Score: inf
ROOT
ATOM      1  C   UNL     1      11.522  10.367   2.617  1.00  0.00     0.027 C 
ENDROOT
BRANCH   1   2
ATOM      2  C   UNL     1      12.188  10.262   3.993  1.00  0.00     0.004 C 
BRANCH   2   3
ATOM      3  C   UNL     1      11.550   9.146   4.828  1.00  0.00    -0.003 C 
ATOM      4  C   UNL     1      11.148   9.653   6.211  1.00  0.00     0.004 C 
ENDBRANCH   2   3
ENDBRANCH   1   2
BRANCH   1   5
ATOM      5  C   UNL     1      10.851   9.079   2.237  1.00  0.00    -0.023 C 
ATOM      6  C   UNL     1      10.124   8.973   1.119  1.00  0.00     0.042 C 
BRANCH   6   7
ATOM      7  C   UNL     1       9.447   7.721   0.733  1.00  0.00     0.152 C 
ATOM      8  O   UNL     1       8.251   7.731   0.332  1.00  0.00    -0.295 OA
ATOM      9  C   UNL     1      10.184   6.424   0.820  1.00  0.00     0.093 C 
ENDBRANCH   6   7
ENDBRANCH   1   5
TORSDOF 4
ENDMDL
MODEL 6
REMARK VINA RESULT:    -3.409      3.312      5.969
REMARK INTER + INTRA:          -4.333
REMARK INTER:                  -4.144
REMARK INTRA:                  -0.188
REMARK UNBOUND:                -0.127
REMARK SMILES CCCCC=CC(C)=O
REMARK SMILES IDX 4 1 3 2 2 3 1 4 5 5 6 6 7 7 9 8 8 9
REMARK H PARENT
REMARK Flexibility Score: inf
ROOT
ATOM      1  C   UNL     1      11.967   9.473   5.803  1.00  0.00     0.027 C 
ENDROOT
BRANCH   1   2
ATOM      2  C   UNL     1      10.963  10.600   6.073  1.00  0.00     0.004 C 
BRANCH   2   3
ATOM      3  C   UNL     1      11.272  11.305   7.398  1.00  0.00    -0.003 C 
ATOM      4  C   UNL     1      11.704  10.304   8.467  1.00  0.00     0.004 C 
ENDBRANCH   2   3
ENDBRANCH   1   2
BRANCH   1   5
ATOM      5  C   UNL     1      11.646   8.752   4.526  1.00  0.00    -0.023 C 
ATOM      6  C   UNL     1      11.245   9.411   3.433  1.00  0.00     0.042 C 
BRANCH   6   7
ATOM      7  C   UNL     1      10.913   8.722   2.172  1.00  0.00     0.152 C 
ATOM      8  O   UNL     1      10.094   9.226   1.357  1.00  0.00    -0.295 OA
ATOM      9  C   UNL     1      11.552   7.409   1.857  1.00  0.00     0.093 C 
ENDBRANCH   6   7
ENDBRANCH   1   5
TORSDOF 4
ENDMDL
MODEL 7
REMARK VINA RESULT:    -3.361      3.620      6.193
REMARK INTER + INTRA:          -4.273
REMARK INTER:                  -4.100
REMARK INTRA:                  -0.173
REMARK UNBOUND:                -0.127
REMARK SMILES CCCCC=CC(C)=O
REMARK SMILES IDX 4 1 3 2 2 3 1 4 5 5 6 6 7 7 9 8 8 9
REMARK H PARENT
REMARK Flexibility Score: inf
ROOT
ATOM      1  C   UNL     1      12.063   9.102   5.046  1.00  0.00     0.027 C 
ENDROOT
BRANCH   1   2
ATOM      2  C   UNL     1      11.028   9.806   5.931  1.00  0.00     0.004 C 
BRANCH   2   3
ATOM      3  C   UNL     1      11.670  10.314   7.227  1.00  0.00    -0.003 C 
ATOM      4  C   UNL     1      11.248  11.751   7.523  1.00  0.00     0.004 C 
ENDBRANCH   2   3
ENDBRANCH   1   2
BRANCH   1   5
ATOM      5  C   UNL     1      11.547   8.915   3.648  1.00  0.00    -0.023 C 
ATOM      6  C   UNL     1      11.009   9.929   2.961  1.00  0.00     0.042 C 
BRANCH   6   7
ATOM      7  C   UNL     1      10.485   9.764   1.592  1.00  0.00     0.152 C 
ATOM      8  O   UNL     1      10.370  10.756   0.822  1.00  0.00    -0.295 OA
ATOM      9  C   UNL     1      10.085   8.407   1.110  1.00  0.00     0.093 C 
ENDBRANCH   6   7
ENDBRANCH   1   5
TORSDOF 4
ENDMDL
MODEL 8
REMARK VINA RESULT:    -3.232     21.593     22.480
REMARK INTER + INTRA:          -4.115
REMARK INTER:                  -3.900
REMARK INTRA:                  -0.215
REMARK UNBOUND:                -0.127
REMARK SMILES CCCCC=CC(C)=O
REMARK SMILES IDX 4 1 3 2 2 3 1 4 5 5 6 6 7 7 9 8 8 9
REMARK H PARENT
REMARK Flexibility Score: inf
ROOT
ATOM      1  C   UNL     1      -0.242  -5.936  16.873  1.00  0.00     0.027 C 
ENDROOT
BRANCH   1   2
ATOM      2  C   UNL     1       0.673  -4.840  16.312  1.00  0.00     0.004 C 
BRANCH   2   3
ATOM      3  C   UNL     1       1.697  -5.428  15.335  1.00  0.00    -0.003 C 
ATOM      4  C   UNL     1       1.055  -6.473  14.426  1.00  0.00     0.004 C 
ENDBRANCH   2   3
ENDBRANCH   1   2
BRANCH   1   5
ATOM      5  C   UNL     1      -1.586  -5.384  17.248  1.00  0.00    -0.023 C 
ATOM      6  C   UNL     1      -2.684  -5.674  16.540  1.00  0.00     0.042 C 
BRANCH   6   7
ATOM      7  C   UNL     1      -4.012  -5.133  16.884  1.00  0.00     0.152 C 
ATOM      8  O   UNL     1      -4.798  -4.729  15.984  1.00  0.00    -0.295 OA
ATOM      9  C   UNL     1      -4.432  -5.059  18.316  1.00  0.00     0.093 C 
ENDBRANCH   6   7
ENDBRANCH   1   5
TORSDOF 4
ENDMDL
MODEL 9
REMARK VINA RESULT:    -3.216      2.964      4.699
REMARK INTER + INTRA:          -4.095
REMARK INTER:                  -3.882
REMARK INTRA:                  -0.212
REMARK UNBOUND:                -0.127
REMARK SMILES CCCCC=CC(C)=O
REMARK SMILES IDX 4 1 3 2 2 3 1 4 5 5 6 6 7 7 9 8 8 9
REMARK H PARENT
REMARK Flexibility Score: inf
ROOT
ATOM      1  C   UNL     1      11.569   7.134   2.130  1.00  0.00     0.027 C 
ENDROOT
BRANCH   1   2
ATOM      2  C   UNL     1      10.671   8.045   1.285  1.00  0.00     0.004 C 
BRANCH   2   3
ATOM      3  C   UNL     1       9.474   7.268   0.724  1.00  0.00    -0.003 C 
ATOM      4  C   UNL     1       9.852   5.822   0.415  1.00  0.00     0.004 C 
ENDBRANCH   2   3
ENDBRANCH   1   2
BRANCH   1   5
ATOM      5  C   UNL     1      12.014   7.822   3.388  1.00  0.00    -0.023 C 
ATOM      6  C   UNL     1      11.501   9.001   3.758  1.00  0.00     0.042 C 
BRANCH   6   7
ATOM      7  C   UNL     1      11.932   9.700   4.983  1.00  0.00     0.152 C 
ATOM      8  O   UNL     1      13.047  10.288   5.032  1.00  0.00    -0.295 OA
ATOM      9  C   UNL     1      11.039   9.712   6.181  1.00  0.00     0.093 C 
ENDBRANCH   6   7
ENDBRANCH   1   5
TORSDOF 4
ENDMDL
