MODEL 1
REMARK VINA RESULT:    -3.655      0.000      0.000
REMARK INTER + INTRA:          -4.653
REMARK INTER:                  -4.509
REMARK INTRA:                  -0.144
REMARK UNBOUND:                -0.144
REMARK SMILES CCCCC=CC(C)=O
REMARK SMILES IDX 4 1 3 2 2 3 1 4 5 5 6 6 7 7 9 8 8 9
REMARK H PARENT
REMARK Flexibility Score: inf
ROOT
ATOM      1  C   UNL     1      34.628  72.239 106.331  1.00  0.00     0.027 C 
ENDROOT
BRANCH   1   2
ATOM      2  C   UNL     1      34.962  71.891 107.792  1.00  0.00     0.004 C 
BRANCH   2   3
ATOM      3  C   UNL     1      35.306  73.111 108.666  1.00  0.00    -0.003 C 
ATOM      4  C   UNL     1      35.702  72.727 110.092  1.00  0.00     0.004 C 
ENDBRANCH   2   3
ENDBRANCH   1   2
BRANCH   1   5
ATOM      5  C   UNL     1      33.367  71.573 105.853  1.00  0.00    -0.023 C 
ATOM      6  C   UNL     1      32.196  71.772 106.468  1.00  0.00     0.042 C 
BRANCH   6   7
ATOM      7  C   UNL     1      30.934  71.139 106.032  1.00  0.00     0.152 C 
ATOM      8  O   UNL     1      30.781  70.879 104.809  1.00  0.00    -0.295 OA
ATOM      9  C   UNL     1      29.832  70.798 106.989  1.00  0.00     0.093 C 
ENDBRANCH   6   7
ENDBRANCH   1   5
TORSDOF 4
ENDMDL
MODEL 2
REMARK VINA RESULT:    -3.523      2.477      5.053
REMARK INTER + INTRA:          -4.491
REMARK INTER:                  -4.282
REMARK INTRA:                  -0.209
REMARK UNBOUND:                -0.144
REMARK SMILES CCCCC=CC(C)=O
REMARK SMILES IDX 4 1 3 2 2 3 1 4 5 5 6 6 7 7 9 8 8 9
REMARK H PARENT
REMARK Flexibility Score: inf
ROOT
ATOM      1  C   UNL     1      32.377  71.438 105.983  1.00  0.00     0.027 C 
ENDROOT
BRANCH   1   2
ATOM      2  C   UNL     1      31.089  71.912 106.680  1.00  0.00     0.004 C 
BRANCH   2   3
ATOM      3  C   UNL     1      30.059  70.794 106.925  1.00  0.00    -0.003 C 
ATOM      4  C   UNL     1      30.690  69.519 107.484  1.00  0.00     0.004 C 
ENDBRANCH   2   3
ENDBRANCH   1   2
BRANCH   1   5
ATOM      5  C   UNL     1      33.582  72.235 106.396  1.00  0.00    -0.023 C 
ATOM      6  C   UNL     1      34.317  71.892 107.461  1.00  0.00     0.042 C 
BRANCH   6   7
ATOM      7  C   UNL     1      35.509  72.646 107.900  1.00  0.00     0.152 C 
ATOM      8  O   UNL     1      35.418  73.373 108.925  1.00  0.00    -0.295 OA
ATOM      9  C   UNL     1      36.817  72.579 107.172  1.00  0.00     0.093 C 
ENDBRANCH   6   7
ENDBRANCH   1   5
TORSDOF 4
ENDMDL
MODEL 3
REMARK VINA RESULT:    -3.507      2.046      4.718
REMARK INTER + INTRA:          -4.471
REMARK INTER:                  -4.205
REMARK INTRA:                  -0.267
REMARK UNBOUND:                -0.144
REMARK SMILES CCCCC=CC(C)=O
REMARK SMILES IDX 4 1 3 2 2 3 1 4 5 5 6 6 7 7 9 8 8 9
REMARK H PARENT
REMARK Flexibility Score: inf
ROOT
ATOM      1  C   UNL     1      31.685  71.111 105.533  1.00  0.00     0.027 C 
ENDROOT
BRANCH   1   2
ATOM      2  C   UNL     1      30.750  71.376 106.727  1.00  0.00     0.004 C 
BRANCH   2   3
ATOM      3  C   UNL     1      29.907  70.159 107.148  1.00  0.00    -0.003 C 
ATOM      4  C   UNL     1      30.751  69.029 107.739  1.00  0.00     0.004 C 
ENDBRANCH   2   3
ENDBRANCH   1   2
BRANCH   1   5
ATOM      5  C   UNL     1      33.107  71.510 105.815  1.00  0.00    -0.023 C 
ATOM      6  C   UNL     1      33.489  71.926 107.028  1.00  0.00     0.042 C 
BRANCH   6   7
ATOM      7  C   UNL     1      34.875  72.325 107.348  1.00  0.00     0.152 C 
ATOM      8  O   UNL     1      35.765  72.173 106.470  1.00  0.00    -0.295 OA
ATOM      9  C   UNL     1      35.259  72.901 108.678  1.00  0.00     0.093 C 
ENDBRANCH   6   7
ENDBRANCH   1   5
TORSDOF 4
ENDMDL
MODEL 4
REMARK VINA RESULT:    -3.346     13.950     14.732
REMARK INTER + INTRA:          -4.273
REMARK INTER:                  -4.113
REMARK INTRA:                  -0.160
REMARK UNBOUND:                -0.144
REMARK SMILES CCCCC=CC(C)=O
REMARK SMILES IDX 4 1 3 2 2 3 1 4 5 5 6 6 7 7 9 8 8 9
REMARK H PARENT
REMARK Flexibility Score: inf
ROOT
ATOM      1  C   UNL     1      28.754  59.129 100.037  1.00  0.00     0.027 C 
ENDROOT
BRANCH   1   2
ATOM      2  C   UNL     1      29.281  59.308 101.472  1.00  0.00     0.004 C 
BRANCH   2   3
ATOM      3  C   UNL     1      28.262  59.936 102.441  1.00  0.00    -0.003 C 
ATOM      4  C   UNL     1      27.011  59.078 102.624  1.00  0.00     0.004 C 
ENDBRANCH   2   3
ENDBRANCH   1   2
BRANCH   1   5
ATOM      5  C   UNL     1      29.204  60.228  99.115  1.00  0.00    -0.023 C 
ATOM      6  C   UNL     1      28.482  60.584  98.047  1.00  0.00     0.042 C 
BRANCH   6   7
ATOM      7  C   UNL     1      28.886  61.659  97.117  1.00  0.00     0.152 C 
ATOM      8  O   UNL     1      29.551  61.351  96.092  1.00  0.00    -0.295 OA
ATOM      9  C   UNL     1      28.535  63.097  97.349  1.00  0.00     0.093 C 
ENDBRANCH   6   7
ENDBRANCH   1   5
TORSDOF 4
ENDMDL
MODEL 5
REMARK VINA RESULT:    -3.304      2.197      3.322
REMARK INTER + INTRA:          -4.220
REMARK INTER:                  -3.968
REMARK INTRA:                  -0.252
REMARK UNBOUND:                -0.144
REMARK SMILES CCCCC=CC(C)=O
REMARK SMILES IDX 4 1 3 2 2 3 1 4 5 5 6 6 7 7 9 8 8 9
REMARK H PARENT
REMARK Flexibility Score: inf
ROOT
ATOM      1  C   UNL     1      33.867  72.228 106.134  1.00  0.00     0.027 C 
ENDROOT
BRANCH   1   2
ATOM      2  C   UNL     1      34.938  71.488 105.312  1.00  0.00     0.004 C 
BRANCH   2   3
ATOM      3  C   UNL     1      34.555  70.045 104.937  1.00  0.00    -0.003 C 
ATOM      4  C   UNL     1      34.554  69.805 103.428  1.00  0.00     0.004 C 
ENDBRANCH   2   3
ENDBRANCH   1   2
BRANCH   1   5
ATOM      5  C   UNL     1      32.819  71.301 106.683  1.00  0.00    -0.023 C 
ATOM      6  C   UNL     1      31.514  71.569 106.558  1.00  0.00     0.042 C 
BRANCH   6   7
ATOM      7  C   UNL     1      30.452  70.685 107.081  1.00  0.00     0.152 C 
ATOM      8  O   UNL     1      29.274  71.127 107.137  1.00  0.00    -0.295 OA
ATOM      9  C   UNL     1      30.725  69.288 107.547  1.00  0.00     0.093 C 
ENDBRANCH   6   7
ENDBRANCH   1   5
TORSDOF 4
ENDMDL
MODEL 6
REMARK VINA RESULT:    -3.294     14.072     14.778
REMARK INTER + INTRA:          -4.208
REMARK INTER:                  -4.028
REMARK INTRA:                  -0.180
REMARK UNBOUND:                -0.144
REMARK SMILES CCCCC=CC(C)=O
REMARK SMILES IDX 4 1 3 2 2 3 1 4 5 5 6 6 7 7 9 8 8 9
REMARK H PARENT
REMARK Flexibility Score: inf
ROOT
ATOM      1  C   UNL     1      29.417  59.392  98.655  1.00  0.00     0.027 C 
ENDROOT
BRANCH   1   2
ATOM      2  C   UNL     1      28.562  60.506  98.023  1.00  0.00     0.004 C 
BRANCH   2   3
ATOM      3  C   UNL     1      29.344  61.792  97.701  1.00  0.00    -0.003 C 
ATOM      4  C   UNL     1      28.436  62.956  97.306  1.00  0.00     0.004 C 
ENDBRANCH   2   3
ENDBRANCH   1   2
BRANCH   1   5
ATOM      5  C   UNL     1      28.907  58.971 100.005  1.00  0.00    -0.023 C 
ATOM      6  C   UNL     1      28.854  59.827 101.031  1.00  0.00     0.042 C 
BRANCH   6   7
ATOM      7  C   UNL     1      28.360  59.456 102.373  1.00  0.00     0.152 C 
ATOM      8  O   UNL     1      29.175  59.439 103.333  1.00  0.00    -0.295 OA
ATOM      9  C   UNL     1      26.927  59.097 102.630  1.00  0.00     0.093 C 
ENDBRANCH   6   7
ENDBRANCH   1   5
TORSDOF 4
ENDMDL
MODEL 7
REMARK VINA RESULT:    -3.283      8.128      8.770
REMARK INTER + INTRA:          -4.194
REMARK INTER:                  -4.087
REMARK INTRA:                  -0.107
REMARK UNBOUND:                -0.144
REMARK SMILES CCCCC=CC(C)=O
REMARK SMILES IDX 4 1 3 2 2 3 1 4 5 5 6 6 7 7 9 8 8 9
REMARK H PARENT
REMARK Flexibility Score: inf
ROOT
ATOM      1  C   UNL     1      24.465  73.541 108.423  1.00  0.00     0.027 C 
ENDROOT
BRANCH   1   2
ATOM      2  C   UNL     1      25.118  73.397 109.809  1.00  0.00     0.004 C 
BRANCH   2   3
ATOM      3  C   UNL     1      25.684  71.994 110.094  1.00  0.00    -0.003 C 
ATOM      4  C   UNL     1      24.799  71.178 111.037  1.00  0.00     0.004 C 
ENDBRANCH   2   3
ENDBRANCH   1   2
BRANCH   1   5
ATOM      5  C   UNL     1      25.436  74.008 107.374  1.00  0.00    -0.023 C 
ATOM      6  C   UNL     1      25.286  75.185 106.756  1.00  0.00     0.042 C 
BRANCH   6   7
ATOM      7  C   UNL     1      26.216  75.682 105.721  1.00  0.00     0.152 C 
ATOM      8  O   UNL     1      27.451  75.669 105.965  1.00  0.00    -0.295 OA
ATOM      9  C   UNL     1      25.743  76.202 104.398  1.00  0.00     0.093 C 
ENDBRANCH   6   7
ENDBRANCH   1   5
TORSDOF 4
ENDMDL
MODEL 8
REMARK VINA RESULT:    -3.269     13.987     14.772
REMARK INTER + INTRA:          -4.177
REMARK INTER:                  -4.048
REMARK INTRA:                  -0.129
REMARK UNBOUND:                -0.144
REMARK SMILES CCCCC=CC(C)=O
REMARK SMILES IDX 4 1 3 2 2 3 1 4 5 5 6 6 7 7 9 8 8 9
REMARK H PARENT
REMARK Flexibility Score: inf
ROOT
ATOM      1  C   UNL     1      29.187  59.316 101.410  1.00  0.00     0.027 C 
ENDROOT
BRANCH   1   2
ATOM      2  C   UNL     1      28.756  59.213  99.936  1.00  0.00     0.004 C 
BRANCH   2   3
ATOM      3  C   UNL     1      29.322  60.326  99.036  1.00  0.00    -0.003 C 
ATOM      4  C   UNL     1      28.409  60.656  97.855  1.00  0.00     0.004 C 
ENDBRANCH   2   3
ENDBRANCH   1   2
BRANCH   1   5
ATOM      5  C   UNL     1      28.103  59.873 102.290  1.00  0.00    -0.023 C 
ATOM      6  C   UNL     1      27.081  59.116 102.704  1.00  0.00     0.042 C 
BRANCH   6   7
ATOM      7  C   UNL     1      25.996  59.622 103.570  1.00  0.00     0.152 C 
ATOM      8  O   UNL     1      25.658  60.831 103.469  1.00  0.00    -0.295 OA
ATOM      9  C   UNL     1      25.288  58.751 104.564  1.00  0.00     0.093 C 
ENDBRANCH   6   7
ENDBRANCH   1   5
TORSDOF 4
ENDMDL
MODEL 9
REMARK VINA RESULT:    -3.263      2.612      4.109
REMARK INTER + INTRA:          -4.170
REMARK INTER:                  -4.023
REMARK INTRA:                  -0.147
REMARK UNBOUND:                -0.144
REMARK SMILES CCCCC=CC(C)=O
REMARK SMILES IDX 4 1 3 2 2 3 1 4 5 5 6 6 7 7 9 8 8 9
REMARK H PARENT
REMARK Flexibility Score: inf
ROOT
ATOM      1  C   UNL     1      30.382  71.189 106.802  1.00  0.00     0.027 C 
ENDROOT
BRANCH   1   2
ATOM      2  C   UNL     1      31.567  71.930 106.158  1.00  0.00     0.004 C 
BRANCH   2   3
ATOM      3  C   UNL     1      32.928  71.624 106.808  1.00  0.00    -0.003 C 
ATOM      4  C   UNL     1      34.111  72.052 105.940  1.00  0.00     0.004 C 
ENDBRANCH   2   3
ENDBRANCH   1   2
BRANCH   1   5
ATOM      5  C   UNL     1      30.565  69.697 106.799  1.00  0.00    -0.023 C 
ATOM      6  C   UNL     1      29.599  68.873 107.218  1.00  0.00     0.042 C 
BRANCH   6   7
ATOM      7  C   UNL     1      29.736  67.402 107.231  1.00  0.00     0.152 C 
ATOM      8  O   UNL     1      30.893  66.904 107.242  1.00  0.00    -0.295 OA
ATOM      9  C   UNL     1      28.551  66.484 107.229  1.00  0.00     0.093 C 
ENDBRANCH   6   7
ENDBRANCH   1   5
TORSDOF 4
ENDMDL
