MODEL 1
REMARK VINA RESULT:    -3.719      0.000      0.000
REMARK INTER + INTRA:         -14.916
REMARK INTER:                  -9.371
REMARK INTRA:                  -5.545
REMARK UNBOUND:                -5.545
REMARK SMILES CCCCCCCCCCCCCCCCCCCCCCCCCCCC(=O)[O-]
REMARK SMILES IDX 15 1 16 2 17 3 18 4 19 5 20 6 21 7 22 8 23 9 24 10 25 11
REMARK SMILES IDX 26 12 27 13 28 14 29 15 30 16 14 17 13 18 12 19 11 20 10 21
REMARK SMILES IDX 9 22 8 23 7 24 6 25 5 26 4 27 3 28 2 29 1 30
REMARK H PARENT
REMARK Flexibility Score: inf
ROOT
ATOM      1  C   UNL     1     162.058 162.685 183.360  1.00  0.00     0.000 C 
ENDROOT
BRANCH   1   2
ATOM      2  C   UNL     1     160.978 161.608 183.564  1.00  0.00     0.000 C 
BRANCH   2   3
ATOM      3  C   UNL     1     159.942 161.495 182.426  1.00  0.00     0.000 C 
BRANCH   3   4
ATOM      4  C   UNL     1     160.167 160.330 181.439  1.00  0.00     0.000 C 
BRANCH   4   5
ATOM      5  C   UNL     1     160.618 160.747 180.028  1.00  0.00     0.000 C 
BRANCH   5   6
ATOM      6  C   UNL     1     162.138 160.632 179.829  1.00  0.00     0.000 C 
BRANCH   6   7
ATOM      7  C   UNL     1     162.644 161.405 178.596  1.00  0.00     0.000 C 
BRANCH   7   8
ATOM      8  C   UNL     1     161.821 162.647 178.210  1.00  0.00     0.000 C 
BRANCH   8   9
ATOM      9  C   UNL     1     162.471 163.965 178.665  1.00  0.00     0.000 C 
BRANCH   9  10
ATOM     10  C   UNL     1     162.103 164.350 180.111  1.00  0.00     0.000 C 
BRANCH  10  11
ATOM     11  C   UNL     1     160.594 164.384 180.416  1.00  0.00     0.000 C 
BRANCH  11  12
ATOM     12  C   UNL     1     160.244 165.286 181.611  1.00  0.00     0.006 C 
BRANCH  12  13
ATOM     13  C   UNL     1     160.518 166.767 181.318  1.00  0.00     0.053 C 
BRANCH  13  14
ATOM     14  C   UNL     1     161.374 167.390 182.379  1.00  0.00     0.041 C 
ATOM     15  O   UNL     1     160.866 168.165 183.230  1.00  0.00    -0.550 OA
ATOM     16  O   UNL     1     162.739 167.133 182.410  1.00  0.00    -0.550 OA
ENDBRANCH  13  14
ENDBRANCH  12  13
ENDBRANCH  11  12
ENDBRANCH  10  11
ENDBRANCH   9  10
ENDBRANCH   8   9
ENDBRANCH   7   8
ENDBRANCH   6   7
ENDBRANCH   5   6
ENDBRANCH   4   5
ENDBRANCH   3   4
ENDBRANCH   2   3
ENDBRANCH   1   2
BRANCH   1  17
ATOM     17  C   UNL     1     163.440 162.090 183.041  1.00  0.00     0.000 C 
BRANCH  17  18
ATOM     18  C   UNL     1     163.475 160.559 183.176  1.00  0.00     0.000 C 
BRANCH  18  19
ATOM     19  C   UNL     1     164.852 159.909 182.936  1.00  0.00     0.000 C 
BRANCH  19  20
ATOM     20  C   UNL     1     165.512 160.313 181.601  1.00  0.00     0.000 C 
BRANCH  20  21
ATOM     21  C   UNL     1     167.050 160.320 181.680  1.00  0.00     0.000 C 
BRANCH  21  22
ATOM     22  C   UNL     1     167.566 160.434 183.123  1.00  0.00    -0.000 C 
BRANCH  22  23
ATOM     23  C   UNL     1     167.983 161.868 183.489  1.00  0.00    -0.000 C 
BRANCH  23  24
ATOM     24  C   UNL     1     166.975 162.557 184.423  1.00  0.00    -0.000 C 
BRANCH  24  25
ATOM     25  C   UNL     1     166.869 164.068 184.167  1.00  0.00    -0.000 C 
BRANCH  25  26
ATOM     26  C   UNL     1     167.051 164.391 182.679  1.00  0.00    -0.000 C 
BRANCH  26  27
ATOM     27  C   UNL     1     165.691 164.511 181.973  1.00  0.00    -0.000 C 
BRANCH  27  28
ATOM     28  C   UNL     1     165.666 163.819 180.599  1.00  0.00    -0.000 C 
BRANCH  28  29
ATOM     29  C   UNL     1     167.051 163.532 179.992  1.00  0.00    -0.003 C 
ATOM     30  C   UNL     1     167.388 164.446 178.815  1.00  0.00     0.004 C 
ENDBRANCH  28  29
ENDBRANCH  27  28
ENDBRANCH  26  27
ENDBRANCH  25  26
ENDBRANCH  24  25
ENDBRANCH  23  24
ENDBRANCH  22  23
ENDBRANCH  21  22
ENDBRANCH  20  21
ENDBRANCH  19  20
ENDBRANCH  18  19
ENDBRANCH  17  18
ENDBRANCH   1  17
TORSDOF 26
ENDMDL
MODEL 2
REMARK VINA RESULT:    -3.695      1.786      4.687
REMARK INTER + INTRA:         -14.856
REMARK INTER:                 -10.118
REMARK INTRA:                  -4.738
REMARK UNBOUND:                -5.545
REMARK SMILES CCCCCCCCCCCCCCCCCCCCCCCCCCCC(=O)[O-]
REMARK SMILES IDX 15 1 16 2 17 3 18 4 19 5 20 6 21 7 22 8 23 9 24 10 25 11
REMARK SMILES IDX 26 12 27 13 28 14 29 15 30 16 14 17 13 18 12 19 11 20 10 21
REMARK SMILES IDX 9 22 8 23 7 24 6 25 5 26 4 27 3 28 2 29 1 30
REMARK H PARENT
REMARK Flexibility Score: inf
ROOT
ATOM      1  C   UNL     1     161.437 162.036 183.465  1.00  0.00     0.000 C 
ENDROOT
BRANCH   1   2
ATOM      2  C   UNL     1     162.443 160.972 182.991  1.00  0.00     0.000 C 
BRANCH   2   3
ATOM      3  C   UNL     1     163.912 161.442 182.929  1.00  0.00     0.000 C 
BRANCH   3   4
ATOM      4  C   UNL     1     164.142 162.936 183.235  1.00  0.00     0.000 C 
BRANCH   4   5
ATOM      5  C   UNL     1     165.104 163.659 182.275  1.00  0.00     0.000 C 
BRANCH   5   6
ATOM      6  C   UNL     1     164.465 164.885 181.602  1.00  0.00     0.000 C 
BRANCH   6   7
ATOM      7  C   UNL     1     163.020 165.143 182.070  1.00  0.00     0.000 C 
BRANCH   7   8
ATOM      8  C   UNL     1     162.212 166.132 181.210  1.00  0.00     0.000 C 
BRANCH   8   9
ATOM      9  C   UNL     1     160.727 166.198 181.605  1.00  0.00     0.000 C 
BRANCH   9  10
ATOM     10  C   UNL     1     160.450 167.203 182.740  1.00  0.00     0.000 C 
BRANCH  10  11
ATOM     11  C   UNL     1     160.437 168.683 182.317  1.00  0.00     0.000 C 
BRANCH  11  12
ATOM     12  C   UNL     1     160.474 169.649 183.513  1.00  0.00     0.006 C 
BRANCH  12  13
ATOM     13  C   UNL     1     161.381 169.140 184.641  1.00  0.00     0.053 C 
BRANCH  13  14
ATOM     14  C   UNL     1     162.792 169.613 184.471  1.00  0.00     0.041 C 
ATOM     15  O   UNL     1     163.083 170.823 184.659  1.00  0.00    -0.550 OA
ATOM     16  O   UNL     1     163.782 168.719 184.081  1.00  0.00    -0.550 OA
ENDBRANCH  13  14
ENDBRANCH  12  13
ENDBRANCH  11  12
ENDBRANCH  10  11
ENDBRANCH   9  10
ENDBRANCH   8   9
ENDBRANCH   7   8
ENDBRANCH   6   7
ENDBRANCH   5   6
ENDBRANCH   4   5
ENDBRANCH   3   4
ENDBRANCH   2   3
ENDBRANCH   1   2
BRANCH   1  17
ATOM     17  C   UNL     1     160.262 162.221 182.488  1.00  0.00     0.000 C 
BRANCH  17  18
ATOM     18  C   UNL     1     160.119 161.051 181.501  1.00  0.00     0.000 C 
BRANCH  18  19
ATOM     19  C   UNL     1     160.458 161.384 180.035  1.00  0.00     0.000 C 
BRANCH  19  20
ATOM     20  C   UNL     1     160.964 162.826 179.819  1.00  0.00     0.000 C 
BRANCH  20  21
ATOM     21  C   UNL     1     162.367 162.872 179.187  1.00  0.00     0.000 C 
BRANCH  21  22
ATOM     22  C   UNL     1     163.071 161.506 179.212  1.00  0.00    -0.000 C 
BRANCH  22  23
ATOM     23  C   UNL     1     164.596 161.624 179.055  1.00  0.00    -0.000 C 
BRANCH  23  24
ATOM     24  C   UNL     1     165.306 160.263 179.131  1.00  0.00    -0.000 C 
BRANCH  24  25
ATOM     25  C   UNL     1     166.262 160.161 180.330  1.00  0.00    -0.000 C 
BRANCH  25  26
ATOM     26  C   UNL     1     167.163 161.398 180.425  1.00  0.00    -0.000 C 
BRANCH  26  27
ATOM     27  C   UNL     1     168.605 161.001 180.778  1.00  0.00    -0.000 C 
BRANCH  27  28
ATOM     28  C   UNL     1     168.718 160.304 182.145  1.00  0.00    -0.000 C 
BRANCH  28  29
ATOM     29  C   UNL     1     168.156 161.109 183.331  1.00  0.00    -0.003 C 
ATOM     30  C   UNL     1     167.080 160.353 184.110  1.00  0.00     0.004 C 
ENDBRANCH  28  29
ENDBRANCH  27  28
ENDBRANCH  26  27
ENDBRANCH  25  26
ENDBRANCH  24  25
ENDBRANCH  23  24
ENDBRANCH  22  23
ENDBRANCH  21  22
ENDBRANCH  20  21
ENDBRANCH  19  20
ENDBRANCH  18  19
ENDBRANCH  17  18
ENDBRANCH   1  17
TORSDOF 26
ENDMDL
MODEL 3
REMARK VINA RESULT:    -3.674      1.315      5.120
REMARK INTER + INTRA:         -14.804
REMARK INTER:                  -9.273
REMARK INTRA:                  -5.531
REMARK UNBOUND:                -5.545
REMARK SMILES CCCCCCCCCCCCCCCCCCCCCCCCCCCC(=O)[O-]
REMARK SMILES IDX 15 1 16 2 17 3 18 4 19 5 20 6 21 7 22 8 23 9 24 10 25 11
REMARK SMILES IDX 26 12 27 13 28 14 29 15 30 16 14 17 13 18 12 19 11 20 10 21
REMARK SMILES IDX 9 22 8 23 7 24 6 25 5 26 4 27 3 28 2 29 1 30
REMARK H PARENT
REMARK Flexibility Score: inf
ROOT
ATOM      1  C   UNL     1     164.002 160.559 182.161  1.00  0.00     0.000 C 
ENDROOT
BRANCH   1   2
ATOM      2  C   UNL     1     164.963 160.100 183.272  1.00  0.00     0.000 C 
BRANCH   2   3
ATOM      3  C   UNL     1     166.463 160.259 182.946  1.00  0.00     0.000 C 
BRANCH   3   4
ATOM      4  C   UNL     1     167.328 160.845 184.082  1.00  0.00     0.000 C 
BRANCH   4   5
ATOM      5  C   UNL     1     167.174 162.360 184.305  1.00  0.00     0.000 C 
BRANCH   5   6
ATOM      6  C   UNL     1     167.291 163.169 183.003  1.00  0.00     0.000 C 
BRANCH   6   7
ATOM      7  C   UNL     1     166.433 164.449 183.011  1.00  0.00     0.000 C 
BRANCH   7   8
ATOM      8  C   UNL     1     166.000 164.964 181.626  1.00  0.00     0.000 C 
BRANCH   8   9
ATOM      9  C   UNL     1     164.553 165.486 181.604  1.00  0.00     0.000 C 
BRANCH   9  10
ATOM     10  C   UNL     1     163.899 165.389 180.212  1.00  0.00     0.000 C 
BRANCH  10  11
ATOM     11  C   UNL     1     162.503 164.742 180.187  1.00  0.00     0.000 C 
BRANCH  11  12
ATOM     12  C   UNL     1     161.362 165.771 180.247  1.00  0.00     0.006 C 
BRANCH  12  13
ATOM     13  C   UNL     1     160.793 165.923 181.664  1.00  0.00     0.053 C 
BRANCH  13  14
ATOM     14  C   UNL     1     160.511 167.357 181.995  1.00  0.00     0.041 C 
ATOM     15  O   UNL     1     160.828 167.823 183.120  1.00  0.00    -0.550 OA
ATOM     16  O   UNL     1     159.875 168.172 181.067  1.00  0.00    -0.550 OA
ENDBRANCH  13  14
ENDBRANCH  12  13
ENDBRANCH  11  12
ENDBRANCH  10  11
ENDBRANCH   9  10
ENDBRANCH   8   9
ENDBRANCH   7   8
ENDBRANCH   6   7
ENDBRANCH   5   6
ENDBRANCH   4   5
ENDBRANCH   3   4
ENDBRANCH   2   3
ENDBRANCH   1   2
BRANCH   1  17
ATOM     17  C   UNL     1     163.756 162.078 182.177  1.00  0.00     0.000 C 
BRANCH  17  18
ATOM     18  C   UNL     1     163.036 162.551 183.450  1.00  0.00     0.000 C 
BRANCH  18  19
ATOM     19  C   UNL     1     161.529 162.832 183.287  1.00  0.00     0.000 C 
BRANCH  19  20
ATOM     20  C   UNL     1     160.626 161.628 183.628  1.00  0.00     0.000 C 
BRANCH  20  21
ATOM     21  C   UNL     1     160.159 160.864 182.374  1.00  0.00     0.000 C 
BRANCH  21  22
ATOM     22  C   UNL     1     160.255 161.713 181.097  1.00  0.00    -0.000 C 
BRANCH  22  23
ATOM     23  C   UNL     1     160.645 160.881 179.863  1.00  0.00    -0.000 C 
BRANCH  23  24
ATOM     24  C   UNL     1     161.750 161.546 179.027  1.00  0.00    -0.000 C 
BRANCH  24  25
ATOM     25  C   UNL     1     162.946 160.613 178.780  1.00  0.00    -0.000 C 
BRANCH  25  26
ATOM     26  C   UNL     1     163.791 161.099 177.597  1.00  0.00    -0.000 C 
BRANCH  26  27
ATOM     27  C   UNL     1     164.624 162.330 177.986  1.00  0.00    -0.000 C 
BRANCH  27  28
ATOM     28  C   UNL     1     165.463 162.109 179.257  1.00  0.00    -0.000 C 
BRANCH  28  29
ATOM     29  C   UNL     1     166.707 161.223 179.066  1.00  0.00    -0.003 C 
ATOM     30  C   UNL     1     167.992 161.880 179.566  1.00  0.00     0.004 C 
ENDBRANCH  28  29
ENDBRANCH  27  28
ENDBRANCH  26  27
ENDBRANCH  25  26
ENDBRANCH  24  25
ENDBRANCH  23  24
ENDBRANCH  22  23
ENDBRANCH  21  22
ENDBRANCH  20  21
ENDBRANCH  19  20
ENDBRANCH  18  19
ENDBRANCH  17  18
ENDBRANCH   1  17
TORSDOF 26
ENDMDL
MODEL 4
REMARK VINA RESULT:    -3.640      1.483      2.990
REMARK INTER + INTRA:         -14.719
REMARK INTER:                  -9.582
REMARK INTRA:                  -5.137
REMARK UNBOUND:                -5.545
REMARK SMILES CCCCCCCCCCCCCCCCCCCCCCCCCCCC(=O)[O-]
REMARK SMILES IDX 15 1 16 2 17 3 18 4 19 5 20 6 21 7 22 8 23 9 24 10 25 11
REMARK SMILES IDX 26 12 27 13 28 14 29 15 30 16 14 17 13 18 12 19 11 20 10 21
REMARK SMILES IDX 9 22 8 23 7 24 6 25 5 26 4 27 3 28 2 29 1 30
REMARK H PARENT
REMARK Flexibility Score: inf
ROOT
ATOM      1  C   UNL     1     163.004 162.687 182.443  1.00  0.00     0.000 C 
ENDROOT
BRANCH   1   2
ATOM      2  C   UNL     1     161.974 162.800 183.582  1.00  0.00     0.000 C 
BRANCH   2   3
ATOM      3  C   UNL     1     160.585 162.207 183.269  1.00  0.00     0.000 C 
BRANCH   3   4
ATOM      4  C   UNL     1     160.586 160.750 182.760  1.00  0.00     0.000 C 
BRANCH   4   5
ATOM      5  C   UNL     1     159.961 160.544 181.368  1.00  0.00     0.000 C 
BRANCH   5   6
ATOM      6  C   UNL     1     161.014 160.380 180.260  1.00  0.00     0.000 C 
BRANCH   6   7
ATOM      7  C   UNL     1     160.881 161.433 179.143  1.00  0.00     0.000 C 
BRANCH   7   8
ATOM      8  C   UNL     1     160.641 162.877 179.620  1.00  0.00     0.000 C 
BRANCH   8   9
ATOM      9  C   UNL     1     161.659 163.877 179.045  1.00  0.00     0.000 C 
BRANCH   9  10
ATOM     10  C   UNL     1     161.730 165.191 179.846  1.00  0.00     0.000 C 
BRANCH  10  11
ATOM     11  C   UNL     1     160.615 165.386 180.888  1.00  0.00     0.000 C 
BRANCH  11  12
ATOM     12  C   UNL     1     161.105 166.078 182.170  1.00  0.00     0.006 C 
BRANCH  12  13
ATOM     13  C   UNL     1     162.620 166.321 182.154  1.00  0.00     0.053 C 
BRANCH  13  14
ATOM     14  C   UNL     1     162.956 167.737 182.511  1.00  0.00     0.041 C 
ATOM     15  O   UNL     1     163.865 167.982 183.346  1.00  0.00    -0.550 OA
ATOM     16  O   UNL     1     162.246 168.785 181.939  1.00  0.00    -0.550 OA
ENDBRANCH  13  14
ENDBRANCH  12  13
ENDBRANCH  11  12
ENDBRANCH  10  11
ENDBRANCH   9  10
ENDBRANCH   8   9
ENDBRANCH   7   8
ENDBRANCH   6   7
ENDBRANCH   5   6
ENDBRANCH   4   5
ENDBRANCH   3   4
ENDBRANCH   2   3
ENDBRANCH   1   2
BRANCH   1  17
ATOM     17  C   UNL     1     164.307 161.999 182.885  1.00  0.00     0.000 C 
BRANCH  17  18
ATOM     18  C   UNL     1     165.310 162.975 183.520  1.00  0.00     0.000 C 
BRANCH  18  19
ATOM     19  C   UNL     1     166.622 162.337 184.018  1.00  0.00     0.000 C 
BRANCH  19  20
ATOM     20  C   UNL     1     166.720 160.819 183.759  1.00  0.00     0.000 C 
BRANCH  20  21
ATOM     21  C   UNL     1     168.114 160.392 183.263  1.00  0.00     0.000 C 
BRANCH  21  22
ATOM     22  C   UNL     1     168.253 160.492 181.736  1.00  0.00    -0.000 C 
BRANCH  22  23
ATOM     23  C   UNL     1     166.940 160.169 181.001  1.00  0.00    -0.000 C 
BRANCH  23  24
ATOM     24  C   UNL     1     166.765 160.992 179.715  1.00  0.00    -0.000 C 
BRANCH  24  25
ATOM     25  C   UNL     1     166.355 162.446 179.995  1.00  0.00    -0.000 C 
BRANCH  25  26
ATOM     26  C   UNL     1     165.193 162.877 179.094  1.00  0.00    -0.000 C 
BRANCH  26  27
ATOM     27  C   UNL     1     164.635 161.680 178.308  1.00  0.00    -0.000 C 
BRANCH  27  28
ATOM     28  C   UNL     1     164.361 162.008 176.829  1.00  0.00    -0.000 C 
BRANCH  28  29
ATOM     29  C   UNL     1     163.059 161.415 176.265  1.00  0.00    -0.003 C 
ATOM     30  C   UNL     1     162.380 162.327 175.243  1.00  0.00     0.004 C 
ENDBRANCH  28  29
ENDBRANCH  27  28
ENDBRANCH  26  27
ENDBRANCH  25  26
ENDBRANCH  24  25
ENDBRANCH  23  24
ENDBRANCH  22  23
ENDBRANCH  21  22
ENDBRANCH  20  21
ENDBRANCH  19  20
ENDBRANCH  18  19
ENDBRANCH  17  18
ENDBRANCH   1  17
TORSDOF 26
ENDMDL
MODEL 5
REMARK VINA RESULT:    -3.596      3.038      6.473
REMARK INTER + INTRA:         -14.607
REMARK INTER:                  -8.688
REMARK INTRA:                  -5.919
REMARK UNBOUND:                -5.545
REMARK SMILES CCCCCCCCCCCCCCCCCCCCCCCCCCCC(=O)[O-]
REMARK SMILES IDX 15 1 16 2 17 3 18 4 19 5 20 6 21 7 22 8 23 9 24 10 25 11
REMARK SMILES IDX 26 12 27 13 28 14 29 15 30 16 14 17 13 18 12 19 11 20 10 21
REMARK SMILES IDX 9 22 8 23 7 24 6 25 5 26 4 27 3 28 2 29 1 30
REMARK H PARENT
REMARK Flexibility Score: inf
ROOT
ATOM      1  C   UNL     1     162.675 160.648 179.825  1.00  0.00     0.000 C 
ENDROOT
BRANCH   1   2
ATOM      2  C   UNL     1     163.691 161.255 180.809  1.00  0.00     0.000 C 
BRANCH   2   3
ATOM      3  C   UNL     1     164.314 160.255 181.805  1.00  0.00     0.000 C 
BRANCH   3   4
ATOM      4  C   UNL     1     164.652 160.831 183.196  1.00  0.00     0.000 C 
BRANCH   4   5
ATOM      5  C   UNL     1     165.459 162.142 183.182  1.00  0.00     0.000 C 
BRANCH   5   6
ATOM      6  C   UNL     1     166.830 162.005 183.864  1.00  0.00     0.000 C 
BRANCH   6   7
ATOM      7  C   UNL     1     167.484 160.631 183.628  1.00  0.00     0.000 C 
BRANCH   7   8
ATOM      8  C   UNL     1     168.451 160.554 182.432  1.00  0.00     0.000 C 
BRANCH   8   9
ATOM      9  C   UNL     1     167.735 160.283 181.098  1.00  0.00     0.000 C 
BRANCH   9  10
ATOM     10  C   UNL     1     168.055 161.335 180.018  1.00  0.00     0.000 C 
BRANCH  10  11
ATOM     11  C   UNL     1     166.896 161.663 179.059  1.00  0.00     0.000 C 
BRANCH  11  12
ATOM     12  C   UNL     1     166.978 160.893 177.732  1.00  0.00     0.006 C 
BRANCH  12  13
ATOM     13  C   UNL     1     165.610 160.771 177.047  1.00  0.00     0.053 C 
BRANCH  13  14
ATOM     14  C   UNL     1     165.617 161.398 175.686  1.00  0.00     0.041 C 
ATOM     15  O   UNL     1     166.052 162.568 175.528  1.00  0.00    -0.550 OA
ATOM     16  O   UNL     1     165.116 160.697 174.596  1.00  0.00    -0.550 OA
ENDBRANCH  13  14
ENDBRANCH  12  13
ENDBRANCH  11  12
ENDBRANCH  10  11
ENDBRANCH   9  10
ENDBRANCH   8   9
ENDBRANCH   7   8
ENDBRANCH   6   7
ENDBRANCH   5   6
ENDBRANCH   4   5
ENDBRANCH   3   4
ENDBRANCH   2   3
ENDBRANCH   1   2
BRANCH   1  17
ATOM     17  C   UNL     1     161.572 161.641 179.420  1.00  0.00     0.000 C 
BRANCH  17  18
ATOM     18  C   UNL     1     160.210 161.308 180.050  1.00  0.00     0.000 C 
BRANCH  18  19
ATOM     19  C   UNL     1     160.129 159.939 180.754  1.00  0.00     0.000 C 
BRANCH  19  20
ATOM     20  C   UNL     1     160.016 160.029 182.290  1.00  0.00     0.000 C 
BRANCH  20  21
ATOM     21  C   UNL     1     159.968 161.483 182.795  1.00  0.00     0.000 C 
BRANCH  21  22
ATOM     22  C   UNL     1     161.137 161.820 183.733  1.00  0.00    -0.000 C 
BRANCH  22  23
ATOM     23  C   UNL     1     161.833 163.139 183.358  1.00  0.00    -0.000 C 
BRANCH  23  24
ATOM     24  C   UNL     1     160.994 164.000 182.400  1.00  0.00    -0.000 C 
BRANCH  24  25
ATOM     25  C   UNL     1     161.851 164.972 181.575  1.00  0.00    -0.000 C 
BRANCH  25  26
ATOM     26  C   UNL     1     163.325 164.899 181.990  1.00  0.00    -0.000 C 
BRANCH  26  27
ATOM     27  C   UNL     1     164.231 164.702 180.764  1.00  0.00    -0.000 C 
BRANCH  27  28
ATOM     28  C   UNL     1     163.473 164.826 179.431  1.00  0.00    -0.000 C 
BRANCH  28  29
ATOM     29  C   UNL     1     164.120 164.088 178.246  1.00  0.00    -0.003 C 
ATOM     30  C   UNL     1     163.173 163.918 177.059  1.00  0.00     0.004 C 
ENDBRANCH  28  29
ENDBRANCH  27  28
ENDBRANCH  26  27
ENDBRANCH  25  26
ENDBRANCH  24  25
ENDBRANCH  23  24
ENDBRANCH  22  23
ENDBRANCH  21  22
ENDBRANCH  20  21
ENDBRANCH  19  20
ENDBRANCH  18  19
ENDBRANCH  17  18
ENDBRANCH   1  17
TORSDOF 26
ENDMDL
MODEL 6
REMARK VINA RESULT:    -3.579      2.896      6.468
REMARK INTER + INTRA:         -14.565
REMARK INTER:                  -9.754
REMARK INTRA:                  -4.810
REMARK UNBOUND:                -5.545
REMARK SMILES CCCCCCCCCCCCCCCCCCCCCCCCCCCC(=O)[O-]
REMARK SMILES IDX 15 1 16 2 17 3 18 4 19 5 20 6 21 7 22 8 23 9 24 10 25 11
REMARK SMILES IDX 26 12 27 13 28 14 29 15 30 16 14 17 13 18 12 19 11 20 10 21
REMARK SMILES IDX 9 22 8 23 7 24 6 25 5 26 4 27 3 28 2 29 1 30
REMARK H PARENT
REMARK Flexibility Score: inf
ROOT
ATOM      1  C   UNL     1     165.851 163.937 182.849  1.00  0.00     0.000 C 
ENDROOT
BRANCH   1   2
ATOM      2  C   UNL     1     166.156 163.239 184.187  1.00  0.00     0.000 C 
BRANCH   2   3
ATOM      3  C   UNL     1     167.422 162.358 184.191  1.00  0.00     0.000 C 
BRANCH   3   4
ATOM      4  C   UNL     1     167.174 160.843 184.352  1.00  0.00     0.000 C 
BRANCH   4   5
ATOM      5  C   UNL     1     166.252 160.216 183.291  1.00  0.00     0.000 C 
BRANCH   5   6
ATOM      6  C   UNL     1     166.742 160.464 181.854  1.00  0.00     0.000 C 
BRANCH   6   7
ATOM      7  C   UNL     1     165.644 160.238 180.797  1.00  0.00     0.000 C 
BRANCH   7   8
ATOM      8  C   UNL     1     165.598 161.274 179.658  1.00  0.00     0.000 C 
BRANCH   8   9
ATOM      9  C   UNL     1     164.166 161.614 179.213  1.00  0.00     0.000 C 
BRANCH   9  10
ATOM     10  C   UNL     1     164.006 163.080 178.768  1.00  0.00     0.000 C 
BRANCH  10  11
ATOM     11  C   UNL     1     162.864 163.341 177.768  1.00  0.00     0.000 C 
BRANCH  11  12
ATOM     12  C   UNL     1     162.122 162.059 177.356  1.00  0.00     0.006 C 
BRANCH  12  13
ATOM     13  C   UNL     1     161.835 162.016 175.849  1.00  0.00     0.053 C 
BRANCH  13  14
ATOM     14  C   UNL     1     163.059 162.333 175.045  1.00  0.00     0.041 C 
ATOM     15  O   UNL     1     164.086 161.612 175.142  1.00  0.00    -0.550 OA
ATOM     16  O   UNL     1     163.071 163.440 174.206  1.00  0.00    -0.550 OA
ENDBRANCH  13  14
ENDBRANCH  12  13
ENDBRANCH  11  12
ENDBRANCH  10  11
ENDBRANCH   9  10
ENDBRANCH   8   9
ENDBRANCH   7   8
ENDBRANCH   6   7
ENDBRANCH   5   6
ENDBRANCH   4   5
ENDBRANCH   3   4
ENDBRANCH   2   3
ENDBRANCH   1   2
BRANCH   1  17
ATOM     17  C   UNL     1     164.427 163.652 182.340  1.00  0.00     0.000 C 
BRANCH  17  18
ATOM     18  C   UNL     1     163.597 162.818 183.329  1.00  0.00     0.000 C 
BRANCH  18  19
ATOM     19  C   UNL     1     162.872 161.604 182.717  1.00  0.00     0.000 C 
BRANCH  19  20
ATOM     20  C   UNL     1     161.457 161.366 183.286  1.00  0.00     0.000 C 
BRANCH  20  21
ATOM     21  C   UNL     1     160.358 161.511 182.216  1.00  0.00     0.000 C 
BRANCH  21  22
ATOM     22  C   UNL     1     160.914 161.956 180.855  1.00  0.00    -0.000 C 
BRANCH  22  23
ATOM     23  C   UNL     1     160.439 163.362 180.454  1.00  0.00    -0.000 C 
BRANCH  23  24
ATOM     24  C   UNL     1     159.875 164.158 181.643  1.00  0.00    -0.000 C 
BRANCH  24  25
ATOM     25  C   UNL     1     160.915 165.099 182.270  1.00  0.00    -0.000 C 
BRANCH  25  26
ATOM     26  C   UNL     1     161.688 165.867 181.192  1.00  0.00    -0.000 C 
BRANCH  26  27
ATOM     27  C   UNL     1     161.682 167.376 181.483  1.00  0.00    -0.000 C 
BRANCH  27  28
ATOM     28  C   UNL     1     160.534 167.803 182.414  1.00  0.00    -0.000 C 
BRANCH  28  29
ATOM     29  C   UNL     1     160.856 168.991 183.337  1.00  0.00    -0.003 C 
ATOM     30  C   UNL     1     160.175 168.890 184.702  1.00  0.00     0.004 C 
ENDBRANCH  28  29
ENDBRANCH  27  28
ENDBRANCH  26  27
ENDBRANCH  25  26
ENDBRANCH  24  25
ENDBRANCH  23  24
ENDBRANCH  22  23
ENDBRANCH  21  22
ENDBRANCH  20  21
ENDBRANCH  19  20
ENDBRANCH  18  19
ENDBRANCH  17  18
ENDBRANCH   1  17
TORSDOF 26
ENDMDL
MODEL 7
REMARK VINA RESULT:    -3.555      3.000      6.855
REMARK INTER + INTRA:         -14.503
REMARK INTER:                  -9.107
REMARK INTRA:                  -5.396
REMARK UNBOUND:                -5.545
REMARK SMILES CCCCCCCCCCCCCCCCCCCCCCCCCCCC(=O)[O-]
REMARK SMILES IDX 15 1 16 2 17 3 18 4 19 5 20 6 21 7 22 8 23 9 24 10 25 11
REMARK SMILES IDX 26 12 27 13 28 14 29 15 30 16 14 17 13 18 12 19 11 20 10 21
REMARK SMILES IDX 9 22 8 23 7 24 6 25 5 26 4 27 3 28 2 29 1 30
REMARK H PARENT
REMARK Flexibility Score: inf
ROOT
ATOM      1  C   UNL     1     164.185 163.885 180.532  1.00  0.00     0.000 C 
ENDROOT
BRANCH   1   2
ATOM      2  C   UNL     1     165.469 164.149 181.339  1.00  0.00     0.000 C 
BRANCH   2   3
ATOM      3  C   UNL     1     165.320 164.010 182.869  1.00  0.00     0.000 C 
BRANCH   3   4
ATOM      4  C   UNL     1     165.343 162.564 183.406  1.00  0.00     0.000 C 
BRANCH   4   5
ATOM      5  C   UNL     1     166.727 162.051 183.844  1.00  0.00     0.000 C 
BRANCH   5   6
ATOM      6  C   UNL     1     167.185 160.820 183.044  1.00  0.00     0.000 C 
BRANCH   6   7
ATOM      7  C   UNL     1     166.067 160.218 182.173  1.00  0.00     0.000 C 
BRANCH   7   8
ATOM      8  C   UNL     1     166.464 159.885 180.722  1.00  0.00     0.000 C 
BRANCH   8   9
ATOM      9  C   UNL     1     165.784 160.800 179.689  1.00  0.00     0.000 C 
BRANCH   9  10
ATOM     10  C   UNL     1     165.419 160.067 178.384  1.00  0.00     0.000 C 
BRANCH  10  11
ATOM     11  C   UNL     1     164.106 160.522 177.721  1.00  0.00     0.000 C 
BRANCH  11  12
ATOM     12  C   UNL     1     164.306 161.046 176.290  1.00  0.00     0.006 C 
BRANCH  12  13
ATOM     13  C   UNL     1     163.260 162.102 175.908  1.00  0.00     0.053 C 
BRANCH  13  14
ATOM     14  C   UNL     1     162.142 161.507 175.107  1.00  0.00     0.041 C 
ATOM     15  O   UNL     1     160.947 161.688 175.454  1.00  0.00    -0.550 OA
ATOM     16  O   UNL     1     162.426 160.732 173.990  1.00  0.00    -0.550 OA
ENDBRANCH  13  14
ENDBRANCH  12  13
ENDBRANCH  11  12
ENDBRANCH  10  11
ENDBRANCH   9  10
ENDBRANCH   8   9
ENDBRANCH   7   8
ENDBRANCH   6   7
ENDBRANCH   5   6
ENDBRANCH   4   5
ENDBRANCH   3   4
ENDBRANCH   2   3
ENDBRANCH   1   2
BRANCH   1  17
ATOM     17  C   UNL     1     164.239 164.483 179.116  1.00  0.00     0.000 C 
BRANCH  17  18
ATOM     18  C   UNL     1     163.201 165.596 178.900  1.00  0.00     0.000 C 
BRANCH  18  19
ATOM     19  C   UNL     1     162.530 166.126 180.183  1.00  0.00     0.000 C 
BRANCH  19  20
ATOM     20  C   UNL     1     161.005 165.898 180.234  1.00  0.00     0.000 C 
BRANCH  20  21
ATOM     21  C   UNL     1     160.495 165.625 181.662  1.00  0.00     0.000 C 
BRANCH  21  22
ATOM     22  C   UNL     1     160.288 164.129 181.939  1.00  0.00    -0.000 C 
BRANCH  22  23
ATOM     23  C   UNL     1     161.346 163.552 182.894  1.00  0.00    -0.000 C 
BRANCH  23  24
ATOM     24  C   UNL     1     160.840 162.323 183.665  1.00  0.00    -0.000 C 
BRANCH  24  25
ATOM     25  C   UNL     1     161.076 161.009 182.903  1.00  0.00    -0.000 C 
BRANCH  25  26
ATOM     26  C   UNL     1     162.440 161.012 182.204  1.00  0.00    -0.000 C 
BRANCH  26  27
ATOM     27  C   UNL     1     162.289 160.712 180.704  1.00  0.00    -0.000 C 
BRANCH  27  28
ATOM     28  C   UNL     1     160.838 160.397 180.299  1.00  0.00    -0.000 C 
BRANCH  28  29
ATOM     29  C   UNL     1     160.291 161.247 179.139  1.00  0.00    -0.003 C 
ATOM     30  C   UNL     1     161.160 162.466 178.829  1.00  0.00     0.004 C 
ENDBRANCH  28  29
ENDBRANCH  27  28
ENDBRANCH  26  27
ENDBRANCH  25  26
ENDBRANCH  24  25
ENDBRANCH  23  24
ENDBRANCH  22  23
ENDBRANCH  21  22
ENDBRANCH  20  21
ENDBRANCH  19  20
ENDBRANCH  18  19
ENDBRANCH  17  18
ENDBRANCH   1  17
TORSDOF 26
ENDMDL
MODEL 8
REMARK VINA RESULT:    -3.512      1.938      4.633
REMARK INTER + INTRA:         -14.395
REMARK INTER:                  -9.104
REMARK INTRA:                  -5.291
REMARK UNBOUND:                -5.545
REMARK SMILES CCCCCCCCCCCCCCCCCCCCCCCCCCCC(=O)[O-]
REMARK SMILES IDX 15 1 16 2 17 3 18 4 19 5 20 6 21 7 22 8 23 9 24 10 25 11
REMARK SMILES IDX 26 12 27 13 28 14 29 15 30 16 14 17 13 18 12 19 11 20 10 21
REMARK SMILES IDX 9 22 8 23 7 24 6 25 5 26 4 27 3 28 2 29 1 30
REMARK H PARENT
REMARK Flexibility Score: inf
ROOT
ATOM      1  C   UNL     1     161.640 162.156 179.512  1.00  0.00     0.000 C 
ENDROOT
BRANCH   1   2
ATOM      2  C   UNL     1     160.900 162.708 178.280  1.00  0.00     0.000 C 
BRANCH   2   3
ATOM      3  C   UNL     1     161.352 162.121 176.927  1.00  0.00     0.000 C 
BRANCH   3   4
ATOM      4  C   UNL     1     162.475 162.899 176.210  1.00  0.00     0.000 C 
BRANCH   4   5
ATOM      5  C   UNL     1     163.784 162.116 176.005  1.00  0.00     0.000 C 
BRANCH   5   6
ATOM      6  C   UNL     1     163.795 160.768 176.744  1.00  0.00     0.000 C 
BRANCH   6   7
ATOM      7  C   UNL     1     165.181 160.096 176.750  1.00  0.00     0.000 C 
BRANCH   7   8
ATOM      8  C   UNL     1     165.827 159.920 178.137  1.00  0.00     0.000 C 
BRANCH   8   9
ATOM      9  C   UNL     1     165.137 160.753 179.230  1.00  0.00     0.000 C 
BRANCH   9  10
ATOM     10  C   UNL     1     165.924 162.025 179.605  1.00  0.00     0.000 C 
BRANCH  10  11
ATOM     11  C   UNL     1     165.083 163.160 180.216  1.00  0.00     0.000 C 
BRANCH  11  12
ATOM     12  C   UNL     1     165.238 164.493 179.467  1.00  0.00     0.006 C 
BRANCH  12  13
ATOM     13  C   UNL     1     163.919 164.960 178.837  1.00  0.00     0.053 C 
BRANCH  13  14
ATOM     14  C   UNL     1     163.051 165.665 179.833  1.00  0.00     0.041 C 
ATOM     15  O   UNL     1     161.863 165.963 179.542  1.00  0.00    -0.550 OA
ATOM     16  O   UNL     1     163.564 166.015 181.076  1.00  0.00    -0.550 OA
ENDBRANCH  13  14
ENDBRANCH  12  13
ENDBRANCH  11  12
ENDBRANCH  10  11
ENDBRANCH   9  10
ENDBRANCH   8   9
ENDBRANCH   7   8
ENDBRANCH   6   7
ENDBRANCH   5   6
ENDBRANCH   4   5
ENDBRANCH   3   4
ENDBRANCH   2   3
ENDBRANCH   1   2
BRANCH   1  17
ATOM     17  C   UNL     1     161.466 160.637 179.680  1.00  0.00     0.000 C 
BRANCH  17  18
ATOM     18  C   UNL     1     160.465 160.272 180.789  1.00  0.00     0.000 C 
BRANCH  18  19
ATOM     19  C   UNL     1     160.020 161.446 181.684  1.00  0.00     0.000 C 
BRANCH  19  20
ATOM     20  C   UNL     1     160.289 161.226 183.187  1.00  0.00     0.000 C 
BRANCH  20  21
ATOM     21  C   UNL     1     161.114 162.366 183.814  1.00  0.00     0.000 C 
BRANCH  21  22
ATOM     22  C   UNL     1     162.239 162.856 182.890  1.00  0.00    -0.000 C 
BRANCH  22  23
ATOM     23  C   UNL     1     163.594 162.204 183.213  1.00  0.00    -0.000 C 
BRANCH  23  24
ATOM     24  C   UNL     1     163.690 160.756 182.708  1.00  0.00    -0.000 C 
BRANCH  24  25
ATOM     25  C   UNL     1     165.108 160.178 182.834  1.00  0.00    -0.000 C 
BRANCH  25  26
ATOM     26  C   UNL     1     166.062 161.191 183.477  1.00  0.00    -0.000 C 
BRANCH  26  27
ATOM     27  C   UNL     1     167.471 160.596 183.631  1.00  0.00    -0.000 C 
BRANCH  27  28
ATOM     28  C   UNL     1     168.202 160.429 182.287  1.00  0.00    -0.000 C 
BRANCH  28  29
ATOM     29  C   UNL     1     169.311 161.462 182.020  1.00  0.00    -0.003 C 
ATOM     30  C   UNL     1     168.782 162.891 181.903  1.00  0.00     0.004 C 
ENDBRANCH  28  29
ENDBRANCH  27  28
ENDBRANCH  26  27
ENDBRANCH  25  26
ENDBRANCH  24  25
ENDBRANCH  23  24
ENDBRANCH  22  23
ENDBRANCH  21  22
ENDBRANCH  20  21
ENDBRANCH  19  20
ENDBRANCH  18  19
ENDBRANCH  17  18
ENDBRANCH   1  17
TORSDOF 26
ENDMDL
MODEL 9
REMARK VINA RESULT:    -3.500      3.100      6.974
REMARK INTER + INTRA:         -14.364
REMARK INTER:                  -9.912
REMARK INTRA:                  -4.453
REMARK UNBOUND:                -5.545
REMARK SMILES CCCCCCCCCCCCCCCCCCCCCCCCCCCC(=O)[O-]
REMARK SMILES IDX 15 1 16 2 17 3 18 4 19 5 20 6 21 7 22 8 23 9 24 10 25 11
REMARK SMILES IDX 26 12 27 13 28 14 29 15 30 16 14 17 13 18 12 19 11 20 10 21
REMARK SMILES IDX 9 22 8 23 7 24 6 25 5 26 4 27 3 28 2 29 1 30
REMARK H PARENT
REMARK Flexibility Score: inf
ROOT
ATOM      1  C   UNL     1     165.797 163.139 183.017  1.00  0.00     0.000 C 
ENDROOT
BRANCH   1   2
ATOM      2  C   UNL     1     166.567 163.123 184.350  1.00  0.00     0.000 C 
BRANCH   2   3
ATOM      3  C   UNL     1     167.267 161.789 184.685  1.00  0.00     0.000 C 
BRANCH   3   4
ATOM      4  C   UNL     1     167.188 160.707 183.588  1.00  0.00     0.000 C 
BRANCH   4   5
ATOM      5  C   UNL     1     168.529 160.357 182.917  1.00  0.00     0.000 C 
BRANCH   5   6
ATOM      6  C   UNL     1     168.971 161.409 181.886  1.00  0.00     0.000 C 
BRANCH   6   7
ATOM      7  C   UNL     1     168.619 161.018 180.439  1.00  0.00     0.000 C 
BRANCH   7   8
ATOM      8  C   UNL     1     167.202 161.403 179.974  1.00  0.00     0.000 C 
BRANCH   8   9
ATOM      9  C   UNL     1     166.247 160.199 179.894  1.00  0.00     0.000 C 
BRANCH   9  10
ATOM     10  C   UNL     1     164.873 160.559 179.299  1.00  0.00     0.000 C 
BRANCH  10  11
ATOM     11  C   UNL     1     164.537 159.875 177.961  1.00  0.00     0.000 C 
BRANCH  11  12
ATOM     12  C   UNL     1     164.941 160.716 176.739  1.00  0.00     0.006 C 
BRANCH  12  13
ATOM     13  C   UNL     1     164.364 160.153 175.433  1.00  0.00     0.053 C 
BRANCH  13  14
ATOM     14  C   UNL     1     163.888 161.244 174.524  1.00  0.00     0.041 C 
ATOM     15  O   UNL     1     163.276 162.239 174.992  1.00  0.00    -0.550 OA
ATOM     16  O   UNL     1     164.101 161.149 173.154  1.00  0.00    -0.550 OA
ENDBRANCH  13  14
ENDBRANCH  12  13
ENDBRANCH  11  12
ENDBRANCH  10  11
ENDBRANCH   9  10
ENDBRANCH   8   9
ENDBRANCH   7   8
ENDBRANCH   6   7
ENDBRANCH   5   6
ENDBRANCH   4   5
ENDBRANCH   3   4
ENDBRANCH   2   3
ENDBRANCH   1   2
BRANCH   1  17
ATOM     17  C   UNL     1     164.286 162.915 183.200  1.00  0.00     0.000 C 
BRANCH  17  18
ATOM     18  C   UNL     1     163.792 161.618 182.539  1.00  0.00     0.000 C 
BRANCH  18  19
ATOM     19  C   UNL     1     162.526 161.001 183.167  1.00  0.00     0.000 C 
BRANCH  19  20
ATOM     20  C   UNL     1     161.421 162.029 183.489  1.00  0.00     0.000 C 
BRANCH  20  21
ATOM     21  C   UNL     1     160.138 161.794 182.671  1.00  0.00     0.000 C 
BRANCH  21  22
ATOM     22  C   UNL     1     160.141 160.440 181.944  1.00  0.00    -0.000 C 
BRANCH  22  23
ATOM     23  C   UNL     1     159.980 160.586 180.422  1.00  0.00    -0.000 C 
BRANCH  23  24
ATOM     24  C   UNL     1     161.260 161.091 179.737  1.00  0.00    -0.000 C 
BRANCH  24  25
ATOM     25  C   UNL     1     161.190 162.585 179.383  1.00  0.00    -0.000 C 
BRANCH  25  26
ATOM     26  C   UNL     1     162.551 163.263 179.577  1.00  0.00    -0.000 C 
BRANCH  26  27
ATOM     27  C   UNL     1     162.387 164.651 180.217  1.00  0.00    -0.000 C 
BRANCH  27  28
ATOM     28  C   UNL     1     160.936 164.951 180.634  1.00  0.00    -0.000 C 
BRANCH  28  29
ATOM     29  C   UNL     1     160.754 165.334 182.113  1.00  0.00    -0.003 C 
ATOM     30  C   UNL     1     160.596 166.839 182.325  1.00  0.00     0.004 C 
ENDBRANCH  28  29
ENDBRANCH  27  28
ENDBRANCH  26  27
ENDBRANCH  25  26
ENDBRANCH  24  25
ENDBRANCH  23  24
ENDBRANCH  22  23
ENDBRANCH  21  22
ENDBRANCH  20  21
ENDBRANCH  19  20
ENDBRANCH  18  19
ENDBRANCH  17  18
ENDBRANCH   1  17
TORSDOF 26
ENDMDL
