MODEL 1
REMARK VINA RESULT:    11.182      0.000      0.000
REMARK INTER + INTRA:          11.182
REMARK INTER:                  11.182
REMARK INTRA:                   0.000
REMARK UNBOUND:                 0.000
REMARK SMILES Cc1cc2cc3c(C)cc(=O)oc3c(C)c2o1
REMARK SMILES IDX 8 1 7 2 9 3 10 4 11 5 12 6 13 7 6 8 5 9 4 10 3 11 2 12 17 13
REMARK SMILES IDX 16 14 14 15 15 16 1 17
REMARK H PARENT
REMARK Flexibility Score: inf
ROOT
ATOM      1  C   UNL     1     -40.112  21.843   3.324  1.00  0.00     0.045 C 
ATOM      2  C   UNL     1     -40.088  22.641   4.603  1.00  0.00    -0.033 A 
ATOM      3  C   UNL     1     -40.081  21.967   5.831  1.00  0.00     0.098 A 
ATOM      4  C   UNL     1     -40.061  22.698   7.019  1.00  0.00     0.336 A 
ATOM      5  O   UNL     1     -40.056  22.096   8.125  1.00  0.00    -0.246 OA
ATOM      6  O   UNL     1     -40.045  24.025   6.995  1.00  0.00    -0.422 OA
ATOM      7  C   UNL     1     -40.048  24.727   5.866  1.00  0.00     0.145 A 
ATOM      8  C   UNL     1     -40.073  24.053   4.604  1.00  0.00     0.022 A 
ATOM      9  C   UNL     1     -40.086  24.811   3.406  1.00  0.00     0.024 A 
ATOM     10  C   UNL     1     -40.079  26.197   3.509  1.00  0.00     0.022 A 
ATOM     11  C   UNL     1     -40.101  27.165   2.531  1.00  0.00     0.054 A 
ATOM     12  C   UNL     1     -40.087  28.362   3.237  1.00  0.00     0.102 A 
ATOM     13  O   UNL     1     -40.063  28.141   4.538  1.00  0.00    -0.461 OA
ATOM     14  C   UNL     1     -40.055  26.841   4.716  1.00  0.00     0.140 A 
ATOM     15  C   UNL     1     -40.029  26.142   5.926  1.00  0.00     0.036 A 
ATOM     16  C   UNL     1     -40.032  26.867   7.243  1.00  0.00     0.052 C 
ATOM     17  C   UNL     1     -40.119  29.722   2.625  1.00  0.00     0.087 C 
ENDROOT
TORSDOF 0
ENDMDL
