MODEL 1
REMARK VINA RESULT:    -2.449      0.000      0.000
REMARK INTER + INTRA:          -3.003
REMARK INTER:                  -2.879
REMARK INTRA:                  -0.124
REMARK UNBOUND:                -0.124
REMARK SMILES O=C([O-])CCC(=O)[O-]
REMARK SMILES IDX 4 1 2 2 1 3 3 4 5 5 6 6 7 7 8 8
REMARK H PARENT
REMARK Flexibility Score: inf
ROOT
ATOM      1  C   UNL     1      64.831  43.062  15.374  1.00  0.00     0.059 C 
ENDROOT
BRANCH   1   2
ATOM      2  C   UNL     1      64.362  41.856  16.125  1.00  0.00     0.042 C 
ATOM      3  O   UNL     1      64.005  40.820  15.504  1.00  0.00    -0.550 OA
ATOM      4  O   UNL     1      64.271  41.892  17.512  1.00  0.00    -0.550 OA
ENDBRANCH   1   2
BRANCH   1   5
ATOM      5  C   UNL     1      63.637  43.872  14.865  1.00  0.00     0.059 C 
BRANCH   5   6
ATOM      6  C   UNL     1      63.158  44.816  15.921  1.00  0.00     0.042 C 
ATOM      7  O   UNL     1      62.138  44.536  16.606  1.00  0.00    -0.550 OA
ATOM      8  O   UNL     1      63.806  46.029  16.117  1.00  0.00    -0.550 OA
ENDBRANCH   5   6
ENDBRANCH   1   5
TORSDOF 3
ENDMDL
MODEL 2
REMARK VINA RESULT:    -2.447     14.284     15.530
REMARK INTER + INTRA:          -3.001
REMARK INTER:                  -2.969
REMARK INTRA:                  -0.031
REMARK UNBOUND:                -0.124
REMARK SMILES O=C([O-])CCC(=O)[O-]
REMARK SMILES IDX 4 1 2 2 1 3 3 4 5 5 6 6 7 7 8 8
REMARK H PARENT
REMARK Flexibility Score: inf
ROOT
ATOM      1  C   UNL     1      48.717  44.923  14.880  1.00  0.00     0.059 C 
ENDROOT
BRANCH   1   2
ATOM      2  C   UNL     1      50.162  45.247  14.666  1.00  0.00     0.042 C 
ATOM      3  O   UNL     1      50.508  46.027  13.740  1.00  0.00    -0.550 OA
ATOM      4  O   UNL     1      51.133  44.648  15.460  1.00  0.00    -0.550 OA
ENDBRANCH   1   2
BRANCH   1   5
ATOM      5  C   UNL     1      48.517  43.410  14.983  1.00  0.00     0.059 C 
BRANCH   5   6
ATOM      6  C   UNL     1      47.158  43.027  14.491  1.00  0.00     0.042 C 
ATOM      7  O   UNL     1      46.966  41.893  13.978  1.00  0.00    -0.550 OA
ATOM      8  O   UNL     1      46.112  43.940  14.552  1.00  0.00    -0.550 OA
ENDBRANCH   5   6
ENDBRANCH   1   5
TORSDOF 3
ENDMDL
MODEL 3
REMARK VINA RESULT:    -2.441      0.427      3.635
REMARK INTER + INTRA:          -2.993
REMARK INTER:                  -2.892
REMARK INTRA:                  -0.101
REMARK UNBOUND:                -0.124
REMARK SMILES O=C([O-])CCC(=O)[O-]
REMARK SMILES IDX 4 1 2 2 1 3 3 4 5 5 6 6 7 7 8 8
REMARK H PARENT
REMARK Flexibility Score: inf
ROOT
ATOM      1  C   UNL     1      63.617  43.914  14.871  1.00  0.00     0.059 C 
ENDROOT
BRANCH   1   2
ATOM      2  C   UNL     1      63.352  45.047  15.812  1.00  0.00     0.042 C 
ATOM      3  O   UNL     1      64.227  45.933  16.001  1.00  0.00    -0.550 OA
ATOM      4  O   UNL     1      62.158  45.098  16.520  1.00  0.00    -0.550 OA
ENDBRANCH   1   2
BRANCH   1   5
ATOM      5  C   UNL     1      64.701  42.994  15.434  1.00  0.00     0.059 C 
BRANCH   5   6
ATOM      6  C   UNL     1      64.083  41.819  16.124  1.00  0.00     0.042 C 
ATOM      7  O   UNL     1      64.087  40.687  15.573  1.00  0.00    -0.550 OA
ATOM      8  O   UNL     1      63.457  41.983  17.354  1.00  0.00    -0.550 OA
ENDBRANCH   5   6
ENDBRANCH   1   5
TORSDOF 3
ENDMDL
MODEL 4
REMARK VINA RESULT:    -2.439     11.518     11.720
REMARK INTER + INTRA:          -2.991
REMARK INTER:                  -2.937
REMARK INTRA:                  -0.054
REMARK UNBOUND:                -0.124
REMARK SMILES O=C([O-])CCC(=O)[O-]
REMARK SMILES IDX 4 1 2 2 1 3 3 4 5 5 6 6 7 7 8 8
REMARK H PARENT
REMARK Flexibility Score: inf
ROOT
ATOM      1  C   UNL     1      57.120  34.018  11.946  1.00  0.00     0.059 C 
ENDROOT
BRANCH   1   2
ATOM      2  C   UNL     1      58.291  33.532  12.740  1.00  0.00     0.042 C 
ATOM      3  O   UNL     1      58.201  33.402  13.990  1.00  0.00    -0.550 OA
ATOM      4  O   UNL     1      59.499  33.268  12.106  1.00  0.00    -0.550 OA
ENDBRANCH   1   2
BRANCH   1   5
ATOM      5  C   UNL     1      56.107  34.712  12.859  1.00  0.00     0.059 C 
BRANCH   5   6
ATOM      6  C   UNL     1      55.547  35.927  12.189  1.00  0.00     0.042 C 
ATOM      7  O   UNL     1      54.474  36.440  12.605  1.00  0.00    -0.550 OA
ATOM      8  O   UNL     1      56.181  36.463  11.076  1.00  0.00    -0.550 OA
ENDBRANCH   5   6
ENDBRANCH   1   5
TORSDOF 3
ENDMDL
MODEL 5
REMARK VINA RESULT:    -2.438     14.250     15.404
REMARK INTER + INTRA:          -2.990
REMARK INTER:                  -2.958
REMARK INTRA:                  -0.032
REMARK UNBOUND:                -0.124
REMARK SMILES O=C([O-])CCC(=O)[O-]
REMARK SMILES IDX 4 1 2 2 1 3 3 4 5 5 6 6 7 7 8 8
REMARK H PARENT
REMARK Flexibility Score: inf
ROOT
ATOM      1  C   UNL     1      48.569  43.417  14.901  1.00  0.00     0.059 C 
ENDROOT
BRANCH   1   2
ATOM      2  C   UNL     1      47.187  43.062  14.450  1.00  0.00     0.042 C 
ATOM      3  O   UNL     1      46.953  41.930  13.950  1.00  0.00    -0.550 OA
ATOM      4  O   UNL     1      46.166  44.000  14.536  1.00  0.00    -0.550 OA
ENDBRANCH   1   2
BRANCH   1   5
ATOM      5  C   UNL     1      48.761  44.935  14.890  1.00  0.00     0.059 C 
BRANCH   5   6
ATOM      6  C   UNL     1      50.202  45.278  14.680  1.00  0.00     0.042 C 
ATOM      7  O   UNL     1      50.536  46.074  13.763  1.00  0.00    -0.550 OA
ATOM      8  O   UNL     1      51.181  44.680  15.464  1.00  0.00    -0.550 OA
ENDBRANCH   5   6
ENDBRANCH   1   5
TORSDOF 3
ENDMDL
MODEL 6
REMARK VINA RESULT:    -2.437     11.514     12.182
REMARK INTER + INTRA:          -2.989
REMARK INTER:                  -2.934
REMARK INTRA:                  -0.055
REMARK UNBOUND:                -0.124
REMARK SMILES O=C([O-])CCC(=O)[O-]
REMARK SMILES IDX 4 1 2 2 1 3 3 4 5 5 6 6 7 7 8 8
REMARK H PARENT
REMARK Flexibility Score: inf
ROOT
ATOM      1  C   UNL     1      56.114  34.667  12.915  1.00  0.00     0.059 C 
ENDROOT
BRANCH   1   2
ATOM      2  C   UNL     1      55.558  35.897  12.270  1.00  0.00     0.042 C 
ATOM      3  O   UNL     1      54.507  36.428  12.716  1.00  0.00    -0.550 OA
ATOM      4  O   UNL     1      56.175  36.431  11.144  1.00  0.00    -0.550 OA
ENDBRANCH   1   2
BRANCH   1   5
ATOM      5  C   UNL     1      57.106  33.975  11.978  1.00  0.00     0.059 C 
BRANCH   5   6
ATOM      6  C   UNL     1      58.309  33.514  12.739  1.00  0.00     0.042 C 
ATOM      7  O   UNL     1      58.237  33.325  13.982  1.00  0.00    -0.550 OA
ATOM      8  O   UNL     1      59.523  33.343  12.086  1.00  0.00    -0.550 OA
ENDBRANCH   5   6
ENDBRANCH   1   5
TORSDOF 3
ENDMDL
MODEL 7
REMARK VINA RESULT:    -2.400     13.574     15.100
REMARK INTER + INTRA:          -2.946
REMARK INTER:                  -2.864
REMARK INTRA:                  -0.082
REMARK UNBOUND:                -0.124
REMARK SMILES O=C([O-])CCC(=O)[O-]
REMARK SMILES IDX 4 1 2 2 1 3 3 4 5 5 6 6 7 7 8 8
REMARK H PARENT
REMARK Flexibility Score: inf
ROOT
ATOM      1  C   UNL     1      50.362  49.867  11.078  1.00  0.00     0.059 C 
ENDROOT
BRANCH   1   2
ATOM      2  C   UNL     1      50.723  49.964   9.629  1.00  0.00     0.042 C 
ATOM      3  O   UNL     1      49.832  49.856   8.745  1.00  0.00    -0.550 OA
ATOM      4  O   UNL     1      52.051  50.124   9.253  1.00  0.00    -0.550 OA
ENDBRANCH   1   2
BRANCH   1   5
ATOM      5  C   UNL     1      51.622  49.898  11.945  1.00  0.00     0.059 C 
BRANCH   5   6
ATOM      6  C   UNL     1      51.665  48.706  12.848  1.00  0.00     0.042 C 
ATOM      7  O   UNL     1      51.762  47.548  12.363  1.00  0.00    -0.550 OA
ATOM      8  O   UNL     1      51.548  48.869  14.223  1.00  0.00    -0.550 OA
ENDBRANCH   5   6
ENDBRANCH   1   5
TORSDOF 3
ENDMDL
MODEL 8
REMARK VINA RESULT:    -2.354     13.469     14.455
REMARK INTER + INTRA:          -2.891
REMARK INTER:                  -2.772
REMARK INTRA:                  -0.119
REMARK UNBOUND:                -0.124
REMARK SMILES O=C([O-])CCC(=O)[O-]
REMARK SMILES IDX 4 1 2 2 1 3 3 4 5 5 6 6 7 7 8 8
REMARK H PARENT
REMARK Flexibility Score: inf
ROOT
ATOM      1  C   UNL     1      52.117  49.020  12.349  1.00  0.00     0.059 C 
ENDROOT
BRANCH   1   2
ATOM      2  C   UNL     1      51.228  49.483  11.239  1.00  0.00     0.042 C 
ATOM      3  O   UNL     1      51.594  49.363  10.040  1.00  0.00    -0.550 OA
ATOM      4  O   UNL     1      50.014  50.093  11.530  1.00  0.00    -0.550 OA
ENDBRANCH   1   2
BRANCH   1   5
ATOM      5  C   UNL     1      51.956  47.515  12.570  1.00  0.00     0.059 C 
BRANCH   5   6
ATOM      6  C   UNL     1      50.976  47.250  13.669  1.00  0.00     0.042 C 
ATOM      7  O   UNL     1      50.652  48.171  14.464  1.00  0.00    -0.550 OA
ATOM      8  O   UNL     1      50.457  45.973  13.847  1.00  0.00    -0.550 OA
ENDBRANCH   5   6
ENDBRANCH   1   5
TORSDOF 3
ENDMDL
