MODEL 1
REMARK VINA RESULT:    -3.664      0.000      0.000
REMARK INTER + INTRA:          -3.769
REMARK INTER:                  -4.521
REMARK INTRA:                   0.752
REMARK UNBOUND:                 0.752
REMARK SMILES CC1=CC=CC(C)(C)CC1=O
REMARK SMILES IDX 1 1 2 2 3 3 10 4 11 5 9 6 4 8 5 9 6 10 7 11 8 12
REMARK H PARENT
REMARK Flexibility Score: 80.00
ROOT
ATOM      1  C   UNL     1      -0.146   4.315  16.848  1.00  0.00     0.048 C 
ATOM      2  C   UNL     1      -0.294   5.094  15.562  1.00  0.00    -0.008 C 
ATOM      3  C   UNL     1       0.007   6.411  15.590  1.00  0.00     0.007 C 
ENDROOT
BRANCH   2   4
ATOM      4  C   UNL     1      -0.832   4.364  14.387  1.00  0.00     0.159 C 
ATOM      5  O   UNL     1      -1.312   3.210  14.555  1.00  0.00    -0.295 OA
BRANCH   4   6
ATOM      6  C   UNL     1      -0.826   4.919  12.996  1.00  0.00     0.091 CG0
ATOM      7  G   UNL     1      -1.587   6.258  12.871  1.00  0.00     0.000 G0
ENDBRANCH   4   6
ENDBRANCH   2   4
BRANCH   3   8
ATOM      8  C   UNL     1      -0.063   7.426  14.513  1.00  0.00    -0.003 C 
ATOM      9  C   UNL     1      -0.736   7.384  13.356  1.00  0.00    -0.020 C 
BRANCH   9  10
ATOM     10  C   UNL     1      -1.585   6.240  12.852  1.00  0.00    -0.010 CG0
ATOM     11  C   UNL     1      -2.944   6.229  13.586  1.00  0.00     0.016 C 
ATOM     12  C   UNL     1      -1.856   6.465  11.347  1.00  0.00     0.016 C 
ATOM     13  G   UNL     1      -0.813   4.911  13.009  1.00  0.00     0.000 G0
ENDBRANCH   9  10
ENDBRANCH   3   8
TORSDOF 0
ENDMDL
MODEL 2
REMARK VINA RESULT:    -3.430      2.150      2.974
REMARK INTER + INTRA:          -3.480
REMARK INTER:                  -4.238
REMARK INTRA:                   0.759
REMARK UNBOUND:                 0.752
REMARK SMILES CC1=CC=CC(C)(C)CC1=O
REMARK SMILES IDX 1 1 2 2 3 3 10 4 11 5 9 6 4 8 5 9 6 10 7 11 8 12
REMARK H PARENT
REMARK Flexibility Score: 80.00
ROOT
ATOM      1  C   UNL     1       0.728   5.145  18.082  1.00  0.00     0.048 C 
ATOM      2  C   UNL     1      -0.124   5.446  16.872  1.00  0.00    -0.008 C 
ATOM      3  C   UNL     1      -0.139   4.535  15.874  1.00  0.00     0.007 C 
ENDROOT
BRANCH   2   4
ATOM      4  C   UNL     1      -0.821   6.756  16.844  1.00  0.00     0.159 C 
ATOM      5  O   UNL     1      -0.522   7.622  17.712  1.00  0.00    -0.295 OA
BRANCH   4   6
ATOM      6  C   UNL     1      -1.878   7.109  15.844  1.00  0.00     0.091 CG0
ATOM      7  G   UNL     1      -1.389   7.017  14.381  1.00  0.00     0.000 G0
ENDBRANCH   4   6
ENDBRANCH   2   4
BRANCH   3   8
ATOM      8  C   UNL     1      -0.845   4.561  14.572  1.00  0.00    -0.003 C 
ATOM      9  C   UNL     1      -1.374   5.604  13.920  1.00  0.00    -0.020 C 
BRANCH   9  10
ATOM     10  C   UNL     1      -1.397   7.039  14.390  1.00  0.00    -0.010 CG0
ATOM     11  C   UNL     1      -0.005   7.681  14.195  1.00  0.00     0.016 C 
ATOM     12  C   UNL     1      -2.408   7.818  13.517  1.00  0.00     0.016 C 
ATOM     13  G   UNL     1      -1.881   7.099  15.856  1.00  0.00     0.000 G0
ENDBRANCH   9  10
ENDBRANCH   3   8
TORSDOF 0
ENDMDL
MODEL 3
REMARK VINA RESULT:    -3.420      1.889      2.826
REMARK INTER + INTRA:          -3.467
REMARK INTER:                  -4.229
REMARK INTRA:                   0.762
REMARK UNBOUND:                 0.752
REMARK SMILES CC1=CC=CC(C)(C)CC1=O
REMARK SMILES IDX 1 1 2 2 3 3 10 4 11 5 9 6 4 8 5 9 6 10 7 11 8 12
REMARK H PARENT
REMARK Flexibility Score: 80.00
ROOT
ATOM      1  C   UNL     1      -0.387   8.089  16.181  1.00  0.00     0.048 C 
ATOM      2  C   UNL     1      -0.894   7.039  15.220  1.00  0.00    -0.008 C 
ATOM      3  C   UNL     1      -0.422   5.782  15.360  1.00  0.00     0.007 C 
ENDROOT
BRANCH   2   4
ATOM      4  C   UNL     1      -1.815   7.493  14.148  1.00  0.00     0.159 C 
ATOM      5  O   UNL     1      -1.983   8.732  13.975  1.00  0.00    -0.295 OA
BRANCH   4   6
ATOM      6  C   UNL     1      -2.573   6.556  13.259  1.00  0.00     0.091 CG0
ATOM      7  G   UNL     1      -1.659   5.607  12.452  1.00  0.00     0.000 G0
ENDBRANCH   4   6
ENDBRANCH   2   4
BRANCH   3   8
ATOM      8  C   UNL     1      -0.707   4.564  14.566  1.00  0.00    -0.003 C 
ATOM      9  C   UNL     1      -1.223   4.462  13.335  1.00  0.00    -0.020 C 
BRANCH   9  10
ATOM     10  C   UNL     1      -1.674   5.602  12.452  1.00  0.00    -0.010 CG0
ATOM     11  C   UNL     1      -0.447   6.313  11.840  1.00  0.00     0.016 C 
ATOM     12  C   UNL     1      -2.514   5.015  11.294  1.00  0.00     0.016 C 
ATOM     13  G   UNL     1      -2.575   6.561  13.262  1.00  0.00     0.000 G0
ENDBRANCH   9  10
ENDBRANCH   3   8
TORSDOF 0
ENDMDL
MODEL 4
REMARK VINA RESULT:    -3.338     18.609     19.752
REMARK INTER + INTRA:          -3.366
REMARK INTER:                  -4.119
REMARK INTRA:                   0.753
REMARK UNBOUND:                 0.752
REMARK SMILES CC1=CC=CC(C)(C)CC1=O
REMARK SMILES IDX 1 1 2 2 3 3 10 4 11 5 9 6 4 8 5 9 6 10 7 11 8 12
REMARK H PARENT
REMARK Flexibility Score: 80.00
ROOT
ATOM      1  C   UNL     1     -15.713  -8.247   9.000  1.00  0.00     0.048 C 
ATOM      2  C   UNL     1     -16.040  -6.868   8.476  1.00  0.00    -0.008 C 
ATOM      3  C   UNL     1     -17.343  -6.519   8.406  1.00  0.00     0.007 C 
ENDROOT
BRANCH   2   4
ATOM      4  C   UNL     1     -14.904  -6.034   8.010  1.00  0.00     0.159 C 
ATOM      5  O   UNL     1     -13.777  -6.578   7.847  1.00  0.00    -0.295 OA
BRANCH   4   6
ATOM      6  C   UNL     1     -15.016  -4.567   7.731  1.00  0.00     0.091 CG0
ATOM      7  G   UNL     1     -16.031  -4.235   6.614  1.00  0.00     0.000 G0
ENDBRANCH   4   6
ENDBRANCH   2   4
BRANCH   3   8
ATOM      8  C   UNL     1     -17.968  -5.267   7.919  1.00  0.00    -0.003 C 
ATOM      9  C   UNL     1     -17.440  -4.303   7.153  1.00  0.00    -0.020 C 
BRANCH   9  10
ATOM     10  C   UNL     1     -16.030  -4.256   6.613  1.00  0.00    -0.010 CG0
ATOM     11  C   UNL     1     -15.895  -5.209   5.404  1.00  0.00     0.016 C 
ATOM     12  C   UNL     1     -15.747  -2.818   6.122  1.00  0.00     0.016 C 
ATOM     13  G   UNL     1     -15.029  -4.583   7.744  1.00  0.00     0.000 G0
ENDBRANCH   9  10
ENDBRANCH   3   8
TORSDOF 0
ENDMDL
MODEL 5
REMARK VINA RESULT:    -3.317      2.299      3.820
REMARK INTER + INTRA:          -3.340
REMARK INTER:                  -4.091
REMARK INTRA:                   0.751
REMARK UNBOUND:                 0.752
REMARK SMILES CC1=CC=CC(C)(C)CC1=O
REMARK SMILES IDX 1 1 2 2 3 3 10 4 11 5 9 6 4 8 5 9 6 10 7 11 8 12
REMARK H PARENT
REMARK Flexibility Score: 80.00
ROOT
ATOM      1  C   UNL     1      -1.448   4.756  12.859  1.00  0.00     0.048 C 
ATOM      2  C   UNL     1      -0.839   5.447  14.057  1.00  0.00    -0.008 C 
ATOM      3  C   UNL     1      -0.427   4.673  15.084  1.00  0.00     0.007 C 
ENDROOT
BRANCH   2   4
ATOM      4  C   UNL     1      -0.812   6.931  14.039  1.00  0.00     0.159 C 
ATOM      5  O   UNL     1      -1.463   7.541  13.146  1.00  0.00    -0.295 OA
BRANCH   4   6
ATOM      6  C   UNL     1      -0.039   7.755  15.022  1.00  0.00     0.091 CG0
ATOM      7  G   UNL     1      -0.472   7.523  16.486  1.00  0.00     0.000 G0
ENDBRANCH   4   6
ENDBRANCH   2   4
BRANCH   3   8
ATOM      8  C   UNL     1       0.175   5.056  16.382  1.00  0.00    -0.003 C 
ATOM      9  C   UNL     1       0.163   6.244  17.000  1.00  0.00    -0.020 C 
BRANCH   9  10
ATOM     10  C   UNL     1      -0.465   7.518  16.485  1.00  0.00    -0.010 CG0
ATOM     11  C   UNL     1      -1.998   7.463  16.670  1.00  0.00     0.016 C 
ATOM     12  C   UNL     1       0.076   8.698  17.324  1.00  0.00     0.016 C 
ATOM     13  G   UNL     1      -0.050   7.744  15.014  1.00  0.00     0.000 G0
ENDBRANCH   9  10
ENDBRANCH   3   8
TORSDOF 0
ENDMDL
MODEL 6
REMARK VINA RESULT:    -3.305      1.703      2.177
REMARK INTER + INTRA:          -3.325
REMARK INTER:                  -4.077
REMARK INTRA:                   0.752
REMARK UNBOUND:                 0.752
REMARK SMILES CC1=CC=CC(C)(C)CC1=O
REMARK SMILES IDX 1 1 2 2 3 3 10 4 11 5 9 6 4 8 5 9 6 10 7 11 8 12
REMARK H PARENT
REMARK Flexibility Score: 80.00
ROOT
ATOM      1  C   UNL     1      -0.842   4.108  14.628  1.00  0.00     0.048 C 
ATOM      2  C   UNL     1      -1.325   5.366  13.944  1.00  0.00    -0.008 C 
ATOM      3  C   UNL     1      -1.573   6.444  14.719  1.00  0.00     0.007 C 
ENDROOT
BRANCH   2   4
ATOM      4  C   UNL     1      -1.561   5.291  12.480  1.00  0.00     0.159 C 
ATOM      5  O   UNL     1      -1.549   4.161  11.919  1.00  0.00    -0.295 OA
BRANCH   4   6
ATOM      6  C   UNL     1      -1.801   6.494  11.620  1.00  0.00     0.091 CG0
ATOM      7  G   UNL     1      -3.044   7.307  12.043  1.00  0.00     0.000 G0
ENDBRANCH   4   6
ENDBRANCH   2   4
BRANCH   3   8
ATOM      8  C   UNL     1      -2.073   7.788  14.347  1.00  0.00    -0.003 C 
ATOM      9  C   UNL     1      -2.703   8.175  13.231  1.00  0.00    -0.020 C 
BRANCH   9  10
ATOM     10  C   UNL     1      -3.038   7.306  12.042  1.00  0.00    -0.010 CG0
ATOM     11  C   UNL     1      -4.262   6.420  12.364  1.00  0.00     0.016 C 
ATOM     12  C   UNL     1      -3.414   8.228  10.859  1.00  0.00     0.016 C 
ATOM     13  G   UNL     1      -1.797   6.482  11.634  1.00  0.00     0.000 G0
ENDBRANCH   9  10
ENDBRANCH   3   8
TORSDOF 0
ENDMDL
MODEL 7
REMARK VINA RESULT:    -3.230      3.491      5.127
REMARK INTER + INTRA:          -3.233
REMARK INTER:                  -3.996
REMARK INTRA:                   0.763
REMARK UNBOUND:                 0.752
REMARK SMILES CC1=CC=CC(C)(C)CC1=O
REMARK SMILES IDX 1 1 2 2 3 3 10 4 11 5 9 6 4 8 5 9 6 10 7 11 8 12
REMARK H PARENT
REMARK Flexibility Score: 80.00
ROOT
ATOM      1  C   UNL     1      -0.866   5.447  11.850  1.00  0.00     0.048 C 
ATOM      2  C   UNL     1      -2.274   5.169  11.377  1.00  0.00    -0.008 C 
ATOM      3  C   UNL     1      -2.466   4.094  10.583  1.00  0.00     0.007 C 
ENDROOT
BRANCH   2   4
ATOM      4  C   UNL     1      -3.322   6.146  11.764  1.00  0.00     0.159 C 
ATOM      5  O   UNL     1      -2.971   7.239  12.289  1.00  0.00    -0.295 OA
BRANCH   4   6
ATOM      6  C   UNL     1      -4.788   5.902  11.578  1.00  0.00     0.091 CG0
ATOM      7  G   UNL     1      -5.182   5.653  10.105  1.00  0.00     0.000 G0
ENDBRANCH   4   6
ENDBRANCH   2   4
BRANCH   3   8
ATOM      8  C   UNL     1      -3.707   3.589   9.950  1.00  0.00    -0.003 C 
ATOM      9  C   UNL     1      -4.861   4.230   9.724  1.00  0.00    -0.020 C 
BRANCH   9  10
ATOM     10  C   UNL     1      -5.184   5.657  10.100  1.00  0.00    -0.010 CG0
ATOM     11  C   UNL     1      -4.491   6.630   9.121  1.00  0.00     0.016 C 
ATOM     12  C   UNL     1      -6.711   5.857   9.973  1.00  0.00     0.016 C 
ATOM     13  G   UNL     1      -4.786   5.909  11.572  1.00  0.00     0.000 G0
ENDBRANCH   9  10
ENDBRANCH   3   8
TORSDOF 0
ENDMDL
MODEL 8
REMARK VINA RESULT:    -3.166      2.201      3.440
REMARK INTER + INTRA:          -3.154
REMARK INTER:                  -3.912
REMARK INTRA:                   0.758
REMARK UNBOUND:                 0.752
REMARK SMILES CC1=CC=CC(C)(C)CC1=O
REMARK SMILES IDX 1 1 2 2 3 3 10 4 11 5 9 6 4 8 5 9 6 10 7 11 8 12
REMARK H PARENT
REMARK Flexibility Score: 80.00
ROOT
ATOM      1  C   UNL     1      -0.743   4.151  13.767  1.00  0.00     0.048 C 
ATOM      2  C   UNL     1      -1.338   5.476  14.185  1.00  0.00    -0.008 C 
ATOM      3  C   UNL     1      -2.113   6.124  13.289  1.00  0.00     0.007 C 
ENDROOT
BRANCH   2   4
ATOM      4  C   UNL     1      -0.960   5.994  15.523  1.00  0.00     0.159 C 
ATOM      5  O   UNL     1      -0.026   5.426  16.154  1.00  0.00    -0.295 OA
BRANCH   4   6
ATOM      6  C   UNL     1      -1.639   7.156  16.181  1.00  0.00     0.091 CG0
ATOM      7  G   UNL     1      -1.545   8.461  15.360  1.00  0.00     0.000 G0
ENDBRANCH   4   6
ENDBRANCH   2   4
BRANCH   3   8
ATOM      8  C   UNL     1      -2.802   7.431  13.397  1.00  0.00    -0.003 C 
ATOM      9  C   UNL     1      -2.576   8.436  14.252  1.00  0.00    -0.020 C 
BRANCH   9  10
ATOM     10  C   UNL     1      -1.549   8.459  15.359  1.00  0.00    -0.010 CG0
ATOM     11  C   UNL     1      -0.141   8.702  14.768  1.00  0.00     0.016 C 
ATOM     12  C   UNL     1      -1.880   9.638  16.303  1.00  0.00     0.016 C 
ATOM     13  G   UNL     1      -1.634   7.151  16.175  1.00  0.00     0.000 G0
ENDBRANCH   9  10
ENDBRANCH   3   8
TORSDOF 0
ENDMDL
MODEL 9
REMARK VINA RESULT:    -3.158      4.370      6.463
REMARK INTER + INTRA:          -3.144
REMARK INTER:                  -3.895
REMARK INTRA:                   0.751
REMARK UNBOUND:                 0.752
REMARK SMILES CC1=CC=CC(C)(C)CC1=O
REMARK SMILES IDX 1 1 2 2 3 3 10 4 11 5 9 6 4 8 5 9 6 10 7 11 8 12
REMARK H PARENT
REMARK Flexibility Score: 80.00
ROOT
ATOM      1  C   UNL     1      -5.426   3.176   7.008  1.00  0.00     0.048 C 
ATOM      2  C   UNL     1      -5.270   3.795   8.377  1.00  0.00    -0.008 C 
ATOM      3  C   UNL     1      -6.354   4.385   8.925  1.00  0.00     0.007 C 
ENDROOT
BRANCH   2   4
ATOM      4  C   UNL     1      -3.913   3.771   8.979  1.00  0.00     0.159 C 
ATOM      5  O   UNL     1      -2.934   3.429   8.259  1.00  0.00    -0.295 OA
BRANCH   4   6
ATOM      6  C   UNL     1      -3.637   4.119  10.409  1.00  0.00     0.091 CG0
ATOM      7  G   UNL     1      -4.061   5.558  10.779  1.00  0.00     0.000 G0
ENDBRANCH   4   6
ENDBRANCH   2   4
BRANCH   3   8
ATOM      8  C   UNL     1      -6.502   5.089  10.221  1.00  0.00    -0.003 C 
ATOM      9  C   UNL     1      -5.553   5.601  11.015  1.00  0.00    -0.020 C 
BRANCH   9  10
ATOM     10  C   UNL     1      -4.062   5.554  10.780  1.00  0.00    -0.010 CG0
ATOM     11  C   UNL     1      -3.662   6.599   9.715  1.00  0.00     0.016 C 
ATOM     12  C   UNL     1      -3.351   5.923  12.102  1.00  0.00     0.016 C 
ATOM     13  G   UNL     1      -3.642   4.118  10.393  1.00  0.00     0.000 G0
ENDBRANCH   9  10
ENDBRANCH   3   8
TORSDOF 0
ENDMDL
