MODEL 1
REMARK VINA RESULT:    -6.229      0.000      0.000
REMARK INTER + INTRA:         -10.399
REMARK INTER:                  -8.960
REMARK INTRA:                  -1.439
REMARK UNBOUND:                -1.439
REMARK SMILES O=c1c(O[C@H]2O[C@H](CO)[C@H](O)[C@@H](O)[C@H]2O)c(-c2ccc(O)cc2)oc2cc(O)cc(O)c12
REMARK SMILES IDX 4 1 3 2 16 3 24 4 2 5 25 6 1 7 32 8 26 9 30 10 27 11 29 12
REMARK SMILES IDX 17 13 18 14 19 15 20 16 23 17 22 18 21 19 31 21 28 23 5 25
REMARK SMILES IDX 14 26 6 27 12 28 7 29 10 30 15 31 13 33 8 35 9 36 11 38
REMARK H PARENT 21 20 31 22 28 24 15 32 13 34 9 37 11 39
REMARK Flexibility Score: inf
ROOT
ATOM      1  O   UNL     1     104.318 120.863 121.376  1.00  0.00    -0.454 OA
ENDROOT
BRANCH   1   2
ATOM      2  C   UNL     1     105.710 120.938 121.223  1.00  0.00     0.214 A 
ATOM      3  C   UNL     1     106.233 121.711 120.181  1.00  0.00     0.180 A 
ATOM      4  O   UNL     1     107.545 121.793 119.999  1.00  0.00    -0.452 OA
ATOM      5  C   UNL     1     106.600 120.267 122.080  1.00  0.00     0.239 A 
ATOM      6  C   UNL     1     108.426 121.171 120.774  1.00  0.00     0.146 A 
ATOM      7  O   UNL     1     106.136 119.654 123.076  1.00  0.00    -0.285 OA
ATOM      8  C   UNL     1     107.997 120.342 121.845  1.00  0.00     0.111 A 
ATOM      9  C   UNL     1     109.788 121.365 120.526  1.00  0.00     0.094 A 
ATOM     10  C   UNL     1     108.991 119.674 122.627  1.00  0.00     0.134 A 
ATOM     11  C   UNL     1     110.747 120.760 121.334  1.00  0.00     0.123 A 
ATOM     12  C   UNL     1     110.346 119.910 122.366  1.00  0.00     0.093 A 
BRANCH   3  13
ATOM     13  C   UNL     1     105.343 122.424 119.246  1.00  0.00     0.021 A 
ATOM     14  C   UNL     1     104.971 123.751 119.516  1.00  0.00     0.016 A 
ATOM     15  C   UNL     1     104.157 124.448 118.619  1.00  0.00     0.047 A 
ATOM     16  C   UNL     1     103.664 123.808 117.474  1.00  0.00     0.115 A 
ATOM     17  C   UNL     1     104.900 121.806 118.068  1.00  0.00     0.016 A 
ATOM     18  C   UNL     1     104.036 122.484 117.201  1.00  0.00     0.047 A 
BRANCH  16  19
ATOM     19  O   UNL     1     102.811 124.496 116.612  1.00  0.00    -0.508 OA
ATOM     20  H   UNL     1     102.343 125.346 116.907  1.00  0.00     0.293 HD
ENDBRANCH  16  19
ENDBRANCH   3  13
BRANCH  10  21
ATOM     21  O   UNL     1     108.709 118.760 123.647  1.00  0.00    -0.507 OA
ATOM     22  H   UNL     1     107.815 118.641 124.097  1.00  0.00     0.293 HD
ENDBRANCH  10  21
BRANCH  11  23
ATOM     23  O   UNL     1     112.102 121.020 121.117  1.00  0.00    -0.508 OA
ATOM     24  H   UNL     1     112.681 120.375 120.588  1.00  0.00     0.293 HD
ENDBRANCH  11  23
ENDBRANCH   1   2
BRANCH   1  25
ATOM     25  C   UNL     1     103.484 119.909 120.708  1.00  0.00     0.339 C 
ATOM     26  C   UNL     1     102.036 120.433 120.622  1.00  0.00     0.214 C 
ATOM     27  O   UNL     1     103.534 118.637 121.334  1.00  0.00    -0.332 OA
ATOM     28  C   UNL     1     101.370 120.451 122.014  1.00  0.00     0.180 C 
ATOM     29  C   UNL     1     103.080 118.697 122.678  1.00  0.00     0.179 C 
ATOM     30  C   UNL     1     101.585 119.107 122.739  1.00  0.00     0.177 C 
BRANCH  26  31
ATOM     31  O   UNL     1     102.008 121.721 120.065  1.00  0.00    -0.384 OA
ATOM     32  H   UNL     1     102.951 122.018 119.979  1.00  0.00     0.211 HD
ENDBRANCH  26  31
BRANCH  28  33
ATOM     33  O   UNL     1     101.907 121.492 122.795  1.00  0.00    -0.387 OA
ATOM     34  H   UNL     1     101.152 121.906 123.289  1.00  0.00     0.211 HD
ENDBRANCH  28  33
BRANCH  29  35
ATOM     35  C   UNL     1     103.321 117.326 123.332  1.00  0.00     0.191 C 
BRANCH  35  36
ATOM     36  O   UNL     1     104.631 116.876 123.100  1.00  0.00    -0.394 OA
ATOM     37  H   UNL     1     105.230 117.454 123.641  1.00  0.00     0.210 HD
ENDBRANCH  35  36
ENDBRANCH  29  35
BRANCH  30  38
ATOM     38  O   UNL     1     100.736 118.112 122.213  1.00  0.00    -0.387 OA
ATOM     39  H   UNL     1      99.852 118.195 122.655  1.00  0.00     0.211 HD
ENDBRANCH  30  38
ENDBRANCH   1  25
TORSDOF 11
ENDMDL
MODEL 2
REMARK VINA RESULT:    -6.158      1.288      2.625
REMARK INTER + INTRA:         -10.298
REMARK INTER:                  -8.401
REMARK INTRA:                  -1.896
REMARK UNBOUND:                -1.439
REMARK SMILES O=c1c(O[C@H]2O[C@H](CO)[C@H](O)[C@@H](O)[C@H]2O)c(-c2ccc(O)cc2)oc2cc(O)cc(O)c12
REMARK SMILES IDX 4 1 3 2 16 3 24 4 2 5 25 6 1 7 32 8 26 9 30 10 27 11 29 12
REMARK SMILES IDX 17 13 18 14 19 15 20 16 23 17 22 18 21 19 31 21 28 23 5 25
REMARK SMILES IDX 14 26 6 27 12 28 7 29 10 30 15 31 13 33 8 35 9 36 11 38
REMARK H PARENT 21 20 31 22 28 24 15 32 13 34 9 37 11 39
REMARK Flexibility Score: inf
ROOT
ATOM      1  O   UNL     1     104.349 120.930 121.339  1.00  0.00    -0.454 OA
ENDROOT
BRANCH   1   2
ATOM      2  C   UNL     1     105.742 120.972 121.178  1.00  0.00     0.214 A 
ATOM      3  C   UNL     1     106.275 121.691 120.102  1.00  0.00     0.180 A 
ATOM      4  O   UNL     1     107.587 121.739 119.912  1.00  0.00    -0.452 OA
ATOM      5  C   UNL     1     106.623 120.320 122.059  1.00  0.00     0.239 A 
ATOM      6  C   UNL     1     108.459 121.133 120.709  1.00  0.00     0.146 A 
ATOM      7  O   UNL     1     106.152 119.758 123.081  1.00  0.00    -0.285 OA
ATOM      8  C   UNL     1     108.020 120.358 121.816  1.00  0.00     0.111 A 
ATOM      9  C   UNL     1     109.824 121.290 120.448  1.00  0.00     0.094 A 
ATOM     10  C   UNL     1     109.004 119.704 122.620  1.00  0.00     0.134 A 
ATOM     11  C   UNL     1     110.775 120.701 121.277  1.00  0.00     0.123 A 
ATOM     12  C   UNL     1     110.363 119.902 122.345  1.00  0.00     0.093 A 
BRANCH   3  13
ATOM     13  C   UNL     1     105.394 122.381 119.142  1.00  0.00     0.021 A 
ATOM     14  C   UNL     1     105.224 123.772 119.232  1.00  0.00     0.016 A 
ATOM     15  C   UNL     1     104.421 124.442 118.305  1.00  0.00     0.047 A 
ATOM     16  C   UNL     1     103.737 123.721 117.316  1.00  0.00     0.115 A 
ATOM     17  C   UNL     1     104.760 121.670 118.114  1.00  0.00     0.016 A 
ATOM     18  C   UNL     1     103.908 122.332 117.224  1.00  0.00     0.047 A 
BRANCH  16  19
ATOM     19  O   UNL     1     102.897 124.393 116.429  1.00  0.00    -0.508 OA
ATOM     20  H   UNL     1     101.896 124.426 116.579  1.00  0.00     0.293 HD
ENDBRANCH  16  19
ENDBRANCH   3  13
BRANCH  10  21
ATOM     21  O   UNL     1     108.710 118.838 123.679  1.00  0.00    -0.507 OA
ATOM     22  H   UNL     1     107.845 118.336 123.801  1.00  0.00     0.293 HD
ENDBRANCH  10  21
BRANCH  11  23
ATOM     23  O   UNL     1     112.134 120.925 121.044  1.00  0.00    -0.508 OA
ATOM     24  H   UNL     1     112.806 120.903 121.805  1.00  0.00     0.293 HD
ENDBRANCH  11  23
ENDBRANCH   1   2
BRANCH   1  25
ATOM     25  C   UNL     1     103.618 121.770 122.240  1.00  0.00     0.339 C 
ATOM     26  C   UNL     1     102.734 120.913 123.169  1.00  0.00     0.214 C 
ATOM     27  O   UNL     1     102.847 122.739 121.548  1.00  0.00    -0.332 OA
ATOM     28  C   UNL     1     101.569 120.270 122.388  1.00  0.00     0.180 C 
ATOM     29  C   UNL     1     101.888 122.133 120.694  1.00  0.00     0.179 C 
ATOM     30  C   UNL     1     100.853 121.319 121.515  1.00  0.00     0.177 C 
BRANCH  26  31
ATOM     31  O   UNL     1     103.496 119.914 123.794  1.00  0.00    -0.384 OA
ATOM     32  H   UNL     1     104.341 120.340 124.093  1.00  0.00     0.211 HD
ENDBRANCH  26  31
BRANCH  28  33
ATOM     33  O   UNL     1     102.050 119.232 121.567  1.00  0.00    -0.387 OA
ATOM     34  H   UNL     1     101.463 118.446 121.716  1.00  0.00     0.211 HD
ENDBRANCH  28  33
BRANCH  29  35
ATOM     35  C   UNL     1     101.214 123.237 119.862  1.00  0.00     0.191 C 
BRANCH  35  36
ATOM     36  O   UNL     1      99.937 122.841 119.433  1.00  0.00    -0.394 OA
ATOM     37  H   UNL     1      99.286 123.420 119.910  1.00  0.00     0.210 HD
ENDBRANCH  35  36
ENDBRANCH  29  35
BRANCH  30  38
ATOM     38  O   UNL     1     100.026 122.147 122.302  1.00  0.00    -0.387 OA
ATOM     39  H   UNL     1     100.018 123.052 121.895  1.00  0.00     0.211 HD
ENDBRANCH  30  38
ENDBRANCH   1  25
TORSDOF 11
ENDMDL
MODEL 3
REMARK VINA RESULT:    -6.118      1.706      6.565
REMARK INTER + INTRA:         -10.239
REMARK INTER:                  -8.528
REMARK INTRA:                  -1.711
REMARK UNBOUND:                -1.439
REMARK SMILES O=c1c(O[C@H]2O[C@H](CO)[C@H](O)[C@@H](O)[C@H]2O)c(-c2ccc(O)cc2)oc2cc(O)cc(O)c12
REMARK SMILES IDX 4 1 3 2 16 3 24 4 2 5 25 6 1 7 32 8 26 9 30 10 27 11 29 12
REMARK SMILES IDX 17 13 18 14 19 15 20 16 23 17 22 18 21 19 31 21 28 23 5 25
REMARK SMILES IDX 14 26 6 27 12 28 7 29 10 30 15 31 13 33 8 35 9 36 11 38
REMARK H PARENT 21 20 31 22 28 24 15 32 13 34 9 37 11 39
REMARK Flexibility Score: inf
ROOT
ATOM      1  O   UNL     1     104.191 121.498 119.931  1.00  0.00    -0.454 OA
ENDROOT
BRANCH   1   2
ATOM      2  C   UNL     1     103.995 120.457 120.850  1.00  0.00     0.214 A 
ATOM      3  C   UNL     1     105.114 119.824 121.401  1.00  0.00     0.180 A 
ATOM      4  O   UNL     1     104.964 118.827 122.263  1.00  0.00    -0.452 OA
ATOM      5  C   UNL     1     102.714 120.028 121.241  1.00  0.00     0.239 A 
ATOM      6  C   UNL     1     103.777 118.378 122.656  1.00  0.00     0.146 A 
ATOM      7  O   UNL     1     101.710 120.661 120.824  1.00  0.00    -0.285 OA
ATOM      8  C   UNL     1     102.578 118.937 122.138  1.00  0.00     0.111 A 
ATOM      9  C   UNL     1     103.731 117.355 123.607  1.00  0.00     0.094 A 
ATOM     10  C   UNL     1     101.331 118.393 122.576  1.00  0.00     0.134 A 
ATOM     11  C   UNL     1     102.509 116.877 124.074  1.00  0.00     0.123 A 
ATOM     12  C   UNL     1     101.321 117.385 123.547  1.00  0.00     0.093 A 
BRANCH   3  13
ATOM     13  C   UNL     1     106.479 120.227 121.015  1.00  0.00     0.021 A 
ATOM     14  C   UNL     1     107.273 120.947 121.922  1.00  0.00     0.016 A 
ATOM     15  C   UNL     1     108.581 121.303 121.581  1.00  0.00     0.047 A 
ATOM     16  C   UNL     1     109.085 120.991 120.311  1.00  0.00     0.115 A 
ATOM     17  C   UNL     1     107.007 119.860 119.769  1.00  0.00     0.016 A 
ATOM     18  C   UNL     1     108.294 120.270 119.405  1.00  0.00     0.047 A 
BRANCH  16  19
ATOM     19  O   UNL     1     110.374 121.396 119.961  1.00  0.00    -0.508 OA
ATOM     20  H   UNL     1     110.529 122.246 119.432  1.00  0.00     0.293 HD
ENDBRANCH  16  19
ENDBRANCH   3  13
BRANCH  10  21
ATOM     21  O   UNL     1     100.082 118.784 122.079  1.00  0.00    -0.507 OA
ATOM     22  H   UNL     1      99.920 119.539 121.432  1.00  0.00     0.293 HD
ENDBRANCH  10  21
BRANCH  11  23
ATOM     23  O   UNL     1     102.481 115.904 125.076  1.00  0.00    -0.508 OA
ATOM     24  H   UNL     1     102.648 114.926 124.860  1.00  0.00     0.293 HD
ENDBRANCH  11  23
ENDBRANCH   1   2
BRANCH   1  25
ATOM     25  C   UNL     1     104.388 122.869 120.297  1.00  0.00     0.339 C 
ATOM     26  C   UNL     1     103.270 123.747 119.698  1.00  0.00     0.214 C 
ATOM     27  O   UNL     1     105.671 123.337 119.913  1.00  0.00    -0.332 OA
ATOM     28  C   UNL     1     103.409 123.851 118.164  1.00  0.00     0.180 C 
ATOM     29  C   UNL     1     105.855 123.265 118.507  1.00  0.00     0.179 C 
ATOM     30  C   UNL     1     104.858 124.199 117.770  1.00  0.00     0.177 C 
BRANCH  26  31
ATOM     31  O   UNL     1     102.007 123.232 120.027  1.00  0.00    -0.384 OA
ATOM     32  H   UNL     1     101.450 124.000 120.319  1.00  0.00     0.211 HD
ENDBRANCH  26  31
BRANCH  28  33
ATOM     33  O   UNL     1     103.043 122.632 117.561  1.00  0.00    -0.387 OA
ATOM     34  H   UNL     1     103.718 122.440 116.859  1.00  0.00     0.211 HD
ENDBRANCH  28  33
BRANCH  29  35
ATOM     35  C   UNL     1     107.316 123.629 118.191  1.00  0.00     0.191 C 
BRANCH  35  36
ATOM     36  O   UNL     1     107.400 124.455 117.059  1.00  0.00    -0.394 OA
ATOM     37  H   UNL     1     106.467 124.687 116.807  1.00  0.00     0.210 HD
ENDBRANCH  35  36
ENDBRANCH  29  35
BRANCH  30  38
ATOM     38  O   UNL     1     105.129 125.562 118.007  1.00  0.00    -0.387 OA
ATOM     39  H   UNL     1     104.695 125.819 118.862  1.00  0.00     0.211 HD
ENDBRANCH  30  38
ENDBRANCH   1  25
TORSDOF 11
ENDMDL
MODEL 4
REMARK VINA RESULT:    -6.021      1.621      5.226
REMARK INTER + INTRA:         -10.100
REMARK INTER:                  -8.624
REMARK INTRA:                  -1.476
REMARK UNBOUND:                -1.439
REMARK SMILES O=c1c(O[C@H]2O[C@H](CO)[C@H](O)[C@@H](O)[C@H]2O)c(-c2ccc(O)cc2)oc2cc(O)cc(O)c12
REMARK SMILES IDX 4 1 3 2 16 3 24 4 2 5 25 6 1 7 32 8 26 9 30 10 27 11 29 12
REMARK SMILES IDX 17 13 18 14 19 15 20 16 23 17 22 18 21 19 31 21 28 23 5 25
REMARK SMILES IDX 14 26 6 27 12 28 7 29 10 30 15 31 13 33 8 35 9 36 11 38
REMARK H PARENT 21 20 31 22 28 24 15 32 13 34 9 37 11 39
REMARK Flexibility Score: inf
ROOT
ATOM      1  O   UNL     1     104.239 120.831 120.569  1.00  0.00    -0.454 OA
ENDROOT
BRANCH   1   2
ATOM      2  C   UNL     1     105.608 120.669 120.828  1.00  0.00     0.214 A 
ATOM      3  C   UNL     1     106.000 119.869 121.907  1.00  0.00     0.180 A 
ATOM      4  O   UNL     1     107.286 119.706 122.188  1.00  0.00    -0.452 OA
ATOM      5  C   UNL     1     106.602 121.277 120.040  1.00  0.00     0.239 A 
ATOM      6  C   UNL     1     108.261 120.267 121.482  1.00  0.00     0.146 A 
ATOM      7  O   UNL     1     106.254 121.913 119.012  1.00  0.00    -0.285 OA
ATOM      8  C   UNL     1     107.969 121.116 120.381  1.00  0.00     0.111 A 
ATOM      9  C   UNL     1     109.586 119.989 121.833  1.00  0.00     0.094 A 
ATOM     10  C   UNL     1     109.060 121.715 119.677  1.00  0.00     0.134 A 
ATOM     11  C   UNL     1     110.640 120.527 121.100  1.00  0.00     0.123 A 
ATOM     12  C   UNL     1     110.374 121.395 120.041  1.00  0.00     0.093 A 
BRANCH   3  13
ATOM     13  C   UNL     1     104.998 119.220 122.771  1.00  0.00     0.021 A 
ATOM     14  C   UNL     1     104.504 117.950 122.429  1.00  0.00     0.016 A 
ATOM     15  C   UNL     1     103.581 117.309 123.260  1.00  0.00     0.047 A 
ATOM     16  C   UNL     1     103.103 117.954 124.409  1.00  0.00     0.115 A 
ATOM     17  C   UNL     1     104.566 119.836 123.955  1.00  0.00     0.016 A 
ATOM     18  C   UNL     1     103.597 119.220 124.754  1.00  0.00     0.047 A 
BRANCH  16  19
ATOM     19  O   UNL     1     102.144 117.327 125.204  1.00  0.00    -0.508 OA
ATOM     20  H   UNL     1     102.188 117.377 126.215  1.00  0.00     0.293 HD
ENDBRANCH  16  19
ENDBRANCH   3  13
BRANCH  10  21
ATOM     21  O   UNL     1     108.915 122.640 118.638  1.00  0.00    -0.507 OA
ATOM     22  H   UNL     1     108.056 123.096 118.375  1.00  0.00     0.293 HD
ENDBRANCH  10  21
BRANCH  11  23
ATOM     23  O   UNL     1     111.955 120.183 121.420  1.00  0.00    -0.508 OA
ATOM     24  H   UNL     1     112.159 119.364 121.987  1.00  0.00     0.293 HD
ENDBRANCH  11  23
ENDBRANCH   1   2
BRANCH   1  25
ATOM     25  C   UNL     1     103.430 121.871 121.131  1.00  0.00     0.339 C 
ATOM     26  C   UNL     1     101.949 121.444 121.149  1.00  0.00     0.214 C 
ATOM     27  O   UNL     1     103.603 123.101 120.444  1.00  0.00    -0.332 OA
ATOM     28  C   UNL     1     101.370 121.391 119.719  1.00  0.00     0.180 C 
ATOM     29  C   UNL     1     103.230 122.995 119.079  1.00  0.00     0.179 C 
ATOM     30  C   UNL     1     101.718 122.676 118.941  1.00  0.00     0.177 C 
BRANCH  26  31
ATOM     31  O   UNL     1     101.801 120.193 121.768  1.00  0.00    -0.384 OA
ATOM     32  H   UNL     1     101.183 119.662 121.202  1.00  0.00     0.211 HD
ENDBRANCH  26  31
BRANCH  28  33
ATOM     33  O   UNL     1     101.884 120.276 119.029  1.00  0.00    -0.387 OA
ATOM     34  H   UNL     1     101.108 119.732 118.734  1.00  0.00     0.211 HD
ENDBRANCH  28  33
BRANCH  29  35
ATOM     35  C   UNL     1     103.601 124.309 118.372  1.00  0.00     0.191 C 
BRANCH  35  36
ATOM     36  O   UNL     1     104.785 124.169 117.630  1.00  0.00    -0.394 OA
ATOM     37  H   UNL     1     105.315 123.455 118.073  1.00  0.00     0.210 HD
ENDBRANCH  35  36
ENDBRANCH  29  35
BRANCH  30  38
ATOM     38  O   UNL     1     100.906 123.750 119.359  1.00  0.00    -0.387 OA
ATOM     39  H   UNL     1     100.309 123.997 118.606  1.00  0.00     0.211 HD
ENDBRANCH  30  38
ENDBRANCH   1  25
TORSDOF 11
ENDMDL
MODEL 5
REMARK VINA RESULT:    -5.999      1.837      2.231
REMARK INTER + INTRA:         -10.068
REMARK INTER:                  -8.686
REMARK INTRA:                  -1.382
REMARK UNBOUND:                -1.439
REMARK SMILES O=c1c(O[C@H]2O[C@H](CO)[C@H](O)[C@@H](O)[C@H]2O)c(-c2ccc(O)cc2)oc2cc(O)cc(O)c12
REMARK SMILES IDX 4 1 3 2 16 3 24 4 2 5 25 6 1 7 32 8 26 9 30 10 27 11 29 12
REMARK SMILES IDX 17 13 18 14 19 15 20 16 23 17 22 18 21 19 31 21 28 23 5 25
REMARK SMILES IDX 14 26 6 27 12 28 7 29 10 30 15 31 13 33 8 35 9 36 11 38
REMARK H PARENT 21 20 31 22 28 24 15 32 13 34 9 37 11 39
REMARK Flexibility Score: inf
ROOT
ATOM      1  O   UNL     1     104.759 122.230 121.513  1.00  0.00    -0.454 OA
ENDROOT
BRANCH   1   2
ATOM      2  C   UNL     1     105.986 121.750 121.034  1.00  0.00     0.214 A 
ATOM      3  C   UNL     1     106.303 121.937 119.684  1.00  0.00     0.180 A 
ATOM      4  O   UNL     1     107.450 121.483 119.195  1.00  0.00    -0.452 OA
ATOM      5  C   UNL     1     106.913 121.090 121.861  1.00  0.00     0.239 A 
ATOM      6  C   UNL     1     108.352 120.845 119.931  1.00  0.00     0.146 A 
ATOM      7  O   UNL     1     106.675 121.010 123.094  1.00  0.00    -0.285 OA
ATOM      8  C   UNL     1     108.117 120.583 121.308  1.00  0.00     0.111 A 
ATOM      9  C   UNL     1     109.551 120.453 119.328  1.00  0.00     0.094 A 
ATOM     10  C   UNL     1     109.112 119.867 122.042  1.00  0.00     0.134 A 
ATOM     11  C   UNL     1     110.539 119.812 120.070  1.00  0.00     0.123 A 
ATOM     12  C   UNL     1     110.311 119.510 121.413  1.00  0.00     0.093 A 
BRANCH   3  13
ATOM     13  C   UNL     1     105.361 122.610 118.771  1.00  0.00     0.021 A 
ATOM     14  C   UNL     1     104.519 121.842 117.952  1.00  0.00     0.016 A 
ATOM     15  C   UNL     1     103.596 122.469 117.109  1.00  0.00     0.047 A 
ATOM     16  C   UNL     1     103.548 123.868 117.038  1.00  0.00     0.115 A 
ATOM     17  C   UNL     1     105.266 124.009 118.745  1.00  0.00     0.016 A 
ATOM     18  C   UNL     1     104.386 124.637 117.858  1.00  0.00     0.047 A 
BRANCH  16  19
ATOM     19  O   UNL     1     102.660 124.483 116.156  1.00  0.00    -0.508 OA
ATOM     20  H   UNL     1     101.879 123.974 115.760  1.00  0.00     0.293 HD
ENDBRANCH  16  19
ENDBRANCH   3  13
BRANCH  10  21
ATOM     21  O   UNL     1     108.971 119.462 123.374  1.00  0.00    -0.507 OA
ATOM     22  H   UNL     1     109.422 118.666 123.795  1.00  0.00     0.293 HD
ENDBRANCH  10  21
BRANCH  11  23
ATOM     23  O   UNL     1     111.759 119.490 119.469  1.00  0.00    -0.508 OA
ATOM     24  H   UNL     1     112.039 118.522 119.338  1.00  0.00     0.293 HD
ENDBRANCH  11  23
ENDBRANCH   1   2
BRANCH   1  25
ATOM     25  C   UNL     1     103.561 121.448 121.586  1.00  0.00     0.339 C 
ATOM     26  C   UNL     1     102.322 122.363 121.521  1.00  0.00     0.214 C 
ATOM     27  O   UNL     1     103.537 120.631 122.746  1.00  0.00    -0.332 OA
ATOM     28  C   UNL     1     102.182 123.199 122.810  1.00  0.00     0.180 C 
ATOM     29  C   UNL     1     103.584 121.407 123.934  1.00  0.00     0.179 C 
ATOM     30  C   UNL     1     102.326 122.306 124.058  1.00  0.00     0.177 C 
BRANCH  26  31
ATOM     31  O   UNL     1     102.394 123.215 120.407  1.00  0.00    -0.384 OA
ATOM     32  H   UNL     1     101.567 123.765 120.411  1.00  0.00     0.211 HD
ENDBRANCH  26  31
BRANCH  28  33
ATOM     33  O   UNL     1     103.165 124.207 122.844  1.00  0.00    -0.387 OA
ATOM     34  H   UNL     1     103.098 124.651 123.729  1.00  0.00     0.211 HD
ENDBRANCH  28  33
BRANCH  29  35
ATOM     35  C   UNL     1     103.722 120.452 125.131  1.00  0.00     0.191 C 
BRANCH  35  36
ATOM     36  O   UNL     1     103.341 121.079 126.328  1.00  0.00    -0.394 OA
ATOM     37  H   UNL     1     102.971 121.966 126.078  1.00  0.00     0.210 HD
ENDBRANCH  35  36
ENDBRANCH  29  35
BRANCH  30  38
ATOM     38  O   UNL     1     101.153 121.555 124.275  1.00  0.00    -0.387 OA
ATOM     39  H   UNL     1     100.437 122.176 124.569  1.00  0.00     0.211 HD
ENDBRANCH  30  38
ENDBRANCH   1  25
TORSDOF 11
ENDMDL
MODEL 6
REMARK VINA RESULT:    -5.767      1.841      7.267
REMARK INTER + INTRA:          -9.735
REMARK INTER:                  -8.249
REMARK INTRA:                  -1.486
REMARK UNBOUND:                -1.439
REMARK SMILES O=c1c(O[C@H]2O[C@H](CO)[C@H](O)[C@@H](O)[C@H]2O)c(-c2ccc(O)cc2)oc2cc(O)cc(O)c12
REMARK SMILES IDX 4 1 3 2 16 3 24 4 2 5 25 6 1 7 32 8 26 9 30 10 27 11 29 12
REMARK SMILES IDX 17 13 18 14 19 15 20 16 23 17 22 18 21 19 31 21 28 23 5 25
REMARK SMILES IDX 14 26 6 27 12 28 7 29 10 30 15 31 13 33 8 35 9 36 11 38
REMARK H PARENT 21 20 31 22 28 24 15 32 13 34 9 37 11 39
REMARK Flexibility Score: inf
ROOT
ATOM      1  O   UNL     1     106.275 121.158 119.976  1.00  0.00    -0.454 OA
ENDROOT
BRANCH   1   2
ATOM      2  C   UNL     1     104.971 121.625 119.760  1.00  0.00     0.214 A 
ATOM      3  C   UNL     1     103.898 120.893 120.281  1.00  0.00     0.180 A 
ATOM      4  O   UNL     1     102.650 121.298 120.084  1.00  0.00    -0.452 OA
ATOM      5  C   UNL     1     104.700 122.804 119.043  1.00  0.00     0.239 A 
ATOM      6  C   UNL     1     102.342 122.398 119.405  1.00  0.00     0.146 A 
ATOM      7  O   UNL     1     105.665 123.516 118.662  1.00  0.00    -0.285 OA
ATOM      8  C   UNL     1     103.357 123.199 118.816  1.00  0.00     0.111 A 
ATOM      9  C   UNL     1     100.997 122.763 119.299  1.00  0.00     0.094 A 
ATOM     10  C   UNL     1     102.963 124.355 118.072  1.00  0.00     0.134 A 
ATOM     11  C   UNL     1     100.630 123.925 118.626  1.00  0.00     0.123 A 
ATOM     12  C   UNL     1     101.608 124.704 118.006  1.00  0.00     0.093 A 
BRANCH   3  13
ATOM     13  C   UNL     1     104.126 119.643 121.029  1.00  0.00     0.021 A 
ATOM     14  C   UNL     1     104.209 119.678 122.431  1.00  0.00     0.016 A 
ATOM     15  C   UNL     1     104.389 118.495 123.153  1.00  0.00     0.047 A 
ATOM     16  C   UNL     1     104.544 117.276 122.478  1.00  0.00     0.115 A 
ATOM     17  C   UNL     1     104.217 118.415 120.360  1.00  0.00     0.016 A 
ATOM     18  C   UNL     1     104.458 117.239 121.079  1.00  0.00     0.047 A 
BRANCH  16  19
ATOM     19  O   UNL     1     104.774 116.109 123.205  1.00  0.00    -0.508 OA
ATOM     20  H   UNL     1     105.078 116.146 124.171  1.00  0.00     0.293 HD
ENDBRANCH  16  19
ENDBRANCH   3  13
BRANCH  10  21
ATOM     21  O   UNL     1     103.847 125.177 117.365  1.00  0.00    -0.507 OA
ATOM     22  H   UNL     1     104.455 125.869 117.772  1.00  0.00     0.293 HD
ENDBRANCH  10  21
BRANCH  11  23
ATOM     23  O   UNL     1      99.289 124.312 118.590  1.00  0.00    -0.508 OA
ATOM     24  H   UNL     1      98.790 124.551 119.442  1.00  0.00     0.293 HD
ENDBRANCH  11  23
ENDBRANCH   1   2
BRANCH   1  25
ATOM     25  C   UNL     1     107.270 121.866 120.725  1.00  0.00     0.339 C 
ATOM     26  C   UNL     1     108.591 121.929 119.931  1.00  0.00     0.214 C 
ATOM     27  O   UNL     1     107.469 121.294 122.008  1.00  0.00    -0.332 OA
ATOM     28  C   UNL     1     109.253 120.538 119.845  1.00  0.00     0.180 C 
ATOM     29  C   UNL     1     107.914 119.949 121.919  1.00  0.00     0.179 C 
ATOM     30  C   UNL     1     109.304 119.870 121.233  1.00  0.00     0.177 C 
BRANCH  26  31
ATOM     31  O   UNL     1     108.368 122.431 118.639  1.00  0.00    -0.384 OA
ATOM     32  H   UNL     1     109.162 122.979 118.402  1.00  0.00     0.211 HD
ENDBRANCH  26  31
BRANCH  28  33
ATOM     33  O   UNL     1     108.533 119.714 118.958  1.00  0.00    -0.387 OA
ATOM     34  H   UNL     1     109.187 119.096 118.539  1.00  0.00     0.211 HD
ENDBRANCH  28  33
BRANCH  29  35
ATOM     35  C   UNL     1     107.943 119.354 123.336  1.00  0.00     0.191 C 
BRANCH  35  36
ATOM     36  O   UNL     1     109.177 118.740 123.603  1.00  0.00    -0.394 OA
ATOM     37  H   UNL     1     109.465 119.057 124.500  1.00  0.00     0.210 HD
ENDBRANCH  35  36
ENDBRANCH  29  35
BRANCH  30  38
ATOM     38  O   UNL     1     110.322 120.438 122.026  1.00  0.00    -0.387 OA
ATOM     39  H   UNL     1     110.163 121.416 122.080  1.00  0.00     0.211 HD
ENDBRANCH  30  38
ENDBRANCH   1  25
TORSDOF 11
ENDMDL
MODEL 7
REMARK VINA RESULT:    -5.765      1.746      4.538
REMARK INTER + INTRA:          -9.732
REMARK INTER:                  -7.824
REMARK INTRA:                  -1.909
REMARK UNBOUND:                -1.439
REMARK SMILES O=c1c(O[C@H]2O[C@H](CO)[C@H](O)[C@@H](O)[C@H]2O)c(-c2ccc(O)cc2)oc2cc(O)cc(O)c12
REMARK SMILES IDX 4 1 3 2 16 3 24 4 2 5 25 6 1 7 32 8 26 9 30 10 27 11 29 12
REMARK SMILES IDX 17 13 18 14 19 15 20 16 23 17 22 18 21 19 31 21 28 23 5 25
REMARK SMILES IDX 14 26 6 27 12 28 7 29 10 30 15 31 13 33 8 35 9 36 11 38
REMARK H PARENT 21 20 31 22 28 24 15 32 13 34 9 37 11 39
REMARK Flexibility Score: inf
ROOT
ATOM      1  O   UNL     1     104.243 121.094 120.727  1.00  0.00    -0.454 OA
ENDROOT
BRANCH   1   2
ATOM      2  C   UNL     1     105.614 120.854 120.899  1.00  0.00     0.214 A 
ATOM      3  C   UNL     1     106.023 119.970 121.903  1.00  0.00     0.180 A 
ATOM      4  O   UNL     1     107.312 119.730 122.102  1.00  0.00    -0.452 OA
ATOM      5  C   UNL     1     106.593 121.465 120.096  1.00  0.00     0.239 A 
ATOM      6  C   UNL     1     108.275 120.290 121.379  1.00  0.00     0.146 A 
ATOM      7  O   UNL     1     106.224 122.181 119.129  1.00  0.00    -0.285 OA
ATOM      8  C   UNL     1     107.967 121.220 120.349  1.00  0.00     0.111 A 
ATOM      9  C   UNL     1     109.601 119.930 121.637  1.00  0.00     0.094 A 
ATOM     10  C   UNL     1     109.047 121.813 119.624  1.00  0.00     0.134 A 
ATOM     11  C   UNL     1     110.640 120.466 120.882  1.00  0.00     0.123 A 
ATOM     12  C   UNL     1     110.362 121.411 119.893  1.00  0.00     0.093 A 
BRANCH   3  13
ATOM     13  C   UNL     1     105.037 119.312 122.781  1.00  0.00     0.021 A 
ATOM     14  C   UNL     1     104.621 118.001 122.498  1.00  0.00     0.016 A 
ATOM     15  C   UNL     1     103.714 117.355 123.343  1.00  0.00     0.047 A 
ATOM     16  C   UNL     1     103.175 118.033 124.445  1.00  0.00     0.115 A 
ATOM     17  C   UNL     1     104.545 119.966 123.919  1.00  0.00     0.016 A 
ATOM     18  C   UNL     1     103.591 119.341 124.730  1.00  0.00     0.047 A 
BRANCH  16  19
ATOM     19  O   UNL     1     102.232 117.397 125.252  1.00  0.00    -0.508 OA
ATOM     20  H   UNL     1     102.010 117.751 126.175  1.00  0.00     0.293 HD
ENDBRANCH  16  19
ENDBRANCH   3  13
BRANCH  10  21
ATOM     21  O   UNL     1     108.893 122.808 118.653  1.00  0.00    -0.507 OA
ATOM     22  H   UNL     1     108.969 123.799 118.814  1.00  0.00     0.293 HD
ENDBRANCH  10  21
BRANCH  11  23
ATOM     23  O   UNL     1     111.952 120.042 121.106  1.00  0.00    -0.508 OA
ATOM     24  H   UNL     1     112.620 119.980 120.343  1.00  0.00     0.293 HD
ENDBRANCH  11  23
ENDBRANCH   1   2
BRANCH   1  25
ATOM     25  C   UNL     1     103.429 120.448 119.741  1.00  0.00     0.339 C 
ATOM     26  C   UNL     1     102.700 121.499 118.879  1.00  0.00     0.214 C 
ATOM     27  O   UNL     1     102.512 119.539 120.330  1.00  0.00    -0.332 OA
ATOM     28  C   UNL     1     101.612 122.227 119.696  1.00  0.00     0.180 C 
ATOM     29  C   UNL     1     101.621 120.197 121.219  1.00  0.00     0.179 C 
ATOM     30  C   UNL     1     100.733 121.216 120.458  1.00  0.00     0.177 C 
BRANCH  26  31
ATOM     31  O   UNL     1     103.611 122.432 118.361  1.00  0.00    -0.384 OA
ATOM     32  H   UNL     1     103.355 123.319 118.726  1.00  0.00     0.211 HD
ENDBRANCH  26  31
BRANCH  28  33
ATOM     33  O   UNL     1     102.208 123.112 120.616  1.00  0.00    -0.387 OA
ATOM     34  H   UNL     1     101.520 123.782 120.864  1.00  0.00     0.211 HD
ENDBRANCH  28  33
BRANCH  29  35
ATOM     35  C   UNL     1     100.778 119.129 121.936  1.00  0.00     0.191 C 
BRANCH  35  36
ATOM     36  O   UNL     1     100.566 118.012 121.112  1.00  0.00    -0.394 OA
ATOM     37  H   UNL     1      99.966 118.309 120.379  1.00  0.00     0.210 HD
ENDBRANCH  35  36
ENDBRANCH  29  35
BRANCH  30  38
ATOM     38  O   UNL     1      99.823 120.585 119.585  1.00  0.00    -0.387 OA
ATOM     39  H   UNL     1      98.955 121.061 119.646  1.00  0.00     0.211 HD
ENDBRANCH  30  38
ENDBRANCH   1  25
TORSDOF 11
ENDMDL
MODEL 8
REMARK VINA RESULT:    -5.652      1.576      5.898
REMARK INTER + INTRA:          -9.569
REMARK INTER:                  -8.266
REMARK INTRA:                  -1.303
REMARK UNBOUND:                -1.439
REMARK SMILES O=c1c(O[C@H]2O[C@H](CO)[C@H](O)[C@@H](O)[C@H]2O)c(-c2ccc(O)cc2)oc2cc(O)cc(O)c12
REMARK SMILES IDX 4 1 3 2 16 3 24 4 2 5 25 6 1 7 32 8 26 9 30 10 27 11 29 12
REMARK SMILES IDX 17 13 18 14 19 15 20 16 23 17 22 18 21 19 31 21 28 23 5 25
REMARK SMILES IDX 14 26 6 27 12 28 7 29 10 30 15 31 13 33 8 35 9 36 11 38
REMARK H PARENT 21 20 31 22 28 24 15 32 13 34 9 37 11 39
REMARK Flexibility Score: inf
ROOT
ATOM      1  O   UNL     1     104.525 119.805 121.240  1.00  0.00    -0.454 OA
ENDROOT
BRANCH   1   2
ATOM      2  C   UNL     1     104.374 120.980 120.491  1.00  0.00     0.214 A 
ATOM      3  C   UNL     1     105.517 121.706 120.137  1.00  0.00     0.180 A 
ATOM      4  O   UNL     1     105.409 122.830 119.440  1.00  0.00    -0.452 OA
ATOM      5  C   UNL     1     103.116 121.455 120.078  1.00  0.00     0.239 A 
ATOM      6  C   UNL     1     104.244 123.326 119.036  1.00  0.00     0.146 A 
ATOM      7  O   UNL     1     102.098 120.753 120.308  1.00  0.00    -0.285 OA
ATOM      8  C   UNL     1     103.023 122.677 119.363  1.00  0.00     0.111 A 
ATOM      9  C   UNL     1     104.246 124.490 118.263  1.00  0.00     0.094 A 
ATOM     10  C   UNL     1     101.800 123.274 118.926  1.00  0.00     0.134 A 
ATOM     11  C   UNL     1     103.052 125.026 117.789  1.00  0.00     0.123 A 
ATOM     12  C   UNL     1     101.839 124.427 118.133  1.00  0.00     0.093 A 
BRANCH   3  13
ATOM     13  C   UNL     1     106.858 121.259 120.556  1.00  0.00     0.021 A 
ATOM     14  C   UNL     1     107.379 121.686 121.788  1.00  0.00     0.016 A 
ATOM     15  C   UNL     1     108.633 121.239 122.212  1.00  0.00     0.047 A 
ATOM     16  C   UNL     1     109.400 120.408 121.384  1.00  0.00     0.115 A 
ATOM     17  C   UNL     1     107.599 120.376 119.758  1.00  0.00     0.016 A 
ATOM     18  C   UNL     1     108.880 119.978 120.155  1.00  0.00     0.047 A 
BRANCH  16  19
ATOM     19  O   UNL     1     110.672 120.010 121.794  1.00  0.00    -0.508 OA
ATOM     20  H   UNL     1     111.410 119.842 121.120  1.00  0.00     0.293 HD
ENDBRANCH  16  19
ENDBRANCH   3  13
BRANCH  10  21
ATOM     21  O   UNL     1     100.527 122.795 119.255  1.00  0.00    -0.507 OA
ATOM     22  H   UNL     1     100.170 122.674 120.189  1.00  0.00     0.293 HD
ENDBRANCH  10  21
BRANCH  11  23
ATOM     23  O   UNL     1     103.076 126.150 116.960  1.00  0.00    -0.508 OA
ATOM     24  H   UNL     1     103.630 126.967 117.201  1.00  0.00     0.293 HD
ENDBRANCH  11  23
ENDBRANCH   1   2
BRANCH   1  25
ATOM     25  C   UNL     1     104.488 119.751 122.671  1.00  0.00     0.339 C 
ATOM     26  C   UNL     1     105.327 118.562 123.182  1.00  0.00     0.214 C 
ATOM     27  O   UNL     1     103.158 119.690 123.161  1.00  0.00    -0.332 OA
ATOM     28  C   UNL     1     104.649 117.218 122.841  1.00  0.00     0.180 C 
ATOM     29  C   UNL     1     102.482 118.532 122.698  1.00  0.00     0.179 C 
ATOM     30  C   UNL     1     103.159 117.243 123.235  1.00  0.00     0.177 C 
BRANCH  26  31
ATOM     31  O   UNL     1     106.619 118.596 122.634  1.00  0.00    -0.384 OA
ATOM     32  H   UNL     1     106.643 119.360 122.000  1.00  0.00     0.211 HD
ENDBRANCH  26  31
BRANCH  28  33
ATOM     33  O   UNL     1     104.761 116.956 121.462  1.00  0.00    -0.387 OA
ATOM     34  H   UNL     1     104.577 115.989 121.333  1.00  0.00     0.211 HD
ENDBRANCH  28  33
BRANCH  29  35
ATOM     35  C   UNL     1     101.009 118.624 123.131  1.00  0.00     0.191 C 
BRANCH  35  36
ATOM     36  O   UNL     1     100.466 117.350 123.359  1.00  0.00    -0.394 OA
ATOM     37  H   UNL     1     101.199 116.697 123.207  1.00  0.00     0.210 HD
ENDBRANCH  35  36
ENDBRANCH  29  35
BRANCH  30  38
ATOM     38  O   UNL     1     103.007 117.103 124.630  1.00  0.00    -0.387 OA
ATOM     39  H   UNL     1     103.055 116.137 124.851  1.00  0.00     0.211 HD
ENDBRANCH  30  38
ENDBRANCH   1  25
TORSDOF 11
ENDMDL
MODEL 9
REMARK VINA RESULT:    -5.637      1.581      6.478
REMARK INTER + INTRA:          -9.547
REMARK INTER:                  -8.255
REMARK INTRA:                  -1.293
REMARK UNBOUND:                -1.439
REMARK SMILES O=c1c(O[C@H]2O[C@H](CO)[C@H](O)[C@@H](O)[C@H]2O)c(-c2ccc(O)cc2)oc2cc(O)cc(O)c12
REMARK SMILES IDX 4 1 3 2 16 3 24 4 2 5 25 6 1 7 32 8 26 9 30 10 27 11 29 12
REMARK SMILES IDX 17 13 18 14 19 15 20 16 23 17 22 18 21 19 31 21 28 23 5 25
REMARK SMILES IDX 14 26 6 27 12 28 7 29 10 30 15 31 13 33 8 35 9 36 11 38
REMARK H PARENT 21 20 31 22 28 24 15 32 13 34 9 37 11 39
REMARK Flexibility Score: inf
ROOT
ATOM      1  O   UNL     1     104.594 121.874 120.337  1.00  0.00    -0.454 OA
ENDROOT
BRANCH   1   2
ATOM      2  C   UNL     1     104.330 120.751 121.134  1.00  0.00     0.214 A 
ATOM      3  C   UNL     1     105.406 119.987 121.601  1.00  0.00     0.180 A 
ATOM      4  O   UNL     1     105.191 118.910 122.346  1.00  0.00    -0.452 OA
ATOM      5  C   UNL     1     103.025 120.365 121.485  1.00  0.00     0.239 A 
ATOM      6  C   UNL     1     103.978 118.499 122.696  1.00  0.00     0.146 A 
ATOM      7  O   UNL     1     102.064 121.106 121.151  1.00  0.00    -0.285 OA
ATOM      8  C   UNL     1     102.818 119.191 122.255  1.00  0.00     0.111 A 
ATOM      9  C   UNL     1     103.865 117.380 123.526  1.00  0.00     0.094 A 
ATOM     10  C   UNL     1     101.538 118.684 122.639  1.00  0.00     0.134 A 
ATOM     11  C   UNL     1     102.615 116.934 123.946  1.00  0.00     0.123 A 
ATOM     12  C   UNL     1     101.462 117.575 123.491  1.00  0.00     0.093 A 
BRANCH   3  13
ATOM     13  C   UNL     1     106.794 120.340 121.250  1.00  0.00     0.021 A 
ATOM     14  C   UNL     1     107.552 121.131 122.129  1.00  0.00     0.016 A 
ATOM     15  C   UNL     1     108.880 121.442 121.825  1.00  0.00     0.047 A 
ATOM     16  C   UNL     1     109.443 121.013 120.615  1.00  0.00     0.115 A 
ATOM     17  C   UNL     1     107.379 119.858 120.071  1.00  0.00     0.016 A 
ATOM     18  C   UNL     1     108.689 120.221 119.738  1.00  0.00     0.047 A 
BRANCH  16  19
ATOM     19  O   UNL     1     110.753 121.372 120.297  1.00  0.00    -0.508 OA
ATOM     20  H   UNL     1     110.962 121.896 119.455  1.00  0.00     0.293 HD
ENDBRANCH  16  19
ENDBRANCH   3  13
BRANCH  10  21
ATOM     21  O   UNL     1     100.317 119.210 122.201  1.00  0.00    -0.507 OA
ATOM     22  H   UNL     1     100.017 119.271 121.241  1.00  0.00     0.293 HD
ENDBRANCH  10  21
BRANCH  11  23
ATOM     23  O   UNL     1     102.524 115.858 124.832  1.00  0.00    -0.508 OA
ATOM     24  H   UNL     1     101.646 115.631 125.291  1.00  0.00     0.293 HD
ENDBRANCH  11  23
ENDBRANCH   1   2
BRANCH   1  25
ATOM     25  C   UNL     1     104.594 121.863 118.905  1.00  0.00     0.339 C 
ATOM     26  C   UNL     1     105.495 122.991 118.362  1.00  0.00     0.214 C 
ATOM     27  O   UNL     1     103.279 121.957 118.378  1.00  0.00    -0.332 OA
ATOM     28  C   UNL     1     104.867 124.376 118.625  1.00  0.00     0.180 C 
ATOM     29  C   UNL     1     102.642 123.163 118.772  1.00  0.00     0.179 C 
ATOM     30  C   UNL     1     103.387 124.396 118.194  1.00  0.00     0.177 C 
BRANCH  26  31
ATOM     31  O   UNL     1     106.770 122.929 118.944  1.00  0.00    -0.384 OA
ATOM     32  H   UNL     1     106.981 123.840 119.275  1.00  0.00     0.211 HD
ENDBRANCH  26  31
BRANCH  28  33
ATOM     33  O   UNL     1     104.958 124.697 119.993  1.00  0.00    -0.387 OA
ATOM     34  H   UNL     1     105.560 124.028 120.410  1.00  0.00     0.211 HD
ENDBRANCH  28  33
BRANCH  29  35
ATOM     35  C   UNL     1     101.178 123.112 118.306  1.00  0.00     0.191 C 
BRANCH  35  36
ATOM     36  O   UNL     1     100.655 124.403 118.133  1.00  0.00    -0.394 OA
ATOM     37  H   UNL     1     100.943 124.934 118.922  1.00  0.00     0.210 HD
ENDBRANCH  35  36
ENDBRANCH  29  35
BRANCH  30  38
ATOM     38  O   UNL     1     103.274 124.478 116.791  1.00  0.00    -0.387 OA
ATOM     39  H   UNL     1     103.841 123.767 116.393  1.00  0.00     0.211 HD
ENDBRANCH  30  38
ENDBRANCH   1  25
TORSDOF 11
ENDMDL
