MODEL 1
REMARK VINA RESULT:    -3.751      0.000      0.000
REMARK INTER + INTRA:          -6.025
REMARK INTER:                  -5.395
REMARK INTRA:                  -0.630
REMARK UNBOUND:                -0.630
REMARK SMILES CCCCCCCCCO
REMARK SMILES IDX 6 1 5 2 4 3 3 4 2 5 1 6 7 7 8 8 9 9 10 10
REMARK H PARENT 10 11
REMARK Flexibility Score: inf
ROOT
ATOM      1  C   UNL     1       7.394  11.462  13.277  1.00  0.00     0.000 C 
ENDROOT
BRANCH   1   2
ATOM      2  C   UNL     1       7.204  12.949  12.936  1.00  0.00     0.000 C 
BRANCH   2   3
ATOM      3  C   UNL     1       5.865  13.508  13.450  1.00  0.00    -0.000 C 
BRANCH   3   4
ATOM      4  C   UNL     1       4.694  12.540  13.219  1.00  0.00    -0.000 C 
BRANCH   4   5
ATOM      5  C   UNL     1       3.919  12.848  11.928  1.00  0.00    -0.003 C 
ATOM      6  C   UNL     1       4.320  11.895  10.806  1.00  0.00     0.004 C 
ENDBRANCH   4   5
ENDBRANCH   3   4
ENDBRANCH   2   3
ENDBRANCH   1   2
BRANCH   1   7
ATOM      7  C   UNL     1       7.655  10.600  12.030  1.00  0.00     0.002 C 
BRANCH   7   8
ATOM      8  C   UNL     1       8.327  11.391  10.895  1.00  0.00     0.028 C 
BRANCH   8   9
ATOM      9  C   UNL     1       9.030  10.487   9.875  1.00  0.00     0.156 C 
BRANCH   9  10
ATOM     10  O   UNL     1       9.116   9.179  10.371  1.00  0.00    -0.396 OA
ATOM     11  H   UNL     1       9.626   8.653   9.699  1.00  0.00     0.210 HD
ENDBRANCH   9  10
ENDBRANCH   8   9
ENDBRANCH   7   8
ENDBRANCH   1   7
TORSDOF 8
ENDMDL
MODEL 2
REMARK VINA RESULT:    -3.574      2.413      4.026
REMARK INTER + INTRA:          -5.771
REMARK INTER:                  -4.999
REMARK INTRA:                  -0.772
REMARK UNBOUND:                -0.630
REMARK SMILES CCCCCCCCCO
REMARK SMILES IDX 6 1 5 2 4 3 3 4 2 5 1 6 7 7 8 8 9 9 10 10
REMARK H PARENT 10 11
REMARK Flexibility Score: inf
ROOT
ATOM      1  C   UNL     1       3.967  12.149  13.429  1.00  0.00     0.000 C 
ENDROOT
BRANCH   1   2
ATOM      2  C   UNL     1       4.725  12.991  14.468  1.00  0.00     0.000 C 
BRANCH   2   3
ATOM      3  C   UNL     1       5.715  13.977  13.823  1.00  0.00    -0.000 C 
BRANCH   3   4
ATOM      4  C   UNL     1       7.175  13.509  13.940  1.00  0.00    -0.000 C 
BRANCH   4   5
ATOM      5  C   UNL     1       7.703  12.892  12.636  1.00  0.00    -0.003 C 
ATOM      6  C   UNL     1       7.610  11.369  12.671  1.00  0.00     0.004 C 
ENDBRANCH   4   5
ENDBRANCH   3   4
ENDBRANCH   2   3
ENDBRANCH   1   2
BRANCH   1   7
ATOM      7  C   UNL     1       3.810  12.875  12.083  1.00  0.00     0.002 C 
BRANCH   7   8
ATOM      8  C   UNL     1       4.311  12.034  10.897  1.00  0.00     0.028 C 
BRANCH   8   9
ATOM      9  C   UNL     1       4.027  10.536  11.068  1.00  0.00     0.156 C 
BRANCH   9  10
ATOM     10  O   UNL     1       2.798  10.210  10.480  1.00  0.00    -0.396 OA
ATOM     11  H   UNL     1       2.605  10.918   9.810  1.00  0.00     0.210 HD
ENDBRANCH   9  10
ENDBRANCH   8   9
ENDBRANCH   7   8
ENDBRANCH   1   7
TORSDOF 8
ENDMDL
MODEL 3
REMARK VINA RESULT:    -3.540      2.833      4.669
REMARK INTER + INTRA:          -5.722
REMARK INTER:                  -4.957
REMARK INTRA:                  -0.765
REMARK UNBOUND:                -0.630
REMARK SMILES CCCCCCCCCO
REMARK SMILES IDX 6 1 5 2 4 3 3 4 2 5 1 6 7 7 8 8 9 9 10 10
REMARK H PARENT 10 11
REMARK Flexibility Score: inf
ROOT
ATOM      1  C   UNL     1       3.777  12.126  13.123  1.00  0.00     0.000 C 
ENDROOT
BRANCH   1   2
ATOM      2  C   UNL     1       3.951  12.772  11.739  1.00  0.00     0.000 C 
BRANCH   2   3
ATOM      3  C   UNL     1       4.330  11.751  10.652  1.00  0.00    -0.000 C 
BRANCH   3   4
ATOM      4  C   UNL     1       5.406  10.760  11.122  1.00  0.00    -0.000 C 
BRANCH   4   5
ATOM      5  C   UNL     1       6.808  11.388  11.165  1.00  0.00    -0.003 C 
ATOM      6  C   UNL     1       7.508  11.080  12.485  1.00  0.00     0.004 C 
ENDBRANCH   4   5
ENDBRANCH   3   4
ENDBRANCH   2   3
ENDBRANCH   1   2
BRANCH   1   7
ATOM      7  C   UNL     1       4.562  12.864  14.221  1.00  0.00     0.002 C 
BRANCH   7   8
ATOM      8  C   UNL     1       5.439  13.996  13.660  1.00  0.00     0.028 C 
BRANCH   8   9
ATOM      9  C   UNL     1       6.726  14.206  14.467  1.00  0.00     0.156 C 
BRANCH   9  10
ATOM     10  O   UNL     1       6.961  15.575  14.651  1.00  0.00    -0.396 OA
ATOM     11  H   UNL     1       7.303  15.684  15.577  1.00  0.00     0.210 HD
ENDBRANCH   9  10
ENDBRANCH   8   9
ENDBRANCH   7   8
ENDBRANCH   1   7
TORSDOF 8
ENDMDL
MODEL 4
REMARK VINA RESULT:    -3.533      1.136      2.509
REMARK INTER + INTRA:          -5.711
REMARK INTER:                  -5.121
REMARK INTRA:                  -0.590
REMARK UNBOUND:                -0.630
REMARK SMILES CCCCCCCCCO
REMARK SMILES IDX 6 1 5 2 4 3 3 4 2 5 1 6 7 7 8 8 9 9 10 10
REMARK H PARENT 10 11
REMARK Flexibility Score: inf
ROOT
ATOM      1  C   UNL     1       4.966  10.508  11.277  1.00  0.00     0.000 C 
ENDROOT
BRANCH   1   2
ATOM      2  C   UNL     1       4.347  11.803  10.725  1.00  0.00     0.000 C 
BRANCH   2   3
ATOM      3  C   UNL     1       3.907  12.771  11.837  1.00  0.00    -0.000 C 
BRANCH   3   4
ATOM      4  C   UNL     1       4.664  12.540  13.155  1.00  0.00    -0.000 C 
BRANCH   4   5
ATOM      5  C   UNL     1       5.693  13.642  13.446  1.00  0.00    -0.003 C 
ATOM      6  C   UNL     1       7.101  13.194  13.067  1.00  0.00     0.004 C 
ENDBRANCH   4   5
ENDBRANCH   3   4
ENDBRANCH   2   3
ENDBRANCH   1   2
BRANCH   1   7
ATOM      7  C   UNL     1       5.958   9.863  10.295  1.00  0.00     0.002 C 
BRANCH   7   8
ATOM      8  C   UNL     1       7.126  10.798   9.938  1.00  0.00     0.028 C 
BRANCH   8   9
ATOM      9  C   UNL     1       8.447  10.378  10.594  1.00  0.00     0.156 C 
BRANCH   9  10
ATOM     10  O   UNL     1       8.750   9.051  10.259  1.00  0.00    -0.396 OA
ATOM     11  H   UNL     1       8.318   8.873   9.381  1.00  0.00     0.210 HD
ENDBRANCH   9  10
ENDBRANCH   8   9
ENDBRANCH   7   8
ENDBRANCH   1   7
TORSDOF 8
ENDMDL
MODEL 5
REMARK VINA RESULT:    -3.508      1.367      2.436
REMARK INTER + INTRA:          -5.676
REMARK INTER:                  -5.133
REMARK INTRA:                  -0.543
REMARK UNBOUND:                -0.630
REMARK SMILES CCCCCCCCCO
REMARK SMILES IDX 6 1 5 2 4 3 3 4 2 5 1 6 7 7 8 8 9 9 10 10
REMARK H PARENT 10 11
REMARK Flexibility Score: inf
ROOT
ATOM      1  C   UNL     1       5.788   9.742  10.980  1.00  0.00     0.000 C 
ENDROOT
BRANCH   1   2
ATOM      2  C   UNL     1       4.436  10.390  11.319  1.00  0.00     0.000 C 
BRANCH   2   3
ATOM      3  C   UNL     1       4.342  11.850  10.842  1.00  0.00    -0.000 C 
BRANCH   3   4
ATOM      4  C   UNL     1       4.017  12.825  11.985  1.00  0.00    -0.000 C 
BRANCH   4   5
ATOM      5  C   UNL     1       3.519  12.107  13.249  1.00  0.00    -0.003 C 
ATOM      6  C   UNL     1       4.295  12.562  14.482  1.00  0.00     0.004 C 
ENDBRANCH   4   5
ENDBRANCH   3   4
ENDBRANCH   2   3
ENDBRANCH   1   2
BRANCH   1   7
ATOM      7  C   UNL     1       6.918  10.216  11.909  1.00  0.00     0.002 C 
BRANCH   7   8
ATOM      8  C   UNL     1       8.014  10.991  11.158  1.00  0.00     0.028 C 
BRANCH   8   9
ATOM      9  C   UNL     1       8.537  10.238   9.928  1.00  0.00     0.156 C 
BRANCH   9  10
ATOM     10  O   UNL     1       9.226   9.085  10.326  1.00  0.00    -0.396 OA
ATOM     11  H   UNL     1      10.182   9.341  10.416  1.00  0.00     0.210 HD
ENDBRANCH   9  10
ENDBRANCH   8   9
ENDBRANCH   7   8
ENDBRANCH   1   7
TORSDOF 8
ENDMDL
MODEL 6
REMARK VINA RESULT:    -3.476      2.314      3.343
REMARK INTER + INTRA:          -5.630
REMARK INTER:                  -4.900
REMARK INTRA:                  -0.730
REMARK UNBOUND:                -0.630
REMARK SMILES CCCCCCCCCO
REMARK SMILES IDX 6 1 5 2 4 3 3 4 2 5 1 6 7 7 8 8 9 9 10 10
REMARK H PARENT 10 11
REMARK Flexibility Score: inf
ROOT
ATOM      1  C   UNL     1       6.860  11.272  10.919  1.00  0.00     0.000 C 
ENDROOT
BRANCH   1   2
ATOM      2  C   UNL     1       5.579  10.587  10.416  1.00  0.00     0.000 C 
BRANCH   2   3
ATOM      3  C   UNL     1       4.390  11.559  10.310  1.00  0.00    -0.000 C 
BRANCH   3   4
ATOM      4  C   UNL     1       4.317  12.535  11.495  1.00  0.00    -0.000 C 
BRANCH   4   5
ATOM      5  C   UNL     1       3.281  12.110  12.546  1.00  0.00    -0.003 C 
ATOM      6  C   UNL     1       3.875  12.147  13.951  1.00  0.00     0.004 C 
ENDBRANCH   4   5
ENDBRANCH   3   4
ENDBRANCH   2   3
ENDBRANCH   1   2
BRANCH   1   7
ATOM      7  C   UNL     1       7.386  10.652  12.224  1.00  0.00     0.002 C 
BRANCH   7   8
ATOM      8  C   UNL     1       7.575  11.695  13.339  1.00  0.00     0.028 C 
BRANCH   8   9
ATOM      9  C   UNL     1       7.878  13.097  12.795  1.00  0.00     0.156 C 
BRANCH   9  10
ATOM     10  O   UNL     1       7.124  14.055  13.487  1.00  0.00    -0.396 OA
ATOM     11  H   UNL     1       6.616  14.565  12.803  1.00  0.00     0.210 HD
ENDBRANCH   9  10
ENDBRANCH   8   9
ENDBRANCH   7   8
ENDBRANCH   1   7
TORSDOF 8
ENDMDL
MODEL 7
REMARK VINA RESULT:    -3.452      3.826      5.358
REMARK INTER + INTRA:          -5.595
REMARK INTER:                  -5.205
REMARK INTRA:                  -0.390
REMARK UNBOUND:                -0.630
REMARK SMILES CCCCCCCCCO
REMARK SMILES IDX 6 1 5 2 4 3 3 4 2 5 1 6 7 7 8 8 9 9 10 10
REMARK H PARENT 10 11
REMARK Flexibility Score: inf
ROOT
ATOM      1  C   UNL     1       5.361  12.206  13.939  1.00  0.00     0.000 C 
ENDROOT
BRANCH   1   2
ATOM      2  C   UNL     1       4.780  13.372  13.125  1.00  0.00     0.000 C 
BRANCH   2   3
ATOM      3  C   UNL     1       3.782  12.906  12.050  1.00  0.00    -0.000 C 
BRANCH   3   4
ATOM      4  C   UNL     1       4.083  11.487  11.542  1.00  0.00    -0.000 C 
BRANCH   4   5
ATOM      5  C   UNL     1       4.780  11.485  10.174  1.00  0.00    -0.003 C 
ATOM      6  C   UNL     1       6.238  11.051  10.300  1.00  0.00     0.004 C 
ENDBRANCH   4   5
ENDBRANCH   3   4
ENDBRANCH   2   3
ENDBRANCH   1   2
BRANCH   1   7
ATOM      7  C   UNL     1       5.813  12.636  15.345  1.00  0.00     0.002 C 
BRANCH   7   8
ATOM      8  C   UNL     1       4.863  13.664  15.982  1.00  0.00     0.028 C 
BRANCH   8   9
ATOM      9  C   UNL     1       5.477  14.368  17.198  1.00  0.00     0.156 C 
BRANCH   9  10
ATOM     10  O   UNL     1       4.622  15.383  17.648  1.00  0.00    -0.396 OA
ATOM     11  H   UNL     1       4.516  15.254  18.628  1.00  0.00     0.210 HD
ENDBRANCH   9  10
ENDBRANCH   8   9
ENDBRANCH   7   8
ENDBRANCH   1   7
TORSDOF 8
ENDMDL
MODEL 8
REMARK VINA RESULT:    -3.427      2.324      3.617
REMARK INTER + INTRA:          -5.559
REMARK INTER:                  -4.987
REMARK INTRA:                  -0.573
REMARK UNBOUND:                -0.630
REMARK SMILES CCCCCCCCCO
REMARK SMILES IDX 6 1 5 2 4 3 3 4 2 5 1 6 7 7 8 8 9 9 10 10
REMARK H PARENT 10 11
REMARK Flexibility Score: inf
ROOT
ATOM      1  C   UNL     1       5.028  12.094  14.275  1.00  0.00     0.000 C 
ENDROOT
BRANCH   1   2
ATOM      2  C   UNL     1       3.532  12.067  13.923  1.00  0.00     0.000 C 
BRANCH   2   3
ATOM      3  C   UNL     1       3.277  11.734  12.442  1.00  0.00    -0.000 C 
BRANCH   3   4
ATOM      4  C   UNL     1       4.090  12.625  11.489  1.00  0.00    -0.000 C 
BRANCH   4   5
ATOM      5  C   UNL     1       4.524  11.884  10.215  1.00  0.00    -0.003 C 
ATOM      6  C   UNL     1       5.859  11.174  10.421  1.00  0.00     0.004 C 
ENDBRANCH   4   5
ENDBRANCH   3   4
ENDBRANCH   2   3
ENDBRANCH   1   2
BRANCH   1   7
ATOM      7  C   UNL     1       5.459  13.424  14.916  1.00  0.00     0.002 C 
BRANCH   7   8
ATOM      8  C   UNL     1       6.660  14.063  14.197  1.00  0.00     0.028 C 
BRANCH   8   9
ATOM      9  C   UNL     1       7.374  13.089  13.252  1.00  0.00     0.156 C 
BRANCH   9  10
ATOM     10  O   UNL     1       8.567  12.641  13.834  1.00  0.00    -0.396 OA
ATOM     11  H   UNL     1       9.163  13.433  13.909  1.00  0.00     0.210 HD
ENDBRANCH   9  10
ENDBRANCH   8   9
ENDBRANCH   7   8
ENDBRANCH   1   7
TORSDOF 8
ENDMDL
MODEL 9
REMARK VINA RESULT:    -3.355      2.139      4.111
REMARK INTER + INTRA:          -5.455
REMARK INTER:                  -4.687
REMARK INTRA:                  -0.768
REMARK UNBOUND:                -0.630
REMARK SMILES CCCCCCCCCO
REMARK SMILES IDX 6 1 5 2 4 3 3 4 2 5 1 6 7 7 8 8 9 9 10 10
REMARK H PARENT 10 11
REMARK Flexibility Score: inf
ROOT
ATOM      1  C   UNL     1       3.590  12.285  12.832  1.00  0.00     0.000 C 
ENDROOT
BRANCH   1   2
ATOM      2  C   UNL     1       4.101  12.520  11.401  1.00  0.00     0.000 C 
BRANCH   2   3
ATOM      3  C   UNL     1       4.591  11.226  10.726  1.00  0.00    -0.000 C 
BRANCH   3   4
ATOM      4  C   UNL     1       6.088  11.271  10.383  1.00  0.00    -0.000 C 
BRANCH   4   5
ATOM      5  C   UNL     1       6.891  10.175  11.100  1.00  0.00    -0.003 C 
ATOM      6  C   UNL     1       6.060   9.511  12.194  1.00  0.00     0.004 C 
ENDBRANCH   4   5
ENDBRANCH   3   4
ENDBRANCH   2   3
ENDBRANCH   1   2
BRANCH   1   7
ATOM      7  C   UNL     1       4.613  12.708  13.900  1.00  0.00     0.002 C 
BRANCH   7   8
ATOM      8  C   UNL     1       5.715  13.619  13.333  1.00  0.00     0.028 C 
BRANCH   8   9
ATOM      9  C   UNL     1       7.123  13.044  13.533  1.00  0.00     0.156 C 
BRANCH   9  10
ATOM     10  O   UNL     1       8.075  13.887  12.945  1.00  0.00    -0.396 OA
ATOM     11  H   UNL     1       8.418  13.413  12.142  1.00  0.00     0.210 HD
ENDBRANCH   9  10
ENDBRANCH   8   9
ENDBRANCH   7   8
ENDBRANCH   1   7
TORSDOF 8
ENDMDL
