MODEL 1
REMARK VINA RESULT:    -2.817      0.000      0.000
REMARK INTER + INTRA:          -4.087
REMARK INTER:                  -3.640
REMARK INTRA:                  -0.446
REMARK UNBOUND:                -0.446
REMARK SMILES CCCCCCC(=O)[O-]
REMARK SMILES IDX 5 1 6 2 7 3 8 4 9 5 4 6 3 7 2 8 1 9
REMARK H PARENT
REMARK Flexibility Score: inf
ROOT
ATOM      1  C   UNL     1      54.939  81.752  30.301  1.00  0.00     0.006 C 
ENDROOT
BRANCH   1   2
ATOM      2  C   UNL     1      53.475  81.445  30.631  1.00  0.00     0.053 C 
BRANCH   2   3
ATOM      3  C   UNL     1      53.151  81.879  32.026  1.00  0.00     0.041 C 
ATOM      4  O   UNL     1      53.780  81.393  33.003  1.00  0.00    -0.550 OA
ATOM      5  O   UNL     1      52.188  82.856  32.245  1.00  0.00    -0.550 OA
ENDBRANCH   2   3
ENDBRANCH   1   2
BRANCH   1   6
ATOM      6  C   UNL     1      55.188  83.267  30.273  1.00  0.00     0.000 C 
BRANCH   6   7
ATOM      7  C   UNL     1      56.411  83.681  31.108  1.00  0.00    -0.000 C 
BRANCH   7   8
ATOM      8  C   UNL     1      56.046  84.034  32.557  1.00  0.00    -0.003 C 
ATOM      9  C   UNL     1      54.964  85.109  32.605  1.00  0.00     0.004 C 
ENDBRANCH   7   8
ENDBRANCH   6   7
ENDBRANCH   1   6
TORSDOF 5
ENDMDL
MODEL 2
REMARK VINA RESULT:    -2.813      1.525      2.299
REMARK INTER + INTRA:          -4.081
REMARK INTER:                  -3.775
REMARK INTRA:                  -0.306
REMARK UNBOUND:                -0.446
REMARK SMILES CCCCCCC(=O)[O-]
REMARK SMILES IDX 5 1 6 2 7 3 8 4 9 5 4 6 3 7 2 8 1 9
REMARK H PARENT
REMARK Flexibility Score: inf
ROOT
ATOM      1  C   UNL     1      55.313  82.315  32.646  1.00  0.00     0.006 C 
ENDROOT
BRANCH   1   2
ATOM      2  C   UNL     1      54.959  81.688  31.293  1.00  0.00     0.053 C 
BRANCH   2   3
ATOM      3  C   UNL     1      53.474  81.587  31.136  1.00  0.00     0.041 C 
ATOM      4  O   UNL     1      52.710  82.062  32.017  1.00  0.00    -0.550 OA
ATOM      5  O   UNL     1      52.933  81.013  29.992  1.00  0.00    -0.550 OA
ENDBRANCH   2   3
ENDBRANCH   1   2
BRANCH   1   6
ATOM      6  C   UNL     1      56.148  83.590  32.456  1.00  0.00     0.000 C 
BRANCH   6   7
ATOM      7  C   UNL     1      55.388  84.686  31.693  1.00  0.00    -0.000 C 
BRANCH   7   8
ATOM      8  C   UNL     1      56.040  85.031  30.346  1.00  0.00    -0.003 C 
ATOM      9  C   UNL     1      57.399  84.353  30.204  1.00  0.00     0.004 C 
ENDBRANCH   7   8
ENDBRANCH   6   7
ENDBRANCH   1   6
TORSDOF 5
ENDMDL
MODEL 3
REMARK VINA RESULT:    -2.780      1.424      1.847
REMARK INTER + INTRA:          -4.038
REMARK INTER:                  -3.672
REMARK INTRA:                  -0.367
REMARK UNBOUND:                -0.446
REMARK SMILES CCCCCCC(=O)[O-]
REMARK SMILES IDX 5 1 6 2 7 3 8 4 9 5 4 6 3 7 2 8 1 9
REMARK H PARENT
REMARK Flexibility Score: inf
ROOT
ATOM      1  C   UNL     1      53.589  81.599  30.747  1.00  0.00     0.006 C 
ENDROOT
BRANCH   1   2
ATOM      2  C   UNL     1      52.760  81.709  32.031  1.00  0.00     0.053 C 
BRANCH   2   3
ATOM      3  C   UNL     1      51.674  82.726  31.868  1.00  0.00     0.041 C 
ATOM      4  O   UNL     1      51.769  83.849  32.430  1.00  0.00    -0.550 OA
ATOM      5  O   UNL     1      50.581  82.453  31.055  1.00  0.00    -0.550 OA
ENDBRANCH   2   3
ENDBRANCH   1   2
BRANCH   1   6
ATOM      6  C   UNL     1      55.080  81.830  31.038  1.00  0.00     0.000 C 
BRANCH   6   7
ATOM      7  C   UNL     1      55.348  82.178  32.511  1.00  0.00    -0.000 C 
BRANCH   7   8
ATOM      8  C   UNL     1      56.103  83.505  32.677  1.00  0.00    -0.003 C 
ATOM      9  C   UNL     1      55.208  84.693  32.335  1.00  0.00     0.004 C 
ENDBRANCH   7   8
ENDBRANCH   6   7
ENDBRANCH   1   6
TORSDOF 5
ENDMDL
MODEL 4
REMARK VINA RESULT:    -2.706      2.412      4.117
REMARK INTER + INTRA:          -3.943
REMARK INTER:                  -3.492
REMARK INTRA:                  -0.451
REMARK UNBOUND:                -0.446
REMARK SMILES CCCCCCC(=O)[O-]
REMARK SMILES IDX 5 1 6 2 7 3 8 4 9 5 4 6 3 7 2 8 1 9
REMARK H PARENT
REMARK Flexibility Score: inf
ROOT
ATOM      1  C   UNL     1      55.904  82.974  32.966  1.00  0.00     0.006 C 
ENDROOT
BRANCH   1   2
ATOM      2  C   UNL     1      55.565  84.304  32.284  1.00  0.00     0.053 C 
BRANCH   2   3
ATOM      3  C   UNL     1      56.081  84.318  30.880  1.00  0.00     0.041 C 
ATOM      4  O   UNL     1      55.297  84.539  29.919  1.00  0.00    -0.550 OA
ATOM      5  O   UNL     1      57.437  84.139  30.635  1.00  0.00    -0.550 OA
ENDBRANCH   2   3
ENDBRANCH   1   2
BRANCH   1   6
ATOM      6  C   UNL     1      55.162  81.809  32.294  1.00  0.00     0.000 C 
BRANCH   6   7
ATOM      7  C   UNL     1      53.642  81.869  32.515  1.00  0.00    -0.000 C 
BRANCH   7   8
ATOM      8  C   UNL     1      52.850  81.831  31.200  1.00  0.00    -0.003 C 
ATOM      9  C   UNL     1      53.721  81.335  30.049  1.00  0.00     0.004 C 
ENDBRANCH   7   8
ENDBRANCH   6   7
ENDBRANCH   1   6
TORSDOF 5
ENDMDL
MODEL 5
REMARK VINA RESULT:    -2.702      1.284      2.584
REMARK INTER + INTRA:          -3.937
REMARK INTER:                  -3.619
REMARK INTRA:                  -0.319
REMARK UNBOUND:                -0.446
REMARK SMILES CCCCCCC(=O)[O-]
REMARK SMILES IDX 5 1 6 2 7 3 8 4 9 5 4 6 3 7 2 8 1 9
REMARK H PARENT
REMARK Flexibility Score: inf
ROOT
ATOM      1  C   UNL     1      53.790  84.771  31.649  1.00  0.00     0.006 C 
ENDROOT
BRANCH   1   2
ATOM      2  C   UNL     1      52.643  84.103  32.413  1.00  0.00     0.053 C 
BRANCH   2   3
ATOM      3  C   UNL     1      52.584  82.641  32.096  1.00  0.00     0.041 C 
ATOM      4  O   UNL     1      51.797  82.216  31.209  1.00  0.00    -0.550 OA
ATOM      5  O   UNL     1      53.433  81.754  32.745  1.00  0.00    -0.550 OA
ENDBRANCH   2   3
ENDBRANCH   1   2
BRANCH   1   6
ATOM      6  C   UNL     1      54.979  85.050  32.580  1.00  0.00     0.000 C 
BRANCH   6   7
ATOM      7  C   UNL     1      56.097  84.003  32.443  1.00  0.00    -0.000 C 
BRANCH   7   8
ATOM      8  C   UNL     1      56.323  83.566  30.988  1.00  0.00    -0.003 C 
ATOM      9  C   UNL     1      57.453  84.364  30.344  1.00  0.00     0.004 C 
ENDBRANCH   7   8
ENDBRANCH   6   7
ENDBRANCH   1   6
TORSDOF 5
ENDMDL
MODEL 6
REMARK VINA RESULT:    -2.578      2.430      3.917
REMARK INTER + INTRA:          -3.777
REMARK INTER:                  -3.471
REMARK INTRA:                  -0.306
REMARK UNBOUND:                -0.446
REMARK SMILES CCCCCCC(=O)[O-]
REMARK SMILES IDX 5 1 6 2 7 3 8 4 9 5 4 6 3 7 2 8 1 9
REMARK H PARENT
REMARK Flexibility Score: inf
ROOT
ATOM      1  C   UNL     1      55.115  81.809  32.112  1.00  0.00     0.006 C 
ENDROOT
BRANCH   1   2
ATOM      2  C   UNL     1      55.858  83.024  32.676  1.00  0.00     0.053 C 
BRANCH   2   3
ATOM      3  C   UNL     1      56.072  84.050  31.607  1.00  0.00     0.041 C 
ATOM      4  O   UNL     1      55.162  84.877  31.332  1.00  0.00    -0.550 OA
ATOM      5  O   UNL     1      57.293  84.125  30.948  1.00  0.00    -0.550 OA
ENDBRANCH   2   3
ENDBRANCH   1   2
BRANCH   1   6
ATOM      6  C   UNL     1      53.690  81.727  32.679  1.00  0.00     0.000 C 
BRANCH   6   7
ATOM      7  C   UNL     1      52.619  81.645  31.579  1.00  0.00    -0.000 C 
BRANCH   7   8
ATOM      8  C   UNL     1      51.477  82.650  31.788  1.00  0.00    -0.003 C 
ATOM      9  C   UNL     1      51.991  83.943  32.416  1.00  0.00     0.004 C 
ENDBRANCH   7   8
ENDBRANCH   6   7
ENDBRANCH   1   6
TORSDOF 5
ENDMDL
MODEL 7
REMARK VINA RESULT:    -2.539     23.770     24.528
REMARK INTER + INTRA:          -3.727
REMARK INTER:                  -3.324
REMARK INTRA:                  -0.403
REMARK UNBOUND:                -0.446
REMARK SMILES CCCCCCC(=O)[O-]
REMARK SMILES IDX 5 1 6 2 7 3 8 4 9 5 4 6 3 7 2 8 1 9
REMARK H PARENT
REMARK Flexibility Score: inf
ROOT
ATOM      1  C   UNL     1      66.312  68.243  48.340  1.00  0.00     0.006 C 
ENDROOT
BRANCH   1   2
ATOM      2  C   UNL     1      64.934  67.647  48.644  1.00  0.00     0.053 C 
BRANCH   2   3
ATOM      3  C   UNL     1      63.884  68.298  47.799  1.00  0.00     0.041 C 
ATOM      4  O   UNL     1      62.820  68.720  48.324  1.00  0.00    -0.550 OA
ATOM      5  O   UNL     1      64.103  68.484  46.439  1.00  0.00    -0.550 OA
ENDBRANCH   2   3
ENDBRANCH   1   2
BRANCH   1   6
ATOM      6  C   UNL     1      67.189  67.235  47.582  1.00  0.00     0.000 C 
BRANCH   6   7
ATOM      7  C   UNL     1      67.553  67.715  46.167  1.00  0.00    -0.000 C 
BRANCH   7   8
ATOM      8  C   UNL     1      66.973  66.813  45.069  1.00  0.00    -0.003 C 
ATOM      9  C   UNL     1      66.218  65.630  45.670  1.00  0.00     0.004 C 
ENDBRANCH   7   8
ENDBRANCH   6   7
ENDBRANCH   1   6
TORSDOF 5
ENDMDL
MODEL 8
REMARK VINA RESULT:    -2.510     23.335     24.034
REMARK INTER + INTRA:          -3.690
REMARK INTER:                  -3.585
REMARK INTRA:                  -0.105
REMARK UNBOUND:                -0.446
REMARK SMILES CCCCCCC(=O)[O-]
REMARK SMILES IDX 5 1 6 2 7 3 8 4 9 5 4 6 3 7 2 8 1 9
REMARK H PARENT
REMARK Flexibility Score: inf
ROOT
ATOM      1  C   UNL     1      65.906  67.654  46.344  1.00  0.00     0.006 C 
ENDROOT
BRANCH   1   2
ATOM      2  C   UNL     1      64.498  68.233  46.518  1.00  0.00     0.053 C 
BRANCH   2   3
ATOM      3  C   UNL     1      64.112  68.246  47.964  1.00  0.00     0.041 C 
ATOM      4  O   UNL     1      64.964  67.969  48.850  1.00  0.00    -0.550 OA
ATOM      5  O   UNL     1      62.825  68.611  48.337  1.00  0.00    -0.550 OA
ENDBRANCH   2   3
ENDBRANCH   1   2
BRANCH   1   6
ATOM      6  C   UNL     1      65.875  66.394  45.465  1.00  0.00     0.000 C 
BRANCH   6   7
ATOM      7  C   UNL     1      66.945  66.417  44.362  1.00  0.00    -0.000 C 
BRANCH   7   8
ATOM      8  C   UNL     1      66.652  65.419  43.232  1.00  0.00    -0.003 C 
ATOM      9  C   UNL     1      66.991  66.015  41.869  1.00  0.00     0.004 C 
ENDBRANCH   7   8
ENDBRANCH   6   7
ENDBRANCH   1   6
TORSDOF 5
ENDMDL
