MODEL 1
REMARK VINA RESULT:    -7.082      0.000      0.000
REMARK INTER + INTRA:          -9.600
REMARK INTER:                  -8.945
REMARK INTRA:                  -0.655
REMARK UNBOUND:                -0.655
REMARK SMILES O=C(C=Cc1ccc(O)cc1)c1ccc(O)cc1O
REMARK SMILES IDX 4 1 3 2 5 3 6 4 7 5 8 6 11 7 10 8 9 9 2 11 1 12 12 13 18 14
REMARK SMILES IDX 13 15 17 16 14 17 15 18 19 19 16 21
REMARK H PARENT 9 10 19 20 16 22
REMARK Flexibility Score: inf
ROOT
ATOM      1  C   UNL     1      35.188   1.863  -3.426  1.00  0.00     0.012 C 
ATOM      2  C   UNL     1      35.892   2.772  -4.116  1.00  0.00     0.053 C 
ENDROOT
BRANCH   1   3
ATOM      3  C   UNL     1      34.724   0.575  -3.997  1.00  0.00    -0.025 A 
ATOM      4  C   UNL     1      33.365   0.311  -4.264  1.00  0.00     0.012 A 
ATOM      5  C   UNL     1      32.975  -0.925  -4.791  1.00  0.00     0.047 A 
ATOM      6  C   UNL     1      33.932  -1.915  -5.050  1.00  0.00     0.115 A 
ATOM      7  C   UNL     1      35.672  -0.432  -4.246  1.00  0.00     0.012 A 
ATOM      8  C   UNL     1      35.278  -1.665  -4.774  1.00  0.00     0.047 A 
BRANCH   6   9
ATOM      9  O   UNL     1      33.553  -3.148  -5.576  1.00  0.00    -0.508 OA
ATOM     10  H   UNL     1      34.198  -3.715  -6.114  1.00  0.00     0.293 HD
ENDBRANCH   6   9
ENDBRANCH   1   3
BRANCH   2  11
ATOM     11  C   UNL     1      36.351   4.040  -3.508  1.00  0.00     0.189 C 
ATOM     12  O   UNL     1      35.648   5.082  -3.607  1.00  0.00    -0.289 OA
BRANCH  11  13
ATOM     13  C   UNL     1      37.653   4.105  -2.808  1.00  0.00     0.064 A 
ATOM     14  C   UNL     1      37.966   5.150  -1.904  1.00  0.00     0.130 A 
ATOM     15  C   UNL     1      38.624   3.122  -3.077  1.00  0.00     0.020 A 
ATOM     16  C   UNL     1      39.239   5.207  -1.323  1.00  0.00     0.093 A 
ATOM     17  C   UNL     1      39.884   3.184  -2.479  1.00  0.00     0.047 A 
ATOM     18  C   UNL     1      40.197   4.230  -1.604  1.00  0.00     0.119 A 
BRANCH  14  19
ATOM     19  O   UNL     1      37.035   6.125  -1.540  1.00  0.00    -0.507 OA
ATOM     20  H   UNL     1      36.075   5.914  -1.300  1.00  0.00     0.293 HD
ENDBRANCH  14  19
BRANCH  18  21
ATOM     21  O   UNL     1      41.453   4.306  -1.008  1.00  0.00    -0.508 OA
ATOM     22  H   UNL     1      42.094   3.520  -1.021  1.00  0.00     0.293 HD
ENDBRANCH  18  21
ENDBRANCH  11  13
ENDBRANCH   2  11
TORSDOF 6
ENDMDL
MODEL 2
REMARK VINA RESULT:    -7.020      3.378      8.525
REMARK INTER + INTRA:          -9.522
REMARK INTER:                  -8.861
REMARK INTRA:                  -0.661
REMARK UNBOUND:                -0.655
REMARK SMILES O=C(C=Cc1ccc(O)cc1)c1ccc(O)cc1O
REMARK SMILES IDX 4 1 3 2 5 3 6 4 7 5 8 6 11 7 10 8 9 9 2 11 1 12 12 13 18 14
REMARK SMILES IDX 13 15 17 16 14 17 15 18 19 19 16 21
REMARK H PARENT 9 10 19 20 16 22
REMARK Flexibility Score: inf
ROOT
ATOM      1  C   UNL     1      40.496   4.837  -0.740  1.00  0.00     0.012 C 
ATOM      2  C   UNL     1      39.311   4.221  -0.860  1.00  0.00     0.053 C 
ENDROOT
BRANCH   1   3
ATOM      3  C   UNL     1      41.147   5.124   0.561  1.00  0.00    -0.025 A 
ATOM      4  C   UNL     1      42.334   5.880   0.664  1.00  0.00     0.012 A 
ATOM      5  C   UNL     1      42.917   6.113   1.914  1.00  0.00     0.047 A 
ATOM      6  C   UNL     1      42.333   5.589   3.074  1.00  0.00     0.115 A 
ATOM      7  C   UNL     1      40.579   4.591   1.731  1.00  0.00     0.012 A 
ATOM      8  C   UNL     1      41.166   4.828   2.978  1.00  0.00     0.047 A 
BRANCH   6   9
ATOM      9  O   UNL     1      42.906   5.817   4.323  1.00  0.00    -0.508 OA
ATOM     10  H   UNL     1      43.700   5.278   4.648  1.00  0.00     0.293 HD
ENDBRANCH   6   9
ENDBRANCH   1   3
BRANCH   2  11
ATOM     11  C   UNL     1      38.699   3.938  -2.176  1.00  0.00     0.189 C 
ATOM     12  O   UNL     1      39.404   3.487  -3.119  1.00  0.00    -0.289 OA
BRANCH  11  13
ATOM     13  C   UNL     1      37.264   4.212  -2.407  1.00  0.00     0.064 A 
ATOM     14  C   UNL     1      36.411   3.267  -3.030  1.00  0.00     0.130 A 
ATOM     15  C   UNL     1      36.737   5.463  -2.034  1.00  0.00     0.020 A 
ATOM     16  C   UNL     1      35.077   3.603  -3.294  1.00  0.00     0.093 A 
ATOM     17  C   UNL     1      35.401   5.779  -2.289  1.00  0.00     0.047 A 
ATOM     18  C   UNL     1      34.569   4.851  -2.925  1.00  0.00     0.119 A 
BRANCH  14  19
ATOM     19  O   UNL     1      36.844   1.985  -3.373  1.00  0.00    -0.507 OA
ATOM     20  H   UNL     1      36.215   1.237  -3.633  1.00  0.00     0.293 HD
ENDBRANCH  14  19
BRANCH  18  21
ATOM     21  O   UNL     1      33.237   5.158  -3.192  1.00  0.00    -0.508 OA
ATOM     22  H   UNL     1      32.522   5.081  -2.477  1.00  0.00     0.293 HD
ENDBRANCH  18  21
ENDBRANCH  11  13
ENDBRANCH   2  11
TORSDOF 6
ENDMDL
MODEL 3
REMARK VINA RESULT:    -6.987      1.412      2.125
REMARK INTER + INTRA:          -9.480
REMARK INTER:                  -9.034
REMARK INTRA:                  -0.446
REMARK UNBOUND:                -0.655
REMARK SMILES O=C(C=Cc1ccc(O)cc1)c1ccc(O)cc1O
REMARK SMILES IDX 4 1 3 2 5 3 6 4 7 5 8 6 11 7 10 8 9 9 2 11 1 12 12 13 18 14
REMARK SMILES IDX 13 15 17 16 14 17 15 18 19 19 16 21
REMARK H PARENT 9 10 19 20 16 22
REMARK Flexibility Score: inf
ROOT
ATOM      1  C   UNL     1      34.628   1.078  -3.882  1.00  0.00     0.012 C 
ATOM      2  C   UNL     1      34.732   2.199  -4.610  1.00  0.00     0.053 C 
ENDROOT
BRANCH   1   3
ATOM      3  C   UNL     1      34.708  -0.287  -4.456  1.00  0.00    -0.025 A 
ATOM      4  C   UNL     1      35.937  -0.934  -4.705  1.00  0.00     0.012 A 
ATOM      5  C   UNL     1      35.961  -2.218  -5.259  1.00  0.00     0.047 A 
ATOM      6  C   UNL     1      34.763  -2.869  -5.582  1.00  0.00     0.115 A 
ATOM      7  C   UNL     1      33.515  -0.945  -4.799  1.00  0.00     0.012 A 
ATOM      8  C   UNL     1      33.543  -2.228  -5.352  1.00  0.00     0.047 A 
BRANCH   6   9
ATOM      9  O   UNL     1      34.777  -4.148  -6.134  1.00  0.00    -0.508 OA
ATOM     10  H   UNL     1      34.729  -4.294  -7.135  1.00  0.00     0.293 HD
ENDBRANCH   6   9
ENDBRANCH   1   3
BRANCH   2  11
ATOM     11  C   UNL     1      34.663   3.545  -4.000  1.00  0.00     0.189 C 
ATOM     12  O   UNL     1      33.640   4.264  -4.165  1.00  0.00    -0.289 OA
BRANCH  11  13
ATOM     13  C   UNL     1      35.804   4.071  -3.219  1.00  0.00     0.064 A 
ATOM     14  C   UNL     1      35.727   5.297  -2.514  1.00  0.00     0.130 A 
ATOM     15  C   UNL     1      37.014   3.353  -3.208  1.00  0.00     0.020 A 
ATOM     16  C   UNL     1      36.859   5.789  -1.851  1.00  0.00     0.093 A 
ATOM     17  C   UNL     1      38.130   3.847  -2.530  1.00  0.00     0.047 A 
ATOM     18  C   UNL     1      38.056   5.070  -1.853  1.00  0.00     0.119 A 
BRANCH  14  19
ATOM     19  O   UNL     1      34.545   6.035  -2.428  1.00  0.00    -0.507 OA
ATOM     20  H   UNL     1      33.851   5.890  -1.706  1.00  0.00     0.293 HD
ENDBRANCH  14  19
BRANCH  18  21
ATOM     21  O   UNL     1      39.165   5.577  -1.181  1.00  0.00    -0.508 OA
ATOM     22  H   UNL     1      39.169   5.688  -0.173  1.00  0.00     0.293 HD
ENDBRANCH  18  21
ENDBRANCH  11  13
ENDBRANCH   2  11
TORSDOF 6
ENDMDL
MODEL 4
REMARK VINA RESULT:    -6.977      2.758      8.091
REMARK INTER + INTRA:          -9.467
REMARK INTER:                  -8.809
REMARK INTRA:                  -0.658
REMARK UNBOUND:                -0.655
REMARK SMILES O=C(C=Cc1ccc(O)cc1)c1ccc(O)cc1O
REMARK SMILES IDX 4 1 3 2 5 3 6 4 7 5 8 6 11 7 10 8 9 9 2 11 1 12 12 13 18 14
REMARK SMILES IDX 13 15 17 16 14 17 15 18 19 19 16 21
REMARK H PARENT 9 10 19 20 16 22
REMARK Flexibility Score: inf
ROOT
ATOM      1  C   UNL     1      35.565   0.734  -4.098  1.00  0.00     0.012 C 
ATOM      2  C   UNL     1      34.681  -0.074  -4.700  1.00  0.00     0.053 C 
ENDROOT
BRANCH   1   3
ATOM      3  C   UNL     1      35.281   2.146  -3.743  1.00  0.00    -0.025 A 
ATOM      4  C   UNL     1      36.290   3.041  -3.332  1.00  0.00     0.012 A 
ATOM      5  C   UNL     1      35.971   4.361  -2.995  1.00  0.00     0.047 A 
ATOM      6  C   UNL     1      34.642   4.802  -3.055  1.00  0.00     0.115 A 
ATOM      7  C   UNL     1      33.950   2.597  -3.783  1.00  0.00     0.012 A 
ATOM      8  C   UNL     1      33.636   3.916  -3.447  1.00  0.00     0.047 A 
BRANCH   6   9
ATOM      9  O   UNL     1      34.315   6.115  -2.723  1.00  0.00    -0.508 OA
ATOM     10  H   UNL     1      33.957   6.356  -1.806  1.00  0.00     0.293 HD
ENDBRANCH   6   9
ENDBRANCH   1   3
BRANCH   2  11
ATOM     11  C   UNL     1      34.995  -1.483  -5.025  1.00  0.00     0.189 C 
ATOM     12  O   UNL     1      35.804  -1.755  -5.953  1.00  0.00    -0.289 OA
BRANCH  11  13
ATOM     13  C   UNL     1      34.339  -2.584  -4.286  1.00  0.00     0.064 A 
ATOM     14  C   UNL     1      34.110  -3.851  -4.878  1.00  0.00     0.130 A 
ATOM     15  C   UNL     1      33.894  -2.356  -2.970  1.00  0.00     0.020 A 
ATOM     16  C   UNL     1      33.419  -4.837  -4.162  1.00  0.00     0.093 A 
ATOM     17  C   UNL     1      33.220  -3.353  -2.263  1.00  0.00     0.047 A 
ATOM     18  C   UNL     1      32.976  -4.595  -2.859  1.00  0.00     0.119 A 
BRANCH  14  19
ATOM     19  O   UNL     1      34.575  -4.173  -6.154  1.00  0.00    -0.507 OA
ATOM     20  H   UNL     1      34.768  -5.119  -6.453  1.00  0.00     0.293 HD
ENDBRANCH  14  19
BRANCH  18  21
ATOM     21  O   UNL     1      32.297  -5.594  -2.166  1.00  0.00    -0.508 OA
ATOM     22  H   UNL     1      31.352  -5.454  -1.826  1.00  0.00     0.293 HD
ENDBRANCH  18  21
ENDBRANCH  11  13
ENDBRANCH   2  11
TORSDOF 6
ENDMDL
MODEL 5
REMARK VINA RESULT:    -6.937      3.691      4.955
REMARK INTER + INTRA:          -9.417
REMARK INTER:                  -8.787
REMARK INTRA:                  -0.630
REMARK UNBOUND:                -0.655
REMARK SMILES O=C(C=Cc1ccc(O)cc1)c1ccc(O)cc1O
REMARK SMILES IDX 4 1 3 2 5 3 6 4 7 5 8 6 11 7 10 8 9 9 2 11 1 12 12 13 18 14
REMARK SMILES IDX 13 15 17 16 14 17 15 18 19 19 16 21
REMARK H PARENT 9 10 19 20 16 22
REMARK Flexibility Score: inf
ROOT
ATOM      1  C   UNL     1      37.611   3.655  -2.663  1.00  0.00     0.012 C 
ATOM      2  C   UNL     1      38.302   4.407  -1.793  1.00  0.00     0.053 C 
ENDROOT
BRANCH   1   3
ATOM      3  C   UNL     1      36.186   3.887  -3.002  1.00  0.00    -0.025 A 
ATOM      4  C   UNL     1      35.730   3.986  -4.333  1.00  0.00     0.012 A 
ATOM      5  C   UNL     1      34.377   4.218  -4.601  1.00  0.00     0.047 A 
ATOM      6  C   UNL     1      33.464   4.365  -3.549  1.00  0.00     0.115 A 
ATOM      7  C   UNL     1      35.263   4.052  -1.955  1.00  0.00     0.012 A 
ATOM      8  C   UNL     1      33.911   4.283  -2.228  1.00  0.00     0.047 A 
BRANCH   6   9
ATOM      9  O   UNL     1      32.114   4.595  -3.807  1.00  0.00    -0.508 OA
ATOM     10  H   UNL     1      31.808   5.395  -4.348  1.00  0.00     0.293 HD
ENDBRANCH   6   9
ENDBRANCH   1   3
BRANCH   2  11
ATOM     11  C   UNL     1      39.727   4.154  -1.492  1.00  0.00     0.189 C 
ATOM     12  O   UNL     1      40.478   3.637  -2.363  1.00  0.00    -0.289 OA
BRANCH  11  13
ATOM     13  C   UNL     1      40.277   4.475  -0.156  1.00  0.00     0.064 A 
ATOM     14  C   UNL     1      41.637   4.826   0.030  1.00  0.00     0.130 A 
ATOM     15  C   UNL     1      39.435   4.392   0.968  1.00  0.00     0.020 A 
ATOM     16  C   UNL     1      42.126   5.049   1.323  1.00  0.00     0.093 A 
ATOM     17  C   UNL     1      39.932   4.631   2.251  1.00  0.00     0.047 A 
ATOM     18  C   UNL     1      41.281   4.955   2.432  1.00  0.00     0.119 A 
BRANCH  14  19
ATOM     19  O   UNL     1      42.518   4.989  -1.041  1.00  0.00    -0.507 OA
ATOM     20  H   UNL     1      43.336   5.583  -1.002  1.00  0.00     0.293 HD
ENDBRANCH  14  19
BRANCH  18  21
ATOM     21  O   UNL     1      41.790   5.188   3.707  1.00  0.00    -0.508 OA
ATOM     22  H   UNL     1      41.214   5.085   4.534  1.00  0.00     0.293 HD
ENDBRANCH  18  21
ENDBRANCH  11  13
ENDBRANCH   2  11
TORSDOF 6
ENDMDL
MODEL 6
REMARK VINA RESULT:    -6.844      1.641      7.569
REMARK INTER + INTRA:          -9.299
REMARK INTER:                  -8.693
REMARK INTRA:                  -0.606
REMARK UNBOUND:                -0.655
REMARK SMILES O=C(C=Cc1ccc(O)cc1)c1ccc(O)cc1O
REMARK SMILES IDX 4 1 3 2 5 3 6 4 7 5 8 6 11 7 10 8 9 9 2 11 1 12 12 13 18 14
REMARK SMILES IDX 13 15 17 16 14 17 15 18 19 19 16 21
REMARK H PARENT 9 10 19 20 16 22
REMARK Flexibility Score: inf
ROOT
ATOM      1  C   UNL     1      36.431   4.324  -3.291  1.00  0.00     0.012 C 
ATOM      2  C   UNL     1      35.975   3.080  -3.497  1.00  0.00     0.053 C 
ENDROOT
BRANCH   1   3
ATOM      3  C   UNL     1      37.607   4.640  -2.444  1.00  0.00    -0.025 A 
ATOM      4  C   UNL     1      38.813   3.914  -2.520  1.00  0.00     0.012 A 
ATOM      5  C   UNL     1      39.891   4.243  -1.691  1.00  0.00     0.047 A 
ATOM      6  C   UNL     1      39.776   5.291  -0.769  1.00  0.00     0.115 A 
ATOM      7  C   UNL     1      37.500   5.680  -1.504  1.00  0.00     0.012 A 
ATOM      8  C   UNL     1      38.579   6.005  -0.678  1.00  0.00     0.047 A 
BRANCH   6   9
ATOM      9  O   UNL     1      40.844   5.627   0.061  1.00  0.00    -0.508 OA
ATOM     10  H   UNL     1      41.676   6.076  -0.303  1.00  0.00     0.293 HD
ENDBRANCH   6   9
ENDBRANCH   1   3
BRANCH   2  11
ATOM     11  C   UNL     1      34.808   2.802  -4.362  1.00  0.00     0.189 C 
ATOM     12  O   UNL     1      34.095   3.750  -4.790  1.00  0.00    -0.289 OA
BRANCH  11  13
ATOM     13  C   UNL     1      34.448   1.409  -4.706  1.00  0.00     0.064 A 
ATOM     14  C   UNL     1      34.208   1.005  -6.042  1.00  0.00     0.130 A 
ATOM     15  C   UNL     1      34.302   0.465  -3.672  1.00  0.00     0.020 A 
ATOM     16  C   UNL     1      33.798  -0.308  -6.308  1.00  0.00     0.093 A 
ATOM     17  C   UNL     1      33.906  -0.844  -3.953  1.00  0.00     0.047 A 
ATOM     18  C   UNL     1      33.648  -1.233  -5.272  1.00  0.00     0.119 A 
BRANCH  14  19
ATOM     19  O   UNL     1      34.392   1.866  -7.126  1.00  0.00    -0.507 OA
ATOM     20  H   UNL     1      34.408   2.874  -7.038  1.00  0.00     0.293 HD
ENDBRANCH  14  19
BRANCH  18  21
ATOM     21  O   UNL     1      33.246  -2.534  -5.564  1.00  0.00    -0.508 OA
ATOM     22  H   UNL     1      33.749  -3.107  -6.230  1.00  0.00     0.293 HD
ENDBRANCH  18  21
ENDBRANCH  11  13
ENDBRANCH   2  11
TORSDOF 6
ENDMDL
MODEL 7
REMARK VINA RESULT:    -6.771      1.464      2.207
REMARK INTER + INTRA:          -9.207
REMARK INTER:                  -8.667
REMARK INTRA:                  -0.540
REMARK UNBOUND:                -0.655
REMARK SMILES O=C(C=Cc1ccc(O)cc1)c1ccc(O)cc1O
REMARK SMILES IDX 4 1 3 2 5 3 6 4 7 5 8 6 11 7 10 8 9 9 2 11 1 12 12 13 18 14
REMARK SMILES IDX 13 15 17 16 14 17 15 18 19 19 16 21
REMARK H PARENT 9 10 19 20 16 22
REMARK Flexibility Score: inf
ROOT
ATOM      1  C   UNL     1      35.209   2.128  -3.442  1.00  0.00     0.012 C 
ATOM      2  C   UNL     1      35.614   3.143  -4.219  1.00  0.00     0.053 C 
ENDROOT
BRANCH   1   3
ATOM      3  C   UNL     1      34.811   0.798  -3.965  1.00  0.00    -0.025 A 
ATOM      4  C   UNL     1      35.737  -0.250  -4.152  1.00  0.00     0.012 A 
ATOM      5  C   UNL     1      35.315  -1.483  -4.660  1.00  0.00     0.047 A 
ATOM      6  C   UNL     1      33.970  -1.684  -4.997  1.00  0.00     0.115 A 
ATOM      7  C   UNL     1      33.468   0.588  -4.321  1.00  0.00     0.012 A 
ATOM      8  C   UNL     1      33.051  -0.646  -4.828  1.00  0.00     0.047 A 
BRANCH   6   9
ATOM      9  O   UNL     1      33.541  -2.910  -5.503  1.00  0.00    -0.508 OA
ATOM     10  H   UNL     1      33.190  -2.998  -6.449  1.00  0.00     0.293 HD
ENDBRANCH   6   9
ENDBRANCH   1   3
BRANCH   2  11
ATOM     11  C   UNL     1      36.018   4.451  -3.660  1.00  0.00     0.189 C 
ATOM     12  O   UNL     1      35.723   5.518  -4.264  1.00  0.00    -0.289 OA
BRANCH  11  13
ATOM     13  C   UNL     1      36.798   4.519  -2.404  1.00  0.00     0.064 A 
ATOM     14  C   UNL     1      38.136   4.059  -2.328  1.00  0.00     0.130 A 
ATOM     15  C   UNL     1      36.181   5.018  -1.242  1.00  0.00     0.020 A 
ATOM     16  C   UNL     1      38.807   4.076  -1.099  1.00  0.00     0.093 A 
ATOM     17  C   UNL     1      36.867   5.043  -0.026  1.00  0.00     0.047 A 
ATOM     18  C   UNL     1      38.181   4.567   0.050  1.00  0.00     0.119 A 
BRANCH  14  19
ATOM     19  O   UNL     1      38.834   3.608  -3.450  1.00  0.00    -0.507 OA
ATOM     20  H   UNL     1      38.410   3.056  -4.183  1.00  0.00     0.293 HD
ENDBRANCH  14  19
BRANCH  18  21
ATOM     21  O   UNL     1      38.872   4.580   1.259  1.00  0.00    -0.508 OA
ATOM     22  H   UNL     1      39.207   3.724   1.686  1.00  0.00     0.293 HD
ENDBRANCH  18  21
ENDBRANCH  11  13
ENDBRANCH   2  11
TORSDOF 6
ENDMDL
MODEL 8
REMARK VINA RESULT:    -6.763      3.538      7.843
REMARK INTER + INTRA:          -9.198
REMARK INTER:                  -8.595
REMARK INTRA:                  -0.602
REMARK UNBOUND:                -0.655
REMARK SMILES O=C(C=Cc1ccc(O)cc1)c1ccc(O)cc1O
REMARK SMILES IDX 4 1 3 2 5 3 6 4 7 5 8 6 11 7 10 8 9 9 2 11 1 12 12 13 18 14
REMARK SMILES IDX 13 15 17 16 14 17 15 18 19 19 16 21
REMARK H PARENT 9 10 19 20 16 22
REMARK Flexibility Score: inf
ROOT
ATOM      1  C   UNL     1      38.109   4.272  -0.078  1.00  0.00     0.012 C 
ATOM      2  C   UNL     1      37.124   5.056  -0.540  1.00  0.00     0.053 C 
ENDROOT
BRANCH   1   3
ATOM      3  C   UNL     1      39.439   4.780   0.337  1.00  0.00    -0.025 A 
ATOM      4  C   UNL     1      40.298   5.465  -0.547  1.00  0.00     0.012 A 
ATOM      5  C   UNL     1      41.549   5.915  -0.111  1.00  0.00     0.047 A 
ATOM      6  C   UNL     1      41.964   5.680   1.206  1.00  0.00     0.115 A 
ATOM      7  C   UNL     1      39.873   4.537   1.652  1.00  0.00     0.012 A 
ATOM      8  C   UNL     1      41.124   4.989   2.083  1.00  0.00     0.047 A 
BRANCH   6   9
ATOM      9  O   UNL     1      43.207   6.125   1.649  1.00  0.00    -0.508 OA
ATOM     10  H   UNL     1      43.704   6.868   1.173  1.00  0.00     0.293 HD
ENDBRANCH   6   9
ENDBRANCH   1   3
BRANCH   2  11
ATOM     11  C   UNL     1      35.804   4.514  -0.930  1.00  0.00     0.189 C 
ATOM     12  O   UNL     1      34.951   4.223  -0.048  1.00  0.00    -0.289 OA
BRANCH  11  13
ATOM     13  C   UNL     1      35.485   4.280  -2.356  1.00  0.00     0.064 A 
ATOM     14  C   UNL     1      34.150   4.135  -2.811  1.00  0.00     0.130 A 
ATOM     15  C   UNL     1      36.537   4.157  -3.281  1.00  0.00     0.020 A 
ATOM     16  C   UNL     1      33.904   3.841  -4.158  1.00  0.00     0.093 A 
ATOM     17  C   UNL     1      36.277   3.878  -4.625  1.00  0.00     0.047 A 
ATOM     18  C   UNL     1      34.959   3.714  -5.065  1.00  0.00     0.119 A 
BRANCH  14  19
ATOM     19  O   UNL     1      33.052   4.304  -1.965  1.00  0.00    -0.507 OA
ATOM     20  H   UNL     1      32.895   3.742  -1.139  1.00  0.00     0.293 HD
ENDBRANCH  14  19
BRANCH  18  21
ATOM     21  O   UNL     1      34.687   3.428  -6.401  1.00  0.00    -0.508 OA
ATOM     22  H   UNL     1      34.478   4.161  -7.068  1.00  0.00     0.293 HD
ENDBRANCH  18  21
ENDBRANCH  11  13
ENDBRANCH   2  11
TORSDOF 6
ENDMDL
