MODEL 1
REMARK VINA RESULT:    -7.273      0.000      0.000
REMARK INTER + INTRA:          -9.256
REMARK INTER:                  -8.974
REMARK INTRA:                  -0.282
REMARK UNBOUND:                -0.282
REMARK SMILES Oc1cc(O)c2cc(O)c(-c3cc(O)c(O)c(O)c3)[o+]c2c1
REMARK SMILES IDX 10 1 20 2 21 3 22 4 2 5 3 6 4 7 6 8 7 9 8 10 11 11 12 12
REMARK SMILES IDX 13 13 19 14 15 15 17 16 14 17 16 19 18 21 9 23 1 25 5 27
REMARK H PARENT 14 18 16 20 18 22 9 24 1 26 5 28
REMARK Flexibility Score: inf
ROOT
ATOM      1  C   UNL     1      27.030 -23.242  24.132  1.00  0.00     0.402 A 
ATOM      2  O   UNL     1      27.103 -21.916  24.212  1.00  0.00    -0.202 OA
ATOM      3  C   UNL     1      28.173 -21.221  23.844  1.00  0.00     0.368 A 
ATOM      4  C   UNL     1      28.157 -19.830  23.969  1.00  0.00     0.162 A 
ATOM      5  C   UNL     1      29.272 -19.073  23.592  1.00  0.00     0.128 A 
ATOM      6  C   UNL     1      30.407 -19.712  23.090  1.00  0.00     0.093 A 
ATOM      7  C   UNL     1      30.449 -21.106  22.956  1.00  0.00     0.136 A 
ATOM      8  C   UNL     1      29.320 -21.877  23.334  1.00  0.00     0.125 A 
ATOM      9  C   UNL     1      29.268 -23.276  23.223  1.00  0.00     0.078 A 
ATOM     10  C   UNL     1      28.116 -23.968  23.611  1.00  0.00     0.223 A 
ENDROOT
BRANCH   1  11
ATOM     11  C   UNL     1      25.784 -23.904  24.583  1.00  0.00     0.091 A 
ATOM     12  C   UNL     1      25.510 -23.997  25.955  1.00  0.00     0.068 A 
ATOM     13  C   UNL     1      24.351 -24.635  26.412  1.00  0.00     0.162 A 
ATOM     14  C   UNL     1      24.896 -24.494  23.667  1.00  0.00     0.068 A 
ATOM     15  C   UNL     1      23.456 -25.205  25.491  1.00  0.00     0.200 A 
ATOM     16  C   UNL     1      23.734 -25.137  24.115  1.00  0.00     0.162 A 
BRANCH  13  17
ATOM     17  O   UNL     1      24.108 -24.693  27.783  1.00  0.00    -0.504 OA
ATOM     18  H   UNL     1      23.532 -24.009  28.258  1.00  0.00     0.293 HD
ENDBRANCH  13  17
BRANCH  15  19
ATOM     19  O   UNL     1      22.301 -25.837  25.953  1.00  0.00    -0.502 OA
ATOM     20  H   UNL     1      22.317 -26.495  26.723  1.00  0.00     0.293 HD
ENDBRANCH  15  19
BRANCH  16  21
ATOM     21  O   UNL     1      22.857 -25.713  23.196  1.00  0.00    -0.504 OA
ATOM     22  H   UNL     1      22.841 -25.426  22.225  1.00  0.00     0.293 HD
ENDBRANCH  16  21
ENDBRANCH   1  11
BRANCH  10  23
ATOM     23  O   UNL     1      28.046 -25.353  23.453  1.00  0.00    -0.500 OA
ATOM     24  H   UNL     1      27.564 -25.776  22.670  1.00  0.00     0.294 HD
ENDBRANCH  10  23
BRANCH   5  25
ATOM     25  O   UNL     1      29.261 -17.685  23.713  1.00  0.00    -0.507 OA
ATOM     26  H   UNL     1      29.757 -17.215  24.462  1.00  0.00     0.293 HD
ENDBRANCH   5  25
BRANCH   7  27
ATOM     27  O   UNL     1      31.624 -21.668  22.448  1.00  0.00    -0.507 OA
ATOM     28  H   UNL     1      31.730 -22.641  22.200  1.00  0.00     0.293 HD
ENDBRANCH   7  27
TORSDOF 7
ENDMDL
MODEL 2
REMARK VINA RESULT:    -7.261      4.266      6.561
REMARK INTER + INTRA:          -9.240
REMARK INTER:                  -9.141
REMARK INTRA:                  -0.100
REMARK UNBOUND:                -0.282
REMARK SMILES Oc1cc(O)c2cc(O)c(-c3cc(O)c(O)c(O)c3)[o+]c2c1
REMARK SMILES IDX 10 1 20 2 21 3 22 4 2 5 3 6 4 7 6 8 7 9 8 10 11 11 12 12
REMARK SMILES IDX 13 13 19 14 15 15 17 16 14 17 16 19 18 21 9 23 1 25 5 27
REMARK H PARENT 14 18 16 20 18 22 9 24 1 26 5 28
REMARK Flexibility Score: inf
ROOT
ATOM      1  C   UNL     1      24.345 -25.244  27.524  1.00  0.00     0.402 A 
ATOM      2  O   UNL     1      24.140 -25.773  26.320  1.00  0.00    -0.202 OA
ATOM      3  C   UNL     1      24.095 -25.053  25.205  1.00  0.00     0.368 A 
ATOM      4  C   UNL     1      23.871 -25.699  23.987  1.00  0.00     0.162 A 
ATOM      5  C   UNL     1      23.815 -24.965  22.798  1.00  0.00     0.128 A 
ATOM      6  C   UNL     1      23.983 -23.579  22.828  1.00  0.00     0.093 A 
ATOM      7  C   UNL     1      24.209 -22.907  24.037  1.00  0.00     0.136 A 
ATOM      8  C   UNL     1      24.268 -23.648  25.245  1.00  0.00     0.125 A 
ATOM      9  C   UNL     1      24.502 -23.062  26.500  1.00  0.00     0.078 A 
ATOM     10  C   UNL     1      24.553 -23.858  27.648  1.00  0.00     0.223 A 
ENDROOT
BRANCH   1  11
ATOM     11  C   UNL     1      24.364 -26.151  28.694  1.00  0.00     0.091 A 
ATOM     12  C   UNL     1      25.126 -27.328  28.642  1.00  0.00     0.068 A 
ATOM     13  C   UNL     1      25.148 -28.214  29.724  1.00  0.00     0.162 A 
ATOM     14  C   UNL     1      23.590 -25.888  29.837  1.00  0.00     0.068 A 
ATOM     15  C   UNL     1      24.388 -27.937  30.873  1.00  0.00     0.200 A 
ATOM     16  C   UNL     1      23.603 -26.772  30.926  1.00  0.00     0.162 A 
BRANCH  13  17
ATOM     17  O   UNL     1      25.929 -29.366  29.638  1.00  0.00    -0.504 OA
ATOM     18  H   UNL     1      26.427 -29.740  30.437  1.00  0.00     0.293 HD
ENDBRANCH  13  17
BRANCH  15  19
ATOM     19  O   UNL     1      24.417 -28.824  31.950  1.00  0.00    -0.502 OA
ATOM     20  H   UNL     1      23.733 -28.790  32.696  1.00  0.00     0.293 HD
ENDBRANCH  15  19
BRANCH  16  21
ATOM     21  O   UNL     1      22.836 -26.497  32.056  1.00  0.00    -0.504 OA
ATOM     22  H   UNL     1      22.540 -27.231  32.690  1.00  0.00     0.293 HD
ENDBRANCH  16  21
ENDBRANCH   1  11
BRANCH  10  23
ATOM     23  O   UNL     1      24.835 -23.282  28.886  1.00  0.00    -0.500 OA
ATOM     24  H   UNL     1      24.908 -22.279  29.004  1.00  0.00     0.294 HD
ENDBRANCH  10  23
BRANCH   5  25
ATOM     25  O   UNL     1      23.593 -25.603  21.579  1.00  0.00    -0.507 OA
ATOM     26  H   UNL     1      24.360 -25.935  21.006  1.00  0.00     0.293 HD
ENDBRANCH   5  25
BRANCH   7  27
ATOM     27  O   UNL     1      24.363 -21.519  23.982  1.00  0.00    -0.507 OA
ATOM     28  H   UNL     1      25.251 -21.042  24.037  1.00  0.00     0.293 HD
ENDBRANCH   7  27
TORSDOF 7
ENDMDL
MODEL 3
REMARK VINA RESULT:    -7.240      0.071      1.795
REMARK INTER + INTRA:          -9.215
REMARK INTER:                  -8.949
REMARK INTRA:                  -0.266
REMARK UNBOUND:                -0.282
REMARK SMILES Oc1cc(O)c2cc(O)c(-c3cc(O)c(O)c(O)c3)[o+]c2c1
REMARK SMILES IDX 10 1 20 2 21 3 22 4 2 5 3 6 4 7 6 8 7 9 8 10 11 11 12 12
REMARK SMILES IDX 13 13 19 14 15 15 17 16 14 17 16 19 18 21 9 23 1 25 5 27
REMARK H PARENT 14 18 16 20 18 22 9 24 1 26 5 28
REMARK Flexibility Score: inf
ROOT
ATOM      1  C   UNL     1      27.039 -23.278  24.174  1.00  0.00     0.402 A 
ATOM      2  O   UNL     1      27.111 -21.953  24.270  1.00  0.00    -0.202 OA
ATOM      3  C   UNL     1      28.175 -21.251  23.894  1.00  0.00     0.368 A 
ATOM      4  C   UNL     1      28.158 -19.861  24.037  1.00  0.00     0.162 A 
ATOM      5  C   UNL     1      29.265 -19.098  23.652  1.00  0.00     0.128 A 
ATOM      6  C   UNL     1      30.393 -19.728  23.124  1.00  0.00     0.093 A 
ATOM      7  C   UNL     1      30.436 -21.120  22.970  1.00  0.00     0.136 A 
ATOM      8  C   UNL     1      29.314 -21.898  23.357  1.00  0.00     0.125 A 
ATOM      9  C   UNL     1      29.262 -23.296  23.228  1.00  0.00     0.078 A 
ATOM     10  C   UNL     1      28.119 -23.995  23.625  1.00  0.00     0.223 A 
ENDROOT
BRANCH   1  11
ATOM     11  C   UNL     1      25.802 -23.948  24.635  1.00  0.00     0.091 A 
ATOM     12  C   UNL     1      24.925 -24.502  23.691  1.00  0.00     0.068 A 
ATOM     13  C   UNL     1      23.738 -25.124  24.096  1.00  0.00     0.162 A 
ATOM     14  C   UNL     1      25.457 -23.991  25.997  1.00  0.00     0.068 A 
ATOM     15  C   UNL     1      23.408 -25.182  25.460  1.00  0.00     0.200 A 
ATOM     16  C   UNL     1      24.269 -24.609  26.412  1.00  0.00     0.162 A 
BRANCH  13  17
ATOM     17  O   UNL     1      22.901 -25.675  23.128  1.00  0.00    -0.504 OA
ATOM     18  H   UNL     1      21.966 -25.999  23.344  1.00  0.00     0.293 HD
ENDBRANCH  13  17
BRANCH  15  19
ATOM     19  O   UNL     1      22.224 -25.806  25.857  1.00  0.00    -0.502 OA
ATOM     20  H   UNL     1      22.045 -26.061  26.821  1.00  0.00     0.293 HD
ENDBRANCH  15  19
BRANCH  16  21
ATOM     21  O   UNL     1      23.941 -24.651  27.766  1.00  0.00    -0.504 OA
ATOM     22  H   UNL     1      24.518 -25.142  28.438  1.00  0.00     0.293 HD
ENDBRANCH  16  21
ENDBRANCH   1  11
BRANCH  10  23
ATOM     23  O   UNL     1      28.048 -25.377  23.450  1.00  0.00    -0.500 OA
ATOM     24  H   UNL     1      27.613 -25.981  24.137  1.00  0.00     0.294 HD
ENDBRANCH  10  23
BRANCH   5  25
ATOM     25  O   UNL     1      29.255 -17.712  23.792  1.00  0.00    -0.507 OA
ATOM     26  H   UNL     1      29.485 -17.099  23.018  1.00  0.00     0.293 HD
ENDBRANCH   5  25
BRANCH   7  27
ATOM     27  O   UNL     1      31.603 -21.673  22.436  1.00  0.00    -0.507 OA
ATOM     28  H   UNL     1      32.295 -22.173  22.975  1.00  0.00     0.293 HD
ENDBRANCH   7  27
TORSDOF 7
ENDMDL
MODEL 4
REMARK VINA RESULT:    -7.219      3.199      5.885
REMARK INTER + INTRA:          -9.189
REMARK INTER:                  -8.809
REMARK INTRA:                  -0.380
REMARK UNBOUND:                -0.282
REMARK SMILES Oc1cc(O)c2cc(O)c(-c3cc(O)c(O)c(O)c3)[o+]c2c1
REMARK SMILES IDX 10 1 20 2 21 3 22 4 2 5 3 6 4 7 6 8 7 9 8 10 11 11 12 12
REMARK SMILES IDX 13 13 19 14 15 15 17 16 14 17 16 19 18 21 9 23 1 25 5 27
REMARK H PARENT 14 18 16 20 18 22 9 24 1 26 5 28
REMARK Flexibility Score: inf
ROOT
ATOM      1  C   UNL     1      23.948 -25.385  27.448  1.00  0.00     0.402 A 
ATOM      2  O   UNL     1      25.041 -24.668  27.202  1.00  0.00    -0.202 OA
ATOM      3  C   UNL     1      25.216 -23.963  26.090  1.00  0.00     0.368 A 
ATOM      4  C   UNL     1      26.401 -23.243  25.920  1.00  0.00     0.162 A 
ATOM      5  C   UNL     1      26.613 -22.495  24.757  1.00  0.00     0.128 A 
ATOM      6  C   UNL     1      25.635 -22.468  23.761  1.00  0.00     0.093 A 
ATOM      7  C   UNL     1      24.438 -23.181  23.906  1.00  0.00     0.136 A 
ATOM      8  C   UNL     1      24.218 -23.939  25.085  1.00  0.00     0.125 A 
ATOM      9  C   UNL     1      23.045 -24.674  25.323  1.00  0.00     0.078 A 
ATOM     10  C   UNL     1      22.897 -25.394  26.512  1.00  0.00     0.223 A 
ENDROOT
BRANCH   1  11
ATOM     11  C   UNL     1      23.874 -26.137  28.722  1.00  0.00     0.091 A 
ATOM     12  C   UNL     1      23.330 -25.518  29.857  1.00  0.00     0.068 A 
ATOM     13  C   UNL     1      23.266 -26.197  31.079  1.00  0.00     0.162 A 
ATOM     14  C   UNL     1      24.392 -27.439  28.834  1.00  0.00     0.068 A 
ATOM     15  C   UNL     1      23.766 -27.506  31.181  1.00  0.00     0.200 A 
ATOM     16  C   UNL     1      24.334 -28.126  30.055  1.00  0.00     0.162 A 
BRANCH  13  17
ATOM     17  O   UNL     1      22.704 -25.553  32.180  1.00  0.00    -0.504 OA
ATOM     18  H   UNL     1      23.256 -25.278  32.984  1.00  0.00     0.293 HD
ENDBRANCH  13  17
BRANCH  15  19
ATOM     19  O   UNL     1      23.696 -28.177  32.403  1.00  0.00    -0.502 OA
ATOM     20  H   UNL     1      23.307 -29.109  32.486  1.00  0.00     0.293 HD
ENDBRANCH  15  19
BRANCH  16  21
ATOM     21  O   UNL     1      24.845 -29.419  30.153  1.00  0.00    -0.504 OA
ATOM     22  H   UNL     1      25.749 -29.604  30.573  1.00  0.00     0.293 HD
ENDBRANCH  16  21
ENDBRANCH   1  11
BRANCH  10  23
ATOM     23  O   UNL     1      21.711 -26.082  26.770  1.00  0.00    -0.500 OA
ATOM     24  H   UNL     1      21.413 -26.298  27.713  1.00  0.00     0.294 HD
ENDBRANCH  10  23
BRANCH   5  25
ATOM     25  O   UNL     1      27.792 -21.775  24.582  1.00  0.00    -0.507 OA
ATOM     26  H   UNL     1      28.675 -22.103  24.958  1.00  0.00     0.293 HD
ENDBRANCH   5  25
BRANCH   7  27
ATOM     27  O   UNL     1      23.513 -23.104  22.862  1.00  0.00    -0.507 OA
ATOM     28  H   UNL     1      23.295 -22.260  22.354  1.00  0.00     0.293 HD
ENDBRANCH   7  27
TORSDOF 7
ENDMDL
MODEL 5
REMARK VINA RESULT:    -7.092      4.404      8.394
REMARK INTER + INTRA:          -9.032
REMARK INTER:                  -8.804
REMARK INTRA:                  -0.228
REMARK UNBOUND:                -0.282
REMARK SMILES Oc1cc(O)c2cc(O)c(-c3cc(O)c(O)c(O)c3)[o+]c2c1
REMARK SMILES IDX 10 1 20 2 21 3 22 4 2 5 3 6 4 7 6 8 7 9 8 10 11 11 12 12
REMARK SMILES IDX 13 13 19 14 15 15 17 16 14 17 16 19 18 21 9 23 1 25 5 27
REMARK H PARENT 14 18 16 20 18 22 9 24 1 26 5 28
REMARK Flexibility Score: inf
ROOT
ATOM      1  C   UNL     1      23.449 -25.224  27.493  1.00  0.00     0.402 A 
ATOM      2  O   UNL     1      24.241 -26.224  27.873  1.00  0.00    -0.202 OA
ATOM      3  C   UNL     1      24.251 -26.718  29.106  1.00  0.00     0.368 A 
ATOM      4  C   UNL     1      25.121 -27.768  29.411  1.00  0.00     0.162 A 
ATOM      5  C   UNL     1      25.155 -28.305  30.702  1.00  0.00     0.128 A 
ATOM      6  C   UNL     1      24.317 -27.787  31.692  1.00  0.00     0.093 A 
ATOM      7  C   UNL     1      23.437 -26.734  31.412  1.00  0.00     0.136 A 
ATOM      8  C   UNL     1      23.397 -26.189  30.103  1.00  0.00     0.125 A 
ATOM      9  C   UNL     1      22.538 -25.142  29.729  1.00  0.00     0.078 A 
ATOM     10  C   UNL     1      22.550 -24.660  28.417  1.00  0.00     0.223 A 
ENDROOT
BRANCH   1  11
ATOM     11  C   UNL     1      23.536 -24.755  26.091  1.00  0.00     0.091 A 
ATOM     12  C   UNL     1      23.287 -25.658  25.046  1.00  0.00     0.068 A 
ATOM     13  C   UNL     1      23.382 -25.249  23.711  1.00  0.00     0.162 A 
ATOM     14  C   UNL     1      23.919 -23.439  25.782  1.00  0.00     0.068 A 
ATOM     15  C   UNL     1      23.745 -23.926  23.407  1.00  0.00     0.200 A 
ATOM     16  C   UNL     1      24.019 -23.021  24.447  1.00  0.00     0.162 A 
BRANCH  13  17
ATOM     17  O   UNL     1      23.113 -26.172  22.702  1.00  0.00    -0.504 OA
ATOM     18  H   UNL     1      23.510 -27.103  22.703  1.00  0.00     0.293 HD
ENDBRANCH  13  17
BRANCH  15  19
ATOM     19  O   UNL     1      23.834 -23.524  22.073  1.00  0.00    -0.502 OA
ATOM     20  H   UNL     1      24.696 -23.593  21.545  1.00  0.00     0.293 HD
ENDBRANCH  15  19
BRANCH  16  21
ATOM     21  O   UNL     1      24.393 -21.711  24.153  1.00  0.00    -0.504 OA
ATOM     22  H   UNL     1      25.365 -21.449  24.038  1.00  0.00     0.293 HD
ENDBRANCH  16  21
ENDBRANCH   1  11
BRANCH  10  23
ATOM     23  O   UNL     1      21.662 -23.655  28.032  1.00  0.00    -0.500 OA
ATOM     24  H   UNL     1      21.496 -23.433  27.058  1.00  0.00     0.294 HD
ENDBRANCH  10  23
BRANCH   5  25
ATOM     25  O   UNL     1      26.020 -29.352  31.012  1.00  0.00    -0.507 OA
ATOM     26  H   UNL     1      26.182 -30.115  30.365  1.00  0.00     0.293 HD
ENDBRANCH   5  25
BRANCH   7  27
ATOM     27  O   UNL     1      22.634 -26.272  32.459  1.00  0.00    -0.507 OA
ATOM     28  H   UNL     1      21.709 -25.887  32.340  1.00  0.00     0.293 HD
ENDBRANCH   7  27
TORSDOF 7
ENDMDL
MODEL 6
REMARK VINA RESULT:    -7.071      1.619      7.365
REMARK INTER + INTRA:          -9.006
REMARK INTER:                  -8.653
REMARK INTRA:                  -0.353
REMARK UNBOUND:                -0.282
REMARK SMILES Oc1cc(O)c2cc(O)c(-c3cc(O)c(O)c(O)c3)[o+]c2c1
REMARK SMILES IDX 10 1 20 2 21 3 22 4 2 5 3 6 4 7 6 8 7 9 8 10 11 11 12 12
REMARK SMILES IDX 13 13 19 14 15 15 17 16 14 17 16 19 18 21 9 23 1 25 5 27
REMARK H PARENT 14 18 16 20 18 22 9 24 1 26 5 28
REMARK Flexibility Score: inf
ROOT
ATOM      1  C   UNL     1      25.572 -23.768  24.734  1.00  0.00     0.402 A 
ATOM      2  O   UNL     1      25.550 -24.165  26.004  1.00  0.00    -0.202 OA
ATOM      3  C   UNL     1      24.495 -24.740  26.570  1.00  0.00     0.368 A 
ATOM      4  C   UNL     1      24.566 -25.120  27.913  1.00  0.00     0.162 A 
ATOM      5  C   UNL     1      23.469 -25.725  28.535  1.00  0.00     0.128 A 
ATOM      6  C   UNL     1      22.297 -25.949  27.811  1.00  0.00     0.093 A 
ATOM      7  C   UNL     1      22.199 -25.578  26.463  1.00  0.00     0.136 A 
ATOM      8  C   UNL     1      23.310 -24.966  25.828  1.00  0.00     0.125 A 
ATOM      9  C   UNL     1      23.308 -24.573  24.479  1.00  0.00     0.078 A 
ATOM     10  C   UNL     1      24.444 -23.980  23.920  1.00  0.00     0.223 A 
ENDROOT
BRANCH   1  11
ATOM     11  C   UNL     1      26.806 -23.130  24.220  1.00  0.00     0.091 A 
ATOM     12  C   UNL     1      27.932 -23.923  23.954  1.00  0.00     0.068 A 
ATOM     13  C   UNL     1      29.118 -23.345  23.487  1.00  0.00     0.162 A 
ATOM     14  C   UNL     1      26.893 -21.738  24.048  1.00  0.00     0.068 A 
ATOM     15  C   UNL     1      29.193 -21.955  23.296  1.00  0.00     0.200 A 
ATOM     16  C   UNL     1      28.078 -21.150  23.583  1.00  0.00     0.162 A 
BRANCH  13  17
ATOM     17  O   UNL     1      30.211 -24.169  23.221  1.00  0.00    -0.504 OA
ATOM     18  H   UNL     1      31.047 -24.158  23.793  1.00  0.00     0.293 HD
ENDBRANCH  13  17
BRANCH  15  19
ATOM     19  O   UNL     1      30.379 -21.387  22.828  1.00  0.00    -0.502 OA
ATOM     20  H   UNL     1      30.389 -20.680  22.103  1.00  0.00     0.293 HD
ENDBRANCH  15  19
BRANCH  16  21
ATOM     21  O   UNL     1      28.150 -19.769  23.409  1.00  0.00    -0.504 OA
ATOM     22  H   UNL     1      27.316 -19.200  23.322  1.00  0.00     0.293 HD
ENDBRANCH  16  21
ENDBRANCH   1  11
BRANCH  10  23
ATOM     23  O   UNL     1      24.459 -23.636  22.568  1.00  0.00    -0.500 OA
ATOM     24  H   UNL     1      23.909 -24.139  21.883  1.00  0.00     0.294 HD
ENDBRANCH  10  23
BRANCH   5  25
ATOM     25  O   UNL     1      23.534 -26.106  29.873  1.00  0.00    -0.507 OA
ATOM     26  H   UNL     1      24.070 -26.914  30.169  1.00  0.00     0.293 HD
ENDBRANCH   5  25
BRANCH   7  27
ATOM     27  O   UNL     1      20.990 -25.834  25.811  1.00  0.00    -0.507 OA
ATOM     28  H   UNL     1      20.371 -26.598  26.038  1.00  0.00     0.293 HD
ENDBRANCH   7  27
TORSDOF 7
ENDMDL
MODEL 7
REMARK VINA RESULT:    -6.978      5.259      7.291
REMARK INTER + INTRA:          -8.892
REMARK INTER:                  -8.551
REMARK INTRA:                  -0.341
REMARK UNBOUND:                -0.282
REMARK SMILES Oc1cc(O)c2cc(O)c(-c3cc(O)c(O)c(O)c3)[o+]c2c1
REMARK SMILES IDX 10 1 20 2 21 3 22 4 2 5 3 6 4 7 6 8 7 9 8 10 11 11 12 12
REMARK SMILES IDX 13 13 19 14 15 15 17 16 14 17 16 19 18 21 9 23 1 25 5 27
REMARK H PARENT 14 18 16 20 18 22 9 24 1 26 5 28
REMARK Flexibility Score: inf
ROOT
ATOM      1  C   UNL     1      22.506 -21.462  27.225  1.00  0.00     0.402 A 
ATOM      2  O   UNL     1      21.813 -20.385  26.861  1.00  0.00    -0.202 OA
ATOM      3  C   UNL     1      21.722 -19.291  27.608  1.00  0.00     0.368 A 
ATOM      4  C   UNL     1      20.968 -18.210  27.142  1.00  0.00     0.162 A 
ATOM      5  C   UNL     1      20.853 -17.047  27.909  1.00  0.00     0.128 A 
ATOM      6  C   UNL     1      21.492 -16.964  29.147  1.00  0.00     0.093 A 
ATOM      7  C   UNL     1      22.254 -18.033  29.638  1.00  0.00     0.136 A 
ATOM      8  C   UNL     1      22.376 -19.214  28.862  1.00  0.00     0.125 A 
ATOM      9  C   UNL     1      23.128 -20.330  29.266  1.00  0.00     0.078 A 
ATOM     10  C   UNL     1      23.207 -21.458  28.444  1.00  0.00     0.223 A 
ENDROOT
BRANCH   1  11
ATOM     11  C   UNL     1      22.525 -22.626  26.309  1.00  0.00     0.091 A 
ATOM     12  C   UNL     1      23.260 -22.552  25.116  1.00  0.00     0.068 A 
ATOM     13  C   UNL     1      23.280 -23.628  24.222  1.00  0.00     0.162 A 
ATOM     14  C   UNL     1      21.774 -23.783  26.580  1.00  0.00     0.068 A 
ATOM     15  C   UNL     1      22.544 -24.791  24.508  1.00  0.00     0.200 A 
ATOM     16  C   UNL     1      21.786 -24.865  25.689  1.00  0.00     0.162 A 
BRANCH  13  17
ATOM     17  O   UNL     1      24.034 -23.522  23.055  1.00  0.00    -0.504 OA
ATOM     18  H   UNL     1      23.953 -24.189  22.297  1.00  0.00     0.293 HD
ENDBRANCH  13  17
BRANCH  15  19
ATOM     19  O   UNL     1      22.572 -25.861  23.612  1.00  0.00    -0.502 OA
ATOM     20  H   UNL     1      23.061 -25.812  22.726  1.00  0.00     0.293 HD
ENDBRANCH  15  19
BRANCH  16  21
ATOM     21  O   UNL     1      21.043 -26.009  25.972  1.00  0.00    -0.504 OA
ATOM     22  H   UNL     1      21.293 -26.914  25.589  1.00  0.00     0.293 HD
ENDBRANCH  16  21
ENDBRANCH   1  11
BRANCH  10  23
ATOM     23  O   UNL     1      23.995 -22.545  28.824  1.00  0.00    -0.500 OA
ATOM     24  H   UNL     1      24.617 -23.007  28.171  1.00  0.00     0.294 HD
ENDBRANCH  10  23
BRANCH   5  25
ATOM     25  O   UNL     1      20.103 -15.966  27.450  1.00  0.00    -0.507 OA
ATOM     26  H   UNL     1      20.452 -15.347  26.728  1.00  0.00     0.293 HD
ENDBRANCH   5  25
BRANCH   7  27
ATOM     27  O   UNL     1      22.860 -17.872  30.887  1.00  0.00    -0.507 OA
ATOM     28  H   UNL     1      22.652 -17.121  31.529  1.00  0.00     0.293 HD
ENDBRANCH   7  27
TORSDOF 7
ENDMDL
MODEL 8
REMARK VINA RESULT:    -6.865      4.388      8.268
REMARK INTER + INTRA:          -8.753
REMARK INTER:                  -8.368
REMARK INTRA:                  -0.385
REMARK UNBOUND:                -0.282
REMARK SMILES Oc1cc(O)c2cc(O)c(-c3cc(O)c(O)c(O)c3)[o+]c2c1
REMARK SMILES IDX 10 1 20 2 21 3 22 4 2 5 3 6 4 7 6 8 7 9 8 10 11 11 12 12
REMARK SMILES IDX 13 13 19 14 15 15 17 16 14 17 16 19 18 21 9 23 1 25 5 27
REMARK H PARENT 14 18 16 20 18 22 9 24 1 26 5 28
REMARK Flexibility Score: inf
ROOT
ATOM      1  C   UNL     1      23.526 -25.043  27.588  1.00  0.00     0.402 A 
ATOM      2  O   UNL     1      22.370 -24.835  28.212  1.00  0.00    -0.202 OA
ATOM      3  C   UNL     1      22.167 -25.135  29.490  1.00  0.00     0.368 A 
ATOM      4  C   UNL     1      20.915 -24.882  30.058  1.00  0.00     0.162 A 
ATOM      5  C   UNL     1      20.673 -25.190  31.400  1.00  0.00     0.128 A 
ATOM      6  C   UNL     1      21.686 -25.755  32.177  1.00  0.00     0.093 A 
ATOM      7  C   UNL     1      22.950 -26.019  31.632  1.00  0.00     0.136 A 
ATOM      8  C   UNL     1      23.201 -25.705  30.272  1.00  0.00     0.125 A 
ATOM      9  C   UNL     1      24.439 -25.922  29.645  1.00  0.00     0.078 A 
ATOM     10  C   UNL     1      24.613 -25.582  28.300  1.00  0.00     0.223 A 
ENDROOT
BRANCH   1  11
ATOM     11  C   UNL     1      23.626 -24.675  26.157  1.00  0.00     0.091 A 
ATOM     12  C   UNL     1      23.948 -23.356  25.805  1.00  0.00     0.068 A 
ATOM     13  C   UNL     1      24.030 -22.974  24.461  1.00  0.00     0.162 A 
ATOM     14  C   UNL     1      23.349 -25.606  25.141  1.00  0.00     0.068 A 
ATOM     15  C   UNL     1      23.772 -23.914  23.449  1.00  0.00     0.200 A 
ATOM     16  C   UNL     1      23.426 -25.232  23.792  1.00  0.00     0.162 A 
BRANCH  13  17
ATOM     17  O   UNL     1      24.367 -21.657  24.154  1.00  0.00    -0.504 OA
ATOM     18  H   UNL     1      24.903 -21.416  23.328  1.00  0.00     0.293 HD
ENDBRANCH  13  17
BRANCH  15  19
ATOM     19  O   UNL     1      23.859 -23.526  22.111  1.00  0.00    -0.502 OA
ATOM     20  H   UNL     1      24.530 -22.838  21.790  1.00  0.00     0.293 HD
ENDBRANCH  15  19
BRANCH  16  21
ATOM     21  O   UNL     1      23.155 -26.165  22.793  1.00  0.00    -0.504 OA
ATOM     22  H   UNL     1      22.427 -26.862  22.899  1.00  0.00     0.293 HD
ENDBRANCH  16  21
ENDBRANCH   1  11
BRANCH  10  23
ATOM     23  O   UNL     1      25.858 -25.751  27.692  1.00  0.00    -0.500 OA
ATOM     24  H   UNL     1      25.944 -26.036  26.724  1.00  0.00     0.294 HD
ENDBRANCH  10  23
BRANCH   5  25
ATOM     25  O   UNL     1      19.427 -24.940  31.972  1.00  0.00    -0.507 OA
ATOM     26  H   UNL     1      19.045 -24.003  32.022  1.00  0.00     0.293 HD
ENDBRANCH   5  25
BRANCH   7  27
ATOM     27  O   UNL     1      23.908 -26.588  32.476  1.00  0.00    -0.507 OA
ATOM     28  H   UNL     1      23.694 -27.192  33.256  1.00  0.00     0.293 HD
ENDBRANCH   7  27
TORSDOF 7
ENDMDL
MODEL 9
REMARK VINA RESULT:    -6.864      6.133      8.835
REMARK INTER + INTRA:          -8.751
REMARK INTER:                  -8.383
REMARK INTRA:                  -0.368
REMARK UNBOUND:                -0.282
REMARK SMILES Oc1cc(O)c2cc(O)c(-c3cc(O)c(O)c(O)c3)[o+]c2c1
REMARK SMILES IDX 10 1 20 2 21 3 22 4 2 5 3 6 4 7 6 8 7 9 8 10 11 11 12 12
REMARK SMILES IDX 13 13 19 14 15 15 17 16 14 17 16 19 18 21 9 23 1 25 5 27
REMARK H PARENT 14 18 16 20 18 22 9 24 1 26 5 28
REMARK Flexibility Score: inf
ROOT
ATOM      1  C   UNL     1      23.689 -26.093  28.862  1.00  0.00     0.402 A 
ATOM      2  O   UNL     1      23.215 -26.216  30.099  1.00  0.00    -0.202 OA
ATOM      3  C   UNL     1      23.749 -27.024  31.008  1.00  0.00     0.368 A 
ATOM      4  C   UNL     1      23.177 -27.087  32.281  1.00  0.00     0.162 A 
ATOM      5  C   UNL     1      23.717 -27.932  33.256  1.00  0.00     0.128 A 
ATOM      6  C   UNL     1      24.832 -28.717  32.956  1.00  0.00     0.093 A 
ATOM      7  C   UNL     1      25.423 -28.672  31.687  1.00  0.00     0.136 A 
ATOM      8  C   UNL     1      24.881 -27.815  30.695  1.00  0.00     0.125 A 
ATOM      9  C   UNL     1      25.415 -27.695  29.401  1.00  0.00     0.078 A 
ATOM     10  C   UNL     1      24.829 -26.824  28.479  1.00  0.00     0.223 A 
ENDROOT
BRANCH   1  11
ATOM     11  C   UNL     1      23.001 -25.164  27.936  1.00  0.00     0.091 A 
ATOM     12  C   UNL     1      23.209 -23.783  28.064  1.00  0.00     0.068 A 
ATOM     13  C   UNL     1      22.556 -22.880  27.216  1.00  0.00     0.162 A 
ATOM     14  C   UNL     1      22.098 -25.633  26.967  1.00  0.00     0.068 A 
ATOM     15  C   UNL     1      21.670 -23.356  26.235  1.00  0.00     0.200 A 
ATOM     16  C   UNL     1      21.437 -24.736  26.115  1.00  0.00     0.162 A 
BRANCH  13  17
ATOM     17  O   UNL     1      22.801 -21.516  27.367  1.00  0.00    -0.504 OA
ATOM     18  H   UNL     1      22.179 -20.812  26.988  1.00  0.00     0.293 HD
ENDBRANCH  13  17
BRANCH  15  19
ATOM     19  O   UNL     1      21.025 -22.449  25.392  1.00  0.00    -0.502 OA
ATOM     20  H   UNL     1      20.968 -22.590  24.391  1.00  0.00     0.293 HD
ENDBRANCH  15  19
BRANCH  16  21
ATOM     21  O   UNL     1      20.549 -25.214  25.153  1.00  0.00    -0.504 OA
ATOM     22  H   UNL     1      19.548 -25.082  25.242  1.00  0.00     0.293 HD
ENDBRANCH  16  21
ENDBRANCH   1  11
BRANCH  10  23
ATOM     23  O   UNL     1      25.390 -26.668  27.211  1.00  0.00    -0.500 OA
ATOM     24  H   UNL     1      26.106 -27.294  26.864  1.00  0.00     0.294 HD
ENDBRANCH  10  23
BRANCH   5  25
ATOM     25  O   UNL     1      23.152 -28.000  34.528  1.00  0.00    -0.507 OA
ATOM     26  H   UNL     1      22.611 -27.232  34.910  1.00  0.00     0.293 HD
ENDBRANCH   5  25
BRANCH   7  27
ATOM     27  O   UNL     1      26.534 -29.491  31.466  1.00  0.00    -0.507 OA
ATOM     28  H   UNL     1      26.794 -30.270  32.053  1.00  0.00     0.293 HD
ENDBRANCH   7  27
TORSDOF 7
ENDMDL
