MODEL 1
REMARK VINA RESULT:     2.299      0.000      0.000
REMARK INTER + INTRA:           3.486
REMARK INTER:                   2.836
REMARK INTRA:                   0.650
REMARK UNBOUND:                 0.650
REMARK SMILES CC(C)=CCC[C@@H](C)c1ccc(C)cc1
REMARK SMILES IDX 6 1 7 2 8 3 9 4 13 5 12 6 11 7 14 8 10 9 15 10 5 11 4 12
REMARK SMILES IDX 2 13 1 14 3 15
REMARK H PARENT
REMARK Flexibility Score: inf
ROOT
ATOM      1  C   UNL     1       2.294  40.012  64.749  1.00  0.00     0.012 C 
ENDROOT
BRANCH   1   2
ATOM      2  C   UNL     1       3.429  40.336  65.746  1.00  0.00     0.016 C 
ATOM      3  C   UNL     1       3.553  39.233  66.806  1.00  0.00     0.013 C 
BRANCH   2   4
ATOM      4  C   UNL     1       4.758  40.555  65.045  1.00  0.00    -0.045 A 
ATOM      5  C   UNL     1       8.519  41.119  62.995  1.00  0.00     0.044 C 
ATOM      6  C   UNL     1       7.213  40.952  63.715  1.00  0.00    -0.051 A 
ATOM      7  C   UNL     1       7.193  40.580  65.066  1.00  0.00     0.004 A 
ATOM      8  C   UNL     1       6.002  41.100  63.025  1.00  0.00     0.004 A 
ATOM      9  C   UNL     1       5.978  40.389  65.727  1.00  0.00     0.004 A 
ATOM     10  C   UNL     1       4.785  40.909  63.684  1.00  0.00     0.004 A 
ENDBRANCH   2   4
ENDBRANCH   1   2
BRANCH   1  11
ATOM     11  C   UNL     1       1.203  41.094  64.744  1.00  0.00     0.028 C 
BRANCH  11  12
ATOM     12  C   UNL     1       0.450  41.086  63.437  1.00  0.00    -0.028 C 
ATOM     13  C   UNL     1       1.035  41.091  62.219  1.00  0.00    -0.080 C 
ATOM     14  C   UNL     1       2.535  41.049  62.052  1.00  0.00     0.039 C 
ATOM     15  C   UNL     1       0.152  41.124  60.999  1.00  0.00     0.039 C 
ENDBRANCH  11  12
ENDBRANCH   1  11
TORSDOF 4
ENDMDL
MODEL 2
REMARK VINA RESULT:     2.563     15.356     17.958
REMARK INTER + INTRA:           3.812
REMARK INTER:                   4.566
REMARK INTRA:                  -0.754
REMARK UNBOUND:                 0.650
REMARK SMILES CC(C)=CCC[C@@H](C)c1ccc(C)cc1
REMARK SMILES IDX 6 1 7 2 8 3 9 4 13 5 12 6 11 7 14 8 10 9 15 10 5 11 4 12
REMARK SMILES IDX 2 13 1 14 3 15
REMARK H PARENT
REMARK Flexibility Score: inf
ROOT
ATOM      1  C   UNL     1      15.861  28.950  73.831  1.00  0.00     0.012 C 
ENDROOT
BRANCH   1   2
ATOM      2  C   UNL     1      17.305  29.494  73.777  1.00  0.00     0.016 C 
ATOM      3  C   UNL     1      18.124  28.758  72.708  1.00  0.00     0.013 C 
BRANCH   2   4
ATOM      4  C   UNL     1      17.342  30.993  73.540  1.00  0.00    -0.045 A 
ATOM      5  C   UNL     1      17.362  35.258  72.853  1.00  0.00     0.044 C 
ATOM      6  C   UNL     1      17.378  33.780  73.110  1.00  0.00    -0.051 A 
ATOM      7  C   UNL     1      18.125  32.928  72.285  1.00  0.00     0.004 A 
ATOM      8  C   UNL     1      16.594  33.232  74.134  1.00  0.00     0.004 A 
ATOM      9  C   UNL     1      18.112  31.548  72.500  1.00  0.00     0.004 A 
ATOM     10  C   UNL     1      16.580  31.852  74.351  1.00  0.00     0.004 A 
ENDBRANCH   2   4
ENDBRANCH   1   2
BRANCH   1  11
ATOM     11  C   UNL     1      15.112  29.166  72.507  1.00  0.00     0.028 C 
BRANCH  11  12
ATOM     12  C   UNL     1      13.751  29.766  72.755  1.00  0.00    -0.028 C 
ATOM     13  C   UNL     1      12.892  30.139  71.782  1.00  0.00    -0.080 C 
ATOM     14  C   UNL     1      13.201  29.932  70.318  1.00  0.00     0.039 C 
ATOM     15  C   UNL     1      11.580  30.764  72.183  1.00  0.00     0.039 C 
ENDBRANCH  11  12
ENDBRANCH   1  11
TORSDOF 4
ENDMDL
MODEL 3
REMARK VINA RESULT:     3.952      1.167      5.079
REMARK INTER + INTRA:           5.526
REMARK INTER:                   5.489
REMARK INTRA:                   0.037
REMARK UNBOUND:                 0.650
REMARK SMILES CC(C)=CCC[C@@H](C)c1ccc(C)cc1
REMARK SMILES IDX 6 1 7 2 8 3 9 4 13 5 12 6 11 7 14 8 10 9 15 10 5 11 4 12
REMARK SMILES IDX 2 13 1 14 3 15
REMARK H PARENT
REMARK Flexibility Score: inf
ROOT
ATOM      1  C   UNL     1       5.557  40.134  65.759  1.00  0.00     0.012 C 
ENDROOT
BRANCH   1   2
ATOM      2  C   UNL     1       5.409  40.981  64.477  1.00  0.00     0.016 C 
ATOM      3  C   UNL     1       6.365  40.484  63.384  1.00  0.00     0.013 C 
BRANCH   2   4
ATOM      4  C   UNL     1       3.979  41.001  63.968  1.00  0.00    -0.045 A 
ATOM      5  C   UNL     1      -0.073  41.125  62.475  1.00  0.00     0.044 C 
ATOM      6  C   UNL     1       1.332  41.052  62.995  1.00  0.00    -0.051 A 
ATOM      7  C   UNL     1       1.580  41.123  64.372  1.00  0.00     0.004 A 
ATOM      8  C   UNL     1       2.413  40.980  62.104  1.00  0.00     0.004 A 
ATOM      9  C   UNL     1       2.890  41.092  64.856  1.00  0.00     0.004 A 
ATOM     10  C   UNL     1       3.724  40.949  62.586  1.00  0.00     0.004 A 
ENDBRANCH   2   4
ENDBRANCH   1   2
BRANCH   1  11
ATOM     11  C   UNL     1       5.509  38.626  65.465  1.00  0.00     0.028 C 
BRANCH  11  12
ATOM     12  C   UNL     1       4.153  38.060  65.803  1.00  0.00    -0.028 C 
ATOM     13  C   UNL     1       3.414  38.434  66.871  1.00  0.00    -0.080 C 
ATOM     14  C   UNL     1       3.866  39.521  67.816  1.00  0.00     0.039 C 
ATOM     15  C   UNL     1       2.092  37.749  67.105  1.00  0.00     0.039 C 
ENDBRANCH  11  12
ENDBRANCH   1  11
TORSDOF 4
ENDMDL
MODEL 4
REMARK VINA RESULT:     4.540     15.097     18.188
REMARK INTER + INTRA:           6.251
REMARK INTER:                   6.977
REMARK INTRA:                  -0.727
REMARK UNBOUND:                 0.650
REMARK SMILES CC(C)=CCC[C@@H](C)c1ccc(C)cc1
REMARK SMILES IDX 6 1 7 2 8 3 9 4 13 5 12 6 11 7 14 8 10 9 15 10 5 11 4 12
REMARK SMILES IDX 2 13 1 14 3 15
REMARK H PARENT
REMARK Flexibility Score: inf
ROOT
ATOM      1  C   UNL     1      16.932  30.364  74.023  1.00  0.00     0.012 C 
ENDROOT
BRANCH   1   2
ATOM      2  C   UNL     1      16.417  29.462  72.880  1.00  0.00     0.016 C 
ATOM      3  C   UNL     1      16.575  27.980  73.243  1.00  0.00     0.013 C 
BRANCH   2   4
ATOM      4  C   UNL     1      14.976  29.772  72.513  1.00  0.00    -0.045 A 
ATOM      5  C   UNL     1      10.906  30.712  71.416  1.00  0.00     0.044 C 
ATOM      6  C   UNL     1      12.311  30.357  71.803  1.00  0.00    -0.051 A 
ATOM      7  C   UNL     1      12.738  30.507  73.129  1.00  0.00     0.004 A 
ATOM      8  C   UNL     1      13.228  29.937  70.829  1.00  0.00     0.004 A 
ATOM      9  C   UNL     1      14.057  30.213  73.484  1.00  0.00     0.004 A 
ATOM     10  C   UNL     1      14.547  29.642  71.181  1.00  0.00     0.004 A 
ENDBRANCH   2   4
ENDBRANCH   1   2
BRANCH   1  11
ATOM     11  C   UNL     1      18.125  31.228  73.586  1.00  0.00     0.028 C 
BRANCH  11  12
ATOM     12  C   UNL     1      17.652  32.454  72.845  1.00  0.00    -0.028 C 
ATOM     13  C   UNL     1      17.588  33.692  73.382  1.00  0.00    -0.080 C 
ATOM     14  C   UNL     1      18.047  33.979  74.792  1.00  0.00     0.039 C 
ATOM     15  C   UNL     1      17.054  34.816  72.532  1.00  0.00     0.039 C 
ENDBRANCH  11  12
ENDBRANCH   1  11
TORSDOF 4
ENDMDL
