MODEL 1
REMARK VINA RESULT:    -3.626      0.000      0.000
REMARK INTER + INTRA:          -4.349
REMARK INTER:                  -4.262
REMARK INTRA:                  -0.086
REMARK UNBOUND:                -0.086
REMARK SMILES O=C([O-])CCC(=O)[O-]
REMARK SMILES IDX 4 1 2 2 1 3 3 4 5 5 6 6 7 7 8 8
REMARK H PARENT
REMARK Flexibility Score: inf
ROOT
ATOM      1  C   UNL     1     -17.076  41.350  21.594  1.00  0.00     0.059 C 
ENDROOT
BRANCH   1   2
ATOM      2  C   UNL     1     -16.625  42.778  21.651  1.00  0.00     0.042 C 
ATOM      3  O   UNL     1     -17.456  43.712  21.501  1.00  0.00    -0.550 OA
ATOM      4  O   UNL     1     -15.281  43.076  21.831  1.00  0.00    -0.550 OA
ENDBRANCH   1   2
BRANCH   1   5
ATOM      5  C   UNL     1     -18.347  41.195  20.753  1.00  0.00     0.059 C 
BRANCH   5   6
ATOM      6  C   UNL     1     -18.079  40.450  19.481  1.00  0.00     0.042 C 
ATOM      7  O   UNL     1     -17.497  41.021  18.522  1.00  0.00    -0.550 OA
ATOM      8  O   UNL     1     -18.437  39.112  19.369  1.00  0.00    -0.550 OA
ENDBRANCH   5   6
ENDBRANCH   1   5
TORSDOF 3
ENDMDL
MODEL 2
REMARK VINA RESULT:    -3.593     11.948     13.130
REMARK INTER + INTRA:          -4.310
REMARK INTER:                  -4.191
REMARK INTRA:                  -0.119
REMARK UNBOUND:                -0.086
REMARK SMILES O=C([O-])CCC(=O)[O-]
REMARK SMILES IDX 4 1 2 2 1 3 3 4 5 5 6 6 7 7 8 8
REMARK H PARENT
REMARK Flexibility Score: inf
ROOT
ATOM      1  C   UNL     1     -29.083  41.507  20.029  1.00  0.00     0.059 C 
ENDROOT
BRANCH   1   2
ATOM      2  C   UNL     1     -29.375  40.041  19.922  1.00  0.00     0.042 C 
ATOM      3  O   UNL     1     -30.556  39.620  20.036  1.00  0.00    -0.550 OA
ATOM      4  O   UNL     1     -28.338  39.137  19.737  1.00  0.00    -0.550 OA
ENDBRANCH   1   2
BRANCH   1   5
ATOM      5  C   UNL     1     -29.435  42.246  18.733  1.00  0.00     0.059 C 
BRANCH   5   6
ATOM      6  C   UNL     1     -30.711  43.018  18.868  1.00  0.00     0.042 C 
ATOM      7  O   UNL     1     -31.274  43.123  19.989  1.00  0.00    -0.550 OA
ATOM      8  O   UNL     1     -31.259  43.655  17.761  1.00  0.00    -0.550 OA
ENDBRANCH   5   6
ENDBRANCH   1   5
TORSDOF 3
ENDMDL
MODEL 3
REMARK VINA RESULT:    -3.593     11.979     13.012
REMARK INTER + INTRA:          -4.309
REMARK INTER:                  -4.191
REMARK INTRA:                  -0.118
REMARK UNBOUND:                -0.086
REMARK SMILES O=C([O-])CCC(=O)[O-]
REMARK SMILES IDX 4 1 2 2 1 3 3 4 5 5 6 6 7 7 8 8
REMARK H PARENT
REMARK Flexibility Score: inf
ROOT
ATOM      1  C   UNL     1     -29.449  42.228  18.728  1.00  0.00     0.059 C 
ENDROOT
BRANCH   1   2
ATOM      2  C   UNL     1     -30.720  43.011  18.846  1.00  0.00     0.042 C 
ATOM      3  O   UNL     1     -31.332  43.066  19.945  1.00  0.00    -0.550 OA
ATOM      4  O   UNL     1     -31.251  43.649  17.732  1.00  0.00    -0.550 OA
ENDBRANCH   1   2
BRANCH   1   5
ATOM      5  C   UNL     1     -29.114  41.498  20.033  1.00  0.00     0.059 C 
BRANCH   5   6
ATOM      6  C   UNL     1     -29.369  40.026  19.923  1.00  0.00     0.042 C 
ATOM      7  O   UNL     1     -28.410  39.226  19.763  1.00  0.00    -0.550 OA
ATOM      8  O   UNL     1     -30.664  39.533  20.038  1.00  0.00    -0.550 OA
ENDBRANCH   5   6
ENDBRANCH   1   5
TORSDOF 3
ENDMDL
MODEL 4
REMARK VINA RESULT:    -3.585      0.969      4.083
REMARK INTER + INTRA:          -4.300
REMARK INTER:                  -4.273
REMARK INTRA:                  -0.027
REMARK UNBOUND:                -0.086
REMARK SMILES O=C([O-])CCC(=O)[O-]
REMARK SMILES IDX 4 1 2 2 1 3 3 4 5 5 6 6 7 7 8 8
REMARK H PARENT
REMARK Flexibility Score: inf
ROOT
ATOM      1  C   UNL     1     -18.238  42.294  20.355  1.00  0.00     0.059 C 
ENDROOT
BRANCH   1   2
ATOM      2  C   UNL     1     -18.682  41.108  19.554  1.00  0.00     0.042 C 
ATOM      3  O   UNL     1     -19.622  40.380  19.968  1.00  0.00    -0.550 OA
ATOM      4  O   UNL     1     -18.032  40.786  18.370  1.00  0.00    -0.550 OA
ENDBRANCH   1   2
BRANCH   1   5
ATOM      5  C   UNL     1     -17.231  41.896  21.439  1.00  0.00     0.059 C 
BRANCH   5   6
ATOM      6  C   UNL     1     -16.419  43.069  21.895  1.00  0.00     0.042 C 
ATOM      7  O   UNL     1     -15.161  43.002  21.911  1.00  0.00    -0.550 OA
ATOM      8  O   UNL     1     -17.050  44.251  22.265  1.00  0.00    -0.550 OA
ENDBRANCH   5   6
ENDBRANCH   1   5
TORSDOF 3
ENDMDL
MODEL 5
REMARK VINA RESULT:    -3.577      0.976      1.744
REMARK INTER + INTRA:          -4.290
REMARK INTER:                  -4.264
REMARK INTRA:                  -0.027
REMARK UNBOUND:                -0.086
REMARK SMILES O=C([O-])CCC(=O)[O-]
REMARK SMILES IDX 4 1 2 2 1 3 3 4 5 5 6 6 7 7 8 8
REMARK H PARENT
REMARK Flexibility Score: inf
ROOT
ATOM      1  C   UNL     1     -17.203  41.904  21.451  1.00  0.00     0.059 C 
ENDROOT
BRANCH   1   2
ATOM      2  C   UNL     1     -16.375  43.079  21.870  1.00  0.00     0.042 C 
ATOM      3  O   UNL     1     -15.120  42.986  21.916  1.00  0.00    -0.550 OA
ATOM      4  O   UNL     1     -16.990  44.266  22.247  1.00  0.00    -0.550 OA
ENDBRANCH   1   2
BRANCH   1   5
ATOM      5  C   UNL     1     -18.219  42.288  20.369  1.00  0.00     0.059 C 
BRANCH   5   6
ATOM      6  C   UNL     1     -18.665  41.095  19.582  1.00  0.00     0.042 C 
ATOM      7  O   UNL     1     -19.631  40.395  19.983  1.00  0.00    -0.550 OA
ATOM      8  O   UNL     1     -18.037  40.779  18.382  1.00  0.00    -0.550 OA
ENDBRANCH   5   6
ENDBRANCH   1   5
TORSDOF 3
ENDMDL
MODEL 6
REMARK VINA RESULT:    -3.496      2.337      4.451
REMARK INTER + INTRA:          -4.195
REMARK INTER:                  -4.156
REMARK INTRA:                  -0.039
REMARK UNBOUND:                -0.086
REMARK SMILES O=C([O-])CCC(=O)[O-]
REMARK SMILES IDX 4 1 2 2 1 3 3 4 5 5 6 6 7 7 8 8
REMARK H PARENT
REMARK Flexibility Score: inf
ROOT
ATOM      1  C   UNL     1     -16.273  42.746  21.958  1.00  0.00     0.059 C 
ENDROOT
BRANCH   1   2
ATOM      2  C   UNL     1     -17.006  41.443  21.867  1.00  0.00     0.042 C 
ATOM      3  O   UNL     1     -18.117  41.380  21.278  1.00  0.00    -0.550 OA
ATOM      4  O   UNL     1     -16.481  40.306  22.468  1.00  0.00    -0.550 OA
ENDBRANCH   1   2
BRANCH   1   5
ATOM      5  C   UNL     1     -17.180  43.928  21.599  1.00  0.00     0.059 C 
BRANCH   5   6
ATOM      6  C   UNL     1     -16.773  45.175  22.323  1.00  0.00     0.042 C 
ATOM      7  O   UNL     1     -16.386  46.185  21.679  1.00  0.00    -0.550 OA
ATOM      8  O   UNL     1     -16.860  45.234  23.709  1.00  0.00    -0.550 OA
ENDBRANCH   5   6
ENDBRANCH   1   5
TORSDOF 3
ENDMDL
MODEL 7
REMARK VINA RESULT:    -3.484      2.165      2.811
REMARK INTER + INTRA:          -4.181
REMARK INTER:                  -4.141
REMARK INTRA:                  -0.040
REMARK UNBOUND:                -0.086
REMARK SMILES O=C([O-])CCC(=O)[O-]
REMARK SMILES IDX 4 1 2 2 1 3 3 4 5 5 6 6 7 7 8 8
REMARK H PARENT
REMARK Flexibility Score: inf
ROOT
ATOM      1  C   UNL     1     -17.265  43.682  21.549  1.00  0.00     0.059 C 
ENDROOT
BRANCH   1   2
ATOM      2  C   UNL     1     -16.680  44.896  22.203  1.00  0.00     0.042 C 
ATOM      3  O   UNL     1     -16.335  44.860  23.413  1.00  0.00    -0.550 OA
ATOM      4  O   UNL     1     -16.552  46.079  21.486  1.00  0.00    -0.550 OA
ENDBRANCH   1   2
BRANCH   1   5
ATOM      5  C   UNL     1     -16.395  42.442  21.782  1.00  0.00     0.059 C 
BRANCH   5   6
ATOM      6  C   UNL     1     -17.208  41.184  21.754  1.00  0.00     0.042 C 
ATOM      7  O   UNL     1     -16.777  40.138  22.305  1.00  0.00    -0.550 OA
ATOM      8  O   UNL     1     -18.461  41.179  21.152  1.00  0.00    -0.550 OA
ENDBRANCH   5   6
ENDBRANCH   1   5
TORSDOF 3
ENDMDL
MODEL 8
REMARK VINA RESULT:    -3.469      1.545      3.913
REMARK INTER + INTRA:          -4.164
REMARK INTER:                  -4.073
REMARK INTRA:                  -0.091
REMARK UNBOUND:                -0.086
REMARK SMILES O=C([O-])CCC(=O)[O-]
REMARK SMILES IDX 4 1 2 2 1 3 3 4 5 5 6 6 7 7 8 8
REMARK H PARENT
REMARK Flexibility Score: inf
ROOT
ATOM      1  C   UNL     1     -17.593  41.293  19.726  1.00  0.00     0.059 C 
ENDROOT
BRANCH   1   2
ATOM      2  C   UNL     1     -18.563  40.153  19.668  1.00  0.00     0.042 C 
ATOM      3  O   UNL     1     -18.201  39.034  19.218  1.00  0.00    -0.550 OA
ATOM      4  O   UNL     1     -19.878  40.337  20.076  1.00  0.00    -0.550 OA
ENDBRANCH   1   2
BRANCH   1   5
ATOM      5  C   UNL     1     -17.644  42.007  21.081  1.00  0.00     0.059 C 
BRANCH   5   6
ATOM      6  C   UNL     1     -16.610  41.476  22.025  1.00  0.00     0.042 C 
ATOM      7  O   UNL     1     -15.577  42.149  22.280  1.00  0.00    -0.550 OA
ATOM      8  O   UNL     1     -16.807  40.253  22.656  1.00  0.00    -0.550 OA
ENDBRANCH   5   6
ENDBRANCH   1   5
TORSDOF 3
ENDMDL
MODEL 9
REMARK VINA RESULT:    -3.422      2.948      5.642
REMARK INTER + INTRA:          -4.108
REMARK INTER:                  -4.050
REMARK INTRA:                  -0.058
REMARK UNBOUND:                -0.086
REMARK SMILES O=C([O-])CCC(=O)[O-]
REMARK SMILES IDX 4 1 2 2 1 3 3 4 5 5 6 6 7 7 8 8
REMARK H PARENT
REMARK Flexibility Score: inf
ROOT
ATOM      1  C   UNL     1     -16.824  44.715  21.944  1.00  0.00     0.059 C 
ENDROOT
BRANCH   1   2
ATOM      2  C   UNL     1     -16.354  43.294  21.907  1.00  0.00     0.042 C 
ATOM      3  O   UNL     1     -17.163  42.365  21.643  1.00  0.00    -0.550 OA
ATOM      4  O   UNL     1     -15.032  42.990  22.203  1.00  0.00    -0.550 OA
ENDBRANCH   1   2
BRANCH   1   5
ATOM      5  C   UNL     1     -16.880  45.252  23.379  1.00  0.00     0.059 C 
BRANCH   5   6
ATOM      6  C   UNL     1     -16.037  46.480  23.542  1.00  0.00     0.042 C 
ATOM      7  O   UNL     1     -15.114  46.506  24.398  1.00  0.00    -0.550 OA
ATOM      8  O   UNL     1     -16.244  47.581  22.719  1.00  0.00    -0.550 OA
ENDBRANCH   5   6
ENDBRANCH   1   5
TORSDOF 3
ENDMDL
