MODEL 1
REMARK VINA RESULT:    -1.794      0.000      0.000
REMARK INTER + INTRA:          -0.535
REMARK INTER:                  -2.423
REMARK INTRA:                   1.887
REMARK UNBOUND:                 1.887
REMARK SMILES CC[C@H](CC[C@@H](C)[C@H]1CC[C@@H]2[C@@H]3CC(=O)C4=CC(=O)CC[C@@]4(C)[C@@H]3CC[C@@]21C)C(C)C
REMARK SMILES IDX 4 1 3 2 2 3 1 4 29 5 30 6 31 7 5 8 6 9 7 10 8 11 9 12 27 13
REMARK SMILES IDX 10 14 11 15 26 16 28 17 12 18 25 19 24 20 13 21 22 22 14 23
REMARK SMILES IDX 16 24 21 25 23 26 15 27 17 28 20 29 18 30 19 31
REMARK H PARENT
REMARK Flexibility Score: inf
ROOT
ATOM      1  C   UNL     1     -16.184  11.212   9.793  1.00  0.00     0.004 C 
ENDROOT
BRANCH   1   2
ATOM      2  C   UNL     1     -17.028   9.961   9.340  1.00  0.00    -0.009 C 
BRANCH   2   3
ATOM      3  C   UNL     1     -18.384   9.924  10.119  1.00  0.00     0.000 C 
ATOM      4  C   UNL     1     -19.196  11.215   9.981  1.00  0.00     0.004 C 
ENDBRANCH   2   3
BRANCH   2   5
ATOM      5  C   UNL     1     -17.196   9.875   7.781  1.00  0.00    -0.014 C 
ATOM      6  C   UNL     1     -18.690   9.906   7.369  1.00  0.00     0.007 C 
ATOM      7  C   UNL     1     -16.492  11.057   7.081  1.00  0.00     0.007 C 
ENDBRANCH   2   5
ENDBRANCH   1   2
BRANCH   1   8
ATOM      8  C   UNL     1     -15.192  11.744   8.707  1.00  0.00     0.004 C 
BRANCH   8   9
ATOM      9  C   UNL     1     -13.716  11.440   9.049  1.00  0.00    -0.011 C 
ATOM     10  C   UNL     1     -13.575  10.215   9.971  1.00  0.00     0.008 C 
BRANCH   9  11
ATOM     11  C   UNL     1     -12.685  11.453   7.821  1.00  0.00    -0.002 C 
ATOM     12  C   UNL     1     -12.488   9.974   7.384  1.00  0.00     0.005 C 
ATOM     13  C   UNL     1     -13.003  12.234   6.472  1.00  0.00    -0.026 C 
ATOM     14  C   UNL     1     -12.848   9.875   5.919  1.00  0.00     0.005 C 
ATOM     15  C   UNL     1     -13.661  11.142   5.583  1.00  0.00    -0.001 C 
ATOM     16  C   UNL     1     -11.700  12.655   5.723  1.00  0.00     0.007 C 
ATOM     17  C   UNL     1     -13.835  13.523   6.703  1.00  0.00     0.012 C 
ATOM     18  C   UNL     1     -13.803  11.438   4.031  1.00  0.00     0.004 C 
ATOM     19  C   UNL     1     -11.955  13.128   4.267  1.00  0.00     0.005 C 
ATOM     20  C   UNL     1     -13.368  12.856   3.675  1.00  0.00     0.003 C 
ATOM     21  C   UNL     1     -13.116  10.393   3.085  1.00  0.00     0.085 C 
ATOM     22  C   UNL     1     -13.672  13.277   2.149  1.00  0.00    -0.000 C 
ATOM     23  C   UNL     1     -13.156  10.806   1.647  1.00  0.00     0.159 C 
ATOM     24  C   UNL     1     -13.832  12.039   1.270  1.00  0.00     0.005 C 
ATOM     25  C   UNL     1     -15.006  14.092   2.108  1.00  0.00     0.020 C 
ATOM     26  C   UNL     1     -12.510  14.149   1.591  1.00  0.00     0.017 C 
ATOM     27  O   UNL     1     -12.347  10.230   0.856  1.00  0.00    -0.295 OA
ATOM     28  C   UNL     1     -14.468  12.139   0.079  1.00  0.00     0.055 C 
ATOM     29  C   UNL     1     -15.375  14.512   0.678  1.00  0.00     0.081 C 
ATOM     30  C   UNL     1     -15.186  13.377  -0.296  1.00  0.00     0.156 C 
ATOM     31  O   UNL     1     -15.504  13.547  -1.524  1.00  0.00    -0.295 OA
ENDBRANCH   9  11
ENDBRANCH   8   9
ENDBRANCH   1   8
TORSDOF 6
ENDMDL
MODEL 2
REMARK VINA RESULT:     0.610      2.006      3.719
REMARK INTER + INTRA:           2.711
REMARK INTER:                   1.587
REMARK INTRA:                   1.123
REMARK UNBOUND:                 1.887
REMARK SMILES CC[C@H](CC[C@@H](C)[C@H]1CC[C@@H]2[C@@H]3CC(=O)C4=CC(=O)CC[C@@]4(C)[C@@H]3CC[C@@]21C)C(C)C
REMARK SMILES IDX 4 1 3 2 2 3 1 4 29 5 30 6 31 7 5 8 6 9 7 10 8 11 9 12 27 13
REMARK SMILES IDX 10 14 11 15 26 16 28 17 12 18 25 19 24 20 13 21 22 22 14 23
REMARK SMILES IDX 16 24 21 25 23 26 15 27 17 28 20 29 18 30 19 31
REMARK H PARENT
REMARK Flexibility Score: inf
ROOT
ATOM      1  C   UNL     1     -14.824   9.967   7.983  1.00  0.00     0.004 C 
ENDROOT
BRANCH   1   2
ATOM      2  C   UNL     1     -15.356  10.128   9.457  1.00  0.00    -0.009 C 
BRANCH   2   3
ATOM      3  C   UNL     1     -14.724  11.399  10.115  1.00  0.00     0.000 C 
ATOM      4  C   UNL     1     -14.640  12.595   9.161  1.00  0.00     0.004 C 
ENDBRANCH   2   3
BRANCH   2   5
ATOM      5  C   UNL     1     -16.923  10.088   9.543  1.00  0.00    -0.014 C 
ATOM      6  C   UNL     1     -17.492  11.409  10.125  1.00  0.00     0.007 C 
ATOM      7  C   UNL     1     -17.551   9.882   8.149  1.00  0.00     0.007 C 
ENDBRANCH   2   5
ENDBRANCH   1   2
BRANCH   1   8
ATOM      8  C   UNL     1     -13.267  10.036   7.851  1.00  0.00     0.004 C 
BRANCH   8   9
ATOM      9  C   UNL     1     -12.809  10.585   6.482  1.00  0.00    -0.011 C 
ATOM     10  C   UNL     1     -11.542   9.875   5.968  1.00  0.00     0.008 C 
BRANCH   9  11
ATOM     11  C   UNL     1     -13.950  10.764   5.370  1.00  0.00    -0.002 C 
ATOM     12  C   UNL     1     -15.102  11.571   6.033  1.00  0.00     0.005 C 
ATOM     13  C   UNL     1     -13.666  11.517   3.997  1.00  0.00    -0.026 C 
ATOM     14  C   UNL     1     -15.341  12.806   5.194  1.00  0.00     0.005 C 
ATOM     15  C   UNL     1     -14.091  12.980   4.308  1.00  0.00    -0.001 C 
ATOM     16  C   UNL     1     -14.624  11.037   2.862  1.00  0.00     0.007 C 
ATOM     17  C   UNL     1     -12.215  11.318   3.488  1.00  0.00     0.012 C 
ATOM     18  C   UNL     1     -14.286  13.970   3.084  1.00  0.00     0.004 C 
ATOM     19  C   UNL     1     -14.601  11.955   1.611  1.00  0.00     0.005 C 
ATOM     20  C   UNL     1     -13.886  13.329   1.759  1.00  0.00     0.003 C 
ATOM     21  C   UNL     1     -15.705  14.628   2.977  1.00  0.00     0.085 C 
ATOM     22  C   UNL     1     -13.880  14.347   0.509  1.00  0.00    -0.000 C 
ATOM     23  C   UNL     1     -15.873  15.429   1.724  1.00  0.00     0.159 C 
ATOM     24  C   UNL     1     -14.758  15.562   0.797  1.00  0.00     0.005 C 
ATOM     25  C   UNL     1     -12.415  14.838   0.267  1.00  0.00     0.020 C 
ATOM     26  C   UNL     1     -14.407  13.631  -0.769  1.00  0.00     0.017 C 
ATOM     27  O   UNL     1     -17.061  15.708   1.369  1.00  0.00    -0.295 OA
ATOM     28  C   UNL     1     -14.589  16.698   0.081  1.00  0.00     0.055 C 
ATOM     29  C   UNL     1     -12.330  15.833  -0.900  1.00  0.00     0.081 C 
ATOM     30  C   UNL     1     -13.439  16.853  -0.836  1.00  0.00     0.156 C 
ATOM     31  O   UNL     1     -13.477  17.789  -1.708  1.00  0.00    -0.295 OA
ENDBRANCH   9  11
ENDBRANCH   8   9
ENDBRANCH   1   8
TORSDOF 6
ENDMDL
MODEL 3
REMARK VINA RESULT:     0.730      2.631      7.972
REMARK INTER + INTRA:           2.874
REMARK INTER:                   1.901
REMARK INTRA:                   0.973
REMARK UNBOUND:                 1.887
REMARK SMILES CC[C@H](CC[C@@H](C)[C@H]1CC[C@@H]2[C@@H]3CC(=O)C4=CC(=O)CC[C@@]4(C)[C@@H]3CC[C@@]21C)C(C)C
REMARK SMILES IDX 4 1 3 2 2 3 1 4 29 5 30 6 31 7 5 8 6 9 7 10 8 11 9 12 27 13
REMARK SMILES IDX 10 14 11 15 26 16 28 17 12 18 25 19 24 20 13 21 22 22 14 23
REMARK SMILES IDX 16 24 21 25 23 26 15 27 17 28 20 29 18 30 19 31
REMARK H PARENT
REMARK Flexibility Score: inf
ROOT
ATOM      1  C   UNL     1     -16.182  14.308  -0.079  1.00  0.00     0.004 C 
ENDROOT
BRANCH   1   2
ATOM      2  C   UNL     1     -15.178  15.329   0.578  1.00  0.00    -0.009 C 
BRANCH   2   3
ATOM      3  C   UNL     1     -14.307  16.007  -0.531  1.00  0.00     0.000 C 
ATOM      4  C   UNL     1     -12.968  16.538  -0.007  1.00  0.00     0.004 C 
ENDBRANCH   2   3
BRANCH   2   5
ATOM      5  C   UNL     1     -15.892  16.354   1.530  1.00  0.00    -0.014 C 
ATOM      6  C   UNL     1     -16.286  17.649   0.775  1.00  0.00     0.007 C 
ATOM      7  C   UNL     1     -17.179  15.750   2.130  1.00  0.00     0.007 C 
ENDBRANCH   2   5
ENDBRANCH   1   2
BRANCH   1   8
ATOM      8  C   UNL     1     -15.562  13.445  -1.226  1.00  0.00     0.004 C 
BRANCH   8   9
ATOM      9  C   UNL     1     -15.197  12.017  -0.765  1.00  0.00    -0.011 C 
ATOM     10  C   UNL     1     -15.252  11.003  -1.924  1.00  0.00     0.008 C 
BRANCH   9  11
ATOM     11  C   UNL     1     -13.893  11.878   0.158  1.00  0.00    -0.002 C 
ATOM     12  C   UNL     1     -13.277  13.300   0.283  1.00  0.00     0.005 C 
ATOM     13  C   UNL     1     -13.984  11.344   1.654  1.00  0.00    -0.026 C 
ATOM     14  C   UNL     1     -13.190  13.637   1.754  1.00  0.00     0.005 C 
ATOM     15  C   UNL     1     -14.126  12.652   2.483  1.00  0.00    -0.001 C 
ATOM     16  C   UNL     1     -12.644  10.696   2.122  1.00  0.00     0.007 C 
ATOM     17  C   UNL     1     -15.099  10.284   1.850  1.00  0.00     0.012 C 
ATOM     18  C   UNL     1     -13.894  12.563   4.050  1.00  0.00     0.004 C 
ATOM     19  C   UNL     1     -12.581  10.454   3.654  1.00  0.00     0.005 C 
ATOM     20  C   UNL     1     -13.685  11.126   4.519  1.00  0.00     0.003 C 
ATOM     21  C   UNL     1     -12.768  13.499   4.613  1.00  0.00     0.085 C 
ATOM     22  C   UNL     1     -13.638  10.955   6.121  1.00  0.00    -0.000 C 
ATOM     23  C   UNL     1     -12.496  13.260   6.065  1.00  0.00     0.159 C 
ATOM     24  C   UNL     1     -13.286  12.278   6.795  1.00  0.00     0.005 C 
ATOM     25  C   UNL     1     -15.049  10.502   6.621  1.00  0.00     0.020 C 
ATOM     26  C   UNL     1     -12.577   9.886   6.515  1.00  0.00     0.017 C 
ATOM     27  O   UNL     1     -11.397  13.698   6.529  1.00  0.00    -0.295 OA
ATOM     28  C   UNL     1     -13.574  12.463   8.105  1.00  0.00     0.055 C 
ATOM     29  C   UNL     1     -15.089  10.338   8.147  1.00  0.00     0.081 C 
ATOM     30  C   UNL     1     -14.404  11.487   8.843  1.00  0.00     0.156 C 
ATOM     31  O   UNL     1     -14.400  11.528  10.122  1.00  0.00    -0.295 OA
ENDBRANCH   9  11
ENDBRANCH   8   9
ENDBRANCH   1   8
TORSDOF 6
ENDMDL
MODEL 4
REMARK VINA RESULT:     1.011      2.638      7.839
REMARK INTER + INTRA:           3.253
REMARK INTER:                   2.855
REMARK INTRA:                   0.399
REMARK UNBOUND:                 1.887
REMARK SMILES CC[C@H](CC[C@@H](C)[C@H]1CC[C@@H]2[C@@H]3CC(=O)C4=CC(=O)CC[C@@]4(C)[C@@H]3CC[C@@]21C)C(C)C
REMARK SMILES IDX 4 1 3 2 2 3 1 4 29 5 30 6 31 7 5 8 6 9 7 10 8 11 9 12 27 13
REMARK SMILES IDX 10 14 11 15 26 16 28 17 12 18 25 19 24 20 13 21 22 22 14 23
REMARK SMILES IDX 16 24 21 25 23 26 15 27 17 28 20 29 18 30 19 31
REMARK H PARENT
REMARK Flexibility Score: inf
ROOT
ATOM      1  C   UNL     1     -15.597  14.458   0.471  1.00  0.00     0.004 C 
ENDROOT
BRANCH   1   2
ATOM      2  C   UNL     1     -16.350  15.841   0.455  1.00  0.00    -0.009 C 
BRANCH   2   3
ATOM      3  C   UNL     1     -16.970  16.127   1.862  1.00  0.00     0.000 C 
ATOM      4  C   UNL     1     -16.062  15.703   3.021  1.00  0.00     0.004 C 
ENDBRANCH   2   3
BRANCH   2   5
ATOM      5  C   UNL     1     -15.455  17.012  -0.087  1.00  0.00    -0.014 C 
ATOM      6  C   UNL     1     -15.694  18.323   0.708  1.00  0.00     0.007 C 
ATOM      7  C   UNL     1     -13.956  16.663   0.028  1.00  0.00     0.007 C 
ENDBRANCH   2   5
ENDBRANCH   1   2
BRANCH   1   8
ATOM      8  C   UNL     1     -15.678  13.667  -0.875  1.00  0.00     0.004 C 
BRANCH   8   9
ATOM      9  C   UNL     1     -15.158  12.218  -0.747  1.00  0.00    -0.011 C 
ATOM     10  C   UNL     1     -15.091  11.504  -2.111  1.00  0.00     0.008 C 
BRANCH   9  11
ATOM     11  C   UNL     1     -13.854  12.008   0.161  1.00  0.00    -0.002 C 
ATOM     12  C   UNL     1     -13.171  13.398   0.296  1.00  0.00     0.005 C 
ATOM     13  C   UNL     1     -13.955  11.460   1.651  1.00  0.00    -0.026 C 
ATOM     14  C   UNL     1     -13.054  13.712   1.771  1.00  0.00     0.005 C 
ATOM     15  C   UNL     1     -14.027  12.762   2.498  1.00  0.00    -0.001 C 
ATOM     16  C   UNL     1     -12.642  10.744   2.098  1.00  0.00     0.007 C 
ATOM     17  C   UNL     1     -15.116  10.450   1.846  1.00  0.00     0.012 C 
ATOM     18  C   UNL     1     -13.785  12.643   4.061  1.00  0.00     0.004 C 
ATOM     19  C   UNL     1     -12.575  10.480   3.626  1.00  0.00     0.005 C 
ATOM     20  C   UNL     1     -13.639  11.193   4.510  1.00  0.00     0.003 C 
ATOM     21  C   UNL     1     -12.611  13.519   4.623  1.00  0.00     0.085 C 
ATOM     22  C   UNL     1     -13.585  10.999   6.109  1.00  0.00    -0.000 C 
ATOM     23  C   UNL     1     -12.337  13.250   6.070  1.00  0.00     0.159 C 
ATOM     24  C   UNL     1     -13.164  12.296   6.796  1.00  0.00     0.005 C 
ATOM     25  C   UNL     1     -15.010  10.606   6.618  1.00  0.00     0.020 C 
ATOM     26  C   UNL     1     -12.571   9.877   6.480  1.00  0.00     0.017 C 
ATOM     27  O   UNL     1     -11.215  13.630   6.527  1.00  0.00    -0.295 OA
ATOM     28  C   UNL     1     -13.431  12.478   8.111  1.00  0.00     0.055 C 
ATOM     29  C   UNL     1     -15.043  10.425   8.143  1.00  0.00     0.081 C 
ATOM     30  C   UNL     1     -14.299  11.532   8.846  1.00  0.00     0.156 C 
ATOM     31  O   UNL     1     -14.280  11.557  10.125  1.00  0.00    -0.295 OA
ENDBRANCH   9  11
ENDBRANCH   8   9
ENDBRANCH   1   8
TORSDOF 6
ENDMDL
