MODEL 1
REMARK VINA RESULT:    23.406      0.000      0.000
REMARK INTER + INTRA:          35.691
REMARK INTER:                  32.985
REMARK INTRA:                   2.706
REMARK UNBOUND:                 2.706
REMARK SMILES OCC1=C[C@H](O)[C@H]2C=CO[C@H](O[C@@H]3O[C@H](CO)[C@@H](O)[C@@H](O)[C@H]3O)[C@@H]12
REMARK SMILES IDX 12 1 11 2 8 3 9 4 7 5 10 6 24 7 5 8 3 9 4 10 6 11 2 13 1 14
REMARK SMILES IDX 13 16 22 17 14 18 20 19 15 20 18 21 23 22 21 24 16 26 17 27
REMARK SMILES IDX 19 29
REMARK H PARENT 6 12 1 15 23 23 21 25 17 28 19 30
REMARK Flexibility Score: inf
ROOT
ATOM      1  O   UNL     1      17.688  97.046  10.043  1.00  0.00    -0.310 OA
ENDROOT
BRANCH   1   2
ATOM      2  C   UNL     1      17.638  95.633  10.110  1.00  0.00     0.316 C 
ATOM      3  C   UNL     1      16.123  95.355   7.718  1.00  0.00     0.018 C 
ATOM      4  C   UNL     1      15.525  95.267   8.908  1.00  0.00     0.186 C 
ATOM      5  C   UNL     1      17.628  95.262   7.557  1.00  0.00     0.061 C 
ATOM      6  O   UNL     1      16.279  95.202  10.080  1.00  0.00    -0.472 OA
ATOM      7  C   UNL     1      18.392  95.067   8.895  1.00  0.00     0.096 C 
ATOM      8  C   UNL     1      17.979  93.998   6.739  1.00  0.00     0.145 C 
ATOM      9  C   UNL     1      18.629  93.586   8.951  1.00  0.00    -0.036 C 
ATOM     10  C   UNL     1      18.438  93.017   7.766  1.00  0.00     0.007 C 
BRANCH   8  11
ATOM     11  O   UNL     1      19.000  94.253   5.805  1.00  0.00    -0.388 OA
ATOM     12  H   UNL     1      18.743  93.827   4.944  1.00  0.00     0.211 HD
ENDBRANCH   8  11
BRANCH   9  13
ATOM     13  C   UNL     1      19.245  92.858  10.119  1.00  0.00     0.187 C 
BRANCH  13  14
ATOM     14  O   UNL     1      20.563  92.491   9.819  1.00  0.00    -0.392 OA
ATOM     15  H   UNL     1      20.887  91.949  10.586  1.00  0.00     0.211 HD
ENDBRANCH  13  14
ENDBRANCH   9  13
ENDBRANCH   1   2
BRANCH   1  16
ATOM     16  C   UNL     1      17.495  97.524   8.720  1.00  0.00     0.286 C 
ATOM     17  C   UNL     1      16.430  98.636   8.697  1.00  0.00     0.202 C 
ATOM     18  O   UNL     1      18.735  97.945   8.162  1.00  0.00    -0.341 OA
ATOM     19  C   UNL     1      16.960  99.896   9.402  1.00  0.00     0.179 C 
ATOM     20  C   UNL     1      19.306  99.099   8.774  1.00  0.00     0.178 C 
ATOM     21  C   UNL     1      18.331 100.306   8.843  1.00  0.00     0.177 C 
BRANCH  17  22
ATOM     22  O   UNL     1      16.073  98.911   7.366  1.00  0.00    -0.385 OA
ATOM     23  H   UNL     1      16.134  99.896   7.246  1.00  0.00     0.211 HD
ENDBRANCH  17  22
BRANCH  19  24
ATOM     24  O   UNL     1      16.053 100.961   9.268  1.00  0.00    -0.387 OA
ATOM     25  H   UNL     1      15.483 100.955  10.079  1.00  0.00     0.211 HD
ENDBRANCH  19  24
BRANCH  20  26
ATOM     26  C   UNL     1      19.990  98.799  10.125  1.00  0.00     0.191 C 
BRANCH  26  27
ATOM     27  O   UNL     1      21.377  98.982  10.026  1.00  0.00    -0.394 OA
ATOM     28  H   UNL     1      21.521  99.839   9.549  1.00  0.00     0.210 HD
ENDBRANCH  26  27
ENDBRANCH  20  26
BRANCH  21  29
ATOM     29  O   UNL     1      18.199 100.936   7.589  1.00  0.00    -0.387 OA
ATOM     30  H   UNL     1      18.299 100.251   6.879  1.00  0.00     0.211 HD
ENDBRANCH  21  29
ENDBRANCH   1  16
TORSDOF 10
ENDMDL
MODEL 2
REMARK VINA RESULT:    25.644      1.295      3.475
REMARK INTER + INTRA:          38.844
REMARK INTER:                  31.539
REMARK INTRA:                   7.305
REMARK UNBOUND:                 2.706
REMARK SMILES OCC1=C[C@H](O)[C@H]2C=CO[C@H](O[C@@H]3O[C@H](CO)[C@@H](O)[C@@H](O)[C@H]3O)[C@@H]12
REMARK SMILES IDX 12 1 11 2 8 3 9 4 7 5 10 6 24 7 5 8 3 9 4 10 6 11 2 13 1 14
REMARK SMILES IDX 13 16 22 17 14 18 20 19 15 20 18 21 23 22 21 24 16 26 17 27
REMARK SMILES IDX 19 29
REMARK H PARENT 6 12 1 15 23 23 21 25 17 28 19 30
REMARK Flexibility Score: inf
ROOT
ATOM      1  O   UNL     1      18.944  97.058   8.399  1.00  0.00    -0.310 OA
ENDROOT
BRANCH   1   2
ATOM      2  C   UNL     1      17.736  96.355   8.175  1.00  0.00     0.316 C 
ATOM      3  C   UNL     1      19.021  94.059   7.092  1.00  0.00     0.018 C 
ATOM      4  C   UNL     1      18.454  94.956   6.285  1.00  0.00     0.186 C 
ATOM      5  C   UNL     1      18.734  94.011   8.581  1.00  0.00     0.061 C 
ATOM      6  O   UNL     1      17.654  95.975   6.802  1.00  0.00    -0.472 OA
ATOM      7  C   UNL     1      17.738  95.100   9.064  1.00  0.00     0.096 C 
ATOM      8  C   UNL     1      18.027  92.680   8.924  1.00  0.00     0.145 C 
ATOM      9  C   UNL     1      16.424  94.377   9.114  1.00  0.00    -0.036 C 
ATOM     10  C   UNL     1      16.591  93.060   9.074  1.00  0.00     0.007 C 
BRANCH   8  11
ATOM     11  O   UNL     1      18.520  92.125  10.120  1.00  0.00    -0.388 OA
ATOM     12  H   UNL     1      18.178  91.193  10.190  1.00  0.00     0.211 HD
ENDBRANCH   8  11
BRANCH   9  13
ATOM     13  C   UNL     1      15.098  95.025   9.420  1.00  0.00     0.187 C 
BRANCH  13  14
ATOM     14  O   UNL     1      15.298  96.255  10.061  1.00  0.00    -0.392 OA
ATOM     15  H   UNL     1      14.403  96.675  10.154  1.00  0.00     0.211 HD
ENDBRANCH  13  14
ENDBRANCH   9  13
ENDBRANCH   1   2
BRANCH   1  16
ATOM     16  C   UNL     1      18.828  97.990   9.464  1.00  0.00     0.286 C 
ATOM     17  C   UNL     1      19.266  99.393   9.004  1.00  0.00     0.202 C 
ATOM     18  O   UNL     1      17.506  97.978   9.990  1.00  0.00    -0.341 OA
ATOM     19  C   UNL     1      18.257  99.961   7.991  1.00  0.00     0.179 C 
ATOM     20  C   UNL     1      16.503  98.472   9.104  1.00  0.00     0.178 C 
ATOM     21  C   UNL     1      16.823  99.881   8.536  1.00  0.00     0.177 C 
BRANCH  17  22
ATOM     22  O   UNL     1      19.389 100.234  10.124  1.00  0.00    -0.385 OA
ATOM     23  H   UNL     1      19.188 101.157   9.818  1.00  0.00     0.211 HD
ENDBRANCH  17  22
BRANCH  19  24
ATOM     24  O   UNL     1      18.571 101.292   7.669  1.00  0.00    -0.387 OA
ATOM     25  H   UNL     1      19.373 101.265   7.085  1.00  0.00     0.211 HD
ENDBRANCH  19  24
BRANCH  20  26
ATOM     26  C   UNL     1      16.103  97.458   8.010  1.00  0.00     0.191 C 
BRANCH  26  27
ATOM     27  O   UNL     1      15.467  98.111   6.944  1.00  0.00    -0.394 OA
ATOM     28  H   UNL     1      15.897  98.999   6.852  1.00  0.00     0.210 HD
ENDBRANCH  26  27
ENDBRANCH  20  26
BRANCH  21  29
ATOM     29  O   UNL     1      16.589 100.889   9.493  1.00  0.00    -0.387 OA
ATOM     30  H   UNL     1      16.299 101.712   9.022  1.00  0.00     0.211 HD
ENDBRANCH  21  29
ENDBRANCH   1  16
TORSDOF 10
ENDMDL
