MODEL 1
REMARK VINA RESULT:    -2.194      0.000      0.000
REMARK INTER + INTRA:          -2.194
REMARK INTER:                  -2.194
REMARK INTRA:                   0.000
REMARK UNBOUND:                 0.000
REMARK SMILES CC(=O)[O-]
REMARK SMILES IDX 1 1 2 2 3 3 4 4
REMARK H PARENT
REMARK Flexibility Score: inf
ROOT
ATOM      1  C   UNL     1      -5.540  -5.302 -33.980  1.00  0.00     0.063 C 
ATOM      2  C   UNL     1      -5.284  -6.038 -32.709  1.00  0.00     0.038 C 
ATOM      3  O   UNL     1      -5.340  -7.296 -32.685  1.00  0.00    -0.550 OA
ATOM      4  O   UNL     1      -5.036  -5.337 -31.536  1.00  0.00    -0.550 OA
ENDROOT
TORSDOF 0
ENDMDL
MODEL 2
REMARK VINA RESULT:    -2.172      1.432      1.898
REMARK INTER + INTRA:          -2.172
REMARK INTER:                  -2.172
REMARK INTRA:                   0.000
REMARK UNBOUND:                 0.000
REMARK SMILES CC(=O)[O-]
REMARK SMILES IDX 1 1 2 2 3 3 4 4
REMARK H PARENT
REMARK Flexibility Score: inf
ROOT
ATOM      1  C   UNL     1      -5.445  -5.177 -34.039  1.00  0.00     0.063 C 
ATOM      2  C   UNL     1      -6.110  -6.476 -33.730  1.00  0.00     0.038 C 
ATOM      3  O   UNL     1      -7.247  -6.732 -34.205  1.00  0.00    -0.550 OA
ATOM      4  O   UNL     1      -5.500  -7.384 -32.874  1.00  0.00    -0.550 OA
ENDROOT
TORSDOF 0
ENDMDL
MODEL 3
REMARK VINA RESULT:    -2.163      1.747      2.246
REMARK INTER + INTRA:          -2.163
REMARK INTER:                  -2.163
REMARK INTRA:                   0.000
REMARK UNBOUND:                 0.000
REMARK SMILES CC(=O)[O-]
REMARK SMILES IDX 1 1 2 2 3 3 4 4
REMARK H PARENT
REMARK Flexibility Score: inf
ROOT
ATOM      1  C   UNL     1      -4.875  -5.463 -32.003  1.00  0.00     0.063 C 
ATOM      2  C   UNL     1      -5.616  -5.670 -33.280  1.00  0.00     0.038 C 
ATOM      3  O   UNL     1      -5.299  -5.016 -34.308  1.00  0.00    -0.550 OA
ATOM      4  O   UNL     1      -6.694  -6.545 -33.325  1.00  0.00    -0.550 OA
ENDROOT
TORSDOF 0
ENDMDL
MODEL 4
REMARK VINA RESULT:    -2.153      0.377      1.635
REMARK INTER + INTRA:          -2.153
REMARK INTER:                  -2.153
REMARK INTRA:                   0.000
REMARK UNBOUND:                 0.000
REMARK SMILES CC(=O)[O-]
REMARK SMILES IDX 1 1 2 2 3 3 4 4
REMARK H PARENT
REMARK Flexibility Score: inf
ROOT
ATOM      1  C   UNL     1      -5.614  -5.518 -33.802  1.00  0.00     0.063 C 
ATOM      2  C   UNL     1      -5.204  -5.969 -32.441  1.00  0.00     0.038 C 
ATOM      3  O   UNL     1      -4.875  -5.124 -31.567  1.00  0.00    -0.550 OA
ATOM      4  O   UNL     1      -5.133  -7.325 -32.150  1.00  0.00    -0.550 OA
ENDROOT
TORSDOF 0
ENDMDL
MODEL 5
REMARK VINA RESULT:    -2.119     18.275     18.571
REMARK INTER + INTRA:          -2.119
REMARK INTER:                  -2.119
REMARK INTRA:                   0.000
REMARK UNBOUND:                 0.000
REMARK SMILES CC(=O)[O-]
REMARK SMILES IDX 1 1 2 2 3 3 4 4
REMARK H PARENT
REMARK Flexibility Score: inf
ROOT
ATOM      1  C   UNL     1     -21.344   0.829 -31.666  1.00  0.00     0.063 C 
ATOM      2  C   UNL     1     -21.862   2.023 -30.940  1.00  0.00     0.038 C 
ATOM      3  O   UNL     1     -21.085   2.724 -30.240  1.00  0.00    -0.550 OA
ATOM      4  O   UNL     1     -23.214   2.336 -30.991  1.00  0.00    -0.550 OA
ENDROOT
TORSDOF 0
ENDMDL
MODEL 6
REMARK VINA RESULT:    -2.068     17.865     18.142
REMARK INTER + INTRA:          -2.068
REMARK INTER:                  -2.068
REMARK INTRA:                   0.000
REMARK UNBOUND:                 0.000
REMARK SMILES CC(=O)[O-]
REMARK SMILES IDX 1 1 2 2 3 3 4 4
REMARK H PARENT
REMARK Flexibility Score: inf
ROOT
ATOM      1  C   UNL     1     -21.192   2.382 -29.812  1.00  0.00     0.063 C 
ATOM      2  C   UNL     1     -21.381   1.960 -31.229  1.00  0.00     0.038 C 
ATOM      3  O   UNL     1     -21.469   2.825 -32.140  1.00  0.00    -0.550 OA
ATOM      4  O   UNL     1     -21.516   0.613 -31.542  1.00  0.00    -0.550 OA
ENDROOT
TORSDOF 0
ENDMDL
MODEL 7
REMARK VINA RESULT:    -2.033     17.827     18.110
REMARK INTER + INTRA:          -2.033
REMARK INTER:                  -2.033
REMARK INTRA:                   0.000
REMARK UNBOUND:                 0.000
REMARK SMILES CC(=O)[O-]
REMARK SMILES IDX 1 1 2 2 3 3 4 4
REMARK H PARENT
REMARK Flexibility Score: inf
ROOT
ATOM      1  C   UNL     1     -21.543   2.338 -31.381  1.00  0.00     0.063 C 
ATOM      2  C   UNL     1     -21.202   2.094 -29.950  1.00  0.00     0.038 C 
ATOM      3  O   UNL     1     -20.909   3.060 -29.197  1.00  0.00    -0.550 OA
ATOM      4  O   UNL     1     -21.155   0.797 -29.457  1.00  0.00    -0.550 OA
ENDROOT
TORSDOF 0
ENDMDL
MODEL 8
REMARK VINA RESULT:    -2.008     22.901     23.340
REMARK INTER + INTRA:          -2.008
REMARK INTER:                  -2.008
REMARK INTRA:                   0.000
REMARK UNBOUND:                 0.000
REMARK SMILES CC(=O)[O-]
REMARK SMILES IDX 1 1 2 2 3 3 4 4
REMARK H PARENT
REMARK Flexibility Score: inf
ROOT
ATOM      1  C   UNL     1     -17.736   9.195 -22.884  1.00  0.00     0.063 C 
ATOM      2  C   UNL     1     -18.139  10.112 -21.780  1.00  0.00     0.038 C 
ATOM      3  O   UNL     1     -18.366   9.654 -20.629  1.00  0.00    -0.550 OA
ATOM      4  O   UNL     1     -18.318  11.466 -22.030  1.00  0.00    -0.550 OA
ENDROOT
TORSDOF 0
ENDMDL
MODEL 9
REMARK VINA RESULT:    -1.870     26.841     27.253
REMARK INTER + INTRA:          -1.870
REMARK INTER:                  -1.870
REMARK INTRA:                   0.000
REMARK UNBOUND:                 0.000
REMARK SMILES CC(=O)[O-]
REMARK SMILES IDX 1 1 2 2 3 3 4 4
REMARK H PARENT
REMARK Flexibility Score: inf
ROOT
ATOM      1  C   UNL     1     -24.299   6.471 -16.356  1.00  0.00     0.063 C 
ATOM      2  C   UNL     1     -22.881   6.905 -16.517  1.00  0.00     0.038 C 
ATOM      3  O   UNL     1     -21.977   6.052 -16.715  1.00  0.00    -0.550 OA
ATOM      4  O   UNL     1     -22.547   8.248 -16.394  1.00  0.00    -0.550 OA
ENDROOT
TORSDOF 0
ENDMDL
