MODEL 1
REMARK VINA RESULT:    -2.820      0.000      0.000
REMARK INTER + INTRA:          -6.353
REMARK INTER:                  -4.798
REMARK INTRA:                  -1.555
REMARK UNBOUND:                -1.555
REMARK SMILES CCCCCCCCCCCCCC(=O)[O-]
REMARK SMILES IDX 8 1 9 2 10 3 11 4 12 5 13 6 14 7 15 8 16 9 7 10 6 11 5 12
REMARK SMILES IDX 4 13 3 14 2 15 1 16
REMARK H PARENT
REMARK Flexibility Score: inf
ROOT
ATOM      1  C   UNL     1      49.122  38.479 136.485  1.00  0.00     0.000 C 
ENDROOT
BRANCH   1   2
ATOM      2  C   UNL     1      48.857  38.071 137.944  1.00  0.00     0.000 C 
BRANCH   2   3
ATOM      3  C   UNL     1      49.323  36.639 138.256  1.00  0.00     0.000 C 
BRANCH   3   4
ATOM      4  C   UNL     1      50.676  36.292 137.610  1.00  0.00     0.000 C 
BRANCH   4   5
ATOM      5  C   UNL     1      51.908  36.956 138.255  1.00  0.00     0.006 C 
BRANCH   5   6
ATOM      6  C   UNL     1      53.046  37.266 137.265  1.00  0.00     0.053 C 
BRANCH   6   7
ATOM      7  C   UNL     1      53.949  38.359 137.754  1.00  0.00     0.041 C 
ATOM      8  O   UNL     1      54.000  39.459 137.142  1.00  0.00    -0.550 OA
ATOM      9  O   UNL     1      54.766  38.150 138.857  1.00  0.00    -0.550 OA
ENDBRANCH   6   7
ENDBRANCH   5   6
ENDBRANCH   4   5
ENDBRANCH   3   4
ENDBRANCH   2   3
ENDBRANCH   1   2
BRANCH   1  10
ATOM     10  C   UNL     1      47.843  38.836 135.699  1.00  0.00     0.000 C 
BRANCH  10  11
ATOM     11  C   UNL     1      47.380  37.684 134.789  1.00  0.00    -0.000 C 
BRANCH  11  12
ATOM     12  C   UNL     1      48.436  36.577 134.653  1.00  0.00    -0.000 C 
BRANCH  12  13
ATOM     13  C   UNL     1      49.278  36.718 133.373  1.00  0.00    -0.000 C 
BRANCH  13  14
ATOM     14  C   UNL     1      50.788  36.655 133.649  1.00  0.00    -0.000 C 
BRANCH  14  15
ATOM     15  C   UNL     1      51.539  37.882 133.111  1.00  0.00    -0.003 C 
ATOM     16  C   UNL     1      51.815  38.890 134.223  1.00  0.00     0.004 C 
ENDBRANCH  14  15
ENDBRANCH  13  14
ENDBRANCH  12  13
ENDBRANCH  11  12
ENDBRANCH  10  11
ENDBRANCH   1  10
TORSDOF 12
ENDMDL
MODEL 2
REMARK VINA RESULT:    -2.740      3.009      4.912
REMARK INTER + INTRA:          -6.216
REMARK INTER:                  -4.270
REMARK INTRA:                  -1.946
REMARK UNBOUND:                -1.555
REMARK SMILES CCCCCCCCCCCCCC(=O)[O-]
REMARK SMILES IDX 8 1 9 2 10 3 11 4 12 5 13 6 14 7 15 8 16 9 7 10 6 11 5 12
REMARK SMILES IDX 4 13 3 14 2 15 1 16
REMARK H PARENT
REMARK Flexibility Score: inf
ROOT
ATOM      1  C   UNL     1      51.585  36.991 138.247  1.00  0.00     0.000 C 
ENDROOT
BRANCH   1   2
ATOM      2  C   UNL     1      50.135  37.030 138.755  1.00  0.00     0.000 C 
BRANCH   2   3
ATOM      3  C   UNL     1      49.109  36.710 137.654  1.00  0.00     0.000 C 
BRANCH   3   4
ATOM      4  C   UNL     1      48.728  37.940 136.812  1.00  0.00     0.000 C 
BRANCH   4   5
ATOM      5  C   UNL     1      48.259  37.640 135.374  1.00  0.00     0.006 C 
BRANCH   5   6
ATOM      6  C   UNL     1      48.685  36.256 134.850  1.00  0.00     0.053 C 
BRANCH   6   7
ATOM      7  C   UNL     1      48.972  36.265 133.378  1.00  0.00     0.041 C 
ATOM      8  O   UNL     1      50.090  36.660 132.953  1.00  0.00    -0.550 OA
ATOM      9  O   UNL     1      47.993  35.879 132.473  1.00  0.00    -0.550 OA
ENDBRANCH   6   7
ENDBRANCH   5   6
ENDBRANCH   4   5
ENDBRANCH   3   4
ENDBRANCH   2   3
ENDBRANCH   1   2
BRANCH   1  10
ATOM     10  C   UNL     1      51.813  35.986 137.097  1.00  0.00     0.000 C 
BRANCH  10  11
ATOM     11  C   UNL     1      52.334  36.672 135.822  1.00  0.00    -0.000 C 
BRANCH  11  12
ATOM     12  C   UNL     1      52.492  38.190 135.990  1.00  0.00    -0.000 C 
BRANCH  12  13
ATOM     13  C   UNL     1      51.827  38.984 134.851  1.00  0.00    -0.000 C 
BRANCH  13  14
ATOM     14  C   UNL     1      51.489  40.426 135.256  1.00  0.00    -0.000 C 
BRANCH  14  15
ATOM     15  C   UNL     1      50.066  40.836 134.851  1.00  0.00    -0.003 C 
ATOM     16  C   UNL     1      49.445  41.769 135.886  1.00  0.00     0.004 C 
ENDBRANCH  14  15
ENDBRANCH  13  14
ENDBRANCH  12  13
ENDBRANCH  11  12
ENDBRANCH  10  11
ENDBRANCH   1  10
TORSDOF 12
ENDMDL
MODEL 3
REMARK VINA RESULT:    -2.718      3.401      5.346
REMARK INTER + INTRA:          -6.180
REMARK INTER:                  -4.472
REMARK INTRA:                  -1.708
REMARK UNBOUND:                -1.555
REMARK SMILES CCCCCCCCCCCCCC(=O)[O-]
REMARK SMILES IDX 8 1 9 2 10 3 11 4 12 5 13 6 14 7 15 8 16 9 7 10 6 11 5 12
REMARK SMILES IDX 4 13 3 14 2 15 1 16
REMARK H PARENT
REMARK Flexibility Score: inf
ROOT
ATOM      1  C   UNL     1      51.890  36.646 138.027  1.00  0.00     0.000 C 
ENDROOT
BRANCH   1   2
ATOM      2  C   UNL     1      50.480  36.190 137.616  1.00  0.00     0.000 C 
BRANCH   2   3
ATOM      3  C   UNL     1      49.370  36.901 138.409  1.00  0.00     0.000 C 
BRANCH   3   4
ATOM      4  C   UNL     1      48.805  38.133 137.680  1.00  0.00     0.000 C 
BRANCH   4   5
ATOM      5  C   UNL     1      48.303  37.881 136.244  1.00  0.00     0.006 C 
BRANCH   5   6
ATOM      6  C   UNL     1      47.116  38.770 135.828  1.00  0.00     0.053 C 
BRANCH   6   7
ATOM      7  C   UNL     1      46.395  38.237 134.626  1.00  0.00     0.041 C 
ATOM      8  O   UNL     1      47.039  37.905 133.596  1.00  0.00    -0.550 OA
ATOM      9  O   UNL     1      45.009  38.147 134.626  1.00  0.00    -0.550 OA
ENDBRANCH   6   7
ENDBRANCH   5   6
ENDBRANCH   4   5
ENDBRANCH   3   4
ENDBRANCH   2   3
ENDBRANCH   1   2
BRANCH   1  10
ATOM     10  C   UNL     1      52.501  37.701 137.079  1.00  0.00     0.000 C 
BRANCH  10  11
ATOM     11  C   UNL     1      52.442  37.260 135.605  1.00  0.00    -0.000 C 
BRANCH  11  12
ATOM     12  C   UNL     1      51.638  38.233 134.729  1.00  0.00    -0.000 C 
BRANCH  12  13
ATOM     13  C   UNL     1      51.930  39.707 135.061  1.00  0.00    -0.000 C 
BRANCH  13  14
ATOM     14  C   UNL     1      50.651  40.529 135.273  1.00  0.00    -0.000 C 
BRANCH  14  15
ATOM     15  C   UNL     1      49.806  40.648 133.996  1.00  0.00    -0.003 C 
ATOM     16  C   UNL     1      48.719  41.708 134.151  1.00  0.00     0.004 C 
ENDBRANCH  14  15
ENDBRANCH  13  14
ENDBRANCH  12  13
ENDBRANCH  11  12
ENDBRANCH  10  11
ENDBRANCH   1  10
TORSDOF 12
ENDMDL
MODEL 4
REMARK VINA RESULT:    -2.680      2.050      3.851
REMARK INTER + INTRA:          -6.114
REMARK INTER:                  -4.099
REMARK INTRA:                  -2.015
REMARK UNBOUND:                -1.555
REMARK SMILES CCCCCCCCCCCCCC(=O)[O-]
REMARK SMILES IDX 8 1 9 2 10 3 11 4 12 5 13 6 14 7 15 8 16 9 7 10 6 11 5 12
REMARK SMILES IDX 4 13 3 14 2 15 1 16
REMARK H PARENT
REMARK Flexibility Score: inf
ROOT
ATOM      1  C   UNL     1      50.820  36.202 137.350  1.00  0.00     0.000 C 
ENDROOT
BRANCH   1   2
ATOM      2  C   UNL     1      51.891  36.947 138.164  1.00  0.00     0.000 C 
BRANCH   2   3
ATOM      3  C   UNL     1      52.887  37.713 137.277  1.00  0.00     0.000 C 
BRANCH   3   4
ATOM      4  C   UNL     1      52.732  37.389 135.780  1.00  0.00     0.000 C 
BRANCH   4   5
ATOM      5  C   UNL     1      52.776  38.603 134.832  1.00  0.00     0.006 C 
BRANCH   5   6
ATOM      6  C   UNL     1      52.103  39.868 135.397  1.00  0.00     0.053 C 
BRANCH   6   7
ATOM      7  C   UNL     1      51.963  40.950 134.368  1.00  0.00     0.041 C 
ATOM      8  O   UNL     1      52.741  41.941 134.382  1.00  0.00    -0.550 OA
ATOM      9  O   UNL     1      50.949  40.889 133.422  1.00  0.00    -0.550 OA
ENDBRANCH   6   7
ENDBRANCH   5   6
ENDBRANCH   4   5
ENDBRANCH   3   4
ENDBRANCH   2   3
ENDBRANCH   1   2
BRANCH   1  10
ATOM     10  C   UNL     1      49.383  36.421 137.870  1.00  0.00     0.000 C 
BRANCH  10  11
ATOM     11  C   UNL     1      49.071  37.911 138.102  1.00  0.00    -0.000 C 
BRANCH  11  12
ATOM     12  C   UNL     1      48.954  38.701 136.790  1.00  0.00    -0.000 C 
BRANCH  12  13
ATOM     13  C   UNL     1      47.592  38.505 136.101  1.00  0.00    -0.000 C 
BRANCH  13  14
ATOM     14  C   UNL     1      47.720  37.875 134.706  1.00  0.00    -0.000 C 
BRANCH  14  15
ATOM     15  C   UNL     1      49.159  37.911 134.172  1.00  0.00    -0.003 C 
ATOM     16  C   UNL     1      49.645  36.513 133.803  1.00  0.00     0.004 C 
ENDBRANCH  14  15
ENDBRANCH  13  14
ENDBRANCH  12  13
ENDBRANCH  11  12
ENDBRANCH  10  11
ENDBRANCH   1  10
TORSDOF 12
ENDMDL
MODEL 5
REMARK VINA RESULT:    -2.679      4.435      6.583
REMARK INTER + INTRA:          -6.114
REMARK INTER:                  -4.765
REMARK INTRA:                  -1.349
REMARK UNBOUND:                -1.555
REMARK SMILES CCCCCCCCCCCCCC(=O)[O-]
REMARK SMILES IDX 8 1 9 2 10 3 11 4 12 5 13 6 14 7 15 8 16 9 7 10 6 11 5 12
REMARK SMILES IDX 4 13 3 14 2 15 1 16
REMARK H PARENT
REMARK Flexibility Score: inf
ROOT
ATOM      1  C   UNL     1      48.671  37.885 136.991  1.00  0.00     0.000 C 
ENDROOT
BRANCH   1   2
ATOM      2  C   UNL     1      48.764  37.018 135.725  1.00  0.00     0.000 C 
BRANCH   2   3
ATOM      3  C   UNL     1      48.274  37.750 134.464  1.00  0.00     0.000 C 
BRANCH   3   4
ATOM      4  C   UNL     1      47.192  38.803 134.762  1.00  0.00     0.000 C 
BRANCH   4   5
ATOM      5  C   UNL     1      45.741  38.282 134.757  1.00  0.00     0.006 C 
BRANCH   5   6
ATOM      6  C   UNL     1      45.456  37.225 133.674  1.00  0.00     0.053 C 
BRANCH   6   7
ATOM      7  C   UNL     1      43.998  36.888 133.573  1.00  0.00     0.041 C 
ATOM      8  O   UNL     1      43.248  37.541 132.800  1.00  0.00    -0.550 OA
ATOM      9  O   UNL     1      43.457  35.882 134.363  1.00  0.00    -0.550 OA
ENDBRANCH   6   7
ENDBRANCH   5   6
ENDBRANCH   4   5
ENDBRANCH   3   4
ENDBRANCH   2   3
ENDBRANCH   1   2
BRANCH   1  10
ATOM     10  C   UNL     1      49.485  37.333 138.181  1.00  0.00     0.000 C 
BRANCH  10  11
ATOM     11  C   UNL     1      50.690  36.494 137.721  1.00  0.00    -0.000 C 
BRANCH  11  12
ATOM     12  C   UNL     1      51.999  36.914 138.405  1.00  0.00    -0.000 C 
BRANCH  12  13
ATOM     13  C   UNL     1      52.959  37.643 137.448  1.00  0.00    -0.000 C 
BRANCH  13  14
ATOM     14  C   UNL     1      52.357  37.848 136.050  1.00  0.00    -0.000 C 
BRANCH  14  15
ATOM     15  C   UNL     1      52.543  39.281 135.530  1.00  0.00    -0.003 C 
ATOM     16  C   UNL     1      51.205  39.902 135.139  1.00  0.00     0.004 C 
ENDBRANCH  14  15
ENDBRANCH  13  14
ENDBRANCH  12  13
ENDBRANCH  11  12
ENDBRANCH  10  11
ENDBRANCH   1  10
TORSDOF 12
ENDMDL
MODEL 6
REMARK VINA RESULT:    -2.676      4.048      6.129
REMARK INTER + INTRA:          -6.107
REMARK INTER:                  -4.914
REMARK INTRA:                  -1.194
REMARK UNBOUND:                -1.555
REMARK SMILES CCCCCCCCCCCCCC(=O)[O-]
REMARK SMILES IDX 8 1 9 2 10 3 11 4 12 5 13 6 14 7 15 8 16 9 7 10 6 11 5 12
REMARK SMILES IDX 4 13 3 14 2 15 1 16
REMARK H PARENT
REMARK Flexibility Score: inf
ROOT
ATOM      1  C   UNL     1      45.643  37.622 133.841  1.00  0.00     0.000 C 
ENDROOT
BRANCH   1   2
ATOM      2  C   UNL     1      45.658  39.010 134.502  1.00  0.00     0.000 C 
BRANCH   2   3
ATOM      3  C   UNL     1      46.720  39.133 135.607  1.00  0.00     0.000 C 
BRANCH   3   4
ATOM      4  C   UNL     1      47.665  37.920 135.670  1.00  0.00     0.000 C 
BRANCH   4   5
ATOM      5  C   UNL     1      49.113  38.230 136.098  1.00  0.00     0.006 C 
BRANCH   5   6
ATOM      6  C   UNL     1      49.964  36.980 136.390  1.00  0.00     0.053 C 
BRANCH   6   7
ATOM      7  C   UNL     1      50.121  36.724 137.859  1.00  0.00     0.041 C 
ATOM      8  O   UNL     1      51.228  36.932 138.424  1.00  0.00    -0.550 OA
ATOM      9  O   UNL     1      49.060  36.216 138.597  1.00  0.00    -0.550 OA
ENDBRANCH   6   7
ENDBRANCH   5   6
ENDBRANCH   4   5
ENDBRANCH   3   4
ENDBRANCH   2   3
ENDBRANCH   1   2
BRANCH   1  10
ATOM     10  C   UNL     1      44.290  37.258 133.193  1.00  0.00     0.000 C 
BRANCH  10  11
ATOM     11  C   UNL     1      43.485  36.264 134.049  1.00  0.00    -0.000 C 
BRANCH  11  12
ATOM     12  C   UNL     1      42.060  36.756 134.342  1.00  0.00    -0.000 C 
BRANCH  12  13
ATOM     13  C   UNL     1      41.993  37.679 135.572  1.00  0.00    -0.000 C 
BRANCH  13  14
ATOM     14  C   UNL     1      41.206  38.969 135.300  1.00  0.00    -0.000 C 
BRANCH  14  15
ATOM     15  C   UNL     1      42.119  40.187 135.095  1.00  0.00    -0.003 C 
ATOM     16  C   UNL     1      42.352  40.456 133.611  1.00  0.00     0.004 C 
ENDBRANCH  14  15
ENDBRANCH  13  14
ENDBRANCH  12  13
ENDBRANCH  11  12
ENDBRANCH  10  11
ENDBRANCH   1  10
TORSDOF 12
ENDMDL
MODEL 7
REMARK VINA RESULT:    -2.656      3.743      5.890
REMARK INTER + INTRA:          -6.074
REMARK INTER:                  -4.440
REMARK INTRA:                  -1.635
REMARK UNBOUND:                -1.555
REMARK SMILES CCCCCCCCCCCCCC(=O)[O-]
REMARK SMILES IDX 8 1 9 2 10 3 11 4 12 5 13 6 14 7 15 8 16 9 7 10 6 11 5 12
REMARK SMILES IDX 4 13 3 14 2 15 1 16
REMARK H PARENT
REMARK Flexibility Score: inf
ROOT
ATOM      1  C   UNL     1      49.517  37.328 138.406  1.00  0.00     0.000 C 
ENDROOT
BRANCH   1   2
ATOM      2  C   UNL     1      48.480  38.046 137.527  1.00  0.00     0.000 C 
BRANCH   2   3
ATOM      3  C   UNL     1      49.124  38.895 136.418  1.00  0.00     0.000 C 
BRANCH   3   4
ATOM      4  C   UNL     1      48.387  38.786 135.072  1.00  0.00     0.000 C 
BRANCH   4   5
ATOM      5  C   UNL     1      47.640  37.459 134.830  1.00  0.00     0.006 C 
BRANCH   5   6
ATOM      6  C   UNL     1      46.701  37.479 133.610  1.00  0.00     0.053 C 
BRANCH   6   7
ATOM      7  C   UNL     1      45.257  37.588 134.001  1.00  0.00     0.041 C 
ATOM      8  O   UNL     1      44.476  36.616 133.821  1.00  0.00    -0.550 OA
ATOM      9  O   UNL     1      44.762  38.775 134.524  1.00  0.00    -0.550 OA
ENDBRANCH   6   7
ENDBRANCH   5   6
ENDBRANCH   4   5
ENDBRANCH   3   4
ENDBRANCH   2   3
ENDBRANCH   1   2
BRANCH   1  10
ATOM     10  C   UNL     1      50.702  36.739 137.611  1.00  0.00     0.000 C 
BRANCH  10  11
ATOM     11  C   UNL     1      52.053  37.011 138.296  1.00  0.00    -0.000 C 
BRANCH  11  12
ATOM     12  C   UNL     1      53.174  37.316 137.292  1.00  0.00    -0.000 C 
BRANCH  12  13
ATOM     13  C   UNL     1      52.785  38.413 136.286  1.00  0.00    -0.000 C 
BRANCH  13  14
ATOM     14  C   UNL     1      53.067  38.007 134.831  1.00  0.00    -0.000 C 
BRANCH  14  15
ATOM     15  C   UNL     1      51.786  37.881 133.994  1.00  0.00    -0.003 C 
ATOM     16  C   UNL     1      51.281  36.440 133.973  1.00  0.00     0.004 C 
ENDBRANCH  14  15
ENDBRANCH  13  14
ENDBRANCH  12  13
ENDBRANCH  11  12
ENDBRANCH  10  11
ENDBRANCH   1  10
TORSDOF 12
ENDMDL
MODEL 8
REMARK VINA RESULT:    -2.638      2.026      3.957
REMARK INTER + INTRA:          -6.043
REMARK INTER:                  -3.682
REMARK INTRA:                  -2.361
REMARK UNBOUND:                -1.555
REMARK SMILES CCCCCCCCCCCCCC(=O)[O-]
REMARK SMILES IDX 8 1 9 2 10 3 11 4 12 5 13 6 14 7 15 8 16 9 7 10 6 11 5 12
REMARK SMILES IDX 4 13 3 14 2 15 1 16
REMARK H PARENT
REMARK Flexibility Score: inf
ROOT
ATOM      1  C   UNL     1      50.204  40.263 133.303  1.00  0.00     0.000 C 
ENDROOT
BRANCH   1   2
ATOM      2  C   UNL     1      50.825  38.960 132.774  1.00  0.00     0.000 C 
BRANCH   2   3
ATOM      3  C   UNL     1      51.753  38.285 133.797  1.00  0.00     0.000 C 
BRANCH   3   4
ATOM      4  C   UNL     1      51.476  36.780 133.959  1.00  0.00     0.000 C 
BRANCH   4   5
ATOM      5  C   UNL     1      51.341  36.283 135.412  1.00  0.00     0.006 C 
BRANCH   5   6
ATOM      6  C   UNL     1      51.500  37.388 136.472  1.00  0.00     0.053 C 
BRANCH   6   7
ATOM      7  C   UNL     1      51.293  36.878 137.867  1.00  0.00     0.041 C 
ATOM      8  O   UNL     1      52.178  37.057 138.746  1.00  0.00    -0.550 OA
ATOM      9  O   UNL     1      50.143  36.169 138.188  1.00  0.00    -0.550 OA
ENDBRANCH   6   7
ENDBRANCH   5   6
ENDBRANCH   4   5
ENDBRANCH   3   4
ENDBRANCH   2   3
ENDBRANCH   1   2
BRANCH   1  10
ATOM     10  C   UNL     1      50.621  40.607 134.749  1.00  0.00     0.000 C 
BRANCH  10  11
ATOM     11  C   UNL     1      49.407  40.902 135.648  1.00  0.00    -0.000 C 
BRANCH  11  12
ATOM     12  C   UNL     1      48.215  39.979 135.355  1.00  0.00    -0.000 C 
BRANCH  12  13
ATOM     13  C   UNL     1      48.227  38.706 136.219  1.00  0.00    -0.000 C 
BRANCH  13  14
ATOM     14  C   UNL     1      47.856  37.447 135.421  1.00  0.00    -0.000 C 
BRANCH  14  15
ATOM     15  C   UNL     1      47.505  37.757 133.958  1.00  0.00    -0.003 C 
ATOM     16  C   UNL     1      47.920  36.612 133.038  1.00  0.00     0.004 C 
ENDBRANCH  14  15
ENDBRANCH  13  14
ENDBRANCH  12  13
ENDBRANCH  11  12
ENDBRANCH  10  11
ENDBRANCH   1  10
TORSDOF 12
ENDMDL
MODEL 9
REMARK VINA RESULT:    -2.622      3.066      5.154
REMARK INTER + INTRA:          -6.016
REMARK INTER:                  -4.204
REMARK INTRA:                  -1.812
REMARK UNBOUND:                -1.555
REMARK SMILES CCCCCCCCCCCCCC(=O)[O-]
REMARK SMILES IDX 8 1 9 2 10 3 11 4 12 5 13 6 14 7 15 8 16 9 7 10 6 11 5 12
REMARK SMILES IDX 4 13 3 14 2 15 1 16
REMARK H PARENT
REMARK Flexibility Score: inf
ROOT
ATOM      1  C   UNL     1      50.149  36.476 137.891  1.00  0.00     0.000 C 
ENDROOT
BRANCH   1   2
ATOM      2  C   UNL     1      49.147  37.580 138.264  1.00  0.00     0.000 C 
BRANCH   2   3
ATOM      3  C   UNL     1      48.647  38.369 137.041  1.00  0.00     0.000 C 
BRANCH   3   4
ATOM      4  C   UNL     1      48.536  37.505 135.773  1.00  0.00     0.000 C 
BRANCH   4   5
ATOM      5  C   UNL     1      47.558  38.025 134.700  1.00  0.00     0.006 C 
BRANCH   5   6
ATOM      6  C   UNL     1      46.422  38.902 135.257  1.00  0.00     0.053 C 
BRANCH   6   7
ATOM      7  C   UNL     1      46.551  40.337 134.842  1.00  0.00     0.041 C 
ATOM      8  O   UNL     1      45.531  41.075 134.786  1.00  0.00    -0.550 OA
ATOM      9  O   UNL     1      47.788  40.851 134.474  1.00  0.00    -0.550 OA
ENDBRANCH   6   7
ENDBRANCH   5   6
ENDBRANCH   4   5
ENDBRANCH   3   4
ENDBRANCH   2   3
ENDBRANCH   1   2
BRANCH   1  10
ATOM     10  C   UNL     1      51.618  36.843 138.194  1.00  0.00     0.000 C 
BRANCH  10  11
ATOM     11  C   UNL     1      52.590  36.246 137.160  1.00  0.00    -0.000 C 
BRANCH  11  12
ATOM     12  C   UNL     1      52.082  36.393 135.718  1.00  0.00    -0.000 C 
BRANCH  12  13
ATOM     13  C   UNL     1      52.532  37.711 135.064  1.00  0.00    -0.000 C 
BRANCH  13  14
ATOM     14  C   UNL     1      51.652  38.108 133.869  1.00  0.00    -0.000 C 
BRANCH  14  15
ATOM     15  C   UNL     1      51.064  39.519 134.011  1.00  0.00    -0.003 C 
ATOM     16  C   UNL     1      51.438  40.139 135.355  1.00  0.00     0.004 C 
ENDBRANCH  14  15
ENDBRANCH  13  14
ENDBRANCH  12  13
ENDBRANCH  11  12
ENDBRANCH  10  11
ENDBRANCH   1  10
TORSDOF 12
ENDMDL
