MODEL 1
REMARK VINA RESULT:    -4.838      0.000      0.000
REMARK INTER + INTRA:         -10.993
REMARK INTER:                  -9.081
REMARK INTRA:                  -1.913
REMARK UNBOUND:                -1.913
REMARK SMILES CCCCCCCCC=CCCCCCCCC(=O)[O-]
REMARK SMILES IDX 10 1 9 2 11 3 12 4 13 5 14 6 15 7 16 8 17 9 18 10 19 11
REMARK SMILES IDX 20 12 8 13 7 14 6 15 5 16 4 17 3 18 2 19 1 20
REMARK H PARENT
REMARK Flexibility Score: inf
ROOT
ATOM      1  C   UNL     1    -109.273   6.580 -20.378  1.00  0.00    -0.031 C 
ATOM      2  C   UNL     1    -109.413   7.838 -20.821  1.00  0.00    -0.031 C 
ENDROOT
BRANCH   1   3
ATOM      3  C   UNL     1    -107.920   5.931 -20.257  1.00  0.00     0.027 C 
BRANCH   3   4
ATOM      4  C   UNL     1    -108.005   4.471 -19.776  1.00  0.00     0.004 C 
BRANCH   4   5
ATOM      5  C   UNL     1    -106.689   3.917 -19.197  1.00  0.00     0.000 C 
BRANCH   5   6
ATOM      6  C   UNL     1    -106.254   2.600 -19.863  1.00  0.00     0.000 C 
BRANCH   6   7
ATOM      7  C   UNL     1    -105.249   2.821 -21.005  1.00  0.00     0.000 C 
BRANCH   7   8
ATOM      8  C   UNL     1    -104.637   4.233 -20.995  1.00  0.00     0.006 C 
BRANCH   8   9
ATOM      9  C   UNL     1    -103.281   4.282 -21.712  1.00  0.00     0.053 C 
BRANCH   9  10
ATOM     10  C   UNL     1    -102.220   4.895 -20.851  1.00  0.00     0.041 C 
ATOM     11  O   UNL     1    -102.127   4.578 -19.636  1.00  0.00    -0.550 OA
ATOM     12  O   UNL     1    -101.356   5.845 -21.381  1.00  0.00    -0.550 OA
ENDBRANCH   9  10
ENDBRANCH   8   9
ENDBRANCH   7   8
ENDBRANCH   6   7
ENDBRANCH   5   6
ENDBRANCH   4   5
ENDBRANCH   3   4
ENDBRANCH   1   3
BRANCH   2  13
ATOM     13  C   UNL     1    -110.777   8.460 -20.945  1.00  0.00     0.027 C 
BRANCH  13  14
ATOM     14  C   UNL     1    -110.804   9.863 -20.332  1.00  0.00     0.004 C 
BRANCH  14  15
ATOM     15  C   UNL     1    -109.563  10.112 -19.467  1.00  0.00     0.000 C 
BRANCH  15  16
ATOM     16  C   UNL     1    -109.882   9.922 -17.977  1.00  0.00     0.000 C 
BRANCH  16  17
ATOM     17  C   UNL     1    -109.087   8.771 -17.342  1.00  0.00    -0.000 C 
BRANCH  17  18
ATOM     18  C   UNL     1    -109.984   7.607 -16.896  1.00  0.00    -0.000 C 
BRANCH  18  19
ATOM     19  C   UNL     1    -111.460   7.918 -17.169  1.00  0.00    -0.003 C 
ATOM     20  C   UNL     1    -112.100   6.838 -18.038  1.00  0.00     0.004 C 
ENDBRANCH  18  19
ENDBRANCH  17  18
ENDBRANCH  16  17
ENDBRANCH  15  16
ENDBRANCH  14  15
ENDBRANCH  13  14
ENDBRANCH   2  13
TORSDOF 15
ENDMDL
MODEL 2
REMARK VINA RESULT:    -4.829      2.372      3.999
REMARK INTER + INTRA:         -10.976
REMARK INTER:                  -8.365
REMARK INTRA:                  -2.611
REMARK UNBOUND:                -1.913
REMARK SMILES CCCCCCCCC=CCCCCCCCC(=O)[O-]
REMARK SMILES IDX 10 1 9 2 11 3 12 4 13 5 14 6 15 7 16 8 17 9 18 10 19 11
REMARK SMILES IDX 20 12 8 13 7 14 6 15 5 16 4 17 3 18 2 19 1 20
REMARK H PARENT
REMARK Flexibility Score: inf
ROOT
ATOM      1  C   UNL     1    -113.088   8.215 -20.133  1.00  0.00    -0.031 C 
ATOM      2  C   UNL     1    -111.910   8.314 -20.766  1.00  0.00    -0.031 C 
ENDROOT
BRANCH   1   3
ATOM      3  C   UNL     1    -113.890   6.941 -20.153  1.00  0.00     0.027 C 
BRANCH   3   4
ATOM      4  C   UNL     1    -113.627   6.056 -18.921  1.00  0.00     0.004 C 
BRANCH   4   5
ATOM      5  C   UNL     1    -112.478   5.045 -19.101  1.00  0.00     0.000 C 
BRANCH   5   6
ATOM      6  C   UNL     1    -111.095   5.664 -18.834  1.00  0.00     0.000 C 
BRANCH   6   7
ATOM      7  C   UNL     1    -109.956   4.867 -19.491  1.00  0.00     0.000 C 
BRANCH   7   8
ATOM      8  C   UNL     1    -108.858   5.772 -20.079  1.00  0.00     0.006 C 
BRANCH   8   9
ATOM      9  C   UNL     1    -107.575   5.747 -19.237  1.00  0.00     0.053 C 
BRANCH   9  10
ATOM     10  C   UNL     1    -106.671   4.622 -19.639  1.00  0.00     0.041 C 
ATOM     11  O   UNL     1    -106.393   3.709 -18.819  1.00  0.00    -0.550 OA
ATOM     12  O   UNL     1    -106.105   4.603 -20.908  1.00  0.00    -0.550 OA
ENDBRANCH   9  10
ENDBRANCH   8   9
ENDBRANCH   7   8
ENDBRANCH   6   7
ENDBRANCH   5   6
ENDBRANCH   4   5
ENDBRANCH   3   4
ENDBRANCH   1   3
BRANCH   2  13
ATOM     13  C   UNL     1    -111.133   9.602 -20.741  1.00  0.00     0.027 C 
BRANCH  13  14
ATOM     14  C   UNL     1    -109.742   9.423 -21.358  1.00  0.00     0.004 C 
BRANCH  14  15
ATOM     15  C   UNL     1    -108.654   9.439 -20.277  1.00  0.00     0.000 C 
BRANCH  15  16
ATOM     16  C   UNL     1    -109.259   9.700 -18.890  1.00  0.00     0.000 C 
BRANCH  16  17
ATOM     17  C   UNL     1    -108.607   8.849 -17.789  1.00  0.00    -0.000 C 
BRANCH  17  18
ATOM     18  C   UNL     1    -109.638   8.147 -16.894  1.00  0.00    -0.000 C 
BRANCH  18  19
ATOM     19  C   UNL     1    -110.939   8.956 -16.819  1.00  0.00    -0.003 C 
ATOM     20  C   UNL     1    -112.083   8.111 -16.266  1.00  0.00     0.004 C 
ENDBRANCH  18  19
ENDBRANCH  17  18
ENDBRANCH  16  17
ENDBRANCH  15  16
ENDBRANCH  14  15
ENDBRANCH  13  14
ENDBRANCH   2  13
TORSDOF 15
ENDMDL
MODEL 3
REMARK VINA RESULT:    -4.816      1.555      3.552
REMARK INTER + INTRA:         -10.952
REMARK INTER:                  -9.911
REMARK INTRA:                  -1.042
REMARK UNBOUND:                -1.913
REMARK SMILES CCCCCCCCC=CCCCCCCCC(=O)[O-]
REMARK SMILES IDX 10 1 9 2 11 3 12 4 13 5 14 6 15 7 16 8 17 9 18 10 19 11
REMARK SMILES IDX 20 12 8 13 7 14 6 15 5 16 4 17 3 18 2 19 1 20
REMARK H PARENT
REMARK Flexibility Score: inf
ROOT
ATOM      1  C   UNL     1    -107.291   2.410 -19.620  1.00  0.00    -0.031 C 
ATOM      2  C   UNL     1    -108.623   2.445 -19.768  1.00  0.00    -0.031 C 
ENDROOT
BRANCH   1   3
ATOM      3  C   UNL     1    -106.523   1.117 -19.674  1.00  0.00     0.027 C 
BRANCH   3   4
ATOM      4  C   UNL     1    -105.616   1.018 -20.914  1.00  0.00     0.004 C 
BRANCH   4   5
ATOM      5  C   UNL     1    -104.525   2.104 -20.989  1.00  0.00     0.000 C 
BRANCH   5   6
ATOM      6  C   UNL     1    -104.779   3.125 -22.111  1.00  0.00     0.000 C 
BRANCH   6   7
ATOM      7  C   UNL     1    -103.530   3.956 -22.446  1.00  0.00     0.000 C 
BRANCH   7   8
ATOM      8  C   UNL     1    -102.948   4.678 -21.218  1.00  0.00     0.006 C 
BRANCH   8   9
ATOM      9  C   UNL     1    -101.459   5.005 -21.391  1.00  0.00     0.053 C 
BRANCH   9  10
ATOM     10  C   UNL     1    -100.950   5.875 -20.282  1.00  0.00     0.041 C 
ATOM     11  O   UNL     1    -100.945   5.452 -19.096  1.00  0.00    -0.550 OA
ATOM     12  O   UNL     1    -100.514   7.166 -20.554  1.00  0.00    -0.550 OA
ENDBRANCH   9  10
ENDBRANCH   8   9
ENDBRANCH   7   8
ENDBRANCH   6   7
ENDBRANCH   5   6
ENDBRANCH   4   5
ENDBRANCH   3   4
ENDBRANCH   1   3
BRANCH   2  13
ATOM     13  C   UNL     1    -109.369   3.749 -19.697  1.00  0.00     0.027 C 
BRANCH  13  14
ATOM     14  C   UNL     1    -108.422   4.940 -19.876  1.00  0.00     0.004 C 
BRANCH  14  15
ATOM     15  C   UNL     1    -109.184   6.268 -19.787  1.00  0.00     0.000 C 
BRANCH  15  16
ATOM     16  C   UNL     1    -110.475   6.109 -18.972  1.00  0.00     0.000 C 
BRANCH  16  17
ATOM     17  C   UNL     1    -110.618   7.174 -17.873  1.00  0.00    -0.000 C 
BRANCH  17  18
ATOM     18  C   UNL     1    -109.307   7.419 -17.112  1.00  0.00    -0.000 C 
BRANCH  18  19
ATOM     19  C   UNL     1    -108.794   8.844 -17.349  1.00  0.00    -0.003 C 
ATOM     20  C   UNL     1    -109.941   9.852 -17.341  1.00  0.00     0.004 C 
ENDBRANCH  18  19
ENDBRANCH  17  18
ENDBRANCH  16  17
ENDBRANCH  15  16
ENDBRANCH  14  15
ENDBRANCH  13  14
ENDBRANCH   2  13
TORSDOF 15
ENDMDL
MODEL 4
REMARK VINA RESULT:    -4.769      4.123      6.630
REMARK INTER + INTRA:         -10.864
REMARK INTER:                  -7.879
REMARK INTRA:                  -2.985
REMARK UNBOUND:                -1.913
REMARK SMILES CCCCCCCCC=CCCCCCCCC(=O)[O-]
REMARK SMILES IDX 10 1 9 2 11 3 12 4 13 5 14 6 15 7 16 8 17 9 18 10 19 11
REMARK SMILES IDX 20 12 8 13 7 14 6 15 5 16 4 17 3 18 2 19 1 20
REMARK H PARENT
REMARK Flexibility Score: inf
ROOT
ATOM      1  C   UNL     1    -111.786   5.973 -19.138  1.00  0.00    -0.031 C 
ATOM      2  C   UNL     1    -110.901   4.967 -19.163  1.00  0.00    -0.031 C 
ENDROOT
BRANCH   1   3
ATOM      3  C   UNL     1    -113.223   5.752 -18.748  1.00  0.00     0.027 C 
BRANCH   3   4
ATOM      4  C   UNL     1    -114.145   6.896 -19.207  1.00  0.00     0.004 C 
BRANCH   4   5
ATOM      5  C   UNL     1    -114.428   6.912 -20.722  1.00  0.00     0.000 C 
BRANCH   5   6
ATOM      6  C   UNL     1    -113.973   8.217 -21.398  1.00  0.00     0.000 C 
BRANCH   6   7
ATOM      7  C   UNL     1    -113.181   9.128 -20.447  1.00  0.00     0.000 C 
BRANCH   7   8
ATOM      8  C   UNL     1    -111.694   9.240 -20.830  1.00  0.00     0.006 C 
BRANCH   8   9
ATOM      9  C   UNL     1    -111.148  10.660 -20.625  1.00  0.00     0.053 C 
BRANCH   9  10
ATOM     10  C   UNL     1    -109.915  10.902 -21.440  1.00  0.00     0.041 C 
ATOM     11  O   UNL     1    -109.207   9.934 -21.822  1.00  0.00    -0.550 OA
ATOM     12  O   UNL     1    -109.527  12.201 -21.746  1.00  0.00    -0.550 OA
ENDBRANCH   9  10
ENDBRANCH   8   9
ENDBRANCH   7   8
ENDBRANCH   6   7
ENDBRANCH   5   6
ENDBRANCH   4   5
ENDBRANCH   3   4
ENDBRANCH   1   3
BRANCH   2  13
ATOM     13  C   UNL     1    -109.473   5.212 -19.568  1.00  0.00     0.027 C 
BRANCH  13  14
ATOM     14  C   UNL     1    -109.309   6.591 -20.217  1.00  0.00     0.004 C 
BRANCH  14  15
ATOM     15  C   UNL     1    -108.144   7.363 -19.585  1.00  0.00     0.000 C 
BRANCH  15  16
ATOM     16  C   UNL     1    -108.658   8.450 -18.630  1.00  0.00     0.000 C 
BRANCH  16  17
ATOM     17  C   UNL     1    -108.823   7.943 -17.188  1.00  0.00    -0.000 C 
BRANCH  17  18
ATOM     18  C   UNL     1    -110.293   7.880 -16.747  1.00  0.00    -0.000 C 
BRANCH  18  19
ATOM     19  C   UNL     1    -110.993   9.223 -16.985  1.00  0.00    -0.003 C 
ATOM     20  C   UNL     1    -112.503   9.099 -16.795  1.00  0.00     0.004 C 
ENDBRANCH  18  19
ENDBRANCH  17  18
ENDBRANCH  16  17
ENDBRANCH  15  16
ENDBRANCH  14  15
ENDBRANCH  13  14
ENDBRANCH   2  13
TORSDOF 15
ENDMDL
MODEL 5
REMARK VINA RESULT:    -4.769      1.505      2.628
REMARK INTER + INTRA:         -10.863
REMARK INTER:                  -8.886
REMARK INTRA:                  -1.977
REMARK UNBOUND:                -1.913
REMARK SMILES CCCCCCCCC=CCCCCCCCC(=O)[O-]
REMARK SMILES IDX 10 1 9 2 11 3 12 4 13 5 14 6 15 7 16 8 17 9 18 10 19 11
REMARK SMILES IDX 20 12 8 13 7 14 6 15 5 16 4 17 3 18 2 19 1 20
REMARK H PARENT
REMARK Flexibility Score: inf
ROOT
ATOM      1  C   UNL     1    -108.448   7.770 -19.655  1.00  0.00    -0.031 C 
ATOM      2  C   UNL     1    -109.407   7.733 -20.592  1.00  0.00    -0.031 C 
ENDROOT
BRANCH   1   3
ATOM      3  C   UNL     1    -107.741   6.522 -19.199  1.00  0.00     0.027 C 
BRANCH   3   4
ATOM      4  C   UNL     1    -107.959   5.334 -20.154  1.00  0.00     0.004 C 
BRANCH   4   5
ATOM      5  C   UNL     1    -109.030   4.331 -19.683  1.00  0.00     0.000 C 
BRANCH   5   6
ATOM      6  C   UNL     1    -108.551   2.871 -19.759  1.00  0.00     0.000 C 
BRANCH   6   7
ATOM      7  C   UNL     1    -107.039   2.733 -19.519  1.00  0.00     0.000 C 
BRANCH   7   8
ATOM      8  C   UNL     1    -106.351   1.830 -20.558  1.00  0.00     0.006 C 
BRANCH   8   9
ATOM      9  C   UNL     1    -104.847   2.112 -20.665  1.00  0.00     0.053 C 
BRANCH   9  10
ATOM     10  C   UNL     1    -104.572   3.374 -21.424  1.00  0.00     0.041 C 
ATOM     11  O   UNL     1    -104.557   3.366 -22.683  1.00  0.00    -0.550 OA
ATOM     12  O   UNL     1    -104.296   4.552 -20.741  1.00  0.00    -0.550 OA
ENDBRANCH   9  10
ENDBRANCH   8   9
ENDBRANCH   7   8
ENDBRANCH   6   7
ENDBRANCH   5   6
ENDBRANCH   4   5
ENDBRANCH   3   4
ENDBRANCH   1   3
BRANCH   2  13
ATOM     13  C   UNL     1    -110.107   8.993 -21.022  1.00  0.00     0.027 C 
BRANCH  13  14
ATOM     14  C   UNL     1    -111.591   8.735 -21.302  1.00  0.00     0.004 C 
BRANCH  14  15
ATOM     15  C   UNL     1    -112.382   8.592 -19.996  1.00  0.00     0.000 C 
BRANCH  15  16
ATOM     16  C   UNL     1    -112.712   7.120 -19.710  1.00  0.00     0.000 C 
BRANCH  16  17
ATOM     17  C   UNL     1    -112.024   6.593 -18.440  1.00  0.00    -0.000 C 
BRANCH  17  18
ATOM     18  C   UNL     1    -112.057   7.606 -17.286  1.00  0.00    -0.000 C 
BRANCH  18  19
ATOM     19  C   UNL     1    -110.642   7.894 -16.771  1.00  0.00    -0.003 C 
ATOM     20  C   UNL     1    -110.261   9.356 -16.993  1.00  0.00     0.004 C 
ENDBRANCH  18  19
ENDBRANCH  17  18
ENDBRANCH  16  17
ENDBRANCH  15  16
ENDBRANCH  14  15
ENDBRANCH  13  14
ENDBRANCH   2  13
TORSDOF 15
ENDMDL
MODEL 6
REMARK VINA RESULT:    -4.723      3.643      7.958
REMARK INTER + INTRA:         -10.777
REMARK INTER:                  -8.990
REMARK INTRA:                  -1.787
REMARK UNBOUND:                -1.913
REMARK SMILES CCCCCCCCC=CCCCCCCCC(=O)[O-]
REMARK SMILES IDX 10 1 9 2 11 3 12 4 13 5 14 6 15 7 16 8 17 9 18 10 19 11
REMARK SMILES IDX 20 12 8 13 7 14 6 15 5 16 4 17 3 18 2 19 1 20
REMARK H PARENT
REMARK Flexibility Score: inf
ROOT
ATOM      1  C   UNL     1    -107.709   4.248 -19.840  1.00  0.00    -0.031 C 
ATOM      2  C   UNL     1    -108.611   3.258 -19.779  1.00  0.00    -0.031 C 
ENDROOT
BRANCH   1   3
ATOM      3  C   UNL     1    -108.110   5.664 -20.155  1.00  0.00     0.027 C 
BRANCH   3   4
ATOM      4  C   UNL     1    -107.904   6.617 -18.962  1.00  0.00     0.004 C 
BRANCH   4   5
ATOM      5  C   UNL     1    -109.211   7.103 -18.307  1.00  0.00     0.000 C 
BRANCH   5   6
ATOM      6  C   UNL     1    -110.446   6.856 -19.189  1.00  0.00     0.000 C 
BRANCH   6   7
ATOM      7  C   UNL     1    -111.006   8.153 -19.795  1.00  0.00     0.000 C 
BRANCH   7   8
ATOM      8  C   UNL     1    -110.377   8.495 -21.157  1.00  0.00     0.006 C 
BRANCH   8   9
ATOM      9  C   UNL     1    -109.310   9.592 -21.043  1.00  0.00     0.053 C 
BRANCH   9  10
ATOM     10  C   UNL     1    -109.920  10.961 -21.046  1.00  0.00     0.041 C 
ATOM     11  O   UNL     1    -110.144  11.553 -22.134  1.00  0.00    -0.550 OA
ATOM     12  O   UNL     1    -110.206  11.598 -19.845  1.00  0.00    -0.550 OA
ENDBRANCH   9  10
ENDBRANCH   8   9
ENDBRANCH   7   8
ENDBRANCH   6   7
ENDBRANCH   5   6
ENDBRANCH   4   5
ENDBRANCH   3   4
ENDBRANCH   1   3
BRANCH   2  13
ATOM     13  C   UNL     1    -108.183   1.848 -19.475  1.00  0.00     0.027 C 
BRANCH  13  14
ATOM     14  C   UNL     1    -107.192   1.331 -20.523  1.00  0.00     0.004 C 
BRANCH  14  15
ATOM     15  C   UNL     1    -105.861   0.934 -19.874  1.00  0.00     0.000 C 
BRANCH  15  16
ATOM     16  C   UNL     1    -104.795   2.016 -20.097  1.00  0.00     0.000 C 
BRANCH  16  17
ATOM     17  C   UNL     1    -104.794   2.559 -21.535  1.00  0.00    -0.000 C 
BRANCH  17  18
ATOM     18  C   UNL     1    -104.347   4.027 -21.613  1.00  0.00    -0.000 C 
BRANCH  18  19
ATOM     19  C   UNL     1    -103.432   4.384 -20.435  1.00  0.00    -0.003 C 
ATOM     20  C   UNL     1    -102.156   5.070 -20.916  1.00  0.00     0.004 C 
ENDBRANCH  18  19
ENDBRANCH  17  18
ENDBRANCH  16  17
ENDBRANCH  15  16
ENDBRANCH  14  15
ENDBRANCH  13  14
ENDBRANCH   2  13
TORSDOF 15
ENDMDL
MODEL 7
REMARK VINA RESULT:    -4.669      3.228      8.042
REMARK INTER + INTRA:         -10.676
REMARK INTER:                  -9.412
REMARK INTRA:                  -1.264
REMARK UNBOUND:                -1.913
REMARK SMILES CCCCCCCCC=CCCCCCCCC(=O)[O-]
REMARK SMILES IDX 10 1 9 2 11 3 12 4 13 5 14 6 15 7 16 8 17 9 18 10 19 11
REMARK SMILES IDX 20 12 8 13 7 14 6 15 5 16 4 17 3 18 2 19 1 20
REMARK H PARENT
REMARK Flexibility Score: inf
ROOT
ATOM      1  C   UNL     1    -107.067   5.080 -20.213  1.00  0.00    -0.031 C 
ATOM      2  C   UNL     1    -106.570   4.153 -19.382  1.00  0.00    -0.031 C 
ENDROOT
BRANCH   1   3
ATOM      3  C   UNL     1    -108.392   5.746 -19.954  1.00  0.00     0.027 C 
BRANCH   3   4
ATOM      4  C   UNL     1    -109.505   4.737 -19.614  1.00  0.00     0.004 C 
BRANCH   4   5
ATOM      5  C   UNL     1    -110.801   5.379 -19.082  1.00  0.00     0.000 C 
BRANCH   5   6
ATOM      6  C   UNL     1    -110.566   6.767 -18.462  1.00  0.00     0.000 C 
BRANCH   6   7
ATOM      7  C   UNL     1    -111.462   7.850 -19.085  1.00  0.00     0.000 C 
BRANCH   7   8
ATOM      8  C   UNL     1    -111.227   8.021 -20.596  1.00  0.00     0.006 C 
BRANCH   8   9
ATOM      9  C   UNL     1    -110.922   9.477 -20.974  1.00  0.00     0.053 C 
BRANCH   9  10
ATOM     10  C   UNL     1    -109.748  10.013 -20.212  1.00  0.00     0.041 C 
ATOM     11  O   UNL     1    -109.872  11.044 -19.500  1.00  0.00    -0.550 OA
ATOM     12  O   UNL     1    -108.509   9.395 -20.318  1.00  0.00    -0.550 OA
ENDBRANCH   9  10
ENDBRANCH   8   9
ENDBRANCH   7   8
ENDBRANCH   6   7
ENDBRANCH   5   6
ENDBRANCH   4   5
ENDBRANCH   3   4
ENDBRANCH   1   3
BRANCH   2  13
ATOM     13  C   UNL     1    -105.249   3.494 -19.669  1.00  0.00     0.027 C 
BRANCH  13  14
ATOM     14  C   UNL     1    -105.128   3.117 -21.150  1.00  0.00     0.004 C 
BRANCH  14  15
ATOM     15  C   UNL     1    -103.953   3.849 -21.810  1.00  0.00     0.000 C 
BRANCH  15  16
ATOM     16  C   UNL     1    -103.081   4.552 -20.760  1.00  0.00     0.000 C 
BRANCH  16  17
ATOM     17  C   UNL     1    -101.797   5.149 -21.358  1.00  0.00    -0.000 C 
BRANCH  17  18
ATOM     18  C   UNL     1    -100.652   5.233 -20.338  1.00  0.00    -0.000 C 
BRANCH  18  19
ATOM     19  C   UNL     1    -100.470   6.670 -19.837  1.00  0.00    -0.003 C 
ATOM     20  C   UNL     1    -100.664   6.757 -18.326  1.00  0.00     0.004 C 
ENDBRANCH  18  19
ENDBRANCH  17  18
ENDBRANCH  16  17
ENDBRANCH  15  16
ENDBRANCH  14  15
ENDBRANCH  13  14
ENDBRANCH   2  13
TORSDOF 15
ENDMDL
MODEL 8
REMARK VINA RESULT:    -4.645      5.363      7.865
REMARK INTER + INTRA:         -10.631
REMARK INTER:                  -7.766
REMARK INTRA:                  -2.865
REMARK UNBOUND:                -1.913
REMARK SMILES CCCCCCCCC=CCCCCCCCC(=O)[O-]
REMARK SMILES IDX 10 1 9 2 11 3 12 4 13 5 14 6 15 7 16 8 17 9 18 10 19 11
REMARK SMILES IDX 20 12 8 13 7 14 6 15 5 16 4 17 3 18 2 19 1 20
REMARK H PARENT
REMARK Flexibility Score: inf
ROOT
ATOM      1  C   UNL     1    -111.976   5.382 -18.839  1.00  0.00    -0.031 C 
ATOM      2  C   UNL     1    -110.946   5.998 -19.436  1.00  0.00    -0.031 C 
ENDROOT
BRANCH   1   3
ATOM      3  C   UNL     1    -113.315   6.053 -18.682  1.00  0.00     0.027 C 
BRANCH   3   4
ATOM      4  C   UNL     1    -113.339   7.473 -19.275  1.00  0.00     0.004 C 
BRANCH   4   5
ATOM      5  C   UNL     1    -114.159   7.605 -20.573  1.00  0.00     0.000 C 
BRANCH   5   6
ATOM      6  C   UNL     1    -113.495   8.531 -21.606  1.00  0.00     0.000 C 
BRANCH   6   7
ATOM      7  C   UNL     1    -112.187   9.149 -21.088  1.00  0.00     0.000 C 
BRANCH   7   8
ATOM      8  C   UNL     1    -112.269  10.679 -20.940  1.00  0.00     0.006 C 
BRANCH   8   9
ATOM      9  C   UNL     1    -112.438  11.112 -19.478  1.00  0.00     0.053 C 
BRANCH   9  10
ATOM     10  C   UNL     1    -113.598  12.045 -19.307  1.00  0.00     0.041 C 
ATOM     11  O   UNL     1    -113.458  13.120 -18.668  1.00  0.00    -0.550 OA
ATOM     12  O   UNL     1    -114.844  11.709 -19.821  1.00  0.00    -0.550 OA
ENDBRANCH   9  10
ENDBRANCH   8   9
ENDBRANCH   7   8
ENDBRANCH   6   7
ENDBRANCH   5   6
ENDBRANCH   4   5
ENDBRANCH   3   4
ENDBRANCH   1   3
BRANCH   2  13
ATOM     13  C   UNL     1    -109.614   5.311 -19.570  1.00  0.00     0.027 C 
BRANCH  13  14
ATOM     14  C   UNL     1    -108.604   6.196 -20.308  1.00  0.00     0.004 C 
BRANCH  14  15
ATOM     15  C   UNL     1    -109.218   7.555 -20.664  1.00  0.00     0.000 C 
BRANCH  15  16
ATOM     16  C   UNL     1    -108.510   8.692 -19.914  1.00  0.00     0.000 C 
BRANCH  16  17
ATOM     17  C   UNL     1    -109.255   9.114 -18.636  1.00  0.00    -0.000 C 
BRANCH  17  18
ATOM     18  C   UNL     1    -108.835   8.293 -17.408  1.00  0.00    -0.000 C 
BRANCH  18  19
ATOM     19  C   UNL     1    -110.057   7.894 -16.573  1.00  0.00    -0.003 C 
ATOM     20  C   UNL     1    -111.201   8.887 -16.760  1.00  0.00     0.004 C 
ENDBRANCH  18  19
ENDBRANCH  17  18
ENDBRANCH  16  17
ENDBRANCH  15  16
ENDBRANCH  14  15
ENDBRANCH  13  14
ENDBRANCH   2  13
TORSDOF 15
ENDMDL
MODEL 9
REMARK VINA RESULT:    -4.580      1.855      4.005
REMARK INTER + INTRA:         -10.510
REMARK INTER:                  -7.987
REMARK INTRA:                  -2.522
REMARK UNBOUND:                -1.913
REMARK SMILES CCCCCCCCC=CCCCCCCCC(=O)[O-]
REMARK SMILES IDX 10 1 9 2 11 3 12 4 13 5 14 6 15 7 16 8 17 9 18 10 19 11
REMARK SMILES IDX 20 12 8 13 7 14 6 15 5 16 4 17 3 18 2 19 1 20
REMARK H PARENT
REMARK Flexibility Score: inf
ROOT
ATOM      1  C   UNL     1    -110.349   9.220 -16.917  1.00  0.00    -0.031 C 
ATOM      2  C   UNL     1    -111.493   9.694 -17.432  1.00  0.00    -0.031 C 
ENDROOT
BRANCH   1   3
ATOM      3  C   UNL     1    -110.031   7.749 -16.921  1.00  0.00     0.027 C 
BRANCH   3   4
ATOM      4  C   UNL     1    -108.836   7.403 -17.827  1.00  0.00     0.004 C 
BRANCH   4   5
ATOM      5  C   UNL     1    -108.964   7.925 -19.271  1.00  0.00     0.000 C 
BRANCH   5   6
ATOM      6  C   UNL     1    -108.956   6.795 -20.315  1.00  0.00     0.000 C 
BRANCH   6   7
ATOM      7  C   UNL     1    -109.288   5.425 -19.703  1.00  0.00     0.000 C 
BRANCH   7   8
ATOM      8  C   UNL     1    -108.186   4.379 -19.949  1.00  0.00     0.006 C 
BRANCH   8   9
ATOM      9  C   UNL     1    -106.827   5.028 -20.241  1.00  0.00     0.053 C 
BRANCH   9  10
ATOM     10  C   UNL     1    -105.729   4.011 -20.311  1.00  0.00     0.041 C 
ATOM     11  O   UNL     1    -105.882   2.877 -19.786  1.00  0.00    -0.550 OA
ATOM     12  O   UNL     1    -104.524   4.327 -20.925  1.00  0.00    -0.550 OA
ENDBRANCH   9  10
ENDBRANCH   8   9
ENDBRANCH   7   8
ENDBRANCH   6   7
ENDBRANCH   5   6
ENDBRANCH   4   5
ENDBRANCH   3   4
ENDBRANCH   1   3
BRANCH   2  13
ATOM     13  C   UNL     1    -111.792  11.168 -17.405  1.00  0.00     0.027 C 
BRANCH  13  14
ATOM     14  C   UNL     1    -111.737  11.772 -18.812  1.00  0.00     0.004 C 
BRANCH  14  15
ATOM     15  C   UNL     1    -110.382  11.501 -19.476  1.00  0.00     0.000 C 
BRANCH  15  16
ATOM     16  C   UNL     1    -110.564  11.032 -20.926  1.00  0.00     0.000 C 
BRANCH  16  17
ATOM     17  C   UNL     1    -111.948  10.414 -21.181  1.00  0.00    -0.000 C 
BRANCH  17  18
ATOM     18  C   UNL     1    -111.915   8.879 -21.210  1.00  0.00    -0.000 C 
BRANCH  18  19
ATOM     19  C   UNL     1    -113.070   8.291 -20.391  1.00  0.00    -0.003 C 
ATOM     20  C   UNL     1    -112.635   7.031 -19.647  1.00  0.00     0.004 C 
ENDBRANCH  18  19
ENDBRANCH  17  18
ENDBRANCH  16  17
ENDBRANCH  15  16
ENDBRANCH  14  15
ENDBRANCH  13  14
ENDBRANCH   2  13
TORSDOF 15
ENDMDL
