MODEL 1
REMARK VINA RESULT:    -3.447      0.000      0.000
REMARK INTER + INTRA:          -4.754
REMARK INTER:                  -4.656
REMARK INTRA:                  -0.099
REMARK UNBOUND:                -0.099
REMARK SMILES CCCCCCCC(=O)[O-]
REMARK SMILES IDX 5 1 6 2 7 3 8 4 9 5 10 6 4 7 3 8 2 9 1 10
REMARK H PARENT
REMARK Flexibility Score: inf
ROOT
ATOM      1  C   UNL     1       9.133  20.277  56.047  1.00  0.00     0.000 C 
ENDROOT
BRANCH   1   2
ATOM      2  C   UNL     1      10.478  21.011  56.125  1.00  0.00     0.006 C 
BRANCH   2   3
ATOM      3  C   UNL     1      11.574  20.229  55.396  1.00  0.00     0.053 C 
BRANCH   3   4
ATOM      4  C   UNL     1      12.918  20.820  55.679  1.00  0.00     0.041 C 
ATOM      5  O   UNL     1      13.014  21.993  56.125  1.00  0.00    -0.550 OA
ATOM      6  O   UNL     1      14.066  20.057  55.499  1.00  0.00    -0.550 OA
ENDBRANCH   3   4
ENDBRANCH   2   3
ENDBRANCH   1   2
BRANCH   1   7
ATOM      7  C   UNL     1       7.962  21.266  56.108  1.00  0.00     0.000 C 
BRANCH   7   8
ATOM      8  C   UNL     1       6.712  20.678  55.439  1.00  0.00    -0.000 C 
BRANCH   8   9
ATOM      9  C   UNL     1       5.550  21.681  55.375  1.00  0.00    -0.003 C 
ATOM     10  C   UNL     1       4.489  21.294  54.345  1.00  0.00     0.004 C 
ENDBRANCH   8   9
ENDBRANCH   7   8
ENDBRANCH   1   7
TORSDOF 6
ENDMDL
MODEL 2
REMARK VINA RESULT:    -2.650      4.340      6.522
REMARK INTER + INTRA:          -3.678
REMARK INTER:                  -3.663
REMARK INTRA:                  -0.015
REMARK UNBOUND:                -0.099
REMARK SMILES CCCCCCCC(=O)[O-]
REMARK SMILES IDX 5 1 6 2 7 3 8 4 9 5 10 6 4 7 3 8 2 9 1 10
REMARK H PARENT
REMARK Flexibility Score: inf
ROOT
ATOM      1  C   UNL     1       7.112  20.760  55.231  1.00  0.00     0.000 C 
ENDROOT
BRANCH   1   2
ATOM      2  C   UNL     1       6.526  22.049  55.820  1.00  0.00     0.006 C 
BRANCH   2   3
ATOM      3  C   UNL     1       5.003  21.956  55.939  1.00  0.00     0.053 C 
BRANCH   3   4
ATOM      4  C   UNL     1       4.412  21.385  54.689  1.00  0.00     0.041 C 
ATOM      5  O   UNL     1       4.252  22.112  53.674  1.00  0.00    -0.550 OA
ATOM      6  O   UNL     1       4.084  20.036  54.628  1.00  0.00    -0.550 OA
ENDBRANCH   3   4
ENDBRANCH   2   3
ENDBRANCH   1   2
BRANCH   1   7
ATOM      7  C   UNL     1       8.303  20.266  56.062  1.00  0.00     0.000 C 
BRANCH   7   8
ATOM      8  C   UNL     1       9.621  20.852  55.534  1.00  0.00    -0.000 C 
BRANCH   8   9
ATOM      9  C   UNL     1      10.855  20.152  56.123  1.00  0.00    -0.003 C 
ATOM     10  C   UNL     1      12.091  20.281  55.232  1.00  0.00     0.004 C 
ENDBRANCH   8   9
ENDBRANCH   7   8
ENDBRANCH   1   7
TORSDOF 6
ENDMDL
MODEL 3
REMARK VINA RESULT:    -2.493      3.095      6.235
REMARK INTER + INTRA:          -3.466
REMARK INTER:                  -3.281
REMARK INTRA:                  -0.185
REMARK UNBOUND:                -0.099
REMARK SMILES CCCCCCCC(=O)[O-]
REMARK SMILES IDX 5 1 6 2 7 3 8 4 9 5 10 6 4 7 3 8 2 9 1 10
REMARK H PARENT
REMARK Flexibility Score: inf
ROOT
ATOM      1  C   UNL     1      11.125  20.177  55.201  1.00  0.00     0.000 C 
ENDROOT
BRANCH   1   2
ATOM      2  C   UNL     1      10.042  20.914  55.997  1.00  0.00     0.006 C 
BRANCH   2   3
ATOM      3  C   UNL     1       8.777  20.061  56.125  1.00  0.00     0.053 C 
BRANCH   3   4
ATOM      4  C   UNL     1       7.561  20.875  55.814  1.00  0.00     0.041 C 
ATOM      5  O   UNL     1       7.577  22.124  55.968  1.00  0.00    -0.550 OA
ATOM      6  O   UNL     1       6.424  20.259  55.304  1.00  0.00    -0.550 OA
ENDBRANCH   3   4
ENDBRANCH   2   3
ENDBRANCH   1   2
BRANCH   1   7
ATOM      7  C   UNL     1      12.290  19.763  56.107  1.00  0.00     0.000 C 
BRANCH   7   8
ATOM      8  C   UNL     1      13.638  20.147  55.479  1.00  0.00    -0.000 C 
BRANCH   8   9
ATOM      9  C   UNL     1      13.874  21.665  55.473  1.00  0.00    -0.003 C 
ATOM     10  C   UNL     1      15.351  22.035  55.607  1.00  0.00     0.004 C 
ENDBRANCH   8   9
ENDBRANCH   7   8
ENDBRANCH   1   7
TORSDOF 6
ENDMDL
MODEL 4
REMARK VINA RESULT:    -0.836      1.662      2.377
REMARK INTER + INTRA:          -1.228
REMARK INTER:                  -2.087
REMARK INTRA:                   0.859
REMARK UNBOUND:                -0.099
REMARK SMILES CCCCCCCC(=O)[O-]
REMARK SMILES IDX 5 1 6 2 7 3 8 4 9 5 10 6 4 7 3 8 2 9 1 10
REMARK H PARENT
REMARK Flexibility Score: inf
ROOT
ATOM      1  C   UNL     1      11.537  20.492  56.081  1.00  0.00     0.000 C 
ENDROOT
BRANCH   1   2
ATOM      2  C   UNL     1      11.985  21.930  55.791  1.00  0.00     0.006 C 
BRANCH   2   3
ATOM      3  C   UNL     1      13.467  22.121  56.123  1.00  0.00     0.053 C 
BRANCH   3   4
ATOM      4  C   UNL     1      14.287  21.025  55.520  1.00  0.00     0.041 C 
ATOM      5  O   UNL     1      15.530  21.165  55.381  1.00  0.00    -0.550 OA
ATOM      6  O   UNL     1      13.684  19.826  55.157  1.00  0.00    -0.550 OA
ENDBRANCH   3   4
ENDBRANCH   2   3
ENDBRANCH   1   2
BRANCH   1   7
ATOM      7  C   UNL     1      10.007  20.390  56.124  1.00  0.00     0.000 C 
BRANCH   7   8
ATOM      8  C   UNL     1       9.360  21.771  55.949  1.00  0.00    -0.000 C 
BRANCH   8   9
ATOM      9  C   UNL     1       7.832  21.692  55.801  1.00  0.00    -0.003 C 
ATOM     10  C   UNL     1       7.313  20.255  55.780  1.00  0.00     0.004 C 
ENDBRANCH   8   9
ENDBRANCH   7   8
ENDBRANCH   1   7
TORSDOF 6
ENDMDL
