MODEL 1
REMARK VINA RESULT:    -4.550      0.000      0.000
REMARK INTER + INTRA:          -9.191
REMARK INTER:                  -6.943
REMARK INTRA:                  -2.247
REMARK UNBOUND:                -2.247
REMARK SMILES CC(=O)CCC=C(C)CCC=C(C)CCC=C(C)C
REMARK SMILES IDX 10 1 11 2 12 3 13 4 14 5 15 6 16 7 18 8 17 9 19 10 9 11 7 12
REMARK SMILES IDX 6 13 8 14 5 15 4 16 2 17 3 18 1 19
REMARK H PARENT
REMARK Flexibility Score: inf
ROOT
ATOM      1  C   UNL     1      10.052 -22.514  40.619  1.00  0.00     0.032 C 
ENDROOT
BRANCH   1   2
ATOM      2  C   UNL     1       9.330 -23.758  41.078  1.00  0.00    -0.028 C 
ATOM      3  C   UNL     1       9.550 -25.004  40.602  1.00  0.00    -0.077 C 
ATOM      4  C   UNL     1       8.712 -26.133  41.146  1.00  0.00     0.039 C 
BRANCH   3   5
ATOM      5  C   UNL     1      10.634 -25.324  39.593  1.00  0.00     0.034 C 
BRANCH   5   6
ATOM      6  C   UNL     1      11.925 -25.753  40.298  1.00  0.00     0.032 C 
BRANCH   6   7
ATOM      7  C   UNL     1      13.083 -25.788  39.332  1.00  0.00    -0.028 C 
ATOM      8  C   UNL     1      15.413 -25.584  38.579  1.00  0.00     0.039 C 
ATOM      9  C   UNL     1      14.367 -25.519  39.661  1.00  0.00    -0.080 C 
ATOM     10  C   UNL     1      14.779 -25.179  41.074  1.00  0.00     0.039 C 
ENDBRANCH   6   7
ENDBRANCH   5   6
ENDBRANCH   3   5
ENDBRANCH   1   2
BRANCH   1  11
ATOM     11  C   UNL     1      11.186 -22.117  41.575  1.00  0.00     0.034 C 
BRANCH  11  12
ATOM     12  C   UNL     1      12.510 -21.997  40.851  1.00  0.00    -0.077 C 
ATOM     13  C   UNL     1      12.537 -22.088  39.501  1.00  0.00    -0.028 C 
ATOM     14  C   UNL     1      13.755 -21.727  41.661  1.00  0.00     0.039 C 
BRANCH  13  15
ATOM     15  C   UNL     1      13.788 -22.012  38.657  1.00  0.00     0.035 C 
BRANCH  15  16
ATOM     16  C   UNL     1      13.816 -20.736  37.811  1.00  0.00     0.079 C 
BRANCH  16  17
ATOM     17  C   UNL     1      14.380 -20.988  36.437  1.00  0.00     0.130 C 
ATOM     18  O   UNL     1      13.885 -21.853  35.730  1.00  0.00    -0.300 OA
ATOM     19  C   UNL     1      15.546 -20.200  35.918  1.00  0.00     0.087 C 
ENDBRANCH  16  17
ENDBRANCH  15  16
ENDBRANCH  13  15
ENDBRANCH  11  12
ENDBRANCH   1  11
TORSDOF 9
ENDMDL
MODEL 2
REMARK VINA RESULT:    -4.516      2.705      5.865
REMARK INTER + INTRA:          -9.139
REMARK INTER:                  -6.748
REMARK INTRA:                  -2.392
REMARK UNBOUND:                -2.247
REMARK SMILES CC(=O)CCC=C(C)CCC=C(C)CCC=C(C)C
REMARK SMILES IDX 10 1 11 2 12 3 13 4 14 5 15 6 16 7 18 8 17 9 19 10 9 11 7 12
REMARK SMILES IDX 6 13 8 14 5 15 4 16 2 17 3 18 1 19
REMARK H PARENT
REMARK Flexibility Score: inf
ROOT
ATOM      1  C   UNL     1      13.373 -23.373  38.478  1.00  0.00     0.032 C 
ENDROOT
BRANCH   1   2
ATOM      2  C   UNL     1      12.908 -22.663  39.726  1.00  0.00    -0.028 C 
ATOM      3  C   UNL     1      11.666 -22.749  40.252  1.00  0.00    -0.077 C 
ATOM      4  C   UNL     1      11.357 -21.942  41.487  1.00  0.00     0.039 C 
BRANCH   3   5
ATOM      5  C   UNL     1      10.592 -23.660  39.691  1.00  0.00     0.034 C 
BRANCH   5   6
ATOM      6  C   UNL     1       9.778 -24.301  40.819  1.00  0.00     0.032 C 
BRANCH   6   7
ATOM      7  C   UNL     1      10.335 -25.654  41.187  1.00  0.00    -0.028 C 
ATOM      8  C   UNL     1      10.291 -28.035  41.794  1.00  0.00     0.039 C 
ATOM      9  C   UNL     1       9.587 -26.755  41.423  1.00  0.00    -0.080 C 
ATOM     10  C   UNL     1       8.080 -26.742  41.308  1.00  0.00     0.039 C 
ENDBRANCH   6   7
ENDBRANCH   5   6
ENDBRANCH   3   5
ENDBRANCH   1   2
BRANCH   1  11
ATOM     11  C   UNL     1      14.392 -24.479  38.786  1.00  0.00     0.034 C 
BRANCH  11  12
ATOM     12  C   UNL     1      13.711 -25.768  39.194  1.00  0.00    -0.077 C 
ATOM     13  C   UNL     1      12.960 -26.436  38.288  1.00  0.00    -0.028 C 
ATOM     14  C   UNL     1      13.935 -26.295  40.591  1.00  0.00     0.039 C 
BRANCH  13  15
ATOM     15  C   UNL     1      12.206 -27.715  38.566  1.00  0.00     0.035 C 
BRANCH  15  16
ATOM     16  C   UNL     1      12.859 -28.913  37.869  1.00  0.00     0.079 C 
BRANCH  16  17
ATOM     17  C   UNL     1      13.999 -29.476  38.678  1.00  0.00     0.130 C 
ATOM     18  O   UNL     1      15.148 -29.321  38.292  1.00  0.00    -0.300 OA
ATOM     19  C   UNL     1      13.751 -30.230  39.951  1.00  0.00     0.087 C 
ENDBRANCH  16  17
ENDBRANCH  15  16
ENDBRANCH  13  15
ENDBRANCH  11  12
ENDBRANCH   1  11
TORSDOF 9
ENDMDL
MODEL 3
REMARK VINA RESULT:    -4.443      5.674      8.497
REMARK INTER + INTRA:          -9.028
REMARK INTER:                  -6.198
REMARK INTRA:                  -2.830
REMARK UNBOUND:                -2.247
REMARK SMILES CC(=O)CCC=C(C)CCC=C(C)CCC=C(C)C
REMARK SMILES IDX 10 1 11 2 12 3 13 4 14 5 15 6 16 7 18 8 17 9 19 10 9 11 7 12
REMARK SMILES IDX 6 13 8 14 5 15 4 16 2 17 3 18 1 19
REMARK H PARENT
REMARK Flexibility Score: inf
ROOT
ATOM      1  C   UNL     1      14.624 -32.813  41.631  1.00  0.00     0.032 C 
ENDROOT
BRANCH   1   2
ATOM      2  C   UNL     1      14.642 -32.851  43.140  1.00  0.00    -0.028 C 
ATOM      3  C   UNL     1      14.691 -31.765  43.945  1.00  0.00    -0.077 C 
ATOM      4  C   UNL     1      14.741 -31.984  45.435  1.00  0.00     0.039 C 
BRANCH   3   5
ATOM      5  C   UNL     1      14.643 -30.345  43.418  1.00  0.00     0.034 C 
BRANCH   5   6
ATOM      6  C   UNL     1      13.435 -29.594  43.990  1.00  0.00     0.032 C 
BRANCH   6   7
ATOM      7  C   UNL     1      12.142 -30.200  43.502  1.00  0.00    -0.028 C 
ATOM      8  C   UNL     1      10.110 -30.407  42.137  1.00  0.00     0.039 C 
ATOM      9  C   UNL     1      11.385 -29.694  42.502  1.00  0.00    -0.080 C 
ATOM     10  C   UNL     1      11.791 -28.457  41.735  1.00  0.00     0.039 C 
ENDBRANCH   6   7
ENDBRANCH   5   6
ENDBRANCH   3   5
ENDBRANCH   1   2
BRANCH   1  11
ATOM     11  C   UNL     1      13.198 -32.892  41.068  1.00  0.00     0.034 C 
BRANCH  11  12
ATOM     12  C   UNL     1      12.968 -31.863  39.981  1.00  0.00    -0.077 C 
ATOM     13  C   UNL     1      13.870 -30.868  39.812  1.00  0.00    -0.028 C 
ATOM     14  C   UNL     1      11.762 -32.011  39.087  1.00  0.00     0.039 C 
BRANCH  13  15
ATOM     15  C   UNL     1      13.752 -29.763  38.788  1.00  0.00     0.035 C 
BRANCH  15  16
ATOM     16  C   UNL     1      15.014 -28.896  38.753  1.00  0.00     0.079 C 
BRANCH  16  17
ATOM     17  C   UNL     1      14.864 -27.656  39.594  1.00  0.00     0.130 C 
ATOM     18  O   UNL     1      14.342 -26.660  39.114  1.00  0.00    -0.300 OA
ATOM     19  C   UNL     1      15.346 -27.615  41.014  1.00  0.00     0.087 C 
ENDBRANCH  16  17
ENDBRANCH  15  16
ENDBRANCH  13  15
ENDBRANCH  11  12
ENDBRANCH   1  11
TORSDOF 9
ENDMDL
MODEL 4
REMARK VINA RESULT:    -4.393      1.539      1.977
REMARK INTER + INTRA:          -8.952
REMARK INTER:                  -6.653
REMARK INTRA:                  -2.299
REMARK UNBOUND:                -2.247
REMARK SMILES CC(=O)CCC=C(C)CCC=C(C)CCC=C(C)C
REMARK SMILES IDX 10 1 11 2 12 3 13 4 14 5 15 6 16 7 18 8 17 9 19 10 9 11 7 12
REMARK SMILES IDX 6 13 8 14 5 15 4 16 2 17 3 18 1 19
REMARK H PARENT
REMARK Flexibility Score: inf
ROOT
ATOM      1  C   UNL     1      10.298 -22.610  40.593  1.00  0.00     0.032 C 
ENDROOT
BRANCH   1   2
ATOM      2  C   UNL     1       9.441 -23.762  41.057  1.00  0.00    -0.028 C 
ATOM      3  C   UNL     1       9.402 -24.984  40.479  1.00  0.00    -0.077 C 
ATOM      4  C   UNL     1       8.459 -26.012  41.049  1.00  0.00     0.039 C 
BRANCH   3   5
ATOM      5  C   UNL     1      10.301 -25.381  39.325  1.00  0.00     0.034 C 
BRANCH   5   6
ATOM      6  C   UNL     1      11.298 -26.461  39.758  1.00  0.00     0.032 C 
BRANCH   6   7
ATOM      7  C   UNL     1      12.443 -25.861  40.535  1.00  0.00    -0.028 C 
ATOM      8  C   UNL     1      14.586 -24.712  40.888  1.00  0.00     0.039 C 
ATOM      9  C   UNL     1      13.515 -25.253  39.978  1.00  0.00    -0.080 C 
ATOM     10  C   UNL     1      13.655 -25.085  38.483  1.00  0.00     0.039 C 
ENDBRANCH   6   7
ENDBRANCH   5   6
ENDBRANCH   3   5
ENDBRANCH   1   2
BRANCH   1  11
ATOM     11  C   UNL     1      11.252 -22.119  41.692  1.00  0.00     0.034 C 
BRANCH  11  12
ATOM     12  C   UNL     1      12.554 -21.606  41.113  1.00  0.00    -0.077 C 
ATOM     13  C   UNL     1      12.745 -21.649  39.774  1.00  0.00    -0.028 C 
ATOM     14  C   UNL     1      13.579 -21.014  42.050  1.00  0.00     0.039 C 
BRANCH  13  15
ATOM     15  C   UNL     1      14.002 -21.197  39.067  1.00  0.00     0.035 C 
BRANCH  15  16
ATOM     16  C   UNL     1      13.755 -19.930  38.242  1.00  0.00     0.079 C 
BRANCH  16  17
ATOM     17  C   UNL     1      14.624 -18.788  38.700  1.00  0.00     0.130 C 
ATOM     18  O   UNL     1      15.715 -18.612  38.177  1.00  0.00    -0.300 OA
ATOM     19  C   UNL     1      14.180 -17.860  39.792  1.00  0.00     0.087 C 
ENDBRANCH  16  17
ENDBRANCH  15  16
ENDBRANCH  13  15
ENDBRANCH  11  12
ENDBRANCH   1  11
TORSDOF 9
ENDMDL
MODEL 5
REMARK VINA RESULT:    -4.371      6.302      8.930
REMARK INTER + INTRA:          -8.919
REMARK INTER:                  -5.836
REMARK INTRA:                  -3.082
REMARK UNBOUND:                -2.247
REMARK SMILES CC(=O)CCC=C(C)CCC=C(C)CCC=C(C)C
REMARK SMILES IDX 10 1 11 2 12 3 13 4 14 5 15 6 16 7 18 8 17 9 19 10 9 11 7 12
REMARK SMILES IDX 6 13 8 14 5 15 4 16 2 17 3 18 1 19
REMARK H PARENT
REMARK Flexibility Score: inf
ROOT
ATOM      1  C   UNL     1      13.966 -29.273  44.074  1.00  0.00     0.032 C 
ENDROOT
BRANCH   1   2
ATOM      2  C   UNL     1      14.461 -30.546  44.716  1.00  0.00    -0.028 C 
ATOM      3  C   UNL     1      13.699 -31.632  44.980  1.00  0.00    -0.077 C 
ATOM      4  C   UNL     1      14.346 -32.809  45.662  1.00  0.00     0.039 C 
BRANCH   3   5
ATOM      5  C   UNL     1      12.243 -31.737  44.571  1.00  0.00     0.034 C 
BRANCH   5   6
ATOM      6  C   UNL     1      12.040 -32.879  43.570  1.00  0.00     0.032 C 
BRANCH   6   7
ATOM      7  C   UNL     1      11.967 -32.352  42.157  1.00  0.00    -0.028 C 
ATOM      8  C   UNL     1      12.768 -31.802  39.900  1.00  0.00     0.039 C 
ATOM      9  C   UNL     1      12.991 -32.379  41.274  1.00  0.00    -0.080 C 
ATOM     10  C   UNL     1      14.332 -32.984  41.617  1.00  0.00     0.039 C 
ENDBRANCH   6   7
ENDBRANCH   5   6
ENDBRANCH   3   5
ENDBRANCH   1   2
BRANCH   1  11
ATOM     11  C   UNL     1      14.359 -29.182  42.592  1.00  0.00     0.034 C 
BRANCH  11  12
ATOM     12  C   UNL     1      13.221 -28.656  41.744  1.00  0.00    -0.077 C 
ATOM     13  C   UNL     1      11.956 -28.722  42.219  1.00  0.00    -0.028 C 
ATOM     14  C   UNL     1      13.544 -28.027  40.410  1.00  0.00     0.039 C 
BRANCH  13  15
ATOM     15  C   UNL     1      10.728 -28.260  41.470  1.00  0.00     0.035 C 
BRANCH  15  16
ATOM     16  C   UNL     1       9.948 -29.443  40.889  1.00  0.00     0.079 C 
BRANCH  16  17
ATOM     17  C   UNL     1       8.882 -29.928  41.837  1.00  0.00     0.130 C 
ATOM     18  O   UNL     1       8.382 -29.148  42.634  1.00  0.00    -0.300 OA
ATOM     19  C   UNL     1       8.421 -31.355  41.825  1.00  0.00     0.087 C 
ENDBRANCH  16  17
ENDBRANCH  15  16
ENDBRANCH  13  15
ENDBRANCH  11  12
ENDBRANCH   1  11
TORSDOF 9
ENDMDL
MODEL 6
REMARK VINA RESULT:    -4.358      4.622      7.148
REMARK INTER + INTRA:          -8.898
REMARK INTER:                  -5.675
REMARK INTRA:                  -3.222
REMARK UNBOUND:                -2.247
REMARK SMILES CC(=O)CCC=C(C)CCC=C(C)CCC=C(C)C
REMARK SMILES IDX 10 1 11 2 12 3 13 4 14 5 15 6 16 7 18 8 17 9 19 10 9 11 7 12
REMARK SMILES IDX 6 13 8 14 5 15 4 16 2 17 3 18 1 19
REMARK H PARENT
REMARK Flexibility Score: inf
ROOT
ATOM      1  C   UNL     1      12.747 -32.000  39.543  1.00  0.00     0.032 C 
ENDROOT
BRANCH   1   2
ATOM      2  C   UNL     1      11.993 -32.430  40.778  1.00  0.00    -0.028 C 
ATOM      3  C   UNL     1      12.283 -32.043  42.040  1.00  0.00    -0.077 C 
ATOM      4  C   UNL     1      11.449 -32.599  43.166  1.00  0.00     0.039 C 
BRANCH   3   5
ATOM      5  C   UNL     1      13.369 -31.037  42.367  1.00  0.00     0.034 C 
BRANCH   5   6
ATOM      6  C   UNL     1      12.774 -29.791  43.032  1.00  0.00     0.032 C 
BRANCH   6   7
ATOM      7  C   UNL     1      12.502 -28.712  42.014  1.00  0.00    -0.028 C 
ATOM      8  C   UNL     1      11.173 -27.321  40.485  1.00  0.00     0.039 C 
ATOM      9  C   UNL     1      11.282 -28.423  41.507  1.00  0.00    -0.080 C 
ATOM     10  C   UNL     1      10.036 -29.154  41.948  1.00  0.00     0.039 C 
ENDBRANCH   6   7
ENDBRANCH   5   6
ENDBRANCH   3   5
ENDBRANCH   1   2
BRANCH   1  11
ATOM     11  C   UNL     1      12.020 -30.884  38.780  1.00  0.00     0.034 C 
BRANCH  11  12
ATOM     12  C   UNL     1      12.964 -29.767  38.389  1.00  0.00    -0.077 C 
ATOM     13  C   UNL     1      14.183 -29.695  38.974  1.00  0.00    -0.028 C 
ATOM     14  C   UNL     1      12.532 -28.795  37.318  1.00  0.00     0.039 C 
BRANCH  13  15
ATOM     15  C   UNL     1      15.210 -28.622  38.698  1.00  0.00     0.035 C 
BRANCH  15  16
ATOM     16  C   UNL     1      15.414 -27.716  39.916  1.00  0.00     0.079 C 
BRANCH  16  17
ATOM     17  C   UNL     1      14.723 -26.388  39.746  1.00  0.00     0.130 C 
ATOM     18  O   UNL     1      14.348 -25.772  40.732  1.00  0.00    -0.300 OA
ATOM     19  C   UNL     1      14.479 -25.806  38.385  1.00  0.00     0.087 C 
ENDBRANCH  16  17
ENDBRANCH  15  16
ENDBRANCH  13  15
ENDBRANCH  11  12
ENDBRANCH   1  11
TORSDOF 9
ENDMDL
MODEL 7
REMARK VINA RESULT:    -4.343      7.037      9.908
REMARK INTER + INTRA:          -8.876
REMARK INTER:                  -6.132
REMARK INTRA:                  -2.744
REMARK UNBOUND:                -2.247
REMARK SMILES CC(=O)CCC=C(C)CCC=C(C)CCC=C(C)C
REMARK SMILES IDX 10 1 11 2 12 3 13 4 14 5 15 6 16 7 18 8 17 9 19 10 9 11 7 12
REMARK SMILES IDX 6 13 8 14 5 15 4 16 2 17 3 18 1 19
REMARK H PARENT
REMARK Flexibility Score: inf
ROOT
ATOM      1  C   UNL     1      12.521 -30.501  43.977  1.00  0.00     0.032 C 
ENDROOT
BRANCH   1   2
ATOM      2  C   UNL     1      13.901 -31.112  43.955  1.00  0.00    -0.028 C 
ATOM      3  C   UNL     1      14.237 -32.250  43.306  1.00  0.00    -0.077 C 
ATOM      4  C   UNL     1      15.657 -32.741  43.418  1.00  0.00     0.039 C 
BRANCH   3   5
ATOM      5  C   UNL     1      13.268 -33.018  42.429  1.00  0.00     0.034 C 
BRANCH   5   6
ATOM      6  C   UNL     1      13.719 -32.990  40.965  1.00  0.00     0.032 C 
BRANCH   6   7
ATOM      7  C   UNL     1      12.630 -32.447  40.074  1.00  0.00    -0.028 C 
ATOM      8  C   UNL     1      11.496 -30.837  38.604  1.00  0.00     0.039 C 
ATOM      9  C   UNL     1      12.671 -31.246  39.454  1.00  0.00    -0.080 C 
ATOM     10  C   UNL     1      13.860 -30.321  39.574  1.00  0.00     0.039 C 
ENDBRANCH   6   7
ENDBRANCH   5   6
ENDBRANCH   3   5
ENDBRANCH   1   2
BRANCH   1  11
ATOM     11  C   UNL     1      12.368 -29.378  42.941  1.00  0.00     0.034 C 
BRANCH  11  12
ATOM     12  C   UNL     1      11.058 -29.485  42.190  1.00  0.00    -0.077 C 
ATOM     13  C   UNL     1      10.308 -30.604  42.324  1.00  0.00    -0.028 C 
ATOM     14  C   UNL     1      10.606 -28.314  41.353  1.00  0.00     0.039 C 
BRANCH  13  15
ATOM     15  C   UNL     1       8.997 -30.854  41.615  1.00  0.00     0.035 C 
BRANCH  15  16
ATOM     16  C   UNL     1       8.832 -32.332  41.250  1.00  0.00     0.079 C 
BRANCH  16  17
ATOM     17  C   UNL     1       7.436 -32.824  41.535  1.00  0.00     0.130 C 
ATOM     18  O   UNL     1       7.078 -32.987  42.693  1.00  0.00    -0.300 OA
ATOM     19  C   UNL     1       6.475 -33.125  40.424  1.00  0.00     0.087 C 
ENDBRANCH  16  17
ENDBRANCH  15  16
ENDBRANCH  13  15
ENDBRANCH  11  12
ENDBRANCH   1  11
TORSDOF 9
ENDMDL
MODEL 8
REMARK VINA RESULT:    -4.335      1.768      4.582
REMARK INTER + INTRA:          -8.863
REMARK INTER:                  -6.186
REMARK INTRA:                  -2.677
REMARK UNBOUND:                -2.247
REMARK SMILES CC(=O)CCC=C(C)CCC=C(C)CCC=C(C)C
REMARK SMILES IDX 10 1 11 2 12 3 13 4 14 5 15 6 16 7 18 8 17 9 19 10 9 11 7 12
REMARK SMILES IDX 6 13 8 14 5 15 4 16 2 17 3 18 1 19
REMARK H PARENT
REMARK Flexibility Score: inf
ROOT
ATOM      1  C   UNL     1      11.096 -22.511  40.624  1.00  0.00     0.032 C 
ENDROOT
BRANCH   1   2
ATOM      2  C   UNL     1      11.674 -21.935  41.894  1.00  0.00    -0.028 C 
ATOM      3  C   UNL     1      12.886 -22.245  42.407  1.00  0.00    -0.077 C 
ATOM      4  C   UNL     1      13.294 -21.604  43.708  1.00  0.00     0.039 C 
BRANCH   3   5
ATOM      5  C   UNL     1      13.870 -23.161  41.706  1.00  0.00     0.034 C 
BRANCH   5   6
ATOM      6  C   UNL     1      14.909 -22.348  40.927  1.00  0.00     0.032 C 
BRANCH   6   7
ATOM      7  C   UNL     1      14.710 -22.501  39.439  1.00  0.00    -0.028 C 
ATOM      8  C   UNL     1      14.003 -21.873  37.171  1.00  0.00     0.039 C 
ATOM      9  C   UNL     1      14.144 -21.568  38.640  1.00  0.00    -0.080 C 
ATOM     10  C   UNL     1      13.674 -20.234  39.171  1.00  0.00     0.039 C 
ENDBRANCH   6   7
ENDBRANCH   5   6
ENDBRANCH   3   5
ENDBRANCH   1   2
BRANCH   1  11
ATOM     11  C   UNL     1      10.261 -23.772  40.889  1.00  0.00     0.034 C 
BRANCH  11  12
ATOM     12  C   UNL     1      10.946 -25.017  40.366  1.00  0.00    -0.077 C 
ATOM     13  C   UNL     1      11.863 -24.901  39.377  1.00  0.00    -0.028 C 
ATOM     14  C   UNL     1      10.618 -26.345  41.002  1.00  0.00     0.039 C 
BRANCH  13  15
ATOM     15  C   UNL     1      12.601 -26.058  38.745  1.00  0.00     0.035 C 
BRANCH  15  16
ATOM     16  C   UNL     1      13.655 -25.572  37.746  1.00  0.00     0.079 C 
BRANCH  16  17
ATOM     17  C   UNL     1      15.040 -26.018  38.135  1.00  0.00     0.130 C 
ATOM     18  O   UNL     1      15.864 -26.258  37.264  1.00  0.00    -0.300 OA
ATOM     19  C   UNL     1      15.431 -26.179  39.574  1.00  0.00     0.087 C 
ENDBRANCH  16  17
ENDBRANCH  15  16
ENDBRANCH  13  15
ENDBRANCH  11  12
ENDBRANCH   1  11
TORSDOF 9
ENDMDL
MODEL 9
REMARK VINA RESULT:    -4.269      3.212      5.702
REMARK INTER + INTRA:          -8.763
REMARK INTER:                  -5.993
REMARK INTRA:                  -2.770
REMARK UNBOUND:                -2.247
REMARK SMILES CC(=O)CCC=C(C)CCC=C(C)CCC=C(C)C
REMARK SMILES IDX 10 1 11 2 12 3 13 4 14 5 15 6 16 7 18 8 17 9 19 10 9 11 7 12
REMARK SMILES IDX 6 13 8 14 5 15 4 16 2 17 3 18 1 19
REMARK H PARENT
REMARK Flexibility Score: inf
ROOT
ATOM      1  C   UNL     1      12.569 -27.795  40.989  1.00  0.00     0.032 C 
ENDROOT
BRANCH   1   2
ATOM      2  C   UNL     1      12.645 -29.280  40.733  1.00  0.00    -0.028 C 
ATOM      3  C   UNL     1      12.914 -29.850  39.536  1.00  0.00    -0.077 C 
ATOM      4  C   UNL     1      12.915 -31.354  39.447  1.00  0.00     0.039 C 
BRANCH   3   5
ATOM      5  C   UNL     1      13.268 -29.046  38.300  1.00  0.00     0.034 C 
BRANCH   5   6
ATOM      6  C   UNL     1      12.263 -29.311  37.174  1.00  0.00     0.032 C 
BRANCH   6   7
ATOM      7  C   UNL     1      11.200 -28.241  37.136  1.00  0.00    -0.028 C 
ATOM      8  C   UNL     1       8.991 -27.228  37.497  1.00  0.00     0.039 C 
ATOM      9  C   UNL     1       9.946 -28.387  37.620  1.00  0.00    -0.080 C 
ATOM     10  C   UNL     1       9.488 -29.659  38.294  1.00  0.00     0.039 C 
ENDBRANCH   6   7
ENDBRANCH   5   6
ENDBRANCH   3   5
ENDBRANCH   1   2
BRANCH   1  11
ATOM     11  C   UNL     1      11.121 -27.284  41.006  1.00  0.00     0.034 C 
BRANCH  11  12
ATOM     12  C   UNL     1      10.988 -25.958  40.288  1.00  0.00    -0.077 C 
ATOM     13  C   UNL     1       9.875 -25.211  40.477  1.00  0.00    -0.028 C 
ATOM     14  C   UNL     1      12.129 -25.488  39.419  1.00  0.00     0.039 C 
BRANCH  13  15
ATOM     15  C   UNL     1       9.601 -23.886  39.805  1.00  0.00     0.035 C 
BRANCH  15  16
ATOM     16  C   UNL     1       9.637 -22.731  40.810  1.00  0.00     0.079 C 
BRANCH  16  17
ATOM     17  C   UNL     1      11.048 -22.379  41.205  1.00  0.00     0.130 C 
ATOM     18  O   UNL     1      11.809 -21.911  40.371  1.00  0.00    -0.300 OA
ATOM     19  C   UNL     1      11.541 -22.595  42.605  1.00  0.00     0.087 C 
ENDBRANCH  16  17
ENDBRANCH  15  16
ENDBRANCH  13  15
ENDBRANCH  11  12
ENDBRANCH   1  11
TORSDOF 9
ENDMDL
