MODEL 1
REMARK VINA RESULT:    -3.524      0.000      0.000
REMARK INTER + INTRA:          -6.422
REMARK INTER:                  -4.760
REMARK INTRA:                  -1.662
REMARK UNBOUND:                -1.662
REMARK SMILES CC[C@@H](CC[C@@H](C)[C@@H]1CC[C@@H]2[C@H]3CC(=O)C4=CC(=O)CC[C@]4(C)[C@@H]3CC[C@@]21C)C(C)C
REMARK SMILES IDX 4 1 3 2 2 3 1 4 29 5 30 6 31 7 5 8 6 9 7 10 8 11 9 12 27 13
REMARK SMILES IDX 10 14 11 15 26 16 28 17 12 18 25 19 24 20 13 21 22 22 14 23
REMARK SMILES IDX 16 24 21 25 23 26 15 27 17 28 20 29 18 30 19 31
REMARK H PARENT
REMARK Flexibility Score: inf
ROOT
ATOM      1  C   UNL     1     112.740  88.010  55.883  1.00  0.00     0.004 C 
ENDROOT
BRANCH   1   2
ATOM      2  C   UNL     1     111.309  87.481  56.201  1.00  0.00    -0.009 C 
BRANCH   2   3
ATOM      3  C   UNL     1     110.223  88.405  55.557  1.00  0.00     0.000 C 
ATOM      4  C   UNL     1     110.321  88.440  54.031  1.00  0.00     0.004 C 
ENDBRANCH   2   3
BRANCH   2   5
ATOM      5  C   UNL     1     111.050  87.332  57.742  1.00  0.00    -0.014 C 
ATOM      6  C   UNL     1     109.549  87.493  58.064  1.00  0.00     0.007 C 
ATOM      7  C   UNL     1     111.528  85.987  58.327  1.00  0.00     0.007 C 
ENDBRANCH   2   5
ENDBRANCH   1   2
BRANCH   1   8
ATOM      8  C   UNL     1     113.219  89.125  56.840  1.00  0.00     0.004 C 
BRANCH   8   9
ATOM      9  C   UNL     1     114.518  88.721  57.617  1.00  0.00    -0.011 C 
ATOM     10  C   UNL     1     114.248  88.646  59.125  1.00  0.00     0.008 C 
BRANCH   9  11
ATOM     11  C   UNL     1     115.344  87.491  57.067  1.00  0.00    -0.002 C 
ATOM     12  C   UNL     1     115.294  86.244  57.964  1.00  0.00     0.005 C 
ATOM     13  C   UNL     1     116.836  87.612  56.583  1.00  0.00    -0.026 C 
ATOM     14  C   UNL     1     116.498  85.384  57.601  1.00  0.00     0.005 C 
ATOM     15  C   UNL     1     117.249  86.110  56.476  1.00  0.00    -0.001 C 
ATOM     16  C   UNL     1     117.743  88.437  57.568  1.00  0.00     0.007 C 
ATOM     17  C   UNL     1     116.923  88.236  55.160  1.00  0.00     0.012 C 
ATOM     18  C   UNL     1     118.782  85.779  56.477  1.00  0.00     0.004 C 
ATOM     19  C   UNL     1     118.985  87.705  58.089  1.00  0.00     0.005 C 
ATOM     20  C   UNL     1     119.678  86.945  56.950  1.00  0.00     0.003 C 
ATOM     21  C   UNL     1     119.275  85.313  55.091  1.00  0.00     0.085 C 
ATOM     22  C   UNL     1     121.150  86.459  57.267  1.00  0.00    -0.000 C 
ATOM     23  C   UNL     1     120.753  85.036  55.107  1.00  0.00     0.159 C 
ATOM     24  C   UNL     1     121.557  85.318  56.321  1.00  0.00     0.005 C 
ATOM     25  C   UNL     1     121.294  85.953  58.735  1.00  0.00     0.020 C 
ATOM     26  C   UNL     1     122.116  87.648  57.026  1.00  0.00     0.017 C 
ATOM     27  O   UNL     1     121.294  84.531  54.086  1.00  0.00    -0.295 OA
ATOM     28  C   UNL     1     122.587  84.510  56.625  1.00  0.00     0.055 C 
ATOM     29  C   UNL     1     122.705  85.422  59.048  1.00  0.00     0.081 C 
ATOM     30  C   UNL     1     123.245  84.562  57.941  1.00  0.00     0.156 C 
ATOM     31  O   UNL     1     124.276  83.869  58.144  1.00  0.00    -0.295 OA
ENDBRANCH   9  11
ENDBRANCH   8   9
ENDBRANCH   1   8
TORSDOF 6
ENDMDL
MODEL 2
REMARK VINA RESULT:    -3.492      3.965      9.731
REMARK INTER + INTRA:          -6.379
REMARK INTER:                  -5.272
REMARK INTRA:                  -1.108
REMARK UNBOUND:                -1.662
REMARK SMILES CC[C@@H](CC[C@@H](C)[C@@H]1CC[C@@H]2[C@H]3CC(=O)C4=CC(=O)CC[C@]4(C)[C@@H]3CC[C@@]21C)C(C)C
REMARK SMILES IDX 4 1 3 2 2 3 1 4 29 5 30 6 31 7 5 8 6 9 7 10 8 11 9 12 27 13
REMARK SMILES IDX 10 14 11 15 26 16 28 17 12 18 25 19 24 20 13 21 22 22 14 23
REMARK SMILES IDX 16 24 21 25 23 26 15 27 17 28 20 29 18 30 19 31
REMARK H PARENT
REMARK Flexibility Score: inf
ROOT
ATOM      1  C   UNL     1     119.864  87.041  56.535  1.00  0.00     0.004 C 
ENDROOT
BRANCH   1   2
ATOM      2  C   UNL     1     121.174  87.142  57.373  1.00  0.00    -0.009 C 
BRANCH   2   3
ATOM      3  C   UNL     1     122.201  88.096  56.679  1.00  0.00     0.000 C 
ATOM      4  C   UNL     1     122.725  87.525  55.360  1.00  0.00     0.004 C 
ENDBRANCH   2   3
BRANCH   2   5
ATOM      5  C   UNL     1     121.828  85.740  57.639  1.00  0.00    -0.014 C 
ATOM      6  C   UNL     1     122.289  85.621  59.107  1.00  0.00     0.007 C 
ATOM      7  C   UNL     1     120.900  84.549  57.326  1.00  0.00     0.007 C 
ENDBRANCH   2   5
ENDBRANCH   1   2
BRANCH   1   8
ATOM      8  C   UNL     1     118.749  88.003  57.005  1.00  0.00     0.004 C 
BRANCH   8   9
ATOM      9  C   UNL     1     117.527  87.239  57.618  1.00  0.00    -0.011 C 
ATOM     10  C   UNL     1     117.917  86.560  58.937  1.00  0.00     0.008 C 
BRANCH   9  11
ATOM     11  C   UNL     1     116.149  88.010  57.695  1.00  0.00    -0.002 C 
ATOM     12  C   UNL     1     115.674  88.315  59.125  1.00  0.00     0.005 C 
ATOM     13  C   UNL     1     114.867  87.549  56.906  1.00  0.00    -0.026 C 
ATOM     14  C   UNL     1     114.172  88.559  59.054  1.00  0.00     0.005 C 
ATOM     15  C   UNL     1     113.760  88.418  57.582  1.00  0.00    -0.001 C 
ATOM     16  C   UNL     1     114.596  86.004  57.012  1.00  0.00     0.007 C 
ATOM     17  C   UNL     1     114.948  87.955  55.406  1.00  0.00     0.012 C 
ATOM     18  C   UNL     1     112.273  87.946  57.424  1.00  0.00     0.004 C 
ATOM     19  C   UNL     1     113.218  85.614  57.560  1.00  0.00     0.005 C 
ATOM     20  C   UNL     1     112.123  86.489  56.934  1.00  0.00     0.003 C 
ATOM     21  C   UNL     1     111.469  88.865  56.481  1.00  0.00     0.085 C 
ATOM     22  C   UNL     1     110.647  85.955  57.128  1.00  0.00    -0.000 C 
ATOM     23  C   UNL     1     110.058  88.373  56.316  1.00  0.00     0.159 C 
ATOM     24  C   UNL     1     109.633  87.094  56.935  1.00  0.00     0.005 C 
ATOM     25  C   UNL     1     110.430  85.341  58.546  1.00  0.00     0.020 C 
ATOM     26  C   UNL     1     110.372  84.881  56.044  1.00  0.00     0.017 C 
ATOM     27  O   UNL     1     109.233  89.077  55.674  1.00  0.00    -0.295 OA
ATOM     28  C   UNL     1     108.377  86.980  57.403  1.00  0.00     0.055 C 
ATOM     29  C   UNL     1     108.983  84.868  58.777  1.00  0.00     0.081 C 
ATOM     30  C   UNL     1     107.975  85.858  58.267  1.00  0.00     0.156 C 
ATOM     31  O   UNL     1     106.765  85.729  58.588  1.00  0.00    -0.295 OA
ENDBRANCH   9  11
ENDBRANCH   8   9
ENDBRANCH   1   8
TORSDOF 6
ENDMDL
MODEL 3
REMARK VINA RESULT:    -3.491      4.187     10.079
REMARK INTER + INTRA:          -6.377
REMARK INTER:                  -4.973
REMARK INTRA:                  -1.404
REMARK UNBOUND:                -1.662
REMARK SMILES CC[C@@H](CC[C@@H](C)[C@@H]1CC[C@@H]2[C@H]3CC(=O)C4=CC(=O)CC[C@]4(C)[C@@H]3CC[C@@]21C)C(C)C
REMARK SMILES IDX 4 1 3 2 2 3 1 4 29 5 30 6 31 7 5 8 6 9 7 10 8 11 9 12 27 13
REMARK SMILES IDX 10 14 11 15 26 16 28 17 12 18 25 19 24 20 13 21 22 22 14 23
REMARK SMILES IDX 16 24 21 25 23 26 15 27 17 28 20 29 18 30 19 31
REMARK H PARENT
REMARK Flexibility Score: inf
ROOT
ATOM      1  C   UNL     1     117.913  86.962  57.939  1.00  0.00     0.004 C 
ENDROOT
BRANCH   1   2
ATOM      2  C   UNL     1     119.075  87.998  57.989  1.00  0.00    -0.009 C 
BRANCH   2   3
ATOM      3  C   UNL     1     119.119  88.843  56.674  1.00  0.00     0.000 C 
ATOM      4  C   UNL     1     118.192  88.285  55.593  1.00  0.00     0.004 C 
ENDBRANCH   2   3
BRANCH   2   5
ATOM      5  C   UNL     1     120.470  87.328  58.251  1.00  0.00    -0.014 C 
ATOM      6  C   UNL     1     120.339  85.790  58.295  1.00  0.00     0.007 C 
ATOM      7  C   UNL     1     121.543  87.692  57.205  1.00  0.00     0.007 C 
ENDBRANCH   2   5
ENDBRANCH   1   2
BRANCH   1   8
ATOM      8  C   UNL     1     116.910  87.093  59.108  1.00  0.00     0.004 C 
BRANCH   8   9
ATOM      9  C   UNL     1     115.528  87.662  58.642  1.00  0.00    -0.011 C 
ATOM     10  C   UNL     1     115.663  89.125  58.202  1.00  0.00     0.008 C 
BRANCH   9  11
ATOM     11  C   UNL     1     114.677  86.783  57.641  1.00  0.00    -0.002 C 
ATOM     12  C   UNL     1     114.624  87.331  56.206  1.00  0.00     0.005 C 
ATOM     13  C   UNL     1     113.219  86.289  57.966  1.00  0.00    -0.026 C 
ATOM     14  C   UNL     1     113.404  86.712  55.536  1.00  0.00     0.005 C 
ATOM     15  C   UNL     1     112.745  85.784  56.566  1.00  0.00    -0.001 C 
ATOM     16  C   UNL     1     112.300  87.416  58.563  1.00  0.00     0.007 C 
ATOM     17  C   UNL     1     113.235  85.071  58.935  1.00  0.00     0.012 C 
ATOM     18  C   UNL     1     111.201  85.640  56.333  1.00  0.00     0.004 C 
ATOM     19  C   UNL     1     111.001  87.683  57.794  1.00  0.00     0.005 C 
ATOM     20  C   UNL     1     110.335  86.362  57.389  1.00  0.00     0.003 C 
ATOM     21  C   UNL     1     110.760  84.163  56.264  1.00  0.00     0.085 C 
ATOM     22  C   UNL     1     108.828  86.486  56.923  1.00  0.00    -0.000 C 
ATOM     23  C   UNL     1     109.272  84.050  56.076  1.00  0.00     0.159 C 
ATOM     24  C   UNL     1     108.420  85.263  56.086  1.00  0.00     0.005 C 
ATOM     25  C   UNL     1     108.586  87.768  56.068  1.00  0.00     0.020 C 
ATOM     26  C   UNL     1     107.930  86.521  58.187  1.00  0.00     0.017 C 
ATOM     27  O   UNL     1     108.763  82.913  55.879  1.00  0.00    -0.295 OA
ATOM     28  C   UNL     1     107.340  85.310  55.286  1.00  0.00     0.055 C 
ATOM     29  C   UNL     1     107.138  87.880  55.556  1.00  0.00     0.081 C 
ATOM     30  C   UNL     1     106.618  86.569  55.038  1.00  0.00     0.156 C 
ATOM     31  O   UNL     1     105.548  86.546  54.376  1.00  0.00    -0.295 OA
ENDBRANCH   9  11
ENDBRANCH   8   9
ENDBRANCH   1   8
TORSDOF 6
ENDMDL
MODEL 4
REMARK VINA RESULT:    -3.351      3.066      9.047
REMARK INTER + INTRA:          -6.189
REMARK INTER:                  -4.537
REMARK INTRA:                  -1.652
REMARK UNBOUND:                -1.662
REMARK SMILES CC[C@@H](CC[C@@H](C)[C@@H]1CC[C@@H]2[C@H]3CC(=O)C4=CC(=O)CC[C@]4(C)[C@@H]3CC[C@@]21C)C(C)C
REMARK SMILES IDX 4 1 3 2 2 3 1 4 29 5 30 6 31 7 5 8 6 9 7 10 8 11 9 12 27 13
REMARK SMILES IDX 10 14 11 15 26 16 28 17 12 18 25 19 24 20 13 21 22 22 14 23
REMARK SMILES IDX 16 24 21 25 23 26 15 27 17 28 20 29 18 30 19 31
REMARK H PARENT
REMARK Flexibility Score: inf
ROOT
ATOM      1  C   UNL     1     122.608  86.159  56.283  1.00  0.00     0.004 C 
ENDROOT
BRANCH   1   2
ATOM      2  C   UNL     1     123.449  85.394  55.218  1.00  0.00    -0.009 C 
BRANCH   2   3
ATOM      3  C   UNL     1     122.589  85.092  53.947  1.00  0.00     0.000 C 
ATOM      4  C   UNL     1     123.018  85.930  52.742  1.00  0.00     0.004 C 
ENDBRANCH   2   3
BRANCH   2   5
ATOM      5  C   UNL     1     124.072  84.068  55.781  1.00  0.00    -0.014 C 
ATOM      6  C   UNL     1     124.756  83.263  54.656  1.00  0.00     0.007 C 
ATOM      7  C   UNL     1     125.099  84.291  56.909  1.00  0.00     0.007 C 
ENDBRANCH   2   5
ENDBRANCH   1   2
BRANCH   1   8
ATOM      8  C   UNL     1     122.634  87.695  56.112  1.00  0.00     0.004 C 
BRANCH   8   9
ATOM      9  C   UNL     1     121.227  88.275  55.742  1.00  0.00    -0.011 C 
ATOM     10  C   UNL     1     121.307  89.124  54.468  1.00  0.00     0.008 C 
BRANCH   9  11
ATOM     11  C   UNL     1     120.002  87.276  55.754  1.00  0.00    -0.002 C 
ATOM     12  C   UNL     1     119.304  87.116  54.394  1.00  0.00     0.005 C 
ATOM     13  C   UNL     1     118.848  87.353  56.822  1.00  0.00    -0.026 C 
ATOM     14  C   UNL     1     117.904  86.581  54.670  1.00  0.00     0.005 C 
ATOM     15  C   UNL     1     117.779  86.406  56.190  1.00  0.00    -0.001 C 
ATOM     16  C   UNL     1     118.319  88.815  57.060  1.00  0.00     0.007 C 
ATOM     17  C   UNL     1     119.291  86.739  58.181  1.00  0.00     0.012 C 
ATOM     18  C   UNL     1     116.298  86.554  56.685  1.00  0.00     0.004 C 
ATOM     19  C   UNL     1     116.816  89.015  56.838  1.00  0.00     0.005 C 
ATOM     20  C   UNL     1     116.021  87.860  57.462  1.00  0.00     0.003 C 
ATOM     21  C   UNL     1     115.856  85.361  57.557  1.00  0.00     0.085 C 
ATOM     22  C   UNL     1     114.470  88.125  57.626  1.00  0.00    -0.000 C 
ATOM     23  C   UNL     1     114.447  85.542  58.049  1.00  0.00     0.159 C 
ATOM     24  C   UNL     1     113.709  86.797  57.767  1.00  0.00     0.005 C 
ATOM     25  C   UNL     1     113.879  88.902  56.409  1.00  0.00     0.020 C 
ATOM     26  C   UNL     1     114.252  88.942  58.926  1.00  0.00     0.017 C 
ATOM     27  O   UNL     1     113.889  84.601  58.676  1.00  0.00    -0.295 OA
ATOM     28  C   UNL     1     112.383  86.741  57.549  1.00  0.00     0.055 C 
ATOM     29  C   UNL     1     112.359  89.120  56.521  1.00  0.00     0.081 C 
ATOM     30  C   UNL     1     111.644  87.888  56.996  1.00  0.00     0.156 C 
ATOM     31  O   UNL     1     110.389  87.831  56.915  1.00  0.00    -0.295 OA
ENDBRANCH   9  11
ENDBRANCH   8   9
ENDBRANCH   1   8
TORSDOF 6
ENDMDL
MODEL 5
REMARK VINA RESULT:    -3.233      1.678      3.310
REMARK INTER + INTRA:          -6.029
REMARK INTER:                  -4.854
REMARK INTRA:                  -1.175
REMARK UNBOUND:                -1.662
REMARK SMILES CC[C@@H](CC[C@@H](C)[C@@H]1CC[C@@H]2[C@H]3CC(=O)C4=CC(=O)CC[C@]4(C)[C@@H]3CC[C@@]21C)C(C)C
REMARK SMILES IDX 4 1 3 2 2 3 1 4 29 5 30 6 31 7 5 8 6 9 7 10 8 11 9 12 27 13
REMARK SMILES IDX 10 14 11 15 26 16 28 17 12 18 25 19 24 20 13 21 22 22 14 23
REMARK SMILES IDX 16 24 21 25 23 26 15 27 17 28 20 29 18 30 19 31
REMARK H PARENT
REMARK Flexibility Score: inf
ROOT
ATOM      1  C   UNL     1     110.370  86.824  57.608  1.00  0.00     0.004 C 
ENDROOT
BRANCH   1   2
ATOM      2  C   UNL     1     109.223  87.835  57.313  1.00  0.00    -0.009 C 
BRANCH   2   3
ATOM      3  C   UNL     1     107.846  87.261  57.785  1.00  0.00     0.000 C 
ATOM      4  C   UNL     1     108.000  85.974  58.597  1.00  0.00     0.004 C 
ENDBRANCH   2   3
BRANCH   2   5
ATOM      5  C   UNL     1     109.151  88.241  55.799  1.00  0.00    -0.014 C 
ATOM      6  C   UNL     1     110.054  87.327  54.943  1.00  0.00     0.007 C 
ATOM      7  C   UNL     1     107.727  88.204  55.209  1.00  0.00     0.007 C 
ENDBRANCH   2   5
ENDBRANCH   1   2
BRANCH   1   8
ATOM      8  C   UNL     1     111.495  87.400  58.499  1.00  0.00     0.004 C 
BRANCH   8   9
ATOM      9  C   UNL     1     112.796  87.710  57.683  1.00  0.00    -0.011 C 
ATOM     10  C   UNL     1     112.740  89.122  57.087  1.00  0.00     0.008 C 
BRANCH   9  11
ATOM     11  C   UNL     1     114.181  87.372  58.366  1.00  0.00    -0.002 C 
ATOM     12  C   UNL     1     114.903  88.589  58.968  1.00  0.00     0.005 C 
ATOM     13  C   UNL     1     115.298  86.520  57.656  1.00  0.00    -0.026 C 
ATOM     14  C   UNL     1     116.374  88.218  59.096  1.00  0.00     0.005 C 
ATOM     15  C   UNL     1     116.523  86.776  58.590  1.00  0.00    -0.001 C 
ATOM     16  C   UNL     1     115.553  86.950  56.165  1.00  0.00     0.007 C 
ATOM     17  C   UNL     1     114.967  85.000  57.704  1.00  0.00     0.012 C 
ATOM     18  C   UNL     1     117.950  86.496  58.004  1.00  0.00     0.004 C 
ATOM     19  C   UNL     1     116.996  87.343  55.831  1.00  0.00     0.005 C 
ATOM     20  C   UNL     1     117.984  86.355  56.467  1.00  0.00     0.003 C 
ATOM     21  C   UNL     1     118.597  85.241  58.626  1.00  0.00     0.085 C 
ATOM     22  C   UNL     1     119.461  86.428  55.905  1.00  0.00    -0.000 C 
ATOM     23  C   UNL     1     119.948  84.973  58.025  1.00  0.00     0.159 C 
ATOM     24  C   UNL     1     120.449  85.804  56.903  1.00  0.00     0.005 C 
ATOM     25  C   UNL     1     119.907  87.897  55.628  1.00  0.00     0.020 C 
ATOM     26  C   UNL     1     119.523  85.605  54.592  1.00  0.00     0.017 C 
ATOM     27  O   UNL     1     120.663  84.053  58.507  1.00  0.00    -0.295 OA
ATOM     28  C   UNL     1     121.764  86.073  56.826  1.00  0.00     0.055 C 
ATOM     29  C   UNL     1     121.362  87.996  55.134  1.00  0.00     0.081 C 
ATOM     30  C   UNL     1     122.286  87.105  55.915  1.00  0.00     0.156 C 
ATOM     31  O   UNL     1     123.531  87.246  55.791  1.00  0.00    -0.295 OA
ENDBRANCH   9  11
ENDBRANCH   8   9
ENDBRANCH   1   8
TORSDOF 6
ENDMDL
MODEL 6
REMARK VINA RESULT:    -3.126      4.107      7.310
REMARK INTER + INTRA:          -5.885
REMARK INTER:                  -3.808
REMARK INTRA:                  -2.077
REMARK UNBOUND:                -1.662
REMARK SMILES CC[C@@H](CC[C@@H](C)[C@@H]1CC[C@@H]2[C@H]3CC(=O)C4=CC(=O)CC[C@]4(C)[C@@H]3CC[C@@]21C)C(C)C
REMARK SMILES IDX 4 1 3 2 2 3 1 4 29 5 30 6 31 7 5 8 6 9 7 10 8 11 9 12 27 13
REMARK SMILES IDX 10 14 11 15 26 16 28 17 12 18 25 19 24 20 13 21 22 22 14 23
REMARK SMILES IDX 16 24 21 25 23 26 15 27 17 28 20 29 18 30 19 31
REMARK H PARENT
REMARK Flexibility Score: inf
ROOT
ATOM      1  C   UNL     1     106.224  84.542  54.708  1.00  0.00     0.004 C 
ENDROOT
BRANCH   1   2
ATOM      2  C   UNL     1     105.475  83.662  55.752  1.00  0.00    -0.009 C 
BRANCH   2   3
ATOM      3  C   UNL     1     104.877  84.548  56.894  1.00  0.00     0.000 C 
ATOM      4  C   UNL     1     105.481  84.222  58.261  1.00  0.00     0.004 C 
ENDBRANCH   2   3
BRANCH   2   5
ATOM      5  C   UNL     1     106.388  82.538  56.359  1.00  0.00    -0.014 C 
ATOM      6  C   UNL     1     105.661  81.177  56.348  1.00  0.00     0.007 C 
ATOM      7  C   UNL     1     107.738  82.371  55.633  1.00  0.00     0.007 C 
ENDBRANCH   2   5
ENDBRANCH   1   2
BRANCH   1   8
ATOM      8  C   UNL     1     105.942  86.055  54.850  1.00  0.00     0.004 C 
BRANCH   8   9
ATOM      9  C   UNL     1     107.232  86.867  55.209  1.00  0.00    -0.011 C 
ATOM     10  C   UNL     1     106.869  88.263  55.731  1.00  0.00     0.008 C 
BRANCH   9  11
ATOM     11  C   UNL     1     108.333  86.140  56.080  1.00  0.00    -0.002 C 
ATOM     12  C   UNL     1     108.311  86.518  57.570  1.00  0.00     0.005 C 
ATOM     13  C   UNL     1     109.852  86.093  55.671  1.00  0.00    -0.026 C 
ATOM     14  C   UNL     1     109.684  86.176  58.137  1.00  0.00     0.005 C 
ATOM     15  C   UNL     1     110.511  85.579  56.990  1.00  0.00    -0.001 C 
ATOM     16  C   UNL     1     110.411  87.485  55.199  1.00  0.00     0.007 C 
ATOM     17  C   UNL     1     110.108  85.032  54.562  1.00  0.00     0.012 C 
ATOM     18  C   UNL     1     112.049  85.828  57.176  1.00  0.00     0.004 C 
ATOM     19  C   UNL     1     111.630  88.001  55.971  1.00  0.00     0.005 C 
ATOM     20  C   UNL     1     112.641  86.868  56.200  1.00  0.00     0.003 C 
ATOM     21  C   UNL     1     112.865  84.524  57.057  1.00  0.00     0.085 C 
ATOM     22  C   UNL     1     114.083  87.337  56.650  1.00  0.00    -0.000 C 
ATOM     23  C   UNL     1     114.337  84.792  57.202  1.00  0.00     0.159 C 
ATOM     24  C   UNL     1     114.839  86.182  57.325  1.00  0.00     0.005 C 
ATOM     25  C   UNL     1     114.022  88.533  57.649  1.00  0.00     0.020 C 
ATOM     26  C   UNL     1     114.876  87.753  55.383  1.00  0.00     0.017 C 
ATOM     27  O   UNL     1     115.137  83.818  57.251  1.00  0.00    -0.295 OA
ATOM     28  C   UNL     1     115.907  86.425  58.104  1.00  0.00     0.055 C 
ATOM     29  C   UNL     1     115.413  88.969  58.145  1.00  0.00     0.081 C 
ATOM     30  C   UNL     1     116.284  87.794  58.490  1.00  0.00     0.156 C 
ATOM     31  O   UNL     1     117.354  87.984  59.125  1.00  0.00    -0.295 OA
ENDBRANCH   9  11
ENDBRANCH   8   9
ENDBRANCH   1   8
TORSDOF 6
ENDMDL
MODEL 7
REMARK VINA RESULT:    -3.122      3.225      9.031
REMARK INTER + INTRA:          -5.879
REMARK INTER:                  -4.064
REMARK INTRA:                  -1.815
REMARK UNBOUND:                -1.662
REMARK SMILES CC[C@@H](CC[C@@H](C)[C@@H]1CC[C@@H]2[C@H]3CC(=O)C4=CC(=O)CC[C@]4(C)[C@@H]3CC[C@@]21C)C(C)C
REMARK SMILES IDX 4 1 3 2 2 3 1 4 29 5 30 6 31 7 5 8 6 9 7 10 8 11 9 12 27 13
REMARK SMILES IDX 10 14 11 15 26 16 28 17 12 18 25 19 24 20 13 21 22 22 14 23
REMARK SMILES IDX 16 24 21 25 23 26 15 27 17 28 20 29 18 30 19 31
REMARK H PARENT
REMARK Flexibility Score: inf
ROOT
ATOM      1  C   UNL     1     121.419  85.967  55.669  1.00  0.00     0.004 C 
ENDROOT
BRANCH   1   2
ATOM      2  C   UNL     1     122.603  86.918  56.019  1.00  0.00    -0.009 C 
BRANCH   2   3
ATOM      3  C   UNL     1     122.083  88.367  56.295  1.00  0.00     0.000 C 
ATOM      4  C   UNL     1     121.072  88.832  55.246  1.00  0.00     0.004 C 
ENDBRANCH   2   3
BRANCH   2   5
ATOM      5  C   UNL     1     123.708  86.940  54.904  1.00  0.00    -0.014 C 
ATOM      6  C   UNL     1     124.948  86.134  55.346  1.00  0.00     0.007 C 
ATOM      7  C   UNL     1     123.234  86.391  53.544  1.00  0.00     0.007 C 
ENDBRANCH   2   5
ENDBRANCH   1   2
BRANCH   1   8
ATOM      8  C   UNL     1     121.066  84.971  56.797  1.00  0.00     0.004 C 
BRANCH   8   9
ATOM      9  C   UNL     1     119.928  85.511  57.729  1.00  0.00    -0.011 C 
ATOM     10  C   UNL     1     120.495  85.929  59.091  1.00  0.00     0.008 C 
BRANCH   9  11
ATOM     11  C   UNL     1     118.925  86.568  57.117  1.00  0.00    -0.002 C 
ATOM     12  C   UNL     1     118.671  87.791  58.012  1.00  0.00     0.005 C 
ATOM     13  C   UNL     1     117.522  86.170  56.525  1.00  0.00    -0.026 C 
ATOM     14  C   UNL     1     117.354  88.410  57.560  1.00  0.00     0.005 C 
ATOM     15  C   UNL     1     116.839  87.567  56.385  1.00  0.00    -0.001 C 
ATOM     16  C   UNL     1     116.721  85.176  57.443  1.00  0.00     0.007 C 
ATOM     17  C   UNL     1     117.659  85.558  55.101  1.00  0.00     0.012 C 
ATOM     18  C   UNL     1     115.275  87.600  56.273  1.00  0.00     0.004 C 
ATOM     19  C   UNL     1     115.328  85.652  57.870  1.00  0.00     0.005 C 
ATOM     20  C   UNL     1     114.586  86.279  56.682  1.00  0.00     0.003 C 
ATOM     21  C   UNL     1     114.803  87.980  54.854  1.00  0.00     0.085 C 
ATOM     22  C   UNL     1     113.029  86.472  56.889  1.00  0.00    -0.000 C 
ATOM     23  C   UNL     1     113.303  87.970  54.760  1.00  0.00     0.159 C 
ATOM     24  C   UNL     1     112.482  87.525  55.913  1.00  0.00     0.005 C 
ATOM     25  C   UNL     1     112.686  86.924  58.342  1.00  0.00     0.020 C 
ATOM     26  C   UNL     1     112.328  85.123  56.581  1.00  0.00     0.017 C 
ATOM     27  O   UNL     1     112.750  88.375  53.702  1.00  0.00    -0.295 OA
ATOM     28  C   UNL     1     111.297  88.119  56.139  1.00  0.00     0.055 C 
ATOM     29  C   UNL     1     111.181  87.173  58.550  1.00  0.00     0.081 C 
ATOM     30  C   UNL     1     110.568  87.927  57.404  1.00  0.00     0.156 C 
ATOM     31  O   UNL     1     109.412  88.409  57.529  1.00  0.00    -0.295 OA
ENDBRANCH   9  11
ENDBRANCH   8   9
ENDBRANCH   1   8
TORSDOF 6
ENDMDL
MODEL 8
REMARK VINA RESULT:    -3.115      3.532      9.028
REMARK INTER + INTRA:          -5.870
REMARK INTER:                  -3.889
REMARK INTRA:                  -1.981
REMARK UNBOUND:                -1.662
REMARK SMILES CC[C@@H](CC[C@@H](C)[C@@H]1CC[C@@H]2[C@H]3CC(=O)C4=CC(=O)CC[C@]4(C)[C@@H]3CC[C@@]21C)C(C)C
REMARK SMILES IDX 4 1 3 2 2 3 1 4 29 5 30 6 31 7 5 8 6 9 7 10 8 11 9 12 27 13
REMARK SMILES IDX 10 14 11 15 26 16 28 17 12 18 25 19 24 20 13 21 22 22 14 23
REMARK SMILES IDX 16 24 21 25 23 26 15 27 17 28 20 29 18 30 19 31
REMARK H PARENT
REMARK Flexibility Score: inf
ROOT
ATOM      1  C   UNL     1     120.030  86.073  55.689  1.00  0.00     0.004 C 
ENDROOT
BRANCH   1   2
ATOM      2  C   UNL     1     121.194  87.100  55.817  1.00  0.00    -0.009 C 
BRANCH   2   3
ATOM      3  C   UNL     1     122.386  86.487  56.623  1.00  0.00     0.000 C 
ATOM      4  C   UNL     1     123.483  85.936  55.711  1.00  0.00     0.004 C 
ENDBRANCH   2   3
BRANCH   2   5
ATOM      5  C   UNL     1     120.736  88.452  56.469  1.00  0.00    -0.014 C 
ATOM      6  C   UNL     1     119.403  88.932  55.856  1.00  0.00     0.007 C 
ATOM      7  C   UNL     1     120.566  88.380  58.000  1.00  0.00     0.007 C 
ENDBRANCH   2   5
ENDBRANCH   1   2
BRANCH   1   8
ATOM      8  C   UNL     1     120.043  84.977  56.779  1.00  0.00     0.004 C 
BRANCH   8   9
ATOM      9  C   UNL     1     118.725  84.969  57.625  1.00  0.00    -0.011 C 
ATOM     10  C   UNL     1     119.027  84.671  59.099  1.00  0.00     0.008 C 
BRANCH   9  11
ATOM     11  C   UNL     1     117.721  86.173  57.423  1.00  0.00    -0.002 C 
ATOM     12  C   UNL     1     117.389  86.943  58.711  1.00  0.00     0.005 C 
ATOM     13  C   UNL     1     116.359  86.028  56.647  1.00  0.00    -0.026 C 
ATOM     14  C   UNL     1     116.078  87.679  58.466  1.00  0.00     0.005 C 
ATOM     15  C   UNL     1     115.643  87.362  57.029  1.00  0.00    -0.001 C 
ATOM     16  C   UNL     1     115.545  84.746  57.055  1.00  0.00     0.007 C 
ATOM     17  C   UNL     1     116.581  86.026  55.106  1.00  0.00     0.012 C 
ATOM     18  C   UNL     1     114.085  87.423  56.852  1.00  0.00     0.004 C 
ATOM     19  C   UNL     1     114.120  85.004  57.558  1.00  0.00     0.005 C 
ATOM     20  C   UNL     1     113.417  86.042  56.672  1.00  0.00     0.003 C 
ATOM     21  C   UNL     1     113.670  88.326  55.673  1.00  0.00     0.085 C 
ATOM     22  C   UNL     1     111.847  86.124  56.853  1.00  0.00    -0.000 C 
ATOM     23  C   UNL     1     112.177  88.341  55.501  1.00  0.00     0.159 C 
ATOM     24  C   UNL     1     111.316  87.472  56.340  1.00  0.00     0.005 C 
ATOM     25  C   UNL     1     111.423  85.966  58.345  1.00  0.00     0.020 C 
ATOM     26  C   UNL     1     111.201  85.000  56.002  1.00  0.00     0.017 C 
ATOM     27  O   UNL     1     111.663  89.125  54.657  1.00  0.00    -0.295 OA
ATOM     28  C   UNL     1     110.105  87.919  56.715  1.00  0.00     0.055 C 
ATOM     29  C   UNL     1     109.903  86.101  58.551  1.00  0.00     0.081 C 
ATOM     30  C   UNL     1     109.323  87.239  57.761  1.00  0.00     0.156 C 
ATOM     31  O   UNL     1     108.149  87.623  58.002  1.00  0.00    -0.295 OA
ENDBRANCH   9  11
ENDBRANCH   8   9
ENDBRANCH   1   8
TORSDOF 6
ENDMDL
