MODEL 1
REMARK VINA RESULT:    -5.521      0.000      0.000
REMARK INTER + INTRA:          -8.738
REMARK INTER:                  -8.103
REMARK INTRA:                  -0.635
REMARK UNBOUND:                -0.635
REMARK SMILES O=c1c(O[C@H]2O[C@H](CO)[C@H](O)[C@@H](O)[C@@H]2O)c(-c2ccc(O)c(O)c2)oc2cc(O)cc(O)c12
REMARK SMILES IDX 4 1 3 2 16 3 25 4 2 5 26 6 1 7 33 8 27 9 31 10 28 11 30 12
REMARK SMILES IDX 17 13 18 14 19 15 20 16 24 17 22 18 21 19 23 21 32 23 29 25
REMARK SMILES IDX 5 27 14 28 6 29 12 30 7 31 10 32 15 33 13 35 8 37 9 38 11 40
REMARK H PARENT 21 20 23 22 32 24 29 26 15 34 13 36 9 39 11 41
REMARK Flexibility Score: inf
ROOT
ATOM      1  O   UNL     1     -11.941  10.071   6.740  1.00  0.00    -0.454 OA
ENDROOT
BRANCH   1   2
ATOM      2  C   UNL     1     -11.678   8.695   6.775  1.00  0.00     0.214 A 
ATOM      3  C   UNL     1     -10.384   8.245   6.481  1.00  0.00     0.180 A 
ATOM      4  O   UNL     1     -10.113   6.944   6.460  1.00  0.00    -0.452 OA
ATOM      5  C   UNL     1     -12.671   7.753   7.082  1.00  0.00     0.239 A 
ATOM      6  C   UNL     1     -11.023   6.013   6.737  1.00  0.00     0.146 A 
ATOM      7  O   UNL     1     -13.830   8.145   7.374  1.00  0.00    -0.285 OA
ATOM      8  C   UNL     1     -12.352   6.379   7.066  1.00  0.00     0.111 A 
ATOM      9  C   UNL     1     -10.654   4.664   6.699  1.00  0.00     0.094 A 
ATOM     10  C   UNL     1     -13.294   5.365   7.358  1.00  0.00     0.134 A 
ATOM     11  C   UNL     1     -11.597   3.668   6.974  1.00  0.00     0.123 A 
ATOM     12  C   UNL     1     -12.908   4.020   7.300  1.00  0.00     0.093 A 
BRANCH   3  13
ATOM     13  C   UNL     1      -9.324   9.211   6.157  1.00  0.00     0.025 A 
ATOM     14  C   UNL     1      -8.544   9.038   5.005  1.00  0.00     0.016 A 
ATOM     15  C   UNL     1      -7.477   9.898   4.747  1.00  0.00     0.051 A 
ATOM     16  C   UNL     1      -7.173  10.938   5.640  1.00  0.00     0.157 A 
ATOM     17  C   UNL     1      -9.035  10.261   7.041  1.00  0.00     0.062 A 
ATOM     18  C   UNL     1      -7.957  11.118   6.794  1.00  0.00     0.158 A 
BRANCH  16  19
ATOM     19  O   UNL     1      -6.092  11.781   5.395  1.00  0.00    -0.504 OA
ATOM     20  H   UNL     1      -6.183  12.601   4.805  1.00  0.00     0.293 HD
ENDBRANCH  16  19
BRANCH  18  21
ATOM     21  O   UNL     1      -7.657  12.125   7.718  1.00  0.00    -0.504 OA
ATOM     22  H   UNL     1      -8.011  12.104   8.669  1.00  0.00     0.293 HD
ENDBRANCH  18  21
ENDBRANCH   3  13
BRANCH  10  23
ATOM     23  O   UNL     1     -14.610   5.684   7.708  1.00  0.00    -0.507 OA
ATOM     24  H   UNL     1     -15.129   6.411   7.226  1.00  0.00     0.293 HD
ENDBRANCH  10  23
BRANCH  11  25
ATOM     25  O   UNL     1     -11.244   2.322   6.929  1.00  0.00    -0.508 OA
ATOM     26  H   UNL     1     -10.427   1.965   7.406  1.00  0.00     0.293 HD
ENDBRANCH  11  25
ENDBRANCH   1   2
BRANCH   1  27
ATOM     27  C   UNL     1     -12.509  10.731   5.610  1.00  0.00     0.339 C 
ATOM     28  C   UNL     1     -14.050  10.787   5.807  1.00  0.00     0.214 C 
ATOM     29  O   UNL     1     -12.128  10.026   4.437  1.00  0.00    -0.332 OA
ATOM     30  C   UNL     1     -14.793  10.047   4.684  1.00  0.00     0.180 C 
ATOM     31  C   UNL     1     -12.731  10.544   3.258  1.00  0.00     0.179 C 
ATOM     32  C   UNL     1     -14.295  10.519   3.310  1.00  0.00     0.177 C 
BRANCH  28  33
ATOM     33  O   UNL     1     -14.480  12.125   5.848  1.00  0.00    -0.384 OA
ATOM     34  H   UNL     1     -14.478  12.457   4.912  1.00  0.00     0.211 HD
ENDBRANCH  28  33
BRANCH  30  35
ATOM     35  O   UNL     1     -14.585   8.660   4.799  1.00  0.00    -0.387 OA
ATOM     36  H   UNL     1     -13.820   8.433   4.206  1.00  0.00     0.211 HD
ENDBRANCH  30  35
BRANCH  31  37
ATOM     37  C   UNL     1     -12.079  11.870   2.794  1.00  0.00     0.191 C 
BRANCH  37  38
ATOM     38  O   UNL     1     -11.393  11.720   1.580  1.00  0.00    -0.394 OA
ATOM     39  H   UNL     1     -11.398  10.748   1.375  1.00  0.00     0.210 HD
ENDBRANCH  37  38
ENDBRANCH  31  37
BRANCH  32  40
ATOM     40  O   UNL     1     -14.859  11.776   3.019  1.00  0.00    -0.387 OA
ATOM     41  H   UNL     1     -14.462  12.427   3.656  1.00  0.00     0.211 HD
ENDBRANCH  32  40
ENDBRANCH   1  27
TORSDOF 12
ENDMDL
MODEL 2
REMARK VINA RESULT:    -5.521      0.992      1.533
REMARK INTER + INTRA:          -8.738
REMARK INTER:                  -8.206
REMARK INTRA:                  -0.533
REMARK UNBOUND:                -0.635
REMARK SMILES O=c1c(O[C@H]2O[C@H](CO)[C@H](O)[C@@H](O)[C@@H]2O)c(-c2ccc(O)c(O)c2)oc2cc(O)cc(O)c12
REMARK SMILES IDX 4 1 3 2 16 3 25 4 2 5 26 6 1 7 33 8 27 9 31 10 28 11 30 12
REMARK SMILES IDX 17 13 18 14 19 15 20 16 24 17 22 18 21 19 23 21 32 23 29 25
REMARK SMILES IDX 5 27 14 28 6 29 12 30 7 31 10 32 15 33 13 35 8 37 9 38 11 40
REMARK H PARENT 21 20 23 22 32 24 29 26 15 34 13 36 9 39 11 41
REMARK Flexibility Score: inf
ROOT
ATOM      1  O   UNL     1     -11.990   9.582   6.218  1.00  0.00    -0.454 OA
ENDROOT
BRANCH   1   2
ATOM      2  C   UNL     1     -11.618   8.256   6.475  1.00  0.00     0.214 A 
ATOM      3  C   UNL     1     -10.261   7.910   6.421  1.00  0.00     0.180 A 
ATOM      4  O   UNL     1      -9.880   6.652   6.616  1.00  0.00    -0.452 OA
ATOM      5  C   UNL     1     -12.560   7.261   6.773  1.00  0.00     0.239 A 
ATOM      6  C   UNL     1     -10.737   5.673   6.893  1.00  0.00     0.146 A 
ATOM      7  O   UNL     1     -13.780   7.563   6.851  1.00  0.00    -0.285 OA
ATOM      8  C   UNL     1     -12.127   5.936   6.987  1.00  0.00     0.111 A 
ATOM      9  C   UNL     1     -10.253   4.375   7.090  1.00  0.00     0.094 A 
ATOM     10  C   UNL     1     -13.011   4.873   7.287  1.00  0.00     0.134 A 
ATOM     11  C   UNL     1     -11.137   3.328   7.370  1.00  0.00     0.123 A 
ATOM     12  C   UNL     1     -12.507   3.580   7.466  1.00  0.00     0.093 A 
BRANCH   3  13
ATOM     13  C   UNL     1      -9.252   8.934   6.113  1.00  0.00     0.025 A 
ATOM     14  C   UNL     1      -8.332   8.723   5.077  1.00  0.00     0.016 A 
ATOM     15  C   UNL     1      -7.314   9.649   4.846  1.00  0.00     0.051 A 
ATOM     16  C   UNL     1      -7.201  10.793   5.651  1.00  0.00     0.157 A 
ATOM     17  C   UNL     1      -9.153  10.085   6.908  1.00  0.00     0.062 A 
ATOM     18  C   UNL     1      -8.125  11.010   6.688  1.00  0.00     0.158 A 
BRANCH  16  19
ATOM     19  O   UNL     1      -6.170  11.704   5.436  1.00  0.00    -0.504 OA
ATOM     20  H   UNL     1      -5.257  11.404   5.114  1.00  0.00     0.293 HD
ENDBRANCH  16  19
BRANCH  18  21
ATOM     21  O   UNL     1      -8.017  12.124   7.528  1.00  0.00    -0.504 OA
ATOM     22  H   UNL     1      -8.832  12.580   7.924  1.00  0.00     0.293 HD
ENDBRANCH  18  21
ENDBRANCH   3  13
BRANCH  10  23
ATOM     23  O   UNL     1     -14.386   5.095   7.411  1.00  0.00    -0.507 OA
ATOM     24  H   UNL     1     -14.982   5.215   6.599  1.00  0.00     0.293 HD
ENDBRANCH  10  23
BRANCH  11  25
ATOM     25  O   UNL     1     -10.668   2.031   7.557  1.00  0.00    -0.508 OA
ATOM     26  H   UNL     1     -10.025   1.795   8.301  1.00  0.00     0.293 HD
ENDBRANCH  11  25
ENDBRANCH   1   2
BRANCH   1  27
ATOM     27  C   UNL     1     -12.437  10.035   4.941  1.00  0.00     0.339 C 
ATOM     28  C   UNL     1     -12.477  11.590   4.967  1.00  0.00     0.214 C 
ATOM     29  O   UNL     1     -13.705   9.455   4.674  1.00  0.00    -0.332 OA
ATOM     30  C   UNL     1     -13.895  12.125   4.711  1.00  0.00     0.180 C 
ATOM     31  C   UNL     1     -14.288   9.927   3.465  1.00  0.00     0.179 C 
ATOM     32  C   UNL     1     -14.491  11.479   3.451  1.00  0.00     0.177 C 
BRANCH  28  33
ATOM     33  O   UNL     1     -11.600  12.109   3.998  1.00  0.00    -0.384 OA
ATOM     34  H   UNL     1     -10.929  12.659   4.482  1.00  0.00     0.211 HD
ENDBRANCH  28  33
BRANCH  30  35
ATOM     35  O   UNL     1     -14.724  11.843   5.812  1.00  0.00    -0.387 OA
ATOM     36  H   UNL     1     -15.629  12.188   5.588  1.00  0.00     0.211 HD
ENDBRANCH  30  35
BRANCH  31  37
ATOM     37  C   UNL     1     -13.628   9.308   2.209  1.00  0.00     0.191 C 
BRANCH  37  38
ATOM     38  O   UNL     1     -14.184   8.062   1.885  1.00  0.00    -0.394 OA
ATOM     39  H   UNL     1     -14.908   7.899   2.545  1.00  0.00     0.210 HD
ENDBRANCH  37  38
ENDBRANCH  31  37
BRANCH  32  40
ATOM     40  O   UNL     1     -13.927  12.081   2.310  1.00  0.00    -0.387 OA
ATOM     41  H   UNL     1     -14.254  13.019   2.285  1.00  0.00     0.211 HD
ENDBRANCH  32  40
ENDBRANCH   1  27
TORSDOF 12
ENDMDL
MODEL 3
REMARK VINA RESULT:    -5.472      1.974      6.088
REMARK INTER + INTRA:          -8.666
REMARK INTER:                  -7.918
REMARK INTRA:                  -0.748
REMARK UNBOUND:                -0.635
REMARK SMILES O=c1c(O[C@H]2O[C@H](CO)[C@H](O)[C@@H](O)[C@@H]2O)c(-c2ccc(O)c(O)c2)oc2cc(O)cc(O)c12
REMARK SMILES IDX 4 1 3 2 16 3 25 4 2 5 26 6 1 7 33 8 27 9 31 10 28 11 30 12
REMARK SMILES IDX 17 13 18 14 19 15 20 16 24 17 22 18 21 19 23 21 32 23 29 25
REMARK SMILES IDX 5 27 14 28 6 29 12 30 7 31 10 32 15 33 13 35 8 37 9 38 11 40
REMARK H PARENT 21 20 23 22 32 24 29 26 15 34 13 36 9 39 11 41
REMARK Flexibility Score: inf
ROOT
ATOM      1  O   UNL     1     -11.768   8.281   5.966  1.00  0.00    -0.454 OA
ENDROOT
BRANCH   1   2
ATOM      2  C   UNL     1     -10.384   8.481   6.063  1.00  0.00     0.214 A 
ATOM      3  C   UNL     1      -9.583   7.444   6.558  1.00  0.00     0.180 A 
ATOM      4  O   UNL     1      -8.273   7.617   6.705  1.00  0.00    -0.452 OA
ATOM      5  C   UNL     1      -9.778   9.690   5.695  1.00  0.00     0.239 A 
ATOM      6  C   UNL     1      -7.654   8.748   6.376  1.00  0.00     0.146 A 
ATOM      7  O   UNL     1     -10.482  10.621   5.224  1.00  0.00    -0.285 OA
ATOM      8  C   UNL     1      -8.384   9.843   5.850  1.00  0.00     0.111 A 
ATOM      9  C   UNL     1      -6.271   8.848   6.558  1.00  0.00     0.094 A 
ATOM     10  C   UNL     1      -7.695  11.030   5.507  1.00  0.00     0.134 A 
ATOM     11  C   UNL     1      -5.600  10.031   6.231  1.00  0.00     0.123 A 
ATOM     12  C   UNL     1      -6.312  11.114   5.710  1.00  0.00     0.093 A 
BRANCH   3  13
ATOM     13  C   UNL     1     -10.193   6.164   6.951  1.00  0.00     0.025 A 
ATOM     14  C   UNL     1     -10.265   5.807   8.304  1.00  0.00     0.016 A 
ATOM     15  C   UNL     1     -10.755   4.554   8.672  1.00  0.00     0.051 A 
ATOM     16  C   UNL     1     -11.174   3.642   7.690  1.00  0.00     0.157 A 
ATOM     17  C   UNL     1     -10.628   5.262   5.969  1.00  0.00     0.062 A 
ATOM     18  C   UNL     1     -11.108   3.999   6.332  1.00  0.00     0.158 A 
BRANCH  16  19
ATOM     19  O   UNL     1     -11.640   2.381   8.057  1.00  0.00    -0.504 OA
ATOM     20  H   UNL     1     -11.264   1.536   7.640  1.00  0.00     0.293 HD
ENDBRANCH  16  19
BRANCH  18  21
ATOM     21  O   UNL     1     -11.487   3.097   5.332  1.00  0.00    -0.504 OA
ATOM     22  H   UNL     1     -12.451   2.805   5.208  1.00  0.00     0.293 HD
ENDBRANCH  18  21
ENDBRANCH   3  13
BRANCH  10  23
ATOM     23  O   UNL     1      -8.373  12.125   4.964  1.00  0.00    -0.507 OA
ATOM     24  H   UNL     1      -8.322  13.047   5.385  1.00  0.00     0.293 HD
ENDBRANCH  10  23
BRANCH  11  25
ATOM     25  O   UNL     1      -4.226  10.145   6.418  1.00  0.00    -0.508 OA
ATOM     26  H   UNL     1      -3.747   9.678   7.176  1.00  0.00     0.293 HD
ENDBRANCH  11  25
ENDBRANCH   1   2
BRANCH   1  27
ATOM     27  C   UNL     1     -12.729   9.260   6.357  1.00  0.00     0.339 C 
ATOM     28  C   UNL     1     -12.631   9.444   7.898  1.00  0.00     0.214 C 
ATOM     29  O   UNL     1     -14.013   8.826   5.933  1.00  0.00    -0.332 OA
ATOM     30  C   UNL     1     -13.955   9.095   8.596  1.00  0.00     0.180 C 
ATOM     31  C   UNL     1     -15.061   9.685   6.368  1.00  0.00     0.179 C 
ATOM     32  C   UNL     1     -15.125   9.830   7.926  1.00  0.00     0.177 C 
BRANCH  28  33
ATOM     33  O   UNL     1     -12.280  10.771   8.201  1.00  0.00    -0.384 OA
ATOM     34  H   UNL     1     -11.840  10.757   9.091  1.00  0.00     0.211 HD
ENDBRANCH  28  33
BRANCH  30  35
ATOM     35  O   UNL     1     -14.183   7.707   8.533  1.00  0.00    -0.387 OA
ATOM     36  H   UNL     1     -15.075   7.581   8.113  1.00  0.00     0.211 HD
ENDBRANCH  30  35
BRANCH  31  37
ATOM     37  C   UNL     1     -15.125  10.999   5.552  1.00  0.00     0.191 C 
BRANCH  37  38
ATOM     38  O   UNL     1     -13.995  11.803   5.761  1.00  0.00    -0.394 OA
ATOM     39  H   UNL     1     -13.758  12.188   4.877  1.00  0.00     0.210 HD
ENDBRANCH  37  38
ENDBRANCH  31  37
BRANCH  32  40
ATOM     40  O   UNL     1     -15.124  11.176   8.337  1.00  0.00    -0.387 OA
ATOM     41  H   UNL     1     -14.550  11.232   9.147  1.00  0.00     0.211 HD
ENDBRANCH  32  40
ENDBRANCH   1  27
TORSDOF 12
ENDMDL
MODEL 4
REMARK VINA RESULT:    -5.342      2.014      6.420
REMARK INTER + INTRA:          -8.476
REMARK INTER:                  -8.067
REMARK INTRA:                  -0.409
REMARK UNBOUND:                -0.635
REMARK SMILES O=c1c(O[C@H]2O[C@H](CO)[C@H](O)[C@@H](O)[C@@H]2O)c(-c2ccc(O)c(O)c2)oc2cc(O)cc(O)c12
REMARK SMILES IDX 4 1 3 2 16 3 25 4 2 5 26 6 1 7 33 8 27 9 31 10 28 11 30 12
REMARK SMILES IDX 17 13 18 14 19 15 20 16 24 17 22 18 21 19 23 21 32 23 29 25
REMARK SMILES IDX 5 27 14 28 6 29 12 30 7 31 10 32 15 33 13 35 8 37 9 38 11 40
REMARK H PARENT 21 20 23 22 32 24 29 26 15 34 13 36 9 39 11 41
REMARK Flexibility Score: inf
ROOT
ATOM      1  O   UNL     1     -11.970   8.173   5.739  1.00  0.00    -0.454 OA
ENDROOT
BRANCH   1   2
ATOM      2  C   UNL     1     -10.610   8.440   5.943  1.00  0.00     0.214 A 
ATOM      3  C   UNL     1      -9.810   7.461   6.547  1.00  0.00     0.180 A 
ATOM      4  O   UNL     1      -8.527   7.701   6.796  1.00  0.00    -0.452 OA
ATOM      5  C   UNL     1     -10.026   9.660   5.573  1.00  0.00     0.239 A 
ATOM      6  C   UNL     1      -7.930   8.844   6.470  1.00  0.00     0.146 A 
ATOM      7  O   UNL     1     -10.726  10.538   5.004  1.00  0.00    -0.285 OA
ATOM      8  C   UNL     1      -8.658   9.883   5.837  1.00  0.00     0.111 A 
ATOM      9  C   UNL     1      -6.573   9.015   6.762  1.00  0.00     0.094 A 
ATOM     10  C   UNL     1      -7.993  11.085   5.501  1.00  0.00     0.134 A 
ATOM     11  C   UNL     1      -5.927  10.213   6.440  1.00  0.00     0.123 A 
ATOM     12  C   UNL     1      -6.637  11.240   5.814  1.00  0.00     0.093 A 
BRANCH   3  13
ATOM     13  C   UNL     1     -10.397   6.173   6.945  1.00  0.00     0.025 A 
ATOM     14  C   UNL     1     -10.265   5.718   8.263  1.00  0.00     0.016 A 
ATOM     15  C   UNL     1     -10.737   4.454   8.618  1.00  0.00     0.051 A 
ATOM     16  C   UNL     1     -11.341   3.628   7.657  1.00  0.00     0.157 A 
ATOM     17  C   UNL     1     -11.017   5.357   5.986  1.00  0.00     0.062 A 
ATOM     18  C   UNL     1     -11.480   4.083   6.334  1.00  0.00     0.158 A 
BRANCH  16  19
ATOM     19  O   UNL     1     -11.789   2.356   8.005  1.00  0.00    -0.504 OA
ATOM     20  H   UNL     1     -11.239   1.528   7.806  1.00  0.00     0.293 HD
ENDBRANCH  16  19
BRANCH  18  21
ATOM     21  O   UNL     1     -12.047   3.269   5.348  1.00  0.00    -0.504 OA
ATOM     22  H   UNL     1     -11.612   3.142   4.440  1.00  0.00     0.293 HD
ENDBRANCH  18  21
ENDBRANCH   3  13
BRANCH  10  23
ATOM     23  O   UNL     1      -8.668  12.125   4.855  1.00  0.00    -0.507 OA
ATOM     24  H   UNL     1      -9.604  12.002   4.482  1.00  0.00     0.293 HD
ENDBRANCH  10  23
BRANCH  11  25
ATOM     25  O   UNL     1      -4.580  10.398   6.735  1.00  0.00    -0.508 OA
ATOM     26  H   UNL     1      -4.164  11.318   6.791  1.00  0.00     0.293 HD
ENDBRANCH  11  25
ENDBRANCH   1   2
BRANCH   1  27
ATOM     27  C   UNL     1     -12.992   8.577   6.650  1.00  0.00     0.339 C 
ATOM     28  C   UNL     1     -13.321  10.072   6.374  1.00  0.00     0.214 C 
ATOM     29  O   UNL     1     -12.532   8.348   7.974  1.00  0.00    -0.332 OA
ATOM     30  C   UNL     1     -13.053  10.948   7.607  1.00  0.00     0.180 C 
ATOM     31  C   UNL     1     -13.439   8.817   8.965  1.00  0.00     0.179 C 
ATOM     32  C   UNL     1     -13.732  10.350   8.848  1.00  0.00     0.177 C 
BRANCH  28  33
ATOM     33  O   UNL     1     -14.668  10.203   5.992  1.00  0.00    -0.384 OA
ATOM     34  H   UNL     1     -15.213   9.782   6.707  1.00  0.00     0.211 HD
ENDBRANCH  28  33
BRANCH  30  35
ATOM     35  O   UNL     1     -11.668  11.045   7.840  1.00  0.00    -0.387 OA
ATOM     36  H   UNL     1     -11.540  11.749   8.530  1.00  0.00     0.211 HD
ENDBRANCH  30  35
BRANCH  31  37
ATOM     37  C   UNL     1     -14.670   7.891   9.125  1.00  0.00     0.191 C 
BRANCH  37  38
ATOM     38  O   UNL     1     -14.316   6.535   9.085  1.00  0.00    -0.394 OA
ATOM     39  H   UNL     1     -13.397   6.476   9.458  1.00  0.00     0.210 HD
ENDBRANCH  37  38
ENDBRANCH  31  37
BRANCH  32  40
ATOM     40  O   UNL     1     -15.112  10.628   8.801  1.00  0.00    -0.387 OA
ATOM     41  H   UNL     1     -15.214  11.610   8.906  1.00  0.00     0.211 HD
ENDBRANCH  32  40
ENDBRANCH   1  27
TORSDOF 12
ENDMDL
MODEL 5
REMARK VINA RESULT:    -5.204      1.731      5.974
REMARK INTER + INTRA:          -8.273
REMARK INTER:                  -7.950
REMARK INTRA:                  -0.324
REMARK UNBOUND:                -0.635
REMARK SMILES O=c1c(O[C@H]2O[C@H](CO)[C@H](O)[C@@H](O)[C@@H]2O)c(-c2ccc(O)c(O)c2)oc2cc(O)cc(O)c12
REMARK SMILES IDX 4 1 3 2 16 3 25 4 2 5 26 6 1 7 33 8 27 9 31 10 28 11 30 12
REMARK SMILES IDX 17 13 18 14 19 15 20 16 24 17 22 18 21 19 23 21 32 23 29 25
REMARK SMILES IDX 5 27 14 28 6 29 12 30 7 31 10 32 15 33 13 35 8 37 9 38 11 40
REMARK H PARENT 21 20 23 22 32 24 29 26 15 34 13 36 9 39 11 41
REMARK Flexibility Score: inf
ROOT
ATOM      1  O   UNL     1     -11.215   7.903   7.001  1.00  0.00    -0.454 OA
ENDROOT
BRANCH   1   2
ATOM      2  C   UNL     1     -11.674   8.736   5.972  1.00  0.00     0.214 A 
ATOM      3  C   UNL     1     -10.986   9.928   5.707  1.00  0.00     0.180 A 
ATOM      4  O   UNL     1     -11.422  10.762   4.769  1.00  0.00    -0.452 OA
ATOM      5  C   UNL     1     -12.807   8.423   5.208  1.00  0.00     0.239 A 
ATOM      6  C   UNL     1     -12.496  10.511   4.023  1.00  0.00     0.146 A 
ATOM      7  O   UNL     1     -13.419   7.343   5.417  1.00  0.00    -0.285 OA
ATOM      8  C   UNL     1     -13.241   9.320   4.209  1.00  0.00     0.111 A 
ATOM      9  C   UNL     1     -12.886  11.440   3.052  1.00  0.00     0.094 A 
ATOM     10  C   UNL     1     -14.376   9.083   3.398  1.00  0.00     0.134 A 
ATOM     11  C   UNL     1     -14.018  11.203   2.266  1.00  0.00     0.123 A 
ATOM     12  C   UNL     1     -14.756  10.032   2.442  1.00  0.00     0.093 A 
BRANCH   3  13
ATOM     13  C   UNL     1      -9.794  10.281   6.492  1.00  0.00     0.025 A 
ATOM     14  C   UNL     1      -9.822  11.386   7.353  1.00  0.00     0.016 A 
ATOM     15  C   UNL     1      -8.664  11.779   8.025  1.00  0.00     0.051 A 
ATOM     16  C   UNL     1      -7.464  11.074   7.840  1.00  0.00     0.157 A 
ATOM     17  C   UNL     1      -8.601   9.563   6.320  1.00  0.00     0.062 A 
ATOM     18  C   UNL     1      -7.434   9.961   6.982  1.00  0.00     0.158 A 
BRANCH  16  19
ATOM     19  O   UNL     1      -6.303  11.482   8.492  1.00  0.00    -0.504 OA
ATOM     20  H   UNL     1      -6.148  11.281   9.474  1.00  0.00     0.293 HD
ENDBRANCH  16  19
BRANCH  18  21
ATOM     21  O   UNL     1      -6.244   9.261   6.752  1.00  0.00    -0.504 OA
ATOM     22  H   UNL     1      -5.962   8.477   7.330  1.00  0.00     0.293 HD
ENDBRANCH  18  21
ENDBRANCH   3  13
BRANCH  10  23
ATOM     23  O   UNL     1     -15.124   7.910   3.534  1.00  0.00    -0.507 OA
ATOM     24  H   UNL     1     -15.885   7.687   2.901  1.00  0.00     0.293 HD
ENDBRANCH  10  23
BRANCH  11  25
ATOM     25  O   UNL     1     -14.422  12.125   1.304  1.00  0.00    -0.508 OA
ATOM     26  H   UNL     1     -13.836  12.370   0.517  1.00  0.00     0.293 HD
ENDBRANCH  11  25
ENDBRANCH   1   2
BRANCH   1  27
ATOM     27  C   UNL     1     -11.614   6.540   7.140  1.00  0.00     0.339 C 
ATOM     28  C   UNL     1     -11.784   6.240   8.657  1.00  0.00     0.214 C 
ATOM     29  O   UNL     1     -10.636   5.717   6.522  1.00  0.00    -0.332 OA
ATOM     30  C   UNL     1     -10.834   5.127   9.125  1.00  0.00     0.180 C 
ATOM     31  C   UNL     1     -10.887   4.328   6.697  1.00  0.00     0.179 C 
ATOM     32  C   UNL     1     -10.946   3.904   8.202  1.00  0.00     0.177 C 
BRANCH  28  33
ATOM     33  O   UNL     1     -13.112   5.864   8.925  1.00  0.00    -0.384 OA
ATOM     34  H   UNL     1     -13.652   6.697   8.932  1.00  0.00     0.211 HD
ENDBRANCH  28  33
BRANCH  30  35
ATOM     35  O   UNL     1      -9.505   5.591   9.118  1.00  0.00    -0.387 OA
ATOM     36  H   UNL     1      -9.190   5.579  10.061  1.00  0.00     0.211 HD
ENDBRANCH  30  35
BRANCH  31  37
ATOM     37  C   UNL     1     -12.035   3.816   5.792  1.00  0.00     0.191 C 
BRANCH  37  38
ATOM     38  O   UNL     1     -11.710   3.906   4.431  1.00  0.00    -0.394 OA
ATOM     39  H   UNL     1     -10.774   4.234   4.389  1.00  0.00     0.210 HD
ENDBRANCH  37  38
ENDBRANCH  31  37
BRANCH  32  40
ATOM     40  O   UNL     1     -12.122   3.196   8.512  1.00  0.00    -0.387 OA
ATOM     41  H   UNL     1     -12.695   3.805   9.049  1.00  0.00     0.211 HD
ENDBRANCH  32  40
ENDBRANCH   1  27
TORSDOF 12
ENDMDL
MODEL 6
REMARK VINA RESULT:    -4.556      1.279      2.328
REMARK INTER + INTRA:          -7.322
REMARK INTER:                  -7.030
REMARK INTRA:                  -0.292
REMARK UNBOUND:                -0.635
REMARK SMILES O=c1c(O[C@H]2O[C@H](CO)[C@H](O)[C@@H](O)[C@@H]2O)c(-c2ccc(O)c(O)c2)oc2cc(O)cc(O)c12
REMARK SMILES IDX 4 1 3 2 16 3 25 4 2 5 26 6 1 7 33 8 27 9 31 10 28 11 30 12
REMARK SMILES IDX 17 13 18 14 19 15 20 16 24 17 22 18 21 19 23 21 32 23 29 25
REMARK SMILES IDX 5 27 14 28 6 29 12 30 7 31 10 32 15 33 13 35 8 37 9 38 11 40
REMARK H PARENT 21 20 23 22 32 24 29 26 15 34 13 36 9 39 11 41
REMARK Flexibility Score: inf
ROOT
ATOM      1  O   UNL     1     -11.492   9.493   6.918  1.00  0.00    -0.454 OA
ENDROOT
BRANCH   1   2
ATOM      2  C   UNL     1     -11.213   8.120   6.903  1.00  0.00     0.214 A 
ATOM      3  C   UNL     1      -9.924   7.694   6.555  1.00  0.00     0.180 A 
ATOM      4  O   UNL     1      -9.640   6.397   6.488  1.00  0.00    -0.452 OA
ATOM      5  C   UNL     1     -12.185   7.158   7.213  1.00  0.00     0.239 A 
ATOM      6  C   UNL     1     -10.530   5.448   6.765  1.00  0.00     0.146 A 
ATOM      7  O   UNL     1     -13.339   7.527   7.553  1.00  0.00    -0.285 OA
ATOM      8  C   UNL     1     -11.853   5.789   7.145  1.00  0.00     0.111 A 
ATOM      9  C   UNL     1     -10.149   4.105   6.675  1.00  0.00     0.094 A 
ATOM     10  C   UNL     1     -12.774   4.755   7.436  1.00  0.00     0.134 A 
ATOM     11  C   UNL     1     -11.071   3.090   6.950  1.00  0.00     0.123 A 
ATOM     12  C   UNL     1     -12.375   3.418   7.327  1.00  0.00     0.093 A 
BRANCH   3  13
ATOM     13  C   UNL     1      -8.885   8.681   6.227  1.00  0.00     0.025 A 
ATOM     14  C   UNL     1      -7.565   8.479   6.650  1.00  0.00     0.016 A 
ATOM     15  C   UNL     1      -6.599   9.459   6.423  1.00  0.00     0.051 A 
ATOM     16  C   UNL     1      -6.943  10.656   5.775  1.00  0.00     0.157 A 
ATOM     17  C   UNL     1      -9.228   9.868   5.563  1.00  0.00     0.062 A 
ATOM     18  C   UNL     1      -8.266  10.861   5.344  1.00  0.00     0.158 A 
BRANCH  16  19
ATOM     19  O   UNL     1      -5.984  11.645   5.571  1.00  0.00    -0.504 OA
ATOM     20  H   UNL     1      -4.996  11.422   5.522  1.00  0.00     0.293 HD
ENDBRANCH  16  19
BRANCH  18  21
ATOM     21  O   UNL     1      -8.645  12.057   4.726  1.00  0.00    -0.504 OA
ATOM     22  H   UNL     1      -8.916  12.095   3.749  1.00  0.00     0.293 HD
ENDBRANCH  18  21
ENDBRANCH   3  13
BRANCH  10  23
ATOM     23  O   UNL     1     -14.081   5.049   7.837  1.00  0.00    -0.507 OA
ATOM     24  H   UNL     1     -14.305   5.897   8.346  1.00  0.00     0.293 HD
ENDBRANCH  10  23
BRANCH  11  25
ATOM     25  O   UNL     1     -10.706   1.751   6.853  1.00  0.00    -0.508 OA
ATOM     26  H   UNL     1     -10.416   1.336   5.978  1.00  0.00     0.293 HD
ENDBRANCH  11  25
ENDBRANCH   1   2
BRANCH   1  27
ATOM     27  C   UNL     1     -12.689  10.054   6.380  1.00  0.00     0.339 C 
ATOM     28  C   UNL     1     -12.731   9.734   4.859  1.00  0.00     0.214 C 
ATOM     29  O   UNL     1     -12.696  11.448   6.651  1.00  0.00    -0.332 OA
ATOM     30  C   UNL     1     -12.755  11.015   4.010  1.00  0.00     0.180 C 
ATOM     31  C   UNL     1     -13.802  12.122   6.063  1.00  0.00     0.179 C 
ATOM     32  C   UNL     1     -13.854  11.966   4.506  1.00  0.00     0.177 C 
BRANCH  28  33
ATOM     33  O   UNL     1     -13.865   8.957   4.563  1.00  0.00    -0.384 OA
ATOM     34  H   UNL     1     -14.159   9.214   3.649  1.00  0.00     0.211 HD
ENDBRANCH  28  33
BRANCH  30  35
ATOM     35  O   UNL     1     -11.510  11.668   4.086  1.00  0.00    -0.387 OA
ATOM     36  H   UNL     1     -10.992  11.218   4.805  1.00  0.00     0.211 HD
ENDBRANCH  30  35
BRANCH  31  37
ATOM     37  C   UNL     1     -15.125  11.865   6.826  1.00  0.00     0.191 C 
BRANCH  37  38
ATOM     38  O   UNL     1     -14.964  11.991   8.213  1.00  0.00    -0.394 OA
ATOM     39  H   UNL     1     -14.876  11.067   8.568  1.00  0.00     0.210 HD
ENDBRANCH  37  38
ENDBRANCH  31  37
BRANCH  32  40
ATOM     40  O   UNL     1     -15.105  11.502   4.058  1.00  0.00    -0.387 OA
ATOM     41  H   UNL     1     -15.027  11.354   3.079  1.00  0.00     0.211 HD
ENDBRANCH  32  40
ENDBRANCH   1  27
TORSDOF 12
ENDMDL
MODEL 7
REMARK VINA RESULT:    -4.402      1.734      2.303
REMARK INTER + INTRA:          -7.097
REMARK INTER:                  -5.960
REMARK INTRA:                  -1.137
REMARK UNBOUND:                -0.635
REMARK SMILES O=c1c(O[C@H]2O[C@H](CO)[C@H](O)[C@@H](O)[C@@H]2O)c(-c2ccc(O)c(O)c2)oc2cc(O)cc(O)c12
REMARK SMILES IDX 4 1 3 2 16 3 25 4 2 5 26 6 1 7 33 8 27 9 31 10 28 11 30 12
REMARK SMILES IDX 17 13 18 14 19 15 20 16 24 17 22 18 21 19 23 21 32 23 29 25
REMARK SMILES IDX 5 27 14 28 6 29 12 30 7 31 10 32 15 33 13 35 8 37 9 38 11 40
REMARK H PARENT 21 20 23 22 32 24 29 26 15 34 13 36 9 39 11 41
REMARK Flexibility Score: inf
ROOT
ATOM      1  O   UNL     1     -11.458   8.719   7.668  1.00  0.00    -0.454 OA
ENDROOT
BRANCH   1   2
ATOM      2  C   UNL     1     -11.145   7.594   6.892  1.00  0.00     0.214 A 
ATOM      3  C   UNL     1      -9.976   7.607   6.121  1.00  0.00     0.180 A 
ATOM      4  O   UNL     1      -9.675   6.575   5.339  1.00  0.00    -0.452 OA
ATOM      5  C   UNL     1     -11.972   6.462   6.853  1.00  0.00     0.239 A 
ATOM      6  C   UNL     1     -10.431   5.483   5.263  1.00  0.00     0.146 A 
ATOM      7  O   UNL     1     -13.012   6.426   7.561  1.00  0.00    -0.285 OA
ATOM      8  C   UNL     1     -11.621   5.375   6.024  1.00  0.00     0.111 A 
ATOM      9  C   UNL     1     -10.039   4.438   4.419  1.00  0.00     0.094 A 
ATOM     10  C   UNL     1     -12.401   4.199   5.923  1.00  0.00     0.134 A 
ATOM     11  C   UNL     1     -10.825   3.285   4.314  1.00  0.00     0.123 A 
ATOM     12  C   UNL     1     -11.999   3.171   5.062  1.00  0.00     0.093 A 
BRANCH   3  13
ATOM     13  C   UNL     1      -9.091   8.781   6.144  1.00  0.00     0.025 A 
ATOM     14  C   UNL     1      -9.502   9.983   5.554  1.00  0.00     0.016 A 
ATOM     15  C   UNL     1      -8.627  11.067   5.490  1.00  0.00     0.051 A 
ATOM     16  C   UNL     1      -7.328  10.960   6.011  1.00  0.00     0.157 A 
ATOM     17  C   UNL     1      -7.799   8.677   6.683  1.00  0.00     0.062 A 
ATOM     18  C   UNL     1      -6.913   9.757   6.609  1.00  0.00     0.158 A 
BRANCH  16  19
ATOM     19  O   UNL     1      -6.446  12.034   5.925  1.00  0.00    -0.504 OA
ATOM     20  H   UNL     1      -6.254  12.627   6.725  1.00  0.00     0.293 HD
ENDBRANCH  16  19
BRANCH  18  21
ATOM     21  O   UNL     1      -5.614   9.611   7.107  1.00  0.00    -0.504 OA
ATOM     22  H   UNL     1      -5.282  10.138   7.907  1.00  0.00     0.293 HD
ENDBRANCH  18  21
ENDBRANCH   3  13
BRANCH  10  23
ATOM     23  O   UNL     1     -13.570   4.044   6.673  1.00  0.00    -0.507 OA
ATOM     24  H   UNL     1     -13.967   4.811   7.207  1.00  0.00     0.293 HD
ENDBRANCH  10  23
BRANCH  11  25
ATOM     25  O   UNL     1     -10.452   2.244   3.469  1.00  0.00    -0.508 OA
ATOM     26  H   UNL     1      -9.616   1.697   3.629  1.00  0.00     0.293 HD
ENDBRANCH  11  25
ENDBRANCH   1   2
BRANCH   1  27
ATOM     27  C   UNL     1     -12.282   9.786   7.202  1.00  0.00     0.339 C 
ATOM     28  C   UNL     1     -13.310  10.124   8.319  1.00  0.00     0.214 C 
ATOM     29  O   UNL     1     -12.899   9.383   5.988  1.00  0.00    -0.332 OA
ATOM     30  C   UNL     1     -14.756   9.925   7.838  1.00  0.00     0.180 C 
ATOM     31  C   UNL     1     -13.827  10.341   5.493  1.00  0.00     0.179 C 
ATOM     32  C   UNL     1     -14.982  10.651   6.503  1.00  0.00     0.177 C 
BRANCH  28  33
ATOM     33  O   UNL     1     -13.138  11.454   8.742  1.00  0.00    -0.384 OA
ATOM     34  H   UNL     1     -13.877  11.653   9.376  1.00  0.00     0.211 HD
ENDBRANCH  28  33
BRANCH  30  35
ATOM     35  O   UNL     1     -15.025   8.554   7.670  1.00  0.00    -0.387 OA
ATOM     36  H   UNL     1     -15.322   8.208   8.554  1.00  0.00     0.211 HD
ENDBRANCH  30  35
BRANCH  31  37
ATOM     37  C   UNL     1     -13.129  11.564   4.849  1.00  0.00     0.191 C 
BRANCH  37  38
ATOM     38  O   UNL     1     -13.897  12.125   3.819  1.00  0.00    -0.394 OA
ATOM     39  H   UNL     1     -14.024  11.407   3.143  1.00  0.00     0.210 HD
ENDBRANCH  37  38
ENDBRANCH  31  37
BRANCH  32  40
ATOM     40  O   UNL     1     -15.124  12.031   6.744  1.00  0.00    -0.387 OA
ATOM     41  H   UNL     1     -15.441  12.442   5.897  1.00  0.00     0.211 HD
ENDBRANCH  32  40
ENDBRANCH   1  27
TORSDOF 12
ENDMDL
MODEL 8
REMARK VINA RESULT:    -4.074      1.561      2.232
REMARK INTER + INTRA:          -6.615
REMARK INTER:                  -6.273
REMARK INTRA:                  -0.343
REMARK UNBOUND:                -0.635
REMARK SMILES O=c1c(O[C@H]2O[C@H](CO)[C@H](O)[C@@H](O)[C@@H]2O)c(-c2ccc(O)c(O)c2)oc2cc(O)cc(O)c12
REMARK SMILES IDX 4 1 3 2 16 3 25 4 2 5 26 6 1 7 33 8 27 9 31 10 28 11 30 12
REMARK SMILES IDX 17 13 18 14 19 15 20 16 24 17 22 18 21 19 23 21 32 23 29 25
REMARK SMILES IDX 5 27 14 28 6 29 12 30 7 31 10 32 15 33 13 35 8 37 9 38 11 40
REMARK H PARENT 21 20 23 22 32 24 29 26 15 34 13 36 9 39 11 41
REMARK Flexibility Score: inf
ROOT
ATOM      1  O   UNL     1     -11.951   9.090   5.370  1.00  0.00    -0.454 OA
ENDROOT
BRANCH   1   2
ATOM      2  C   UNL     1     -11.615   7.937   6.093  1.00  0.00     0.214 A 
ATOM      3  C   UNL     1     -10.300   7.785   6.553  1.00  0.00     0.180 A 
ATOM      4  O   UNL     1      -9.938   6.683   7.201  1.00  0.00    -0.452 OA
ATOM      5  C   UNL     1     -12.548   6.924   6.358  1.00  0.00     0.239 A 
ATOM      6  C   UNL     1     -10.785   5.693   7.470  1.00  0.00     0.146 A 
ATOM      7  O   UNL     1     -13.739   7.060   5.974  1.00  0.00    -0.285 OA
ATOM      8  C   UNL     1     -12.139   5.771   7.060  1.00  0.00     0.111 A 
ATOM      9  C   UNL     1     -10.324   4.568   8.163  1.00  0.00     0.094 A 
ATOM     10  C   UNL     1     -13.015   4.702   7.364  1.00  0.00     0.134 A 
ATOM     11  C   UNL     1     -11.194   3.509   8.446  1.00  0.00     0.123 A 
ATOM     12  C   UNL     1     -12.530   3.579   8.046  1.00  0.00     0.093 A 
BRANCH   3  13
ATOM     13  C   UNL     1      -9.301   8.832   6.290  1.00  0.00     0.025 A 
ATOM     14  C   UNL     1      -8.386   8.681   5.239  1.00  0.00     0.016 A 
ATOM     15  C   UNL     1      -7.378   9.626   5.048  1.00  0.00     0.051 A 
ATOM     16  C   UNL     1      -7.271  10.731   5.908  1.00  0.00     0.157 A 
ATOM     17  C   UNL     1      -9.208   9.944   7.139  1.00  0.00     0.062 A 
ATOM     18  C   UNL     1      -8.190  10.888   6.960  1.00  0.00     0.158 A 
BRANCH  16  19
ATOM     19  O   UNL     1      -6.249  11.661   5.733  1.00  0.00    -0.504 OA
ATOM     20  H   UNL     1      -5.607  11.889   6.483  1.00  0.00     0.293 HD
ENDBRANCH  16  19
BRANCH  18  21
ATOM     21  O   UNL     1      -8.087  11.960   7.853  1.00  0.00    -0.504 OA
ATOM     22  H   UNL     1      -7.201  12.415   8.046  1.00  0.00     0.293 HD
ENDBRANCH  18  21
ENDBRANCH   3  13
BRANCH  10  23
ATOM     23  O   UNL     1     -14.363   4.749   6.997  1.00  0.00    -0.507 OA
ATOM     24  H   UNL     1     -14.660   4.601   6.038  1.00  0.00     0.293 HD
ENDBRANCH  10  23
BRANCH  11  25
ATOM     25  O   UNL     1     -10.744   2.380   9.124  1.00  0.00    -0.508 OA
ATOM     26  H   UNL     1     -10.156   1.687   8.681  1.00  0.00     0.293 HD
ENDBRANCH  11  25
ENDBRANCH   1   2
BRANCH   1  27
ATOM     27  C   UNL     1     -12.781  10.126   5.893  1.00  0.00     0.339 C 
ATOM     28  C   UNL     1     -12.546  10.203   7.429  1.00  0.00     0.214 C 
ATOM     29  O   UNL     1     -14.129   9.839   5.554  1.00  0.00    -0.332 OA
ATOM     30  C   UNL     1     -13.839   9.933   8.214  1.00  0.00     0.180 C 
ATOM     31  C   UNL     1     -15.052  10.761   6.121  1.00  0.00     0.179 C 
ATOM     32  C   UNL     1     -14.982  10.813   7.684  1.00  0.00     0.177 C 
BRANCH  28  33
ATOM     33  O   UNL     1     -12.047  11.471   7.775  1.00  0.00    -0.384 OA
ATOM     34  H   UNL     1     -11.166  11.325   8.209  1.00  0.00     0.211 HD
ENDBRANCH  28  33
BRANCH  30  35
ATOM     35  O   UNL     1     -14.204   8.579   8.093  1.00  0.00    -0.387 OA
ATOM     36  H   UNL     1     -14.068   8.328   7.141  1.00  0.00     0.211 HD
ENDBRANCH  30  35
BRANCH  31  37
ATOM     37  C   UNL     1     -15.053  12.125   5.387  1.00  0.00     0.191 C 
BRANCH  37  38
ATOM     38  O   UNL     1     -15.046  11.970   3.993  1.00  0.00    -0.394 OA
ATOM     39  H   UNL     1     -15.996  11.995   3.705  1.00  0.00     0.210 HD
ENDBRANCH  37  38
ENDBRANCH  31  37
BRANCH  32  40
ATOM     40  O   UNL     1     -14.819  12.125   8.168  1.00  0.00    -0.387 OA
ATOM     41  H   UNL     1     -13.865  12.368   8.034  1.00  0.00     0.211 HD
ENDBRANCH  32  40
ENDBRANCH   1  27
TORSDOF 12
ENDMDL
