MODEL 1
REMARK VINA RESULT:    -1.848      0.000      0.000
REMARK INTER + INTRA:          -1.848
REMARK INTER:                  -1.848
REMARK INTRA:                   0.000
REMARK UNBOUND:                 0.000
REMARK SMILES CC(=O)[O-]
REMARK SMILES IDX 1 1 2 2 3 3 4 4
REMARK H PARENT
REMARK Flexibility Score: inf
ROOT
ATOM      1  C   UNL     1      20.999   2.082  -2.384  1.00  0.00     0.063 C 
ATOM      2  C   UNL     1      21.247   0.766  -1.729  1.00  0.00     0.038 C 
ATOM      3  O   UNL     1      22.174   0.645  -0.886  1.00  0.00    -0.550 OA
ATOM      4  O   UNL     1      20.422  -0.316  -2.008  1.00  0.00    -0.550 OA
ENDROOT
TORSDOF 0
ENDMDL
MODEL 2
REMARK VINA RESULT:    -1.824      0.099      1.620
REMARK INTER + INTRA:          -1.824
REMARK INTER:                  -1.824
REMARK INTRA:                   0.000
REMARK UNBOUND:                 0.000
REMARK SMILES CC(=O)[O-]
REMARK SMILES IDX 1 1 2 2 3 3 4 4
REMARK H PARENT
REMARK Flexibility Score: inf
ROOT
ATOM      1  C   UNL     1      20.977   2.103  -2.409  1.00  0.00     0.063 C 
ATOM      2  C   UNL     1      21.178   0.790  -1.733  1.00  0.00     0.038 C 
ATOM      3  O   UNL     1      20.398  -0.169  -1.970  1.00  0.00    -0.550 OA
ATOM      4  O   UNL     1      22.258   0.605  -0.879  1.00  0.00    -0.550 OA
ENDROOT
TORSDOF 0
ENDMDL
MODEL 3
REMARK VINA RESULT:    -1.794      1.785      1.920
REMARK INTER + INTRA:          -1.794
REMARK INTER:                  -1.794
REMARK INTRA:                   0.000
REMARK UNBOUND:                 0.000
REMARK SMILES CC(=O)[O-]
REMARK SMILES IDX 1 1 2 2 3 3 4 4
REMARK H PARENT
REMARK Flexibility Score: inf
ROOT
ATOM      1  C   UNL     1      21.608   0.761  -1.196  1.00  0.00     0.063 C 
ATOM      2  C   UNL     1      20.608   0.302  -2.201  1.00  0.00     0.038 C 
ATOM      3  O   UNL     1      20.882  -0.651  -2.976  1.00  0.00    -0.550 OA
ATOM      4  O   UNL     1      19.349   0.889  -2.248  1.00  0.00    -0.550 OA
ENDROOT
TORSDOF 0
ENDMDL
MODEL 4
REMARK VINA RESULT:    -1.768      4.471      5.082
REMARK INTER + INTRA:          -1.768
REMARK INTER:                  -1.768
REMARK INTRA:                   0.000
REMARK UNBOUND:                 0.000
REMARK SMILES CC(=O)[O-]
REMARK SMILES IDX 1 1 2 2 3 3 4 4
REMARK H PARENT
REMARK Flexibility Score: inf
ROOT
ATOM      1  C   UNL     1      15.829   2.738  -1.431  1.00  0.00     0.063 C 
ATOM      2  C   UNL     1      16.564   1.649  -2.135  1.00  0.00     0.038 C 
ATOM      3  O   UNL     1      15.940   0.652  -2.583  1.00  0.00    -0.550 OA
ATOM      4  O   UNL     1      17.933   1.757  -2.345  1.00  0.00    -0.550 OA
ENDROOT
TORSDOF 0
ENDMDL
MODEL 5
REMARK VINA RESULT:    -1.718      4.898      5.267
REMARK INTER + INTRA:          -1.718
REMARK INTER:                  -1.718
REMARK INTRA:                   0.000
REMARK UNBOUND:                 0.000
REMARK SMILES CC(=O)[O-]
REMARK SMILES IDX 1 1 2 2 3 3 4 4
REMARK H PARENT
REMARK Flexibility Score: inf
ROOT
ATOM      1  C   UNL     1      15.457   2.987  -1.263  1.00  0.00     0.063 C 
ATOM      2  C   UNL     1      16.188   1.899  -1.974  1.00  0.00     0.038 C 
ATOM      3  O   UNL     1      17.446   1.907  -2.017  1.00  0.00    -0.550 OA
ATOM      4  O   UNL     1      15.485   0.845  -2.545  1.00  0.00    -0.550 OA
ENDROOT
TORSDOF 0
ENDMDL
MODEL 6
REMARK VINA RESULT:    -1.681      4.522      4.884
REMARK INTER + INTRA:          -1.681
REMARK INTER:                  -1.681
REMARK INTRA:                   0.000
REMARK UNBOUND:                 0.000
REMARK SMILES CC(=O)[O-]
REMARK SMILES IDX 1 1 2 2 3 3 4 4
REMARK H PARENT
REMARK Flexibility Score: inf
ROOT
ATOM      1  C   UNL     1      15.883   0.871  -2.754  1.00  0.00     0.063 C 
ATOM      2  C   UNL     1      16.843   1.814  -2.114  1.00  0.00     0.038 C 
ATOM      3  O   UNL     1      18.068   1.759  -2.398  1.00  0.00    -0.550 OA
ATOM      4  O   UNL     1      16.381   2.793  -1.243  1.00  0.00    -0.550 OA
ENDROOT
TORSDOF 0
ENDMDL
MODEL 7
REMARK VINA RESULT:    -1.672      4.435      4.843
REMARK INTER + INTRA:          -1.672
REMARK INTER:                  -1.672
REMARK INTRA:                   0.000
REMARK UNBOUND:                 0.000
REMARK SMILES CC(=O)[O-]
REMARK SMILES IDX 1 1 2 2 3 3 4 4
REMARK H PARENT
REMARK Flexibility Score: inf
ROOT
ATOM      1  C   UNL     1      15.904   0.876  -2.824  1.00  0.00     0.063 C 
ATOM      2  C   UNL     1      16.871   1.796  -2.160  1.00  0.00     0.038 C 
ATOM      3  O   UNL     1      16.461   2.655  -1.336  1.00  0.00    -0.550 OA
ATOM      4  O   UNL     1      18.232   1.673  -2.410  1.00  0.00    -0.550 OA
ENDROOT
TORSDOF 0
ENDMDL
MODEL 8
REMARK VINA RESULT:    -1.661     15.488     15.909
REMARK INTER + INTRA:          -1.661
REMARK INTER:                  -1.661
REMARK INTRA:                   0.000
REMARK UNBOUND:                 0.000
REMARK SMILES CC(=O)[O-]
REMARK SMILES IDX 1 1 2 2 3 3 4 4
REMARK H PARENT
REMARK Flexibility Score: inf
ROOT
ATOM      1  C   UNL     1      23.648  16.991   0.746  1.00  0.00     0.063 C 
ATOM      2  C   UNL     1      23.693  16.374  -0.611  1.00  0.00     0.038 C 
ATOM      3  O   UNL     1      24.547  15.488  -0.874  1.00  0.00    -0.550 OA
ATOM      4  O   UNL     1      22.758  16.738  -1.571  1.00  0.00    -0.550 OA
ENDROOT
TORSDOF 0
ENDMDL
MODEL 9
REMARK VINA RESULT:    -1.599      6.046      6.373
REMARK INTER + INTRA:          -1.599
REMARK INTER:                  -1.599
REMARK INTRA:                   0.000
REMARK UNBOUND:                 0.000
REMARK SMILES CC(=O)[O-]
REMARK SMILES IDX 1 1 2 2 3 3 4 4
REMARK H PARENT
REMARK Flexibility Score: inf
ROOT
ATOM      1  C   UNL     1      15.502   1.288  -2.194  1.00  0.00     0.063 C 
ATOM      2  C   UNL     1      15.360   2.664  -1.637  1.00  0.00     0.038 C 
ATOM      3  O   UNL     1      16.255   3.139  -0.891  1.00  0.00    -0.550 OA
ATOM      4  O   UNL     1      14.264   3.445  -1.984  1.00  0.00    -0.550 OA
ENDROOT
TORSDOF 0
ENDMDL
