MODEL 1
REMARK VINA RESULT:    26.709      0.000      0.000
REMARK INTER + INTRA:          31.768
REMARK INTER:                  32.174
REMARK INTRA:                  -0.407
REMARK UNBOUND:                -0.407
REMARK SMILES O=c1c(O)c(-c2ccc(O)cc2O)oc2cc(O)cc(O)c12
REMARK SMILES IDX 5 1 3 2 2 3 1 4 22 5 20 6 19 7 17 8 16 9 15 10 14 11 6 12
REMARK SMILES IDX 8 13 7 14 9 15 11 16 12 17 10 18 13 20 4 22 21 24 18 26
REMARK H PARENT 10 19 13 21 4 23 21 25 18 27
REMARK Flexibility Score: inf
ROOT
ATOM      1  C   UNL     1      29.620  33.691  49.173  1.00  0.00     0.184 A 
ATOM      2  C   UNL     1      29.995  32.749  50.144  1.00  0.00     0.208 A 
ATOM      3  C   UNL     1      29.591  31.414  49.988  1.00  0.00     0.238 A 
ATOM      4  O   UNL     1      29.974  30.564  50.833  1.00  0.00    -0.285 OA
ATOM      5  C   UNL     1      28.803  31.043  48.871  1.00  0.00     0.111 A 
ATOM      6  C   UNL     1      28.304  29.727  48.633  1.00  0.00     0.134 A 
ATOM      7  C   UNL     1      27.646  29.446  47.430  1.00  0.00     0.093 A 
ATOM      8  C   UNL     1      27.412  30.448  46.485  1.00  0.00     0.123 A 
ATOM      9  C   UNL     1      27.843  31.748  46.734  1.00  0.00     0.094 A 
ATOM     10  C   UNL     1      28.535  32.053  47.909  1.00  0.00     0.146 A 
ATOM     11  O   UNL     1      28.938  33.303  48.103  1.00  0.00    -0.451 OA
ENDROOT
BRANCH   1  12
ATOM     12  C   UNL     1      29.998  35.116  49.286  1.00  0.00     0.063 A 
ATOM     13  C   UNL     1      31.664  36.855  48.951  1.00  0.00     0.047 A 
ATOM     14  C   UNL     1      31.276  35.516  48.863  1.00  0.00     0.020 A 
ATOM     15  C   UNL     1      30.777  37.813  49.448  1.00  0.00     0.119 A 
ATOM     16  C   UNL     1      29.492  37.428  49.852  1.00  0.00     0.093 A 
ATOM     17  C   UNL     1      29.092  36.087  49.761  1.00  0.00     0.130 A 
BRANCH  15  18
ATOM     18  O   UNL     1      31.179  39.144  49.533  1.00  0.00    -0.508 OA
ATOM     19  H   UNL     1      30.505  39.898  49.596  1.00  0.00     0.293 HD
ENDBRANCH  15  18
BRANCH  17  20
ATOM     20  O   UNL     1      27.793  35.724  50.119  1.00  0.00    -0.507 OA
ATOM     21  H   UNL     1      26.983  36.183  49.719  1.00  0.00     0.293 HD
ENDBRANCH  17  20
ENDBRANCH   1  12
BRANCH   2  22
ATOM     22  O   UNL     1      30.787  33.139  51.227  1.00  0.00    -0.502 OA
ATOM     23  H   UNL     1      31.726  33.499  51.111  1.00  0.00     0.293 HD
ENDBRANCH   2  22
BRANCH   6  24
ATOM     24  O   UNL     1      28.403  28.678  49.550  1.00  0.00    -0.507 OA
ATOM     25  H   UNL     1      28.113  27.728  49.372  1.00  0.00     0.293 HD
ENDBRANCH   6  24
BRANCH   8  26
ATOM     26  O   UNL     1      26.742  30.163  45.297  1.00  0.00    -0.508 OA
ATOM     27  H   UNL     1      26.360  29.243  45.112  1.00  0.00     0.293 HD
ENDBRANCH   8  26
TORSDOF 6
ENDMDL
MODEL 2
REMARK VINA RESULT:    26.771      1.191      2.818
REMARK INTER + INTRA:          31.841
REMARK INTER:                  32.183
REMARK INTRA:                  -0.341
REMARK UNBOUND:                -0.407
REMARK SMILES O=c1c(O)c(-c2ccc(O)cc2O)oc2cc(O)cc(O)c12
REMARK SMILES IDX 5 1 3 2 2 3 1 4 22 5 20 6 19 7 17 8 16 9 15 10 14 11 6 12
REMARK SMILES IDX 8 13 7 14 9 15 11 16 12 17 10 18 13 20 4 22 21 24 18 26
REMARK H PARENT 10 19 13 21 4 23 21 25 18 27
REMARK Flexibility Score: inf
ROOT
ATOM      1  C   UNL     1      29.319  33.644  48.587  1.00  0.00     0.184 A 
ATOM      2  C   UNL     1      28.446  33.498  47.498  1.00  0.00     0.208 A 
ATOM      3  C   UNL     1      27.988  32.214  47.160  1.00  0.00     0.238 A 
ATOM      4  O   UNL     1      27.164  32.096  46.217  1.00  0.00    -0.285 OA
ATOM      5  C   UNL     1      28.423  31.093  47.906  1.00  0.00     0.111 A 
ATOM      6  C   UNL     1      28.056  29.742  47.629  1.00  0.00     0.134 A 
ATOM      7  C   UNL     1      28.441  28.726  48.512  1.00  0.00     0.093 A 
ATOM      8  C   UNL     1      29.236  29.003  49.627  1.00  0.00     0.123 A 
ATOM      9  C   UNL     1      29.649  30.310  49.874  1.00  0.00     0.094 A 
ATOM     10  C   UNL     1      29.250  31.352  49.032  1.00  0.00     0.146 A 
ATOM     11  O   UNL     1      29.658  32.584  49.310  1.00  0.00    -0.451 OA
ENDROOT
BRANCH   1  12
ATOM     12  C   UNL     1      29.850  34.965  48.985  1.00  0.00     0.063 A 
ATOM     13  C   UNL     1      31.716  36.523  49.037  1.00  0.00     0.047 A 
ATOM     14  C   UNL     1      31.184  35.281  48.680  1.00  0.00     0.020 A 
ATOM     15  C   UNL     1      30.921  37.469  49.688  1.00  0.00     0.119 A 
ATOM     16  C   UNL     1      29.582  37.172  49.976  1.00  0.00     0.093 A 
ATOM     17  C   UNL     1      29.037  35.930  49.616  1.00  0.00     0.130 A 
BRANCH  15  18
ATOM     18  O   UNL     1      31.467  38.700  50.040  1.00  0.00    -0.508 OA
ATOM     19  H   UNL     1      30.879  39.495  50.266  1.00  0.00     0.293 HD
ENDBRANCH  15  18
BRANCH  17  20
ATOM     20  O   UNL     1      27.690  35.665  49.863  1.00  0.00    -0.507 OA
ATOM     21  H   UNL     1      27.358  35.418  50.788  1.00  0.00     0.293 HD
ENDBRANCH  17  20
ENDBRANCH   1  12
BRANCH   2  22
ATOM     22  O   UNL     1      28.017  34.624  46.789  1.00  0.00    -0.502 OA
ATOM     23  H   UNL     1      27.858  35.518  47.236  1.00  0.00     0.293 HD
ENDBRANCH   2  22
BRANCH   6  24
ATOM     24  O   UNL     1      27.343  29.346  46.494  1.00  0.00    -0.507 OA
ATOM     25  H   UNL     1      26.354  29.490  46.356  1.00  0.00     0.293 HD
ENDBRANCH   6  24
BRANCH   8  26
ATOM     26  O   UNL     1      29.628  27.984  50.492  1.00  0.00    -0.508 OA
ATOM     27  H   UNL     1      30.245  27.240  50.188  1.00  0.00     0.293 HD
ENDBRANCH   8  26
TORSDOF 6
ENDMDL
