MODEL 1
REMARK VINA RESULT:    -5.244      0.000      0.000
REMARK INTER + INTRA:          -8.035
REMARK INTER:                  -7.390
REMARK INTRA:                  -0.645
REMARK UNBOUND:                -0.645
REMARK SMILES COc1ccc(-c2cc(=O)c3c(OC)c(OC)c(OC)c(OC)c3o2)cc1OC
REMARK SMILES IDX 7 1 8 2 9 3 10 4 11 5 24 6 25 7 21 8 18 9 15 10 12 11 6 12
REMARK SMILES IDX 3 13 27 14 4 15 26 16 5 17 2 18 1 19 28 20 29 21 22 22 23 23
REMARK SMILES IDX 13 24 14 25 19 26 20 27 16 28 17 29
REMARK H PARENT
REMARK Flexibility Score: inf
ROOT
ATOM      1  C   UNL     1      -8.310   8.510  14.066  1.00  0.00     0.138 A 
ATOM      2  C   UNL     1      -7.157   9.305  14.005  1.00  0.00     0.100 A 
ATOM      3  C   UNL     1      -6.666   9.889  15.172  1.00  0.00     0.197 A 
ATOM      4  O   UNL     1      -5.630  10.604  15.103  1.00  0.00    -0.289 OA
ATOM      5  C   UNL     1      -7.336   9.677  16.396  1.00  0.00     0.115 A 
ATOM      6  C   UNL     1      -8.493   8.869  16.378  1.00  0.00     0.188 A 
ATOM      7  O   UNL     1      -8.920   8.335  15.235  1.00  0.00    -0.452 OA
ATOM      8  C   UNL     1      -9.207   8.603  17.552  1.00  0.00     0.209 A 
ATOM      9  C   UNL     1      -8.787   9.176  18.780  1.00  0.00     0.211 A 
ATOM     10  C   UNL     1      -7.652  10.027  18.794  1.00  0.00     0.208 A 
ATOM     11  C   UNL     1      -6.894  10.222  17.619  1.00  0.00     0.179 A 
ENDROOT
BRANCH   1  12
ATOM     12  C   UNL     1      -8.886   7.864  12.859  1.00  0.00     0.021 A 
ATOM     13  C   UNL     1      -9.949   6.681  10.518  1.00  0.00     0.160 A 
ATOM     14  C   UNL     1      -8.707   7.361  10.470  1.00  0.00     0.161 A 
ATOM     15  C   UNL     1     -10.645   6.614  11.741  1.00  0.00     0.051 A 
ATOM     16  C   UNL     1      -8.198   7.943  11.639  1.00  0.00     0.062 A 
ATOM     17  C   UNL     1     -10.124   7.202  12.893  1.00  0.00     0.016 A 
BRANCH  13  18
ATOM     18  O   UNL     1     -10.470   6.085   9.358  1.00  0.00    -0.493 OA
ATOM     19  C   UNL     1     -11.531   5.134   9.334  1.00  0.00     0.278 C 
ENDBRANCH  13  18
BRANCH  14  20
ATOM     20  O   UNL     1      -7.927   7.500   9.307  1.00  0.00    -0.493 OA
ATOM     21  C   UNL     1      -6.958   6.576   8.824  1.00  0.00     0.278 C 
ENDBRANCH  14  20
ENDBRANCH   1  12
BRANCH   8  22
ATOM     22  O   UNL     1     -10.329   7.760  17.421  1.00  0.00    -0.490 OA
ATOM     23  C   UNL     1     -11.664   8.149  17.117  1.00  0.00     0.278 C 
ENDBRANCH   8  22
BRANCH  11  24
ATOM     24  O   UNL     1      -5.699  10.948  17.663  1.00  0.00    -0.492 OA
ATOM     25  C   UNL     1      -4.480  10.380  18.133  1.00  0.00     0.278 C 
ENDBRANCH  11  24
BRANCH   9  26
ATOM     26  O   UNL     1      -9.528   8.885  19.942  1.00  0.00    -0.490 OA
ATOM     27  C   UNL     1     -10.500   9.709  20.576  1.00  0.00     0.279 C 
ENDBRANCH   9  26
BRANCH  10  28
ATOM     28  O   UNL     1      -7.287  10.688  19.971  1.00  0.00    -0.490 OA
ATOM     29  C   UNL     1      -6.592  10.039  21.033  1.00  0.00     0.278 C 
ENDBRANCH  10  28
TORSDOF 7
ENDMDL
MODEL 2
REMARK VINA RESULT:    -5.095      0.954      3.365
REMARK INTER + INTRA:          -7.826
REMARK INTER:                  -7.031
REMARK INTRA:                  -0.794
REMARK UNBOUND:                -0.645
REMARK SMILES COc1ccc(-c2cc(=O)c3c(OC)c(OC)c(OC)c(OC)c3o2)cc1OC
REMARK SMILES IDX 7 1 8 2 9 3 10 4 11 5 24 6 25 7 21 8 18 9 15 10 12 11 6 12
REMARK SMILES IDX 3 13 27 14 4 15 26 16 5 17 2 18 1 19 28 20 29 21 22 22 23 23
REMARK SMILES IDX 13 24 14 25 19 26 20 27 16 28 17 29
REMARK H PARENT
REMARK Flexibility Score: inf
ROOT
ATOM      1  C   UNL     1      -9.490   7.987  14.623  1.00  0.00     0.138 A 
ATOM      2  C   UNL     1     -10.477   7.801  15.602  1.00  0.00     0.100 A 
ATOM      3  C   UNL     1     -10.284   8.329  16.877  1.00  0.00     0.197 A 
ATOM      4  O   UNL     1     -11.178   8.152  17.749  1.00  0.00    -0.289 OA
ATOM      5  C   UNL     1      -9.098   9.038  17.169  1.00  0.00     0.115 A 
ATOM      6  C   UNL     1      -8.149   9.179  16.135  1.00  0.00     0.188 A 
ATOM      7  O   UNL     1      -8.384   8.655  14.934  1.00  0.00    -0.452 OA
ATOM      8  C   UNL     1      -6.954   9.877  16.342  1.00  0.00     0.209 A 
ATOM      9  C   UNL     1      -6.668  10.427  17.618  1.00  0.00     0.211 A 
ATOM     10  C   UNL     1      -7.599  10.246  18.674  1.00  0.00     0.208 A 
ATOM     11  C   UNL     1      -8.836   9.611  18.430  1.00  0.00     0.179 A 
ENDROOT
BRANCH   1  12
ATOM     12  C   UNL     1      -9.635   7.446  13.248  1.00  0.00     0.021 A 
ATOM     13  C   UNL     1      -9.852   6.449  10.607  1.00  0.00     0.160 A 
ATOM     14  C   UNL     1      -8.579   6.758  11.149  1.00  0.00     0.161 A 
ATOM     15  C   UNL     1     -10.999   6.655  11.398  1.00  0.00     0.051 A 
ATOM     16  C   UNL     1      -8.492   7.254  12.457  1.00  0.00     0.062 A 
ATOM     17  C   UNL     1     -10.893   7.151  12.697  1.00  0.00     0.016 A 
BRANCH  13  18
ATOM     18  O   UNL     1      -9.957   5.943   9.302  1.00  0.00    -0.493 OA
ATOM     19  C   UNL     1     -11.091   5.257   8.780  1.00  0.00     0.278 C 
ENDBRANCH  13  18
BRANCH  14  20
ATOM     20  O   UNL     1      -7.366   6.602  10.453  1.00  0.00    -0.493 OA
ATOM     21  C   UNL     1      -6.362   7.594  10.272  1.00  0.00     0.278 C 
ENDBRANCH  14  20
ENDBRANCH   1  12
BRANCH   8  22
ATOM     22  O   UNL     1      -6.092   9.982  15.230  1.00  0.00    -0.490 OA
ATOM     23  C   UNL     1      -5.962  11.091  14.348  1.00  0.00     0.278 C 
ENDBRANCH   8  22
BRANCH  11  24
ATOM     24  O   UNL     1      -9.810   9.555  19.433  1.00  0.00    -0.492 OA
ATOM     25  C   UNL     1     -10.546  10.703  19.846  1.00  0.00     0.278 C 
ENDBRANCH  11  24
BRANCH   9  26
ATOM     26  O   UNL     1      -5.457  11.125  17.790  1.00  0.00    -0.490 OA
ATOM     27  C   UNL     1      -4.159  10.571  17.974  1.00  0.00     0.279 C 
ENDBRANCH   9  26
BRANCH  10  28
ATOM     28  O   UNL     1      -7.288  10.685  19.964  1.00  0.00    -0.490 OA
ATOM     29  C   UNL     1      -6.491   9.920  20.864  1.00  0.00     0.278 C 
ENDBRANCH  10  28
TORSDOF 7
ENDMDL
MODEL 3
REMARK VINA RESULT:    -5.003      1.197      3.665
REMARK INTER + INTRA:          -7.695
REMARK INTER:                  -7.054
REMARK INTRA:                  -0.642
REMARK UNBOUND:                -0.645
REMARK SMILES COc1ccc(-c2cc(=O)c3c(OC)c(OC)c(OC)c(OC)c3o2)cc1OC
REMARK SMILES IDX 7 1 8 2 9 3 10 4 11 5 24 6 25 7 21 8 18 9 15 10 12 11 6 12
REMARK SMILES IDX 3 13 27 14 4 15 26 16 5 17 2 18 1 19 28 20 29 21 22 22 23 23
REMARK SMILES IDX 13 24 14 25 19 26 20 27 16 28 17 29
REMARK H PARENT
REMARK Flexibility Score: inf
ROOT
ATOM      1  C   UNL     1      -9.270   7.749  14.415  1.00  0.00     0.138 A 
ATOM      2  C   UNL     1     -10.304   7.505  15.331  1.00  0.00     0.100 A 
ATOM      3  C   UNL     1     -10.222   8.045  16.614  1.00  0.00     0.197 A 
ATOM      4  O   UNL     1     -11.158   7.816  17.429  1.00  0.00    -0.289 OA
ATOM      5  C   UNL     1      -9.102   8.823  16.976  1.00  0.00     0.115 A 
ATOM      6  C   UNL     1      -8.100   9.020  16.002  1.00  0.00     0.188 A 
ATOM      7  O   UNL     1      -8.227   8.482  14.791  1.00  0.00    -0.452 OA
ATOM      8  C   UNL     1      -6.963   9.789  16.281  1.00  0.00     0.209 A 
ATOM      9  C   UNL     1      -6.792  10.356  17.569  1.00  0.00     0.211 A 
ATOM     10  C   UNL     1      -7.775  10.121  18.565  1.00  0.00     0.208 A 
ATOM     11  C   UNL     1      -8.954   9.412  18.248  1.00  0.00     0.179 A 
ENDROOT
BRANCH   1  12
ATOM     12  C   UNL     1      -9.296   7.200  13.036  1.00  0.00     0.021 A 
ATOM     13  C   UNL     1      -9.414   6.143  10.412  1.00  0.00     0.160 A 
ATOM     14  C   UNL     1     -10.538   6.808  10.963  1.00  0.00     0.161 A 
ATOM     15  C   UNL     1      -8.249   6.010  11.193  1.00  0.00     0.051 A 
ATOM     16  C   UNL     1     -10.462   7.321  12.264  1.00  0.00     0.062 A 
ATOM     17  C   UNL     1      -8.192   6.526  12.487  1.00  0.00     0.016 A 
BRANCH  13  18
ATOM     18  O   UNL     1      -9.470   5.630   9.106  1.00  0.00    -0.493 OA
ATOM     19  C   UNL     1      -9.955   4.337   8.757  1.00  0.00     0.278 C 
ENDBRANCH  13  18
BRANCH  14  20
ATOM     20  O   UNL     1     -11.756   6.994  10.283  1.00  0.00    -0.493 OA
ATOM     21  C   UNL     1     -12.124   8.126   9.504  1.00  0.00     0.278 C 
ENDBRANCH  14  20
ENDBRANCH   1  12
BRANCH   8  22
ATOM     22  O   UNL     1      -6.042   9.944  15.224  1.00  0.00    -0.490 OA
ATOM     23  C   UNL     1      -5.931  11.052  14.338  1.00  0.00     0.278 C 
ENDBRANCH   8  22
BRANCH  11  24
ATOM     24  O   UNL     1      -9.984   9.299  19.189  1.00  0.00    -0.492 OA
ATOM     25  C   UNL     1     -10.778  10.413  19.586  1.00  0.00     0.278 C 
ENDBRANCH  11  24
BRANCH   9  26
ATOM     26  O   UNL     1      -5.638  11.125  17.814  1.00  0.00    -0.490 OA
ATOM     27  C   UNL     1      -4.293  10.664  17.897  1.00  0.00     0.279 C 
ENDBRANCH   9  26
BRANCH  10  28
ATOM     28  O   UNL     1      -7.572  10.578  19.871  1.00  0.00    -0.490 OA
ATOM     29  C   UNL     1      -6.631   9.979  20.758  1.00  0.00     0.278 C 
ENDBRANCH  10  28
TORSDOF 7
ENDMDL
MODEL 4
REMARK VINA RESULT:    -4.810      1.650      8.404
REMARK INTER + INTRA:          -7.424
REMARK INTER:                  -6.763
REMARK INTRA:                  -0.660
REMARK UNBOUND:                -0.645
REMARK SMILES COc1ccc(-c2cc(=O)c3c(OC)c(OC)c(OC)c(OC)c3o2)cc1OC
REMARK SMILES IDX 7 1 8 2 9 3 10 4 11 5 24 6 25 7 21 8 18 9 15 10 12 11 6 12
REMARK SMILES IDX 3 13 27 14 4 15 26 16 5 17 2 18 1 19 28 20 29 21 22 22 23 23
REMARK SMILES IDX 13 24 14 25 19 26 20 27 16 28 17 29
REMARK H PARENT
REMARK Flexibility Score: inf
ROOT
ATOM      1  C   UNL     1      -9.316   8.337  15.746  1.00  0.00     0.138 A 
ATOM      2  C   UNL     1     -10.605   7.967  15.334  1.00  0.00     0.100 A 
ATOM      3  C   UNL     1     -10.818   7.597  14.007  1.00  0.00     0.197 A 
ATOM      4  O   UNL     1     -11.982   7.269  13.649  1.00  0.00    -0.289 OA
ATOM      5  C   UNL     1      -9.740   7.605  13.096  1.00  0.00     0.115 A 
ATOM      6  C   UNL     1      -8.475   7.995  13.583  1.00  0.00     0.188 A 
ATOM      7  O   UNL     1      -8.325   8.339  14.861  1.00  0.00    -0.452 OA
ATOM      8  C   UNL     1      -7.354   8.019  12.745  1.00  0.00     0.209 A 
ATOM      9  C   UNL     1      -7.488   7.679  11.375  1.00  0.00     0.211 A 
ATOM     10  C   UNL     1      -8.769   7.331  10.870  1.00  0.00     0.208 A 
ATOM     11  C   UNL     1      -9.874   7.233  11.742  1.00  0.00     0.179 A 
ENDROOT
BRANCH   1  12
ATOM     12  C   UNL     1      -9.025   8.745  17.144  1.00  0.00     0.021 A 
ATOM     13  C   UNL     1      -8.401   9.510  19.798  1.00  0.00     0.160 A 
ATOM     14  C   UNL     1      -7.442   9.671  18.766  1.00  0.00     0.161 A 
ATOM     15  C   UNL     1      -9.657   8.956  19.482  1.00  0.00     0.051 A 
ATOM     16  C   UNL     1      -7.768   9.284  17.459  1.00  0.00     0.062 A 
ATOM     17  C   UNL     1      -9.963   8.574  18.175  1.00  0.00     0.016 A 
BRANCH  13  18
ATOM     18  O   UNL     1      -8.094   9.900  21.111  1.00  0.00    -0.493 OA
ATOM     19  C   UNL     1      -8.758   9.429  22.279  1.00  0.00     0.278 C 
ENDBRANCH  13  18
BRANCH  14  20
ATOM     20  O   UNL     1      -6.155  10.203  18.962  1.00  0.00    -0.493 OA
ATOM     21  C   UNL     1      -5.156  10.387  17.965  1.00  0.00     0.278 C 
ENDBRANCH  14  20
ENDBRANCH   1  12
BRANCH   8  22
ATOM     22  O   UNL     1      -6.135   8.396  13.345  1.00  0.00    -0.490 OA
ATOM     23  C   UNL     1      -5.565   9.700  13.386  1.00  0.00     0.278 C 
ENDBRANCH   8  22
BRANCH  11  24
ATOM     24  O   UNL     1     -11.104   6.758  11.273  1.00  0.00    -0.492 OA
ATOM     25  C   UNL     1     -11.941   7.528  10.415  1.00  0.00     0.278 C 
ENDBRANCH  11  24
BRANCH   9  26
ATOM     26  O   UNL     1      -6.340   7.711  10.561  1.00  0.00    -0.490 OA
ATOM     27  C   UNL     1      -5.844   8.814   9.810  1.00  0.00     0.279 C 
ENDBRANCH   9  26
BRANCH  10  28
ATOM     28  O   UNL     1      -8.944   7.099   9.503  1.00  0.00    -0.490 OA
ATOM     29  C   UNL     1      -8.718   5.826   8.904  1.00  0.00     0.278 C 
ENDBRANCH  10  28
TORSDOF 7
ENDMDL
MODEL 5
REMARK VINA RESULT:    -4.783      1.576      7.893
REMARK INTER + INTRA:          -7.386
REMARK INTER:                  -6.731
REMARK INTRA:                  -0.655
REMARK UNBOUND:                -0.645
REMARK SMILES COc1ccc(-c2cc(=O)c3c(OC)c(OC)c(OC)c(OC)c3o2)cc1OC
REMARK SMILES IDX 7 1 8 2 9 3 10 4 11 5 24 6 25 7 21 8 18 9 15 10 12 11 6 12
REMARK SMILES IDX 3 13 27 14 4 15 26 16 5 17 2 18 1 19 28 20 29 21 22 22 23 23
REMARK SMILES IDX 13 24 14 25 19 26 20 27 16 28 17 29
REMARK H PARENT
REMARK Flexibility Score: inf
ROOT
ATOM      1  C   UNL     1      -7.840   8.959  15.530  1.00  0.00     0.138 A 
ATOM      2  C   UNL     1      -6.828   9.829  15.097  1.00  0.00     0.100 A 
ATOM      3  C   UNL     1      -6.338   9.713  13.797  1.00  0.00     0.197 A 
ATOM      4  O   UNL     1      -5.426  10.500  13.420  1.00  0.00    -0.289 OA
ATOM      5  C   UNL     1      -6.861   8.723  12.937  1.00  0.00     0.115 A 
ATOM      6  C   UNL     1      -7.872   7.882  13.446  1.00  0.00     0.188 A 
ATOM      7  O   UNL     1      -8.305   8.035  14.696  1.00  0.00    -0.452 OA
ATOM      8  C   UNL     1      -8.448   6.883  12.652  1.00  0.00     0.209 A 
ATOM      9  C   UNL     1      -7.992   6.684  11.324  1.00  0.00     0.211 A 
ATOM     10  C   UNL     1      -6.942   7.497  10.825  1.00  0.00     0.208 A 
ATOM     11  C   UNL     1      -6.425   8.553  11.606  1.00  0.00     0.179 A 
ENDROOT
BRANCH   1  12
ATOM     12  C   UNL     1      -8.401   9.028  16.903  1.00  0.00     0.021 A 
ATOM     13  C   UNL     1      -9.406   9.164  19.547  1.00  0.00     0.160 A 
ATOM     14  C   UNL     1      -8.167   9.773  19.224  1.00  0.00     0.161 A 
ATOM     15  C   UNL     1     -10.117   8.486  18.537  1.00  0.00     0.051 A 
ATOM     16  C   UNL     1      -7.684   9.693  17.911  1.00  0.00     0.062 A 
ATOM     17  C   UNL     1      -9.619   8.414  17.236  1.00  0.00     0.016 A 
BRANCH  13  18
ATOM     18  O   UNL     1      -9.908   9.242  20.855  1.00  0.00    -0.493 OA
ATOM     19  C   UNL     1     -10.632  10.347  21.388  1.00  0.00     0.278 C 
ENDBRANCH  13  18
BRANCH  14  20
ATOM     20  O   UNL     1      -7.365  10.469  20.147  1.00  0.00    -0.493 OA
ATOM     21  C   UNL     1      -6.485   9.893  21.105  1.00  0.00     0.278 C 
ENDBRANCH  14  20
ENDBRANCH   1  12
BRANCH   8  22
ATOM     22  O   UNL     1      -9.472   6.122  13.254  1.00  0.00    -0.490 OA
ATOM     23  C   UNL     1     -10.851   6.460  13.348  1.00  0.00     0.278 C 
ENDBRANCH   8  22
BRANCH  11  24
ATOM     24  O   UNL     1      -5.489   9.440  11.065  1.00  0.00    -0.492 OA
ATOM     25  C   UNL     1      -5.865  10.523  10.220  1.00  0.00     0.278 C 
ENDBRANCH  11  24
BRANCH   9  26
ATOM     26  O   UNL     1      -8.596   5.672  10.554  1.00  0.00    -0.490 OA
ATOM     27  C   UNL     1      -9.795   5.764   9.793  1.00  0.00     0.279 C 
ENDBRANCH   9  26
BRANCH  10  28
ATOM     28  O   UNL     1      -6.403   7.246   9.559  1.00  0.00    -0.490 OA
ATOM     29  C   UNL     1      -7.015   7.710   8.358  1.00  0.00     0.278 C 
ENDBRANCH  10  28
TORSDOF 7
ENDMDL
MODEL 6
REMARK VINA RESULT:    -4.778      1.564      8.740
REMARK INTER + INTRA:          -7.378
REMARK INTER:                  -6.747
REMARK INTRA:                  -0.631
REMARK UNBOUND:                -0.645
REMARK SMILES COc1ccc(-c2cc(=O)c3c(OC)c(OC)c(OC)c(OC)c3o2)cc1OC
REMARK SMILES IDX 7 1 8 2 9 3 10 4 11 5 24 6 25 7 21 8 18 9 15 10 12 11 6 12
REMARK SMILES IDX 3 13 27 14 4 15 26 16 5 17 2 18 1 19 28 20 29 21 22 22 23 23
REMARK SMILES IDX 13 24 14 25 19 26 20 27 16 28 17 29
REMARK H PARENT
REMARK Flexibility Score: inf
ROOT
ATOM      1  C   UNL     1      -8.755   8.550  15.329  1.00  0.00     0.138 A 
ATOM      2  C   UNL     1     -10.014   7.976  15.099  1.00  0.00     0.100 A 
ATOM      3  C   UNL     1     -10.341   7.536  13.818  1.00  0.00     0.197 A 
ATOM      4  O   UNL     1     -11.478   7.024  13.623  1.00  0.00    -0.289 OA
ATOM      5  C   UNL     1      -9.406   7.677  12.769  1.00  0.00     0.115 A 
ATOM      6  C   UNL     1      -8.163   8.269  13.076  1.00  0.00     0.188 A 
ATOM      7  O   UNL     1      -7.901   8.672  14.318  1.00  0.00    -0.452 OA
ATOM      8  C   UNL     1      -7.180   8.435  12.094  1.00  0.00     0.209 A 
ATOM      9  C   UNL     1      -7.439   8.034  10.759  1.00  0.00     0.211 A 
ATOM     10  C   UNL     1      -8.707   7.481  10.436  1.00  0.00     0.208 A 
ATOM     11  C   UNL     1      -9.659   7.246  11.451  1.00  0.00     0.179 A 
ENDROOT
BRANCH   1  12
ATOM     12  C   UNL     1      -8.348   9.041  16.670  1.00  0.00     0.021 A 
ATOM     13  C   UNL     1      -7.640   9.985  19.244  1.00  0.00     0.160 A 
ATOM     14  C   UNL     1      -8.862   9.293  19.050  1.00  0.00     0.161 A 
ATOM     15  C   UNL     1      -6.795  10.201  18.137  1.00  0.00     0.051 A 
ATOM     16  C   UNL     1      -9.197   8.837  17.769  1.00  0.00     0.062 A 
ATOM     17  C   UNL     1      -7.147   9.741  16.868  1.00  0.00     0.016 A 
BRANCH  13  18
ATOM     18  O   UNL     1      -7.285  10.442  20.523  1.00  0.00    -0.493 OA
ATOM     19  C   UNL     1      -6.339   9.812  21.382  1.00  0.00     0.278 C 
ENDBRANCH  13  18
BRANCH  14  20
ATOM     20  O   UNL     1      -9.788   9.026  20.075  1.00  0.00    -0.493 OA
ATOM     21  C   UNL     1     -10.726   9.942  20.627  1.00  0.00     0.278 C 
ENDBRANCH  14  20
ENDBRANCH   1  12
BRANCH   8  22
ATOM     22  O   UNL     1      -5.965   9.010  12.520  1.00  0.00    -0.490 OA
ATOM     23  C   UNL     1      -5.498  10.327  12.249  1.00  0.00     0.278 C 
ENDBRANCH   8  22
BRANCH  11  24
ATOM     24  O   UNL     1     -10.852   6.576  11.157  1.00  0.00    -0.492 OA
ATOM     25  C   UNL     1     -11.863   7.147  10.332  1.00  0.00     0.278 C 
ENDBRANCH  11  24
BRANCH   9  26
ATOM     26  O   UNL     1      -6.427   8.213   9.797  1.00  0.00    -0.490 OA
ATOM     27  C   UNL     1      -5.376   7.310   9.469  1.00  0.00     0.279 C 
ENDBRANCH   9  26
BRANCH  10  28
ATOM     28  O   UNL     1      -9.022   7.182   9.107  1.00  0.00    -0.490 OA
ATOM     29  C   UNL     1      -8.735   5.917   8.516  1.00  0.00     0.278 C 
ENDBRANCH  10  28
TORSDOF 7
ENDMDL
MODEL 7
REMARK VINA RESULT:    -4.742      2.535      5.006
REMARK INTER + INTRA:          -7.327
REMARK INTER:                  -6.572
REMARK INTRA:                  -0.755
REMARK UNBOUND:                -0.645
REMARK SMILES COc1ccc(-c2cc(=O)c3c(OC)c(OC)c(OC)c(OC)c3o2)cc1OC
REMARK SMILES IDX 7 1 8 2 9 3 10 4 11 5 24 6 25 7 21 8 18 9 15 10 12 11 6 12
REMARK SMILES IDX 3 13 27 14 4 15 26 16 5 17 2 18 1 19 28 20 29 21 22 22 23 23
REMARK SMILES IDX 13 24 14 25 19 26 20 27 16 28 17 29
REMARK H PARENT
REMARK Flexibility Score: inf
ROOT
ATOM      1  C   UNL     1      -7.169   9.279  14.324  1.00  0.00     0.138 A 
ATOM      2  C   UNL     1      -8.370   8.565  14.198  1.00  0.00     0.100 A 
ATOM      3  C   UNL     1      -9.174   8.377  15.321  1.00  0.00     0.197 A 
ATOM      4  O   UNL     1     -10.251   7.732  15.195  1.00  0.00    -0.289 OA
ATOM      5  C   UNL     1      -8.769   8.901  16.568  1.00  0.00     0.115 A 
ATOM      6  C   UNL     1      -7.546   9.602  16.617  1.00  0.00     0.188 A 
ATOM      7  O   UNL     1      -6.816   9.754  15.514  1.00  0.00    -0.452 OA
ATOM      8  C   UNL     1      -7.081  10.161  17.813  1.00  0.00     0.209 A 
ATOM      9  C   UNL     1      -7.828   9.997  19.007  1.00  0.00     0.211 A 
ATOM     10  C   UNL     1      -9.036   9.252  18.971  1.00  0.00     0.208 A 
ATOM     11  C   UNL     1      -9.534   8.763  17.745  1.00  0.00     0.179 A 
ENDROOT
BRANCH   1  12
ATOM     12  C   UNL     1      -6.267   9.509  13.167  1.00  0.00     0.021 A 
ATOM     13  C   UNL     1      -4.520  10.004  10.995  1.00  0.00     0.160 A 
ATOM     14  C   UNL     1      -4.157  10.404  12.305  1.00  0.00     0.161 A 
ATOM     15  C   UNL     1      -5.762   9.370  10.793  1.00  0.00     0.051 A 
ATOM     16  C   UNL     1      -5.036  10.153  13.368  1.00  0.00     0.062 A 
ATOM     17  C   UNL     1      -6.625   9.131  11.863  1.00  0.00     0.016 A 
BRANCH  13  18
ATOM     18  O   UNL     1      -3.648  10.240   9.920  1.00  0.00    -0.493 OA
ATOM     19  C   UNL     1      -2.723   9.292   9.396  1.00  0.00     0.278 C 
ENDBRANCH  13  18
BRANCH  14  20
ATOM     20  O   UNL     1      -2.950  11.051  12.627  1.00  0.00    -0.493 OA
ATOM     21  C   UNL     1      -2.345  11.120  13.913  1.00  0.00     0.278 C 
ENDBRANCH  14  20
ENDBRANCH   1  12
BRANCH   8  22
ATOM     22  O   UNL     1      -5.862  10.865  17.739  1.00  0.00    -0.490 OA
ATOM     23  C   UNL     1      -4.561  10.362  18.025  1.00  0.00     0.278 C 
ENDBRANCH   8  22
BRANCH  11  24
ATOM     24  O   UNL     1     -10.790   8.150  17.687  1.00  0.00    -0.492 OA
ATOM     25  C   UNL     1     -12.003   8.897  17.676  1.00  0.00     0.278 C 
ENDBRANCH  11  24
BRANCH   9  26
ATOM     26  O   UNL     1      -7.332  10.574  20.192  1.00  0.00    -0.490 OA
ATOM     27  C   UNL     1      -6.512   9.954  21.177  1.00  0.00     0.279 C 
ENDBRANCH   9  26
BRANCH  10  28
ATOM     28  O   UNL     1      -9.730   8.986  20.155  1.00  0.00    -0.490 OA
ATOM     29  C   UNL     1     -10.563   9.951  20.791  1.00  0.00     0.278 C 
ENDBRANCH  10  28
TORSDOF 7
ENDMDL
MODEL 8
REMARK VINA RESULT:    -4.719      1.830      8.256
REMARK INTER + INTRA:          -7.296
REMARK INTER:                  -6.649
REMARK INTRA:                  -0.646
REMARK UNBOUND:                -0.645
REMARK SMILES COc1ccc(-c2cc(=O)c3c(OC)c(OC)c(OC)c(OC)c3o2)cc1OC
REMARK SMILES IDX 7 1 8 2 9 3 10 4 11 5 24 6 25 7 21 8 18 9 15 10 12 11 6 12
REMARK SMILES IDX 3 13 27 14 4 15 26 16 5 17 2 18 1 19 28 20 29 21 22 22 23 23
REMARK SMILES IDX 13 24 14 25 19 26 20 27 16 28 17 29
REMARK H PARENT
REMARK Flexibility Score: inf
ROOT
ATOM      1  C   UNL     1      -8.694   8.459  16.206  1.00  0.00     0.138 A 
ATOM      2  C   UNL     1      -9.214   7.267  15.682  1.00  0.00     0.100 A 
ATOM      3  C   UNL     1      -8.881   6.889  14.382  1.00  0.00     0.197 A 
ATOM      4  O   UNL     1      -9.357   5.815  13.921  1.00  0.00    -0.289 OA
ATOM      5  C   UNL     1      -8.032   7.711  13.609  1.00  0.00     0.115 A 
ATOM      6  C   UNL     1      -7.554   8.898  14.203  1.00  0.00     0.188 A 
ATOM      7  O   UNL     1      -7.902   9.212  15.449  1.00  0.00    -0.452 OA
ATOM      8  C   UNL     1      -6.700   9.761  13.505  1.00  0.00     0.209 A 
ATOM      9  C   UNL     1      -6.329   9.462  12.170  1.00  0.00     0.211 A 
ATOM     10  C   UNL     1      -6.846   8.292  11.553  1.00  0.00     0.208 A 
ATOM     11  C   UNL     1      -7.641   7.391  12.293  1.00  0.00     0.179 A 
ENDROOT
BRANCH   1  12
ATOM     12  C   UNL     1      -9.014   8.919  17.581  1.00  0.00     0.021 A 
ATOM     13  C   UNL     1      -9.557   9.784  20.221  1.00  0.00     0.160 A 
ATOM     14  C   UNL     1      -8.256   9.928  19.678  1.00  0.00     0.161 A 
ATOM     15  C   UNL     1     -10.565   9.196  19.432  1.00  0.00     0.051 A 
ATOM     16  C   UNL     1      -8.005   9.491  18.371  1.00  0.00     0.062 A 
ATOM     17  C   UNL     1     -10.296   8.765  18.133  1.00  0.00     0.016 A 
BRANCH  13  18
ATOM     18  O   UNL     1      -9.828  10.223  21.527  1.00  0.00    -0.493 OA
ATOM     19  C   UNL     1     -11.063  10.785  21.960  1.00  0.00     0.278 C 
ENDBRANCH  13  18
BRANCH  14  20
ATOM     20  O   UNL     1      -7.169  10.490  20.373  1.00  0.00    -0.493 OA
ATOM     21  C   UNL     1      -6.319   9.821  21.297  1.00  0.00     0.278 C 
ENDBRANCH  14  20
ENDBRANCH   1  12
BRANCH   8  22
ATOM     22  O   UNL     1      -6.259  10.902  14.207  1.00  0.00    -0.490 OA
ATOM     23  C   UNL     1      -5.087  11.020  15.005  1.00  0.00     0.278 C 
ENDBRANCH   8  22
BRANCH  11  24
ATOM     24  O   UNL     1      -8.036   6.172  11.729  1.00  0.00    -0.492 OA
ATOM     25  C   UNL     1      -8.946   6.098  10.636  1.00  0.00     0.278 C 
ENDBRANCH  11  24
BRANCH   9  26
ATOM     26  O   UNL     1      -5.467  10.350  11.499  1.00  0.00    -0.490 OA
ATOM     27  C   UNL     1      -4.043  10.347  11.510  1.00  0.00     0.279 C 
ENDBRANCH   9  26
BRANCH  10  28
ATOM     28  O   UNL     1      -6.582   8.037  10.204  1.00  0.00    -0.490 OA
ATOM     29  C   UNL     1      -5.401   7.371   9.765  1.00  0.00     0.278 C 
ENDBRANCH  10  28
TORSDOF 7
ENDMDL
MODEL 9
REMARK VINA RESULT:    -4.533      1.773      7.924
REMARK INTER + INTRA:          -7.034
REMARK INTER:                  -6.213
REMARK INTRA:                  -0.821
REMARK UNBOUND:                -0.645
REMARK SMILES COc1ccc(-c2cc(=O)c3c(OC)c(OC)c(OC)c(OC)c3o2)cc1OC
REMARK SMILES IDX 7 1 8 2 9 3 10 4 11 5 24 6 25 7 21 8 18 9 15 10 12 11 6 12
REMARK SMILES IDX 3 13 27 14 4 15 26 16 5 17 2 18 1 19 28 20 29 21 22 22 23 23
REMARK SMILES IDX 13 24 14 25 19 26 20 27 16 28 17 29
REMARK H PARENT
REMARK Flexibility Score: inf
ROOT
ATOM      1  C   UNL     1      -7.555   9.563  15.729  1.00  0.00     0.138 A 
ATOM      2  C   UNL     1      -6.443  10.022  15.008  1.00  0.00     0.100 A 
ATOM      3  C   UNL     1      -6.363   9.770  13.640  1.00  0.00     0.197 A 
ATOM      4  O   UNL     1      -5.357  10.187  13.003  1.00  0.00    -0.289 OA
ATOM      5  C   UNL     1      -7.397   9.052  12.999  1.00  0.00     0.115 A 
ATOM      6  C   UNL     1      -8.480   8.617  13.791  1.00  0.00     0.188 A 
ATOM      7  O   UNL     1      -8.507   8.885  15.095  1.00  0.00    -0.452 OA
ATOM      8  C   UNL     1      -9.548   7.910  13.228  1.00  0.00     0.209 A 
ATOM      9  C   UNL     1      -9.535   7.592  11.846  1.00  0.00     0.211 A 
ATOM     10  C   UNL     1      -8.425   7.987  11.055  1.00  0.00     0.208 A 
ATOM     11  C   UNL     1      -7.394   8.769  11.617  1.00  0.00     0.179 A 
ENDROOT
BRANCH   1  12
ATOM     12  C   UNL     1      -7.696   9.795  17.189  1.00  0.00     0.021 A 
ATOM     13  C   UNL     1      -8.017  10.285  19.958  1.00  0.00     0.160 A 
ATOM     14  C   UNL     1      -9.111  10.458  19.074  1.00  0.00     0.161 A 
ATOM     15  C   UNL     1      -6.774   9.879  19.436  1.00  0.00     0.051 A 
ATOM     16  C   UNL     1      -8.932  10.213  17.705  1.00  0.00     0.062 A 
ATOM     17  C   UNL     1      -6.614   9.642  18.071  1.00  0.00     0.016 A 
BRANCH  13  18
ATOM     18  O   UNL     1      -8.181  10.518  21.333  1.00  0.00    -0.493 OA
ATOM     19  C   UNL     1      -8.719   9.581  22.262  1.00  0.00     0.278 C 
ENDBRANCH  13  18
BRANCH  14  20
ATOM     20  O   UNL     1     -10.395  10.867  19.477  1.00  0.00    -0.493 OA
ATOM     21  C   UNL     1     -11.570  10.064  19.501  1.00  0.00     0.278 C 
ENDBRANCH  14  20
ENDBRANCH   1  12
BRANCH   8  22
ATOM     22  O   UNL     1     -10.590   7.551  14.107  1.00  0.00    -0.490 OA
ATOM     23  C   UNL     1     -10.786   6.289  14.735  1.00  0.00     0.278 C 
ENDBRANCH   8  22
BRANCH  11  24
ATOM     24  O   UNL     1      -6.370   9.275  10.808  1.00  0.00    -0.492 OA
ATOM     25  C   UNL     1      -6.579  10.353   9.901  1.00  0.00     0.278 C 
ENDBRANCH  11  24
BRANCH   9  26
ATOM     26  O   UNL     1     -10.627   6.881  11.312  1.00  0.00    -0.490 OA
ATOM     27  C   UNL     1     -11.748   7.413  10.614  1.00  0.00     0.279 C 
ENDBRANCH   9  26
BRANCH  10  28
ATOM     28  O   UNL     1      -8.341   7.589   9.717  1.00  0.00    -0.490 OA
ATOM     29  C   UNL     1      -7.802   6.331   9.322  1.00  0.00     0.278 C 
ENDBRANCH  10  28
TORSDOF 7
ENDMDL
