MODEL 1
REMARK VINA RESULT:    -2.305      0.000      0.000
REMARK INTER + INTRA:          -2.305
REMARK INTER:                  -2.305
REMARK INTRA:                   0.000
REMARK UNBOUND:                 0.000
REMARK SMILES CC(=O)[O-]
REMARK SMILES IDX 1 1 2 2 3 3 4 4
REMARK H PARENT
REMARK Flexibility Score: inf
ROOT
ATOM      1  C   UNL     1     -21.343   1.158 -18.357  1.00  0.00     0.063 C 
ATOM      2  C   UNL     1     -21.282  -0.229 -18.901  1.00  0.00     0.038 C 
ATOM      3  O   UNL     1     -21.715  -0.473 -20.058  1.00  0.00    -0.550 OA
ATOM      4  O   UNL     1     -20.696  -1.244 -18.156  1.00  0.00    -0.550 OA
ENDROOT
TORSDOF 0
ENDMDL
MODEL 2
REMARK VINA RESULT:    -2.297      1.376      1.775
REMARK INTER + INTRA:          -2.297
REMARK INTER:                  -2.297
REMARK INTRA:                   0.000
REMARK UNBOUND:                 0.000
REMARK SMILES CC(=O)[O-]
REMARK SMILES IDX 1 1 2 2 3 3 4 4
REMARK H PARENT
REMARK Flexibility Score: inf
ROOT
ATOM      1  C   UNL     1     -20.637  -0.958 -17.995  1.00  0.00     0.063 C 
ATOM      2  C   UNL     1     -21.235   0.028 -18.940  1.00  0.00     0.038 C 
ATOM      3  O   UNL     1     -21.760  -0.365 -20.014  1.00  0.00    -0.550 OA
ATOM      4  O   UNL     1     -21.263   1.379 -18.612  1.00  0.00    -0.550 OA
ENDROOT
TORSDOF 0
ENDMDL
MODEL 3
REMARK VINA RESULT:    -2.287      7.028      7.305
REMARK INTER + INTRA:          -2.287
REMARK INTER:                  -2.287
REMARK INTRA:                   0.000
REMARK UNBOUND:                 0.000
REMARK SMILES CC(=O)[O-]
REMARK SMILES IDX 1 1 2 2 3 3 4 4
REMARK H PARENT
REMARK Flexibility Score: inf
ROOT
ATOM      1  C   UNL     1     -19.938  -1.020 -25.899  1.00  0.00     0.063 C 
ATOM      2  C   UNL     1     -18.551  -0.640 -25.505  1.00  0.00     0.038 C 
ATOM      3  O   UNL     1     -18.004   0.373 -26.017  1.00  0.00    -0.550 OA
ATOM      4  O   UNL     1     -17.878  -1.370 -24.533  1.00  0.00    -0.550 OA
ENDROOT
TORSDOF 0
ENDMDL
MODEL 4
REMARK VINA RESULT:    -2.205      7.079      7.393
REMARK INTER + INTRA:          -2.205
REMARK INTER:                  -2.205
REMARK INTRA:                   0.000
REMARK UNBOUND:                 0.000
REMARK SMILES CC(=O)[O-]
REMARK SMILES IDX 1 1 2 2 3 3 4 4
REMARK H PARENT
REMARK Flexibility Score: inf
ROOT
ATOM      1  C   UNL     1     -17.751  -1.263 -24.432  1.00  0.00     0.063 C 
ATOM      2  C   UNL     1     -18.563  -0.657 -25.526  1.00  0.00     0.038 C 
ATOM      3  O   UNL     1     -18.160   0.384 -26.110  1.00  0.00    -0.550 OA
ATOM      4  O   UNL     1     -19.740  -1.268 -25.941  1.00  0.00    -0.550 OA
ENDROOT
TORSDOF 0
ENDMDL
MODEL 5
REMARK VINA RESULT:    -2.023      6.940      7.080
REMARK INTER + INTRA:          -2.023
REMARK INTER:                  -2.023
REMARK INTRA:                   0.000
REMARK UNBOUND:                 0.000
REMARK SMILES CC(=O)[O-]
REMARK SMILES IDX 1 1 2 2 3 3 4 4
REMARK H PARENT
REMARK Flexibility Score: inf
ROOT
ATOM      1  C   UNL     1     -18.300  -0.996 -25.019  1.00  0.00     0.063 C 
ATOM      2  C   UNL     1     -19.674  -0.745 -25.541  1.00  0.00     0.038 C 
ATOM      3  O   UNL     1     -20.336  -1.685 -26.055  1.00  0.00    -0.550 OA
ATOM      4  O   UNL     1     -20.249   0.513 -25.412  1.00  0.00    -0.550 OA
ENDROOT
TORSDOF 0
ENDMDL
MODEL 6
REMARK VINA RESULT:    -1.896      2.133      2.396
REMARK INTER + INTRA:          -1.896
REMARK INTER:                  -1.896
REMARK INTRA:                   0.000
REMARK UNBOUND:                 0.000
REMARK SMILES CC(=O)[O-]
REMARK SMILES IDX 1 1 2 2 3 3 4 4
REMARK H PARENT
REMARK Flexibility Score: inf
ROOT
ATOM      1  C   UNL     1     -21.812   1.974 -19.757  1.00  0.00     0.063 C 
ATOM      2  C   UNL     1     -21.444   1.385 -18.438  1.00  0.00     0.038 C 
ATOM      3  O   UNL     1     -20.603   0.450 -18.376  1.00  0.00    -0.550 OA
ATOM      4  O   UNL     1     -21.985   1.903 -17.268  1.00  0.00    -0.550 OA
ENDROOT
TORSDOF 0
ENDMDL
MODEL 7
REMARK VINA RESULT:    -1.891      6.834      7.094
REMARK INTER + INTRA:          -1.891
REMARK INTER:                  -1.891
REMARK INTRA:                   0.000
REMARK UNBOUND:                 0.000
REMARK SMILES CC(=O)[O-]
REMARK SMILES IDX 1 1 2 2 3 3 4 4
REMARK H PARENT
REMARK Flexibility Score: inf
ROOT
ATOM      1  C   UNL     1     -20.430   0.452 -25.326  1.00  0.00     0.063 C 
ATOM      2  C   UNL     1     -19.815  -0.868 -25.644  1.00  0.00     0.038 C 
ATOM      3  O   UNL     1     -18.608  -1.088 -25.360  1.00  0.00    -0.550 OA
ATOM      4  O   UNL     1     -20.586  -1.879 -26.205  1.00  0.00    -0.550 OA
ENDROOT
TORSDOF 0
ENDMDL
MODEL 8
REMARK VINA RESULT:    -1.725     17.598     17.768
REMARK INTER + INTRA:          -1.725
REMARK INTER:                  -1.725
REMARK INTRA:                   0.000
REMARK UNBOUND:                 0.000
REMARK SMILES CC(=O)[O-]
REMARK SMILES IDX 1 1 2 2 3 3 4 4
REMARK H PARENT
REMARK Flexibility Score: inf
ROOT
ATOM      1  C   UNL     1      -5.262   7.785 -21.813  1.00  0.00     0.063 C 
ATOM      2  C   UNL     1      -6.261   8.746 -21.264  1.00  0.00     0.038 C 
ATOM      3  O   UNL     1      -7.474   8.416 -21.178  1.00  0.00    -0.550 OA
ATOM      4  O   UNL     1      -5.850   9.987 -20.793  1.00  0.00    -0.550 OA
ENDROOT
TORSDOF 0
ENDMDL
MODEL 9
REMARK VINA RESULT:    -1.709     18.924     19.463
REMARK INTER + INTRA:          -1.709
REMARK INTER:                  -1.709
REMARK INTRA:                   0.000
REMARK UNBOUND:                 0.000
REMARK SMILES CC(=O)[O-]
REMARK SMILES IDX 1 1 2 2 3 3 4 4
REMARK H PARENT
REMARK Flexibility Score: inf
ROOT
ATOM      1  C   UNL     1      -6.704   0.275  -6.923  1.00  0.00     0.063 C 
ATOM      2  C   UNL     1      -5.412   0.237  -7.665  1.00  0.00     0.038 C 
ATOM      3  O   UNL     1      -4.482  -0.519  -7.278  1.00  0.00    -0.550 OA
ATOM      4  O   UNL     1      -5.249   0.995  -8.819  1.00  0.00    -0.550 OA
ENDROOT
TORSDOF 0
ENDMDL
