MODEL 1
REMARK VINA RESULT:    -3.348      0.000      0.000
REMARK INTER + INTRA:          -8.346
REMARK INTER:                  -6.088
REMARK INTRA:                  -2.258
REMARK UNBOUND:                -2.258
REMARK SMILES CCCCCCCCCCCCCC[C@@H](C)C(=O)[O-]
REMARK SMILES IDX 9 1 10 2 11 3 12 4 13 5 14 6 15 7 16 8 17 9 18 10 19 11 8 12
REMARK SMILES IDX 7 13 6 14 5 15 4 16 3 17 2 18 1 19
REMARK H PARENT
REMARK Flexibility Score: inf
ROOT
ATOM      1  C   UNL     1      26.318  -3.994 -28.130  1.00  0.00     0.000 C 
ENDROOT
BRANCH   1   2
ATOM      2  C   UNL     1      25.292  -3.952 -29.280  1.00  0.00     0.000 C 
BRANCH   2   3
ATOM      3  C   UNL     1      25.708  -4.785 -30.513  1.00  0.00     0.000 C 
BRANCH   3   4
ATOM      4  C   UNL     1      24.498  -5.385 -31.250  1.00  0.00     0.000 C 
BRANCH   4   5
ATOM      5  C   UNL     1      24.536  -5.119 -32.764  1.00  0.00     0.001 C 
BRANCH   5   6
ATOM      6  C   UNL     1      23.461  -4.105 -33.208  1.00  0.00     0.009 C 
BRANCH   6   7
ATOM      7  C   UNL     1      24.020  -2.881 -33.968  1.00  0.00     0.032 C 
ATOM      8  C   UNL     1      25.270  -2.287 -33.304  1.00  0.00     0.014 C 
BRANCH   7   9
ATOM      9  C   UNL     1      24.260  -3.191 -35.423  1.00  0.00     0.044 C 
ATOM     10  O   UNL     1      23.338  -3.014 -36.262  1.00  0.00    -0.550 OA
ATOM     11  O   UNL     1      25.472  -3.723 -35.846  1.00  0.00    -0.550 OA
ENDBRANCH   7   9
ENDBRANCH   6   7
ENDBRANCH   5   6
ENDBRANCH   4   5
ENDBRANCH   3   4
ENDBRANCH   2   3
ENDBRANCH   1   2
BRANCH   1  12
ATOM     12  C   UNL     1      25.722  -4.300 -26.743  1.00  0.00     0.000 C 
BRANCH  12  13
ATOM     13  C   UNL     1      24.183  -4.403 -26.705  1.00  0.00    -0.000 C 
BRANCH  13  14
ATOM     14  C   UNL     1      23.628  -5.758 -26.222  1.00  0.00    -0.000 C 
BRANCH  14  15
ATOM     15  C   UNL     1      24.455  -6.987 -26.641  1.00  0.00    -0.000 C 
BRANCH  15  16
ATOM     16  C   UNL     1      24.179  -7.427 -28.086  1.00  0.00    -0.000 C 
BRANCH  16  17
ATOM     17  C   UNL     1      25.457  -7.952 -28.753  1.00  0.00    -0.000 C 
BRANCH  17  18
ATOM     18  C   UNL     1      26.633  -7.944 -27.770  1.00  0.00    -0.003 C 
ATOM     19  C   UNL     1      27.831  -7.199 -28.350  1.00  0.00     0.004 C 
ENDBRANCH  17  18
ENDBRANCH  16  17
ENDBRANCH  15  16
ENDBRANCH  14  15
ENDBRANCH  13  14
ENDBRANCH  12  13
ENDBRANCH   1  12
TORSDOF 14
ENDMDL
MODEL 2
REMARK VINA RESULT:    -3.296     12.697     15.397
REMARK INTER + INTRA:          -8.251
REMARK INTER:                  -5.905
REMARK INTRA:                  -2.346
REMARK UNBOUND:                -2.258
REMARK SMILES CCCCCCCCCCCCCC[C@@H](C)C(=O)[O-]
REMARK SMILES IDX 9 1 10 2 11 3 12 4 13 5 14 6 15 7 16 8 17 9 18 10 19 11 8 12
REMARK SMILES IDX 7 13 6 14 5 15 4 16 3 17 2 18 1 19
REMARK H PARENT
REMARK Flexibility Score: inf
ROOT
ATOM      1  C   UNL     1      33.877   4.087 -32.935  1.00  0.00     0.000 C 
ENDROOT
BRANCH   1   2
ATOM      2  C   UNL     1      32.409   4.239 -32.492  1.00  0.00     0.000 C 
BRANCH   2   3
ATOM      3  C   UNL     1      32.187   3.997 -30.982  1.00  0.00     0.000 C 
BRANCH   3   4
ATOM      4  C   UNL     1      33.195   2.994 -30.395  1.00  0.00     0.000 C 
BRANCH   4   5
ATOM      5  C   UNL     1      34.020   3.589 -29.242  1.00  0.00     0.001 C 
BRANCH   5   6
ATOM      6  C   UNL     1      33.142   4.339 -28.218  1.00  0.00     0.009 C 
BRANCH   6   7
ATOM      7  C   UNL     1      33.869   5.482 -27.475  1.00  0.00     0.032 C 
ATOM      8  C   UNL     1      32.909   6.384 -26.686  1.00  0.00     0.014 C 
BRANCH   7   9
ATOM      9  C   UNL     1      34.982   4.960 -26.604  1.00  0.00     0.044 C 
ATOM     10  O   UNL     1      36.125   4.767 -27.096  1.00  0.00    -0.550 OA
ATOM     11  O   UNL     1      34.751   4.638 -25.272  1.00  0.00    -0.550 OA
ENDBRANCH   7   9
ENDBRANCH   6   7
ENDBRANCH   5   6
ENDBRANCH   4   5
ENDBRANCH   3   4
ENDBRANCH   2   3
ENDBRANCH   1   2
BRANCH   1  12
ATOM     12  C   UNL     1      34.645   5.413 -33.095  1.00  0.00     0.000 C 
BRANCH  12  13
ATOM     13  C   UNL     1      35.634   5.733 -31.956  1.00  0.00    -0.000 C 
BRANCH  13  14
ATOM     14  C   UNL     1      35.054   6.572 -30.799  1.00  0.00    -0.000 C 
BRANCH  14  15
ATOM     15  C   UNL     1      33.953   7.568 -31.206  1.00  0.00    -0.000 C 
BRANCH  15  16
ATOM     16  C   UNL     1      32.635   7.342 -30.450  1.00  0.00    -0.000 C 
BRANCH  16  17
ATOM     17  C   UNL     1      31.854   8.654 -30.305  1.00  0.00    -0.000 C 
BRANCH  17  18
ATOM     18  C   UNL     1      32.684   9.710 -29.568  1.00  0.00    -0.003 C 
ATOM     19  C   UNL     1      32.348   9.735 -28.080  1.00  0.00     0.004 C 
ENDBRANCH  17  18
ENDBRANCH  16  17
ENDBRANCH  15  16
ENDBRANCH  14  15
ENDBRANCH  13  14
ENDBRANCH  12  13
ENDBRANCH   1  12
TORSDOF 14
ENDMDL
MODEL 3
REMARK VINA RESULT:    -3.262      9.960     12.488
REMARK INTER + INTRA:          -8.190
REMARK INTER:                  -6.070
REMARK INTRA:                  -2.120
REMARK UNBOUND:                -2.258
REMARK SMILES CCCCCCCCCCCCCC[C@@H](C)C(=O)[O-]
REMARK SMILES IDX 9 1 10 2 11 3 12 4 13 5 14 6 15 7 16 8 17 9 18 10 19 11 8 12
REMARK SMILES IDX 7 13 6 14 5 15 4 16 3 17 2 18 1 19
REMARK H PARENT
REMARK Flexibility Score: inf
ROOT
ATOM      1  C   UNL     1      29.664   0.739 -35.815  1.00  0.00     0.000 C 
ENDROOT
BRANCH   1   2
ATOM      2  C   UNL     1      30.798   1.748 -35.549  1.00  0.00     0.000 C 
BRANCH   2   3
ATOM      3  C   UNL     1      31.163   1.893 -34.055  1.00  0.00     0.000 C 
BRANCH   3   4
ATOM      4  C   UNL     1      32.529   1.269 -33.721  1.00  0.00     0.000 C 
BRANCH   4   5
ATOM      5  C   UNL     1      33.500   2.277 -33.084  1.00  0.00     0.001 C 
BRANCH   5   6
ATOM      6  C   UNL     1      33.060   3.738 -33.311  1.00  0.00     0.009 C 
BRANCH   6   7
ATOM      7  C   UNL     1      33.280   4.663 -32.092  1.00  0.00     0.032 C 
ATOM      8  C   UNL     1      33.534   3.885 -30.793  1.00  0.00     0.014 C 
BRANCH   7   9
ATOM      9  C   UNL     1      34.364   5.677 -32.351  1.00  0.00     0.044 C 
ATOM     10  O   UNL     1      34.340   6.786 -31.755  1.00  0.00    -0.550 OA
ATOM     11  O   UNL     1      35.365   5.426 -33.281  1.00  0.00    -0.550 OA
ENDBRANCH   7   9
ENDBRANCH   6   7
ENDBRANCH   5   6
ENDBRANCH   4   5
ENDBRANCH   3   4
ENDBRANCH   2   3
ENDBRANCH   1   2
BRANCH   1  12
ATOM     12  C   UNL     1      29.558   0.254 -37.273  1.00  0.00     0.000 C 
BRANCH  12  13
ATOM     13  C   UNL     1      30.764   0.610 -38.166  1.00  0.00    -0.000 C 
BRANCH  13  14
ATOM     14  C   UNL     1      31.652  -0.582 -38.576  1.00  0.00    -0.000 C 
BRANCH  14  15
ATOM     15  C   UNL     1      33.143  -0.436 -38.220  1.00  0.00    -0.000 C 
BRANCH  15  16
ATOM     16  C   UNL     1      33.408  -0.535 -36.711  1.00  0.00    -0.000 C 
BRANCH  16  17
ATOM     17  C   UNL     1      33.215  -1.974 -36.214  1.00  0.00    -0.000 C 
BRANCH  17  18
ATOM     18  C   UNL     1      32.088  -2.051 -35.178  1.00  0.00    -0.003 C 
ATOM     19  C   UNL     1      30.904  -2.852 -35.712  1.00  0.00     0.004 C 
ENDBRANCH  17  18
ENDBRANCH  16  17
ENDBRANCH  15  16
ENDBRANCH  14  15
ENDBRANCH  13  14
ENDBRANCH  12  13
ENDBRANCH   1  12
TORSDOF 14
ENDMDL
MODEL 4
REMARK VINA RESULT:    -3.257      6.402      9.520
REMARK INTER + INTRA:          -8.180
REMARK INTER:                  -5.768
REMARK INTRA:                  -2.412
REMARK UNBOUND:                -2.258
REMARK SMILES CCCCCCCCCCCCCC[C@@H](C)C(=O)[O-]
REMARK SMILES IDX 9 1 10 2 11 3 12 4 13 5 14 6 15 7 16 8 17 9 18 10 19 11 8 12
REMARK SMILES IDX 7 13 6 14 5 15 4 16 3 17 2 18 1 19
REMARK H PARENT
REMARK Flexibility Score: inf
ROOT
ATOM      1  C   UNL     1      30.523  -2.023 -35.556  1.00  0.00     0.000 C 
ENDROOT
BRANCH   1   2
ATOM      2  C   UNL     1      31.806  -1.484 -34.894  1.00  0.00     0.000 C 
BRANCH   2   3
ATOM      3  C   UNL     1      32.668  -0.610 -35.832  1.00  0.00     0.000 C 
BRANCH   3   4
ATOM      4  C   UNL     1      33.194  -1.395 -37.046  1.00  0.00     0.000 C 
BRANCH   4   5
ATOM      5  C   UNL     1      32.570  -0.925 -38.371  1.00  0.00     0.001 C 
BRANCH   5   6
ATOM      6  C   UNL     1      31.982   0.498 -38.269  1.00  0.00     0.009 C 
BRANCH   6   7
ATOM      7  C   UNL     1      30.482   0.591 -38.632  1.00  0.00     0.032 C 
ATOM      8  C   UNL     1      29.954  -0.679 -39.313  1.00  0.00     0.014 C 
BRANCH   7   9
ATOM      9  C   UNL     1      29.644   0.970 -37.439  1.00  0.00     0.044 C 
ATOM     10  O   UNL     1      28.442   0.600 -37.374  1.00  0.00    -0.550 OA
ATOM     11  O   UNL     1      30.165   1.770 -36.429  1.00  0.00    -0.550 OA
ENDBRANCH   7   9
ENDBRANCH   6   7
ENDBRANCH   5   6
ENDBRANCH   4   5
ENDBRANCH   3   4
ENDBRANCH   2   3
ENDBRANCH   1   2
BRANCH   1  12
ATOM     12  C   UNL     1      30.553  -3.525 -35.897  1.00  0.00     0.000 C 
BRANCH  12  13
ATOM     13  C   UNL     1      30.291  -3.860 -37.379  1.00  0.00    -0.000 C 
BRANCH  13  14
ATOM     14  C   UNL     1      28.871  -4.371 -37.696  1.00  0.00    -0.000 C 
BRANCH  14  15
ATOM     15  C   UNL     1      27.792  -3.277 -37.796  1.00  0.00    -0.000 C 
BRANCH  15  16
ATOM     16  C   UNL     1      26.835  -3.271 -36.595  1.00  0.00    -0.000 C 
BRANCH  16  17
ATOM     17  C   UNL     1      26.406  -4.697 -36.228  1.00  0.00    -0.000 C 
BRANCH  17  18
ATOM     18  C   UNL     1      26.350  -4.879 -34.707  1.00  0.00    -0.003 C 
ATOM     19  C   UNL     1      27.447  -4.077 -34.015  1.00  0.00     0.004 C 
ENDBRANCH  17  18
ENDBRANCH  16  17
ENDBRANCH  15  16
ENDBRANCH  14  15
ENDBRANCH  13  14
ENDBRANCH  12  13
ENDBRANCH   1  12
TORSDOF 14
ENDMDL
MODEL 5
REMARK VINA RESULT:    -3.235     10.348     12.769
REMARK INTER + INTRA:          -8.140
REMARK INTER:                  -6.917
REMARK INTRA:                  -1.222
REMARK UNBOUND:                -2.258
REMARK SMILES CCCCCCCCCCCCCC[C@@H](C)C(=O)[O-]
REMARK SMILES IDX 9 1 10 2 11 3 12 4 13 5 14 6 15 7 16 8 17 9 18 10 19 11 8 12
REMARK SMILES IDX 7 13 6 14 5 15 4 16 3 17 2 18 1 19
REMARK H PARENT
REMARK Flexibility Score: inf
ROOT
ATOM      1  C   UNL     1      33.481   2.757 -33.299  1.00  0.00     0.000 C 
ENDROOT
BRANCH   1   2
ATOM      2  C   UNL     1      32.358   1.877 -33.880  1.00  0.00     0.000 C 
BRANCH   2   3
ATOM      3  C   UNL     1      32.666   0.364 -33.830  1.00  0.00     0.000 C 
BRANCH   3   4
ATOM      4  C   UNL     1      32.398  -0.335 -35.174  1.00  0.00     0.000 C 
BRANCH   4   5
ATOM      5  C   UNL     1      33.617  -0.302 -36.111  1.00  0.00     0.001 C 
BRANCH   5   6
ATOM      6  C   UNL     1      33.222  -0.022 -37.576  1.00  0.00     0.009 C 
BRANCH   6   7
ATOM      7  C   UNL     1      31.735  -0.298 -37.896  1.00  0.00     0.032 C 
ATOM      8  C   UNL     1      31.067   0.854 -38.659  1.00  0.00     0.014 C 
BRANCH   7   9
ATOM      9  C   UNL     1      31.554  -1.613 -38.608  1.00  0.00     0.044 C 
ATOM     10  O   UNL     1      32.524  -2.134 -39.220  1.00  0.00    -0.550 OA
ATOM     11  O   UNL     1      30.313  -2.237 -38.645  1.00  0.00    -0.550 OA
ENDBRANCH   7   9
ENDBRANCH   6   7
ENDBRANCH   5   6
ENDBRANCH   4   5
ENDBRANCH   3   4
ENDBRANCH   2   3
ENDBRANCH   1   2
BRANCH   1  12
ATOM     12  C   UNL     1      33.085   4.223 -33.038  1.00  0.00     0.000 C 
BRANCH  12  13
ATOM     13  C   UNL     1      34.268   5.206 -32.929  1.00  0.00    -0.000 C 
BRANCH  13  14
ATOM     14  C   UNL     1      35.053   5.144 -31.602  1.00  0.00    -0.000 C 
BRANCH  14  15
ATOM     15  C   UNL     1      35.361   6.511 -30.964  1.00  0.00    -0.000 C 
BRANCH  15  16
ATOM     16  C   UNL     1      34.266   7.554 -31.230  1.00  0.00    -0.000 C 
BRANCH  16  17
ATOM     17  C   UNL     1      33.181   7.497 -30.147  1.00  0.00    -0.000 C 
BRANCH  17  18
ATOM     18  C   UNL     1      31.808   7.200 -30.761  1.00  0.00    -0.003 C 
ATOM     19  C   UNL     1      31.230   5.899 -30.213  1.00  0.00     0.004 C 
ENDBRANCH  17  18
ENDBRANCH  16  17
ENDBRANCH  15  16
ENDBRANCH  14  15
ENDBRANCH  13  14
ENDBRANCH  12  13
ENDBRANCH   1  12
TORSDOF 14
ENDMDL
MODEL 6
REMARK VINA RESULT:    -3.210     12.427     14.744
REMARK INTER + INTRA:          -8.094
REMARK INTER:                  -5.626
REMARK INTRA:                  -2.468
REMARK UNBOUND:                -2.258
REMARK SMILES CCCCCCCCCCCCCC[C@@H](C)C(=O)[O-]
REMARK SMILES IDX 9 1 10 2 11 3 12 4 13 5 14 6 15 7 16 8 17 9 18 10 19 11 8 12
REMARK SMILES IDX 7 13 6 14 5 15 4 16 3 17 2 18 1 19
REMARK H PARENT
REMARK Flexibility Score: inf
ROOT
ATOM      1  C   UNL     1      32.693   2.924 -30.845  1.00  0.00     0.000 C 
ENDROOT
BRANCH   1   2
ATOM      2  C   UNL     1      31.262   3.358 -30.474  1.00  0.00     0.000 C 
BRANCH   2   3
ATOM      3  C   UNL     1      31.157   4.834 -30.028  1.00  0.00     0.000 C 
BRANCH   3   4
ATOM      4  C   UNL     1      30.784   5.773 -31.188  1.00  0.00     0.000 C 
BRANCH   4   5
ATOM      5  C   UNL     1      30.948   7.258 -30.825  1.00  0.00     0.001 C 
BRANCH   5   6
ATOM      6  C   UNL     1      31.273   7.463 -29.331  1.00  0.00     0.009 C 
BRANCH   6   7
ATOM      7  C   UNL     1      32.461   8.416 -29.065  1.00  0.00     0.032 C 
ATOM      8  C   UNL     1      32.643   9.463 -30.174  1.00  0.00     0.014 C 
BRANCH   7   9
ATOM      9  C   UNL     1      32.365   9.059 -27.707  1.00  0.00     0.044 C 
ATOM     10  O   UNL     1      32.138  10.294 -27.612  1.00  0.00    -0.550 OA
ATOM     11  O   UNL     1      32.576   8.316 -26.551  1.00  0.00    -0.550 OA
ENDBRANCH   7   9
ENDBRANCH   6   7
ENDBRANCH   5   6
ENDBRANCH   4   5
ENDBRANCH   3   4
ENDBRANCH   2   3
ENDBRANCH   1   2
BRANCH   1  12
ATOM     12  C   UNL     1      32.843   2.327 -32.258  1.00  0.00     0.000 C 
BRANCH  12  13
ATOM     13  C   UNL     1      33.551   3.241 -33.278  1.00  0.00    -0.000 C 
BRANCH  13  14
ATOM     14  C   UNL     1      33.673   4.721 -32.860  1.00  0.00    -0.000 C 
BRANCH  14  15
ATOM     15  C   UNL     1      35.046   5.363 -33.131  1.00  0.00    -0.000 C 
BRANCH  15  16
ATOM     16  C   UNL     1      35.661   6.006 -31.880  1.00  0.00    -0.000 C 
BRANCH  16  17
ATOM     17  C   UNL     1      34.654   6.029 -30.723  1.00  0.00    -0.000 C 
BRANCH  17  18
ATOM     18  C   UNL     1      35.229   5.341 -29.480  1.00  0.00    -0.003 C 
ATOM     19  C   UNL     1      34.218   5.334 -28.337  1.00  0.00     0.004 C 
ENDBRANCH  17  18
ENDBRANCH  16  17
ENDBRANCH  15  16
ENDBRANCH  14  15
ENDBRANCH  13  14
ENDBRANCH  12  13
ENDBRANCH   1  12
TORSDOF 14
ENDMDL
MODEL 7
REMARK VINA RESULT:    -3.209     13.495     15.826
REMARK INTER + INTRA:          -8.094
REMARK INTER:                  -5.873
REMARK INTRA:                  -2.221
REMARK UNBOUND:                -2.258
REMARK SMILES CCCCCCCCCCCCCC[C@@H](C)C(=O)[O-]
REMARK SMILES IDX 9 1 10 2 11 3 12 4 13 5 14 6 15 7 16 8 17 9 18 10 19 11 8 12
REMARK SMILES IDX 7 13 6 14 5 15 4 16 3 17 2 18 1 19
REMARK H PARENT
REMARK Flexibility Score: inf
ROOT
ATOM      1  C   UNL     1      31.409   4.897 -31.698  1.00  0.00     0.000 C 
ENDROOT
BRANCH   1   2
ATOM      2  C   UNL     1      31.075   6.388 -31.498  1.00  0.00     0.000 C 
BRANCH   2   3
ATOM      3  C   UNL     1      31.798   7.030 -30.293  1.00  0.00     0.000 C 
BRANCH   3   4
ATOM      4  C   UNL     1      32.754   8.158 -30.716  1.00  0.00     0.000 C 
BRANCH   4   5
ATOM      5  C   UNL     1      32.645   9.398 -29.813  1.00  0.00     0.001 C 
BRANCH   5   6
ATOM      6  C   UNL     1      32.742   9.041 -28.315  1.00  0.00     0.009 C 
BRANCH   6   7
ATOM      7  C   UNL     1      32.158  10.114 -27.368  1.00  0.00     0.032 C 
ATOM      8  C   UNL     1      30.756   9.756 -26.857  1.00  0.00     0.014 C 
BRANCH   7   9
ATOM      9  C   UNL     1      33.098  10.427 -26.234  1.00  0.00     0.044 C 
ATOM     10  O   UNL     1      33.839  11.444 -26.296  1.00  0.00    -0.550 OA
ATOM     11  O   UNL     1      33.200   9.578 -25.139  1.00  0.00    -0.550 OA
ENDBRANCH   7   9
ENDBRANCH   6   7
ENDBRANCH   5   6
ENDBRANCH   4   5
ENDBRANCH   3   4
ENDBRANCH   2   3
ENDBRANCH   1   2
BRANCH   1  12
ATOM     12  C   UNL     1      32.027   4.550 -33.066  1.00  0.00     0.000 C 
BRANCH  12  13
ATOM     13  C   UNL     1      33.523   4.178 -33.028  1.00  0.00    -0.000 C 
BRANCH  13  14
ATOM     14  C   UNL     1      34.498   5.363 -33.180  1.00  0.00    -0.000 C 
BRANCH  14  15
ATOM     15  C   UNL     1      35.211   5.791 -31.885  1.00  0.00    -0.000 C 
BRANCH  15  16
ATOM     16  C   UNL     1      34.895   4.869 -30.698  1.00  0.00    -0.000 C 
BRANCH  16  17
ATOM     17  C   UNL     1      35.107   5.599 -29.365  1.00  0.00    -0.000 C 
BRANCH  17  18
ATOM     18  C   UNL     1      34.074   5.152 -28.324  1.00  0.00    -0.003 C 
ATOM     19  C   UNL     1      33.385   3.860 -28.751  1.00  0.00     0.004 C 
ENDBRANCH  17  18
ENDBRANCH  16  17
ENDBRANCH  15  16
ENDBRANCH  14  15
ENDBRANCH  13  14
ENDBRANCH  12  13
ENDBRANCH   1  12
TORSDOF 14
ENDMDL
MODEL 8
REMARK VINA RESULT:    -3.177      6.237      9.748
REMARK INTER + INTRA:          -8.035
REMARK INTER:                  -5.195
REMARK INTRA:                  -2.839
REMARK UNBOUND:                -2.258
REMARK SMILES CCCCCCCCCCCCCC[C@@H](C)C(=O)[O-]
REMARK SMILES IDX 9 1 10 2 11 3 12 4 13 5 14 6 15 7 16 8 17 9 18 10 19 11 8 12
REMARK SMILES IDX 7 13 6 14 5 15 4 16 3 17 2 18 1 19
REMARK H PARENT
REMARK Flexibility Score: inf
ROOT
ATOM      1  C   UNL     1      30.077  -1.206 -34.873  1.00  0.00     0.000 C 
ENDROOT
BRANCH   1   2
ATOM      2  C   UNL     1      30.810  -2.419 -35.476  1.00  0.00     0.000 C 
BRANCH   2   3
ATOM      3  C   UNL     1      29.911  -3.664 -35.650  1.00  0.00     0.000 C 
BRANCH   3   4
ATOM      4  C   UNL     1      29.578  -3.946 -37.126  1.00  0.00     0.000 C 
BRANCH   4   5
ATOM      5  C   UNL     1      28.134  -4.436 -37.324  1.00  0.00     0.001 C 
BRANCH   5   6
ATOM      6  C   UNL     1      27.102  -3.299 -37.169  1.00  0.00     0.009 C 
BRANCH   6   7
ATOM      7  C   UNL     1      26.155  -3.463 -35.958  1.00  0.00     0.032 C 
ATOM      8  C   UNL     1      26.376  -4.781 -35.204  1.00  0.00     0.014 C 
BRANCH   7   9
ATOM      9  C   UNL     1      26.225  -2.276 -35.033  1.00  0.00     0.044 C 
ATOM     10  O   UNL     1      25.822  -1.150 -35.426  1.00  0.00    -0.550 OA
ATOM     11  O   UNL     1      26.779  -2.395 -33.764  1.00  0.00    -0.550 OA
ENDBRANCH   7   9
ENDBRANCH   6   7
ENDBRANCH   5   6
ENDBRANCH   4   5
ENDBRANCH   3   4
ENDBRANCH   2   3
ENDBRANCH   1   2
BRANCH   1  12
ATOM     12  C   UNL     1      30.005   0.029 -35.792  1.00  0.00     0.000 C 
BRANCH  12  13
ATOM     13  C   UNL     1      28.858   0.007 -36.821  1.00  0.00    -0.000 C 
BRANCH  13  14
ATOM     14  C   UNL     1      29.258  -0.442 -38.241  1.00  0.00    -0.000 C 
BRANCH  14  15
ATOM     15  C   UNL     1      30.720  -0.152 -38.628  1.00  0.00    -0.000 C 
BRANCH  15  16
ATOM     16  C   UNL     1      31.518  -1.427 -38.939  1.00  0.00    -0.000 C 
BRANCH  16  17
ATOM     17  C   UNL     1      32.997  -1.251 -38.570  1.00  0.00    -0.000 C 
BRANCH  17  18
ATOM     18  C   UNL     1      33.205   0.004 -37.717  1.00  0.00    -0.003 C 
ATOM     19  C   UNL     1      33.704  -0.355 -36.320  1.00  0.00     0.004 C 
ENDBRANCH  17  18
ENDBRANCH  16  17
ENDBRANCH  15  16
ENDBRANCH  14  15
ENDBRANCH  13  14
ENDBRANCH  12  13
ENDBRANCH   1  12
TORSDOF 14
ENDMDL
MODEL 9
REMARK VINA RESULT:    -3.149      3.649      7.023
REMARK INTER + INTRA:          -7.983
REMARK INTER:                  -5.448
REMARK INTRA:                  -2.536
REMARK UNBOUND:                -2.258
REMARK SMILES CCCCCCCCCCCCCC[C@@H](C)C(=O)[O-]
REMARK SMILES IDX 9 1 10 2 11 3 12 4 13 5 14 6 15 7 16 8 17 9 18 10 19 11 8 12
REMARK SMILES IDX 7 13 6 14 5 15 4 16 3 17 2 18 1 19
REMARK H PARENT
REMARK Flexibility Score: inf
ROOT
ATOM      1  C   UNL     1      25.781  -2.801 -29.921  1.00  0.00     0.000 C 
ENDROOT
BRANCH   1   2
ATOM      2  C   UNL     1      25.287  -4.055 -29.174  1.00  0.00     0.000 C 
BRANCH   2   3
ATOM      3  C   UNL     1      23.830  -4.443 -29.508  1.00  0.00     0.000 C 
BRANCH   3   4
ATOM      4  C   UNL     1      23.694  -5.921 -29.913  1.00  0.00     0.000 C 
BRANCH   4   5
ATOM      5  C   UNL     1      24.904  -6.767 -29.481  1.00  0.00     0.001 C 
BRANCH   5   6
ATOM      6  C   UNL     1      24.531  -7.826 -28.423  1.00  0.00     0.009 C 
BRANCH   6   7
ATOM      7  C   UNL     1      25.412  -7.792 -27.153  1.00  0.00     0.032 C 
ATOM      8  C   UNL     1      26.904  -7.620 -27.470  1.00  0.00     0.014 C 
BRANCH   7   9
ATOM      9  C   UNL     1      24.931  -6.759 -26.169  1.00  0.00     0.044 C 
ATOM     10  O   UNL     1      25.654  -6.443 -25.188  1.00  0.00    -0.550 OA
ATOM     11  O   UNL     1      23.673  -6.183 -26.299  1.00  0.00    -0.550 OA
ENDBRANCH   7   9
ENDBRANCH   6   7
ENDBRANCH   5   6
ENDBRANCH   4   5
ENDBRANCH   3   4
ENDBRANCH   2   3
ENDBRANCH   1   2
BRANCH   1  12
ATOM     12  C   UNL     1      26.987  -3.035 -30.851  1.00  0.00     0.000 C 
BRANCH  12  13
ATOM     13  C   UNL     1      26.979  -4.384 -31.597  1.00  0.00    -0.000 C 
BRANCH  13  14
ATOM     14  C   UNL     1      26.349  -4.353 -33.004  1.00  0.00    -0.000 C 
BRANCH  14  15
ATOM     15  C   UNL     1      24.934  -4.952 -33.098  1.00  0.00    -0.000 C 
BRANCH  15  16
ATOM     16  C   UNL     1      23.935  -4.017 -33.793  1.00  0.00    -0.000 C 
BRANCH  16  17
ATOM     17  C   UNL     1      23.398  -2.963 -32.816  1.00  0.00    -0.000 C 
BRANCH  17  18
ATOM     18  C   UNL     1      23.503  -1.556 -33.414  1.00  0.00    -0.003 C 
ATOM     19  C   UNL     1      24.684  -0.793 -32.823  1.00  0.00     0.004 C 
ENDBRANCH  17  18
ENDBRANCH  16  17
ENDBRANCH  15  16
ENDBRANCH  14  15
ENDBRANCH  13  14
ENDBRANCH  12  13
ENDBRANCH   1  12
TORSDOF 14
ENDMDL
