MODEL 1
REMARK VINA RESULT:    -3.350      0.000      0.000
REMARK INTER + INTRA:          -3.769
REMARK INTER:                  -3.742
REMARK INTRA:                  -0.028
REMARK UNBOUND:                -0.028
REMARK SMILES CC(C)CC=O
REMARK SMILES IDX 4 1 2 2 1 3 3 4 5 5 6 6
REMARK H PARENT
REMARK Flexibility Score: inf
ROOT
ATOM      1  C   UNL     1      24.504  57.684  -8.051  1.00  0.00     0.075 C 
ENDROOT
BRANCH   1   2
ATOM      2  C   UNL     1      24.456  56.153  -7.871  1.00  0.00    -0.010 C 
ATOM      3  C   UNL     1      25.823  55.631  -7.411  1.00  0.00     0.008 C 
ATOM      4  C   UNL     1      23.371  55.740  -6.865  1.00  0.00     0.008 C 
ENDBRANCH   1   2
BRANCH   1   5
ATOM      5  C   UNL     1      25.879  58.168  -8.409  1.00  0.00     0.224 C 
ATOM      6  O   UNL     1      26.103  59.362  -8.534  1.00  0.00    -0.303 OA
ENDBRANCH   1   5
TORSDOF 2
ENDMDL
MODEL 2
REMARK VINA RESULT:    -3.048     15.832     17.029
REMARK INTER + INTRA:          -3.432
REMARK INTER:                  -3.365
REMARK INTRA:                  -0.068
REMARK UNBOUND:                -0.028
REMARK SMILES CC(C)CC=O
REMARK SMILES IDX 4 1 2 2 1 3 3 4 5 5 6 6
REMARK H PARENT
REMARK Flexibility Score: inf
ROOT
ATOM      1  C   UNL     1      20.093  43.396   2.088  1.00  0.00     0.075 C 
ENDROOT
BRANCH   1   2
ATOM      2  C   UNL     1      19.129  44.407   1.434  1.00  0.00    -0.010 C 
ATOM      3  C   UNL     1      19.920  45.461   0.650  1.00  0.00     0.008 C 
ATOM      4  C   UNL     1      18.124  43.706   0.506  1.00  0.00     0.008 C 
ENDBRANCH   1   2
BRANCH   1   5
ATOM      5  C   UNL     1      21.386  43.279   1.335  1.00  0.00     0.224 C 
ATOM      6  O   UNL     1      21.590  42.328   0.598  1.00  0.00    -0.303 OA
ENDBRANCH   1   5
TORSDOF 2
ENDMDL
MODEL 3
REMARK VINA RESULT:    -3.014     15.577     16.621
REMARK INTER + INTRA:          -3.394
REMARK INTER:                  -3.336
REMARK INTRA:                  -0.058
REMARK UNBOUND:                -0.028
REMARK SMILES CC(C)CC=O
REMARK SMILES IDX 4 1 2 2 1 3 3 4 5 5 6 6
REMARK H PARENT
REMARK Flexibility Score: inf
ROOT
ATOM      1  C   UNL     1      20.312  44.386   1.744  1.00  0.00     0.075 C 
ENDROOT
BRANCH   1   2
ATOM      2  C   UNL     1      20.339  42.901   1.328  1.00  0.00    -0.010 C 
ATOM      3  C   UNL     1      19.091  42.559   0.505  1.00  0.00     0.008 C 
ATOM      4  C   UNL     1      21.605  42.565   0.526  1.00  0.00     0.008 C 
ENDBRANCH   1   2
BRANCH   1   5
ATOM      5  C   UNL     1      19.518  45.226   0.787  1.00  0.00     0.224 C 
ATOM      6  O   UNL     1      20.045  46.152   0.191  1.00  0.00    -0.303 OA
ENDBRANCH   1   5
TORSDOF 2
ENDMDL
MODEL 4
REMARK VINA RESULT:    -2.935     16.228     17.412
REMARK INTER + INTRA:          -3.306
REMARK INTER:                  -3.239
REMARK INTRA:                  -0.066
REMARK UNBOUND:                -0.028
REMARK SMILES CC(C)CC=O
REMARK SMILES IDX 4 1 2 2 1 3 3 4 5 5 6 6
REMARK H PARENT
REMARK Flexibility Score: inf
ROOT
ATOM      1  C   UNL     1      19.041  42.949   1.653  1.00  0.00     0.075 C 
ENDROOT
BRANCH   1   2
ATOM      2  C   UNL     1      20.334  43.788   1.602  1.00  0.00    -0.010 C 
ATOM      3  C   UNL     1      21.460  42.988   0.936  1.00  0.00     0.008 C 
ATOM      4  C   UNL     1      20.117  45.112   0.853  1.00  0.00     0.008 C 
ENDBRANCH   1   2
BRANCH   1   5
ATOM      5  C   UNL     1      18.262  43.035   0.372  1.00  0.00     0.224 C 
ATOM      6  O   UNL     1      18.323  42.136  -0.451  1.00  0.00    -0.303 OA
ENDBRANCH   1   5
TORSDOF 2
ENDMDL
MODEL 5
REMARK VINA RESULT:    -2.912     15.957     17.230
REMARK INTER + INTRA:          -3.281
REMARK INTER:                  -3.242
REMARK INTRA:                  -0.038
REMARK UNBOUND:                -0.028
REMARK SMILES CC(C)CC=O
REMARK SMILES IDX 4 1 2 2 1 3 3 4 5 5 6 6
REMARK H PARENT
REMARK Flexibility Score: inf
ROOT
ATOM      1  C   UNL     1      19.103  44.132   2.626  1.00  0.00     0.075 C 
ENDROOT
BRANCH   1   2
ATOM      2  C   UNL     1      20.367  44.580   1.865  1.00  0.00    -0.010 C 
ATOM      3  C   UNL     1      21.183  43.357   1.428  1.00  0.00     0.008 C 
ATOM      4  C   UNL     1      20.011  45.438   0.641  1.00  0.00     0.008 C 
ENDBRANCH   1   2
BRANCH   1   5
ATOM      5  C   UNL     1      17.889  44.115   1.744  1.00  0.00     0.224 C 
ATOM      6  O   UNL     1      16.818  44.533   2.156  1.00  0.00    -0.303 OA
ENDBRANCH   1   5
TORSDOF 2
ENDMDL
MODEL 6
REMARK VINA RESULT:    -2.887      2.472      3.353
REMARK INTER + INTRA:          -3.252
REMARK INTER:                  -3.222
REMARK INTRA:                  -0.030
REMARK UNBOUND:                -0.028
REMARK SMILES CC(C)CC=O
REMARK SMILES IDX 4 1 2 2 1 3 3 4 5 5 6 6
REMARK H PARENT
REMARK Flexibility Score: inf
ROOT
ATOM      1  C   UNL     1      23.546  56.711  -7.559  1.00  0.00     0.075 C 
ENDROOT
BRANCH   1   2
ATOM      2  C   UNL     1      24.958  56.649  -8.175  1.00  0.00    -0.010 C 
ATOM      3  C   UNL     1      25.590  58.046  -8.194  1.00  0.00     0.008 C 
ATOM      4  C   UNL     1      25.864  55.674  -7.406  1.00  0.00     0.008 C 
ENDBRANCH   1   2
BRANCH   1   5
ATOM      5  C   UNL     1      23.157  55.417  -6.905  1.00  0.00     0.224 C 
ATOM      6  O   UNL     1      22.792  55.397  -5.740  1.00  0.00    -0.303 OA
ENDBRANCH   1   5
TORSDOF 2
ENDMDL
MODEL 7
REMARK VINA RESULT:    -2.790     16.243     17.085
REMARK INTER + INTRA:          -3.144
REMARK INTER:                  -3.088
REMARK INTRA:                  -0.056
REMARK UNBOUND:                -0.028
REMARK SMILES CC(C)CC=O
REMARK SMILES IDX 4 1 2 2 1 3 3 4 5 5 6 6
REMARK H PARENT
REMARK Flexibility Score: inf
ROOT
ATOM      1  C   UNL     1      19.649  44.904   0.876  1.00  0.00     0.075 C 
ENDROOT
BRANCH   1   2
ATOM      2  C   UNL     1      18.269  44.230   0.742  1.00  0.00    -0.010 C 
ATOM      3  C   UNL     1      18.429  42.790   0.241  1.00  0.00     0.008 C 
ATOM      4  C   UNL     1      17.507  44.240   2.077  1.00  0.00     0.008 C 
ENDBRANCH   1   2
BRANCH   1   5
ATOM      5  C   UNL     1      20.410  44.401   2.069  1.00  0.00     0.224 C 
ATOM      6  O   UNL     1      21.408  43.714   1.922  1.00  0.00    -0.303 OA
ENDBRANCH   1   5
TORSDOF 2
ENDMDL
MODEL 8
REMARK VINA RESULT:    -2.702      3.705      5.487
REMARK INTER + INTRA:          -3.046
REMARK INTER:                  -3.012
REMARK INTRA:                  -0.034
REMARK UNBOUND:                -0.028
REMARK SMILES CC(C)CC=O
REMARK SMILES IDX 4 1 2 2 1 3 3 4 5 5 6 6
REMARK H PARENT
REMARK Flexibility Score: inf
ROOT
ATOM      1  C   UNL     1      27.742  59.550  -9.690  1.00  0.00     0.075 C 
ENDROOT
BRANCH   1   2
ATOM      2  C   UNL     1      28.787  60.683  -9.670  1.00  0.00    -0.010 C 
ATOM      3  C   UNL     1      28.478  61.670  -8.538  1.00  0.00     0.008 C 
ATOM      4  C   UNL     1      30.212  60.130  -9.511  1.00  0.00     0.008 C 
ENDBRANCH   1   2
BRANCH   1   5
ATOM      5  C   UNL     1      26.603  59.815  -8.748  1.00  0.00     0.224 C 
ATOM      6  O   UNL     1      25.879  58.904  -8.379  1.00  0.00    -0.303 OA
ENDBRANCH   1   5
TORSDOF 2
ENDMDL
MODEL 9
REMARK VINA RESULT:    -2.680     15.056     16.055
REMARK INTER + INTRA:          -3.021
REMARK INTER:                  -2.993
REMARK INTRA:                  -0.028
REMARK UNBOUND:                -0.028
REMARK SMILES CC(C)CC=O
REMARK SMILES IDX 4 1 2 2 1 3 3 4 5 5 6 6
REMARK H PARENT
REMARK Flexibility Score: inf
ROOT
ATOM      1  C   UNL     1      30.483  45.674   1.335  1.00  0.00     0.075 C 
ENDROOT
BRANCH   1   2
ATOM      2  C   UNL     1      31.813  44.896   1.393  1.00  0.00    -0.010 C 
ATOM      3  C   UNL     1      32.140  44.303   0.017  1.00  0.00     0.008 C 
ATOM      4  C   UNL     1      32.968  45.792   1.866  1.00  0.00     0.008 C 
ENDBRANCH   1   2
BRANCH   1   5
ATOM      5  C   UNL     1      29.623  45.237   0.185  1.00  0.00     0.224 C 
ATOM      6  O   UNL     1      28.499  45.694   0.043  1.00  0.00    -0.303 OA
ENDBRANCH   1   5
TORSDOF 2
ENDMDL
