MODEL 1
REMARK VINA RESULT:    -3.841      0.000      0.000
REMARK INTER + INTRA:          -5.870
REMARK INTER:                  -5.412
REMARK INTRA:                  -0.458
REMARK UNBOUND:                -0.458
REMARK SMILES CCCCCCCCC(=O)[O-]
REMARK SMILES IDX 6 1 7 2 8 3 9 4 10 5 11 6 5 7 4 8 3 9 2 10 1 11
REMARK H PARENT
REMARK Flexibility Score: inf
ROOT
ATOM      1  C   UNL     1     173.449 171.668 150.134  1.00  0.00     0.000 C 
ENDROOT
BRANCH   1   2
ATOM      2  C   UNL     1     174.827 171.008 150.288  1.00  0.00     0.006 C 
BRANCH   2   3
ATOM      3  C   UNL     1     174.708 169.481 150.288  1.00  0.00     0.053 C 
BRANCH   3   4
ATOM      4  C   UNL     1     175.088 168.925 151.623  1.00  0.00     0.041 C 
ATOM      5  O   UNL     1     175.097 167.681 151.813  1.00  0.00    -0.550 OA
ATOM      6  O   UNL     1     175.481 169.780 152.645  1.00  0.00    -0.550 OA
ENDBRANCH   3   4
ENDBRANCH   2   3
ENDBRANCH   1   2
BRANCH   1   7
ATOM      7  C   UNL     1     173.541 173.161 149.785  1.00  0.00     0.000 C 
BRANCH   7   8
ATOM      8  C   UNL     1     174.690 173.871 150.518  1.00  0.00    -0.000 C 
BRANCH   8   9
ATOM      9  C   UNL     1     174.289 174.219 151.959  1.00  0.00    -0.000 C 
BRANCH   9  10
ATOM     10  C   UNL     1     175.475 174.163 152.934  1.00  0.00    -0.003 C 
ATOM     11  C   UNL     1     175.358 173.023 153.945  1.00  0.00     0.004 C 
ENDBRANCH   9  10
ENDBRANCH   8   9
ENDBRANCH   7   8
ENDBRANCH   1   7
TORSDOF 7
ENDMDL
MODEL 2
REMARK VINA RESULT:    -3.748      2.119      5.106
REMARK INTER + INTRA:          -5.739
REMARK INTER:                  -5.412
REMARK INTRA:                  -0.327
REMARK UNBOUND:                -0.458
REMARK SMILES CCCCCCCCC(=O)[O-]
REMARK SMILES IDX 6 1 7 2 8 3 9 4 10 5 11 6 5 7 4 8 3 9 2 10 1 11
REMARK H PARENT
REMARK Flexibility Score: inf
ROOT
ATOM      1  C   UNL     1     174.748 172.633 150.053  1.00  0.00     0.000 C 
ENDROOT
BRANCH   1   2
ATOM      2  C   UNL     1     174.231 173.700 151.029  1.00  0.00     0.006 C 
BRANCH   2   3
ATOM      3  C   UNL     1     175.363 174.228 151.914  1.00  0.00     0.053 C 
BRANCH   3   4
ATOM      4  C   UNL     1     175.241 173.684 153.303  1.00  0.00     0.041 C 
ATOM      5  O   UNL     1     174.857 174.427 154.243  1.00  0.00    -0.550 OA
ATOM      6  O   UNL     1     175.504 172.343 153.549  1.00  0.00    -0.550 OA
ENDBRANCH   3   4
ENDBRANCH   2   3
ENDBRANCH   1   2
BRANCH   1   7
ATOM      7  C   UNL     1     174.248 171.221 150.397  1.00  0.00     0.000 C 
BRANCH   7   8
ATOM      8  C   UNL     1     175.348 170.156 150.268  1.00  0.00    -0.000 C 
BRANCH   8   9
ATOM      9  C   UNL     1     174.772 168.747 150.478  1.00  0.00    -0.000 C 
BRANCH   9  10
ATOM     10  C   UNL     1     174.676 167.946 149.170  1.00  0.00    -0.003 C 
ATOM     11  C   UNL     1     173.271 167.405 148.909  1.00  0.00     0.004 C 
ENDBRANCH   9  10
ENDBRANCH   8   9
ENDBRANCH   7   8
ENDBRANCH   1   7
TORSDOF 7
ENDMDL
MODEL 3
REMARK VINA RESULT:    -3.726      2.809      4.666
REMARK INTER + INTRA:          -5.708
REMARK INTER:                  -4.985
REMARK INTRA:                  -0.723
REMARK UNBOUND:                -0.458
REMARK SMILES CCCCCCCCC(=O)[O-]
REMARK SMILES IDX 6 1 7 2 8 3 9 4 10 5 11 6 5 7 4 8 3 9 2 10 1 11
REMARK H PARENT
REMARK Flexibility Score: inf
ROOT
ATOM      1  C   UNL     1     175.473 174.192 152.746  1.00  0.00     0.000 C 
ENDROOT
BRANCH   1   2
ATOM      2  C   UNL     1     175.383 173.119 153.841  1.00  0.00     0.006 C 
BRANCH   2   3
ATOM      3  C   UNL     1     173.959 173.021 154.397  1.00  0.00     0.053 C 
BRANCH   3   4
ATOM      4  C   UNL     1     173.903 173.556 155.792  1.00  0.00     0.041 C 
ATOM      5  O   UNL     1     173.886 172.768 156.773  1.00  0.00    -0.550 OA
ATOM      6  O   UNL     1     173.919 174.928 156.011  1.00  0.00    -0.550 OA
ENDBRANCH   3   4
ENDBRANCH   2   3
ENDBRANCH   1   2
BRANCH   1   7
ATOM      7  C   UNL     1     174.253 174.191 151.813  1.00  0.00     0.000 C 
BRANCH   7   8
ATOM      8  C   UNL     1     174.599 173.742 150.385  1.00  0.00    -0.000 C 
BRANCH   8   9
ATOM      9  C   UNL     1     173.984 172.367 150.080  1.00  0.00    -0.000 C 
BRANCH   9  10
ATOM     10  C   UNL     1     174.965 171.212 150.333  1.00  0.00    -0.003 C 
ATOM     11  C   UNL     1     174.544 170.322 151.502  1.00  0.00     0.004 C 
ENDBRANCH   9  10
ENDBRANCH   8   9
ENDBRANCH   7   8
ENDBRANCH   1   7
TORSDOF 7
ENDMDL
MODEL 4
REMARK VINA RESULT:    -3.697      1.765      4.067
REMARK INTER + INTRA:          -5.669
REMARK INTER:                  -4.983
REMARK INTRA:                  -0.685
REMARK UNBOUND:                -0.458
REMARK SMILES CCCCCCCCC(=O)[O-]
REMARK SMILES IDX 6 1 7 2 8 3 9 4 10 5 11 6 5 7 4 8 3 9 2 10 1 11
REMARK H PARENT
REMARK Flexibility Score: inf
ROOT
ATOM      1  C   UNL     1     173.472 174.214 151.784  1.00  0.00     0.000 C 
ENDROOT
BRANCH   1   2
ATOM      2  C   UNL     1     175.005 174.201 151.696  1.00  0.00     0.006 C 
BRANCH   2   3
ATOM      3  C   UNL     1     175.635 174.248 153.091  1.00  0.00     0.053 C 
BRANCH   3   4
ATOM      4  C   UNL     1     175.162 173.094 153.919  1.00  0.00     0.041 C 
ATOM      5  O   UNL     1     174.517 173.298 154.980  1.00  0.00    -0.550 OA
ATOM      6  O   UNL     1     175.392 171.793 153.492  1.00  0.00    -0.550 OA
ENDBRANCH   3   4
ENDBRANCH   2   3
ENDBRANCH   1   2
BRANCH   1   7
ATOM      7  C   UNL     1     172.798 173.979 150.424  1.00  0.00     0.000 C 
BRANCH   7   8
ATOM      8  C   UNL     1     173.308 172.711 149.721  1.00  0.00    -0.000 C 
BRANCH   8   9
ATOM      9  C   UNL     1     172.762 171.449 150.405  1.00  0.00    -0.000 C 
BRANCH   9  10
ATOM     10  C   UNL     1     173.841 170.374 150.608  1.00  0.00    -0.003 C 
ATOM     11  C   UNL     1     175.223 170.825 150.137  1.00  0.00     0.004 C 
ENDBRANCH   9  10
ENDBRANCH   8   9
ENDBRANCH   7   8
ENDBRANCH   1   7
TORSDOF 7
ENDMDL
MODEL 5
REMARK VINA RESULT:    -3.667     11.055     12.998
REMARK INTER + INTRA:          -5.626
REMARK INTER:                  -5.084
REMARK INTRA:                  -0.542
REMARK UNBOUND:                -0.458
REMARK SMILES CCCCCCCCC(=O)[O-]
REMARK SMILES IDX 6 1 7 2 8 3 9 4 10 5 11 6 5 7 4 8 3 9 2 10 1 11
REMARK H PARENT
REMARK Flexibility Score: inf
ROOT
ATOM      1  C   UNL     1     171.133 158.551 150.712  1.00  0.00     0.000 C 
ENDROOT
BRANCH   1   2
ATOM      2  C   UNL     1     169.869 158.167 149.927  1.00  0.00     0.006 C 
BRANCH   2   3
ATOM      3  C   UNL     1     169.870 158.811 148.538  1.00  0.00     0.053 C 
BRANCH   3   4
ATOM      4  C   UNL     1     169.588 160.277 148.639  1.00  0.00     0.041 C 
ATOM      5  O   UNL     1     170.413 161.114 148.189  1.00  0.00    -0.550 OA
ATOM      6  O   UNL     1     168.391 160.718 149.188  1.00  0.00    -0.550 OA
ENDBRANCH   3   4
ENDBRANCH   2   3
ENDBRANCH   1   2
BRANCH   1   7
ATOM      7  C   UNL     1     172.396 157.862 150.175  1.00  0.00     0.000 C 
BRANCH   7   8
ATOM      8  C   UNL     1     173.620 158.791 150.166  1.00  0.00    -0.000 C 
BRANCH   8   9
ATOM      9  C   UNL     1     173.190 160.264 150.239  1.00  0.00    -0.000 C 
BRANCH   9  10
ATOM     10  C   UNL     1     174.350 161.232 149.959  1.00  0.00    -0.003 C 
ATOM     11  C   UNL     1     175.690 160.518 149.788  1.00  0.00     0.004 C 
ENDBRANCH   9  10
ENDBRANCH   8   9
ENDBRANCH   7   8
ENDBRANCH   1   7
TORSDOF 7
ENDMDL
MODEL 6
REMARK VINA RESULT:    -3.657      1.399      3.457
REMARK INTER + INTRA:          -5.612
REMARK INTER:                  -4.864
REMARK INTRA:                  -0.748
REMARK UNBOUND:                -0.458
REMARK SMILES CCCCCCCCC(=O)[O-]
REMARK SMILES IDX 6 1 7 2 8 3 9 4 10 5 11 6 5 7 4 8 3 9 2 10 1 11
REMARK H PARENT
REMARK Flexibility Score: inf
ROOT
ATOM      1  C   UNL     1     175.414 174.249 153.136  1.00  0.00     0.000 C 
ENDROOT
BRANCH   1   2
ATOM      2  C   UNL     1     175.499 172.998 154.024  1.00  0.00     0.006 C 
BRANCH   2   3
ATOM      3  C   UNL     1     174.203 172.185 153.950  1.00  0.00     0.053 C 
BRANCH   3   4
ATOM      4  C   UNL     1     174.506 170.721 153.879  1.00  0.00     0.041 C 
ATOM      5  O   UNL     1     175.593 170.277 154.331  1.00  0.00    -0.550 OA
ATOM      6  O   UNL     1     173.567 169.842 153.357  1.00  0.00    -0.550 OA
ENDBRANCH   3   4
ENDBRANCH   2   3
ENDBRANCH   1   2
BRANCH   1   7
ATOM      7  C   UNL     1     174.344 174.127 152.040  1.00  0.00     0.000 C 
BRANCH   7   8
ATOM      8  C   UNL     1     174.944 174.105 150.626  1.00  0.00    -0.000 C 
BRANCH   8   9
ATOM      9  C   UNL     1     174.081 173.258 149.678  1.00  0.00    -0.000 C 
BRANCH   9  10
ATOM     10  C   UNL     1     173.788 171.858 150.238  1.00  0.00    -0.003 C 
ATOM     11  C   UNL     1     175.022 170.956 150.254  1.00  0.00     0.004 C 
ENDBRANCH   9  10
ENDBRANCH   8   9
ENDBRANCH   7   8
ENDBRANCH   1   7
TORSDOF 7
ENDMDL
MODEL 7
REMARK VINA RESULT:    -3.622      1.422      2.128
REMARK INTER + INTRA:          -5.562
REMARK INTER:                  -4.759
REMARK INTRA:                  -0.803
REMARK UNBOUND:                -0.458
REMARK SMILES CCCCCCCCC(=O)[O-]
REMARK SMILES IDX 6 1 7 2 8 3 9 4 10 5 11 6 5 7 4 8 3 9 2 10 1 11
REMARK H PARENT
REMARK Flexibility Score: inf
ROOT
ATOM      1  C   UNL     1     174.904 170.973 150.158  1.00  0.00     0.000 C 
ENDROOT
BRANCH   1   2
ATOM      2  C   UNL     1     175.106 170.083 151.393  1.00  0.00     0.006 C 
BRANCH   2   3
ATOM      3  C   UNL     1     174.098 170.432 152.492  1.00  0.00     0.053 C 
BRANCH   3   4
ATOM      4  C   UNL     1     174.723 170.286 153.843  1.00  0.00     0.041 C 
ATOM      5  O   UNL     1     174.261 170.920 154.827  1.00  0.00    -0.550 OA
ATOM      6  O   UNL     1     175.787 169.412 154.025  1.00  0.00    -0.550 OA
ENDBRANCH   3   4
ENDBRANCH   2   3
ENDBRANCH   1   2
BRANCH   1   7
ATOM      7  C   UNL     1     173.550 171.698 150.164  1.00  0.00     0.000 C 
BRANCH   7   8
ATOM      8  C   UNL     1     173.679 173.198 149.858  1.00  0.00    -0.000 C 
BRANCH   8   9
ATOM      9  C   UNL     1     174.825 173.825 150.666  1.00  0.00    -0.000 C 
BRANCH   9  10
ATOM     10  C   UNL     1     174.409 174.185 152.100  1.00  0.00    -0.003 C 
ATOM     11  C   UNL     1     175.508 173.901 153.124  1.00  0.00     0.004 C 
ENDBRANCH   9  10
ENDBRANCH   8   9
ENDBRANCH   7   8
ENDBRANCH   1   7
TORSDOF 7
ENDMDL
MODEL 8
REMARK VINA RESULT:    -3.593      3.203      5.446
REMARK INTER + INTRA:          -5.522
REMARK INTER:                  -5.140
REMARK INTRA:                  -0.382
REMARK UNBOUND:                -0.458
REMARK SMILES CCCCCCCCC(=O)[O-]
REMARK SMILES IDX 6 1 7 2 8 3 9 4 10 5 11 6 5 7 4 8 3 9 2 10 1 11
REMARK H PARENT
REMARK Flexibility Score: inf
ROOT
ATOM      1  C   UNL     1     174.597 172.315 150.145  1.00  0.00     0.000 C 
ENDROOT
BRANCH   1   2
ATOM      2  C   UNL     1     173.908 173.686 150.108  1.00  0.00     0.006 C 
BRANCH   2   3
ATOM      3  C   UNL     1     172.432 173.569 150.499  1.00  0.00     0.053 C 
BRANCH   3   4
ATOM      4  C   UNL     1     172.073 174.611 151.512  1.00  0.00     0.041 C 
ATOM      5  O   UNL     1     171.169 175.450 151.264  1.00  0.00    -0.550 OA
ATOM      6  O   UNL     1     172.706 174.625 152.748  1.00  0.00    -0.550 OA
ENDBRANCH   3   4
ENDBRANCH   2   3
ENDBRANCH   1   2
BRANCH   1   7
ATOM      7  C   UNL     1     174.668 171.725 151.562  1.00  0.00     0.000 C 
BRANCH   7   8
ATOM      8  C   UNL     1     174.877 170.202 151.560  1.00  0.00    -0.000 C 
BRANCH   8   9
ATOM      9  C   UNL     1     174.988 169.666 150.125  1.00  0.00    -0.000 C 
BRANCH   9  10
ATOM     10  C   UNL     1     174.008 168.515 149.847  1.00  0.00    -0.003 C 
ATOM     11  C   UNL     1     174.625 167.406 148.994  1.00  0.00     0.004 C 
ENDBRANCH   9  10
ENDBRANCH   8   9
ENDBRANCH   7   8
ENDBRANCH   1   7
TORSDOF 7
ENDMDL
MODEL 9
REMARK VINA RESULT:    -3.588      2.729      5.308
REMARK INTER + INTRA:          -5.515
REMARK INTER:                  -5.148
REMARK INTRA:                  -0.367
REMARK UNBOUND:                -0.458
REMARK SMILES CCCCCCCCC(=O)[O-]
REMARK SMILES IDX 6 1 7 2 8 3 9 4 10 5 11 6 5 7 4 8 3 9 2 10 1 11
REMARK H PARENT
REMARK Flexibility Score: inf
ROOT
ATOM      1  C   UNL     1     173.683 171.560 150.156  1.00  0.00     0.000 C 
ENDROOT
BRANCH   1   2
ATOM      2  C   UNL     1     173.752 173.059 149.827  1.00  0.00     0.006 C 
BRANCH   2   3
ATOM      3  C   UNL     1     174.596 173.809 150.861  1.00  0.00     0.053 C 
BRANCH   3   4
ATOM      4  C   UNL     1     173.752 174.228 152.024  1.00  0.00     0.041 C 
ATOM      5  O   UNL     1     174.252 174.298 153.176  1.00  0.00    -0.550 OA
ATOM      6  O   UNL     1     172.426 174.588 151.825  1.00  0.00    -0.550 OA
ENDBRANCH   3   4
ENDBRANCH   2   3
ENDBRANCH   1   2
BRANCH   1   7
ATOM      7  C   UNL     1     175.017 171.006 150.679  1.00  0.00     0.000 C 
BRANCH   7   8
ATOM      8  C   UNL     1     175.344 169.616 150.111  1.00  0.00    -0.000 C 
BRANCH   8   9
ATOM      9  C   UNL     1     174.758 168.509 151.000  1.00  0.00    -0.000 C 
BRANCH   9  10
ATOM     10  C   UNL     1     174.297 167.285 150.194  1.00  0.00    -0.003 C 
ATOM     11  C   UNL     1     174.530 167.444 148.692  1.00  0.00     0.004 C 
ENDBRANCH   9  10
ENDBRANCH   8   9
ENDBRANCH   7   8
ENDBRANCH   1   7
TORSDOF 7
ENDMDL
