MODEL 1
REMARK VINA RESULT:     3.861      0.000      0.000
REMARK INTER + INTRA:           3.836
REMARK INTER:                   4.877
REMARK INTRA:                  -1.040
REMARK UNBOUND:                -1.040
REMARK SMILES CC(C)[C@H](C)C=C[C@H](C)[C@H]1CC[C@H]2C3=CC=C4C[C@@H](O)CC[C@]4(C)[C@H]3CC[C@]12C
REMARK SMILES IDX 8 1 9 2 7 3 6 4 4 5 5 6 2 7 1 8 3 9 10 10 11 11 28 12 12 13
REMARK SMILES IDX 13 14 27 15 29 16 14 17 26 18 25 19 15 20 23 21 16 22 17 23
REMARK SMILES IDX 22 24 24 25 18 26 21 27 19 28 20 29
REMARK H PARENT 20 30
REMARK Flexibility Score: inf
ROOT
ATOM      1  C   UNL     1     130.926 127.169 137.506  1.00  0.00     0.012 C 
ATOM      2  C   UNL     1     129.408 126.972 137.683  1.00  0.00     0.012 C 
ENDROOT
BRANCH   1   3
ATOM      3  C   UNL     1     131.179 128.505 136.839  1.00  0.00    -0.028 C 
ATOM      4  C   UNL     1     131.873 129.490 137.435  1.00  0.00    -0.028 C 
BRANCH   4   5
ATOM      5  C   UNL     1     132.066 130.854 136.803  1.00  0.00     0.011 C 
ATOM      6  C   UNL     1     130.883 131.166 135.870  1.00  0.00     0.012 C 
BRANCH   5   7
ATOM      7  C   UNL     1     132.299 131.959 137.879  1.00  0.00    -0.011 C 
ATOM      8  C   UNL     1     133.754 131.950 138.380  1.00  0.00     0.008 C 
ATOM      9  C   UNL     1     131.964 133.361 137.343  1.00  0.00     0.008 C 
ENDBRANCH   5   7
ENDBRANCH   4   5
ENDBRANCH   1   3
BRANCH   1  10
ATOM     10  C   UNL     1     131.811 126.993 138.792  1.00  0.00     0.002 C 
ATOM     11  C   UNL     1     131.091 126.577 140.102  1.00  0.00     0.005 C 
ATOM     12  C   UNL     1     133.005 126.009 138.689  1.00  0.00    -0.023 C 
ATOM     13  C   UNL     1     132.117 125.782 140.929  1.00  0.00     0.009 C 
ATOM     14  C   UNL     1     133.426 125.931 140.157  1.00  0.00     0.021 C 
ATOM     15  C   UNL     1     134.219 126.543 137.893  1.00  0.00     0.008 C 
ATOM     16  C   UNL     1     132.549 124.625 138.133  1.00  0.00     0.012 C 
ATOM     17  C   UNL     1     134.560 124.956 140.364  1.00  0.00    -0.063 C 
ATOM     18  C   UNL     1     135.425 125.579 137.997  1.00  0.00     0.009 C 
ATOM     19  C   UNL     1     135.778 125.115 139.455  1.00  0.00     0.025 C 
ATOM     20  C   UNL     1     134.689 124.287 141.520  1.00  0.00    -0.000 C 
ATOM     21  C   UNL     1     136.712 123.844 139.507  1.00  0.00    -0.005 C 
ATOM     22  C   UNL     1     135.936 123.580 141.857  1.00  0.00    -0.000 C 
ATOM     23  C   UNL     1     136.936 123.446 140.970  1.00  0.00    -0.061 C 
ATOM     24  C   UNL     1     138.074 124.188 138.833  1.00  0.00     0.014 C 
ATOM     25  C   UNL     1     136.065 122.625 138.796  1.00  0.00     0.017 C 
ATOM     26  C   UNL     1     138.132 122.603 141.355  1.00  0.00     0.063 C 
ATOM     27  C   UNL     1     139.180 123.171 139.136  1.00  0.00     0.033 C 
ATOM     28  C   UNL     1     139.411 123.065 140.646  1.00  0.00     0.118 C 
BRANCH  28  29
ATOM     29  O   UNL     1     140.443 122.145 140.888  1.00  0.00    -0.393 OA
ATOM     30  H   UNL     1     141.034 122.550 141.575  1.00  0.00     0.210 HD
ENDBRANCH  28  29
ENDBRANCH   1  10
TORSDOF 5
ENDMDL
MODEL 2
REMARK VINA RESULT:     4.323      3.398      8.571
REMARK INTER + INTRA:           4.420
REMARK INTER:                   4.502
REMARK INTRA:                  -0.082
REMARK UNBOUND:                -1.040
REMARK SMILES CC(C)[C@H](C)C=C[C@H](C)[C@H]1CC[C@H]2C3=CC=C4C[C@@H](O)CC[C@]4(C)[C@H]3CC[C@]12C
REMARK SMILES IDX 8 1 9 2 7 3 6 4 4 5 5 6 2 7 1 8 3 9 10 10 11 11 28 12 12 13
REMARK SMILES IDX 13 14 27 15 29 16 14 17 26 18 25 19 15 20 23 21 16 22 17 23
REMARK SMILES IDX 22 24 24 25 18 26 21 27 19 28 20 29
REMARK H PARENT 20 30
REMARK Flexibility Score: inf
ROOT
ATOM      1  C   UNL     1     139.035 123.428 140.725  1.00  0.00     0.012 C 
ATOM      2  C   UNL     1     139.355 123.302 139.223  1.00  0.00     0.012 C 
ENDROOT
BRANCH   1   3
ATOM      3  C   UNL     1     139.752 124.640 141.285  1.00  0.00    -0.028 C 
ATOM      4  C   UNL     1     140.799 124.536 142.121  1.00  0.00    -0.028 C 
BRANCH   4   5
ATOM      5  C   UNL     1     141.473 125.743 142.743  1.00  0.00     0.011 C 
ATOM      6  C   UNL     1     141.331 125.685 144.274  1.00  0.00     0.012 C 
BRANCH   5   7
ATOM      7  C   UNL     1     142.954 125.879 142.275  1.00  0.00    -0.011 C 
ATOM      8  C   UNL     1     143.710 126.925 143.115  1.00  0.00     0.008 C 
ATOM      9  C   UNL     1     143.706 124.540 142.353  1.00  0.00     0.008 C 
ENDBRANCH   5   7
ENDBRANCH   4   5
ENDBRANCH   1   3
BRANCH   1  10
ATOM     10  C   UNL     1     137.515 123.426 141.122  1.00  0.00     0.002 C 
ATOM     11  C   UNL     1     137.156 123.859 142.568  1.00  0.00     0.005 C 
ATOM     12  C   UNL     1     136.559 124.260 140.229  1.00  0.00    -0.023 C 
ATOM     13  C   UNL     1     135.747 124.478 142.498  1.00  0.00     0.009 C 
ATOM     14  C   UNL     1     135.282 124.209 141.069  1.00  0.00     0.021 C 
ATOM     15  C   UNL     1     136.231 123.623 138.859  1.00  0.00     0.008 C 
ATOM     16  C   UNL     1     137.086 125.716 140.046  1.00  0.00     0.012 C 
ATOM     17  C   UNL     1     134.173 125.025 140.452  1.00  0.00    -0.063 C 
ATOM     18  C   UNL     1     135.135 124.423 138.117  1.00  0.00     0.009 C 
ATOM     19  C   UNL     1     133.866 124.764 138.978  1.00  0.00     0.025 C 
ATOM     20  C   UNL     1     133.242 125.611 141.219  1.00  0.00    -0.000 C 
ATOM     21  C   UNL     1     132.969 125.906 138.359  1.00  0.00    -0.005 C 
ATOM     22  C   UNL     1     131.997 126.141 140.639  1.00  0.00    -0.000 C 
ATOM     23  C   UNL     1     131.803 126.197 139.310  1.00  0.00    -0.061 C 
ATOM     24  C   UNL     1     132.426 125.431 136.977  1.00  0.00     0.014 C 
ATOM     25  C   UNL     1     133.760 127.231 138.188  1.00  0.00     0.017 C 
ATOM     26  C   UNL     1     130.547 126.865 138.793  1.00  0.00     0.063 C 
ATOM     27  C   UNL     1     131.269 126.288 136.450  1.00  0.00     0.033 C 
ATOM     28  C   UNL     1     130.105 126.286 137.443  1.00  0.00     0.118 C 
BRANCH  28  29
ATOM     29  O   UNL     1     129.055 127.058 136.922  1.00  0.00    -0.393 OA
ATOM     30  H   UNL     1     129.163 127.060 135.935  1.00  0.00     0.210 HD
ENDBRANCH  28  29
ENDBRANCH   1  10
TORSDOF 5
ENDMDL
MODEL 3
REMARK VINA RESULT:     5.300      3.010      5.535
REMARK INTER + INTRA:           5.654
REMARK INTER:                   5.328
REMARK INTRA:                   0.327
REMARK UNBOUND:                -1.040
REMARK SMILES CC(C)[C@H](C)C=C[C@H](C)[C@H]1CC[C@H]2C3=CC=C4C[C@@H](O)CC[C@]4(C)[C@H]3CC[C@]12C
REMARK SMILES IDX 8 1 9 2 7 3 6 4 4 5 5 6 2 7 1 8 3 9 10 10 11 11 28 12 12 13
REMARK SMILES IDX 13 14 27 15 29 16 14 17 26 18 25 19 15 20 23 21 16 22 17 23
REMARK SMILES IDX 22 24 24 25 18 26 21 27 19 28 20 29
REMARK H PARENT 20 30
REMARK Flexibility Score: inf
ROOT
ATOM      1  C   UNL     1     134.777 123.808 137.713  1.00  0.00     0.012 C 
ATOM      2  C   UNL     1     133.609 122.872 137.343  1.00  0.00     0.012 C 
ENDROOT
BRANCH   1   3
ATOM      3  C   UNL     1     134.225 125.170 138.082  1.00  0.00    -0.028 C 
ATOM      4  C   UNL     1     133.002 125.580 137.702  1.00  0.00    -0.028 C 
BRANCH   4   5
ATOM      5  C   UNL     1     132.473 126.967 138.005  1.00  0.00     0.011 C 
ATOM      6  C   UNL     1     132.710 127.888 136.795  1.00  0.00     0.012 C 
BRANCH   5   7
ATOM      7  C   UNL     1     130.981 126.929 138.455  1.00  0.00    -0.011 C 
ATOM      8  C   UNL     1     130.508 128.313 138.934  1.00  0.00     0.008 C 
ATOM      9  C   UNL     1     130.053 126.447 137.327  1.00  0.00     0.008 C 
ENDBRANCH   5   7
ENDBRANCH   4   5
ENDBRANCH   1   3
BRANCH   1  10
ATOM     10  C   UNL     1     135.781 123.282 138.800  1.00  0.00     0.002 C 
ATOM     11  C   UNL     1     137.294 123.351 138.465  1.00  0.00     0.005 C 
ATOM     12  C   UNL     1     135.677 123.916 140.211  1.00  0.00    -0.023 C 
ATOM     13  C   UNL     1     138.029 123.515 139.808  1.00  0.00     0.009 C 
ATOM     14  C   UNL     1     136.939 123.348 140.863  1.00  0.00     0.021 C 
ATOM     15  C   UNL     1     134.472 123.435 141.052  1.00  0.00     0.008 C 
ATOM     16  C   UNL     1     135.705 125.473 140.133  1.00  0.00     0.012 C 
ATOM     17  C   UNL     1     137.132 123.875 142.264  1.00  0.00    -0.063 C 
ATOM     18  C   UNL     1     134.548 123.972 142.501  1.00  0.00     0.009 C 
ATOM     19  C   UNL     1     135.935 123.771 143.209  1.00  0.00     0.025 C 
ATOM     20  C   UNL     1     138.361 124.022 142.780  1.00  0.00    -0.000 C 
ATOM     21  C   UNL     1     136.127 124.669 144.493  1.00  0.00    -0.005 C 
ATOM     22  C   UNL     1     138.563 124.234 144.223  1.00  0.00    -0.000 C 
ATOM     23  C   UNL     1     137.532 124.438 145.060  1.00  0.00    -0.061 C 
ATOM     24  C   UNL     1     135.053 124.277 145.551  1.00  0.00     0.014 C 
ATOM     25  C   UNL     1     136.013 126.181 144.160  1.00  0.00     0.017 C 
ATOM     26  C   UNL     1     137.833 124.766 146.506  1.00  0.00     0.063 C 
ATOM     27  C   UNL     1     135.355 124.814 146.955  1.00  0.00     0.033 C 
ATOM     28  C   UNL     1     136.711 124.302 147.444  1.00  0.00     0.118 C 
BRANCH  28  29
ATOM     29  O   UNL     1     136.947 124.791 148.738  1.00  0.00    -0.393 OA
ATOM     30  H   UNL     1     136.810 124.031 149.362  1.00  0.00     0.210 HD
ENDBRANCH  28  29
ENDBRANCH   1  10
TORSDOF 5
ENDMDL
MODEL 4
REMARK VINA RESULT:     6.035      1.051      2.354
REMARK INTER + INTRA:           6.582
REMARK INTER:                   6.336
REMARK INTRA:                   0.246
REMARK UNBOUND:                -1.040
REMARK SMILES CC(C)[C@H](C)C=C[C@H](C)[C@H]1CC[C@H]2C3=CC=C4C[C@@H](O)CC[C@]4(C)[C@H]3CC[C@]12C
REMARK SMILES IDX 8 1 9 2 7 3 6 4 4 5 5 6 2 7 1 8 3 9 10 10 11 11 28 12 12 13
REMARK SMILES IDX 13 14 27 15 29 16 14 17 26 18 25 19 15 20 23 21 16 22 17 23
REMARK SMILES IDX 22 24 24 25 18 26 21 27 19 28 20 29
REMARK H PARENT 20 30
REMARK Flexibility Score: inf
ROOT
ATOM      1  C   UNL     1     130.298 127.887 138.473  1.00  0.00     0.012 C 
ATOM      2  C   UNL     1     130.342 128.352 139.941  1.00  0.00     0.012 C 
ENDROOT
BRANCH   1   3
ATOM      3  C   UNL     1     130.755 129.021 137.578  1.00  0.00    -0.028 C 
ATOM      4  C   UNL     1     131.631 129.956 137.988  1.00  0.00    -0.028 C 
BRANCH   4   5
ATOM      5  C   UNL     1     132.035 131.134 137.124  1.00  0.00     0.011 C 
ATOM      6  C   UNL     1     130.976 131.364 136.032  1.00  0.00     0.012 C 
BRANCH   5   7
ATOM      7  C   UNL     1     132.311 132.407 137.981  1.00  0.00    -0.011 C 
ATOM      8  C   UNL     1     133.780 132.461 138.441  1.00  0.00     0.008 C 
ATOM      9  C   UNL     1     131.981 133.698 137.213  1.00  0.00     0.008 C 
ENDBRANCH   5   7
ENDBRANCH   4   5
ENDBRANCH   1   3
BRANCH   1  10
ATOM     10  C   UNL     1     131.054 126.552 138.137  1.00  0.00     0.002 C 
ATOM     11  C   UNL     1     131.254 126.204 136.638  1.00  0.00     0.005 C 
ATOM     12  C   UNL     1     132.463 126.371 138.757  1.00  0.00    -0.023 C 
ATOM     13  C   UNL     1     132.550 125.377 136.553  1.00  0.00     0.009 C 
ATOM     14  C   UNL     1     132.938 125.125 138.008  1.00  0.00     0.021 C 
ATOM     15  C   UNL     1     132.469 126.027 140.265  1.00  0.00     0.008 C 
ATOM     16  C   UNL     1     133.367 127.610 138.473  1.00  0.00     0.012 C 
ATOM     17  C   UNL     1     134.354 124.755 138.376  1.00  0.00    -0.063 C 
ATOM     18  C   UNL     1     133.895 125.684 140.757  1.00  0.00     0.009 C 
ATOM     19  C   UNL     1     134.670 124.648 139.867  1.00  0.00     0.025 C 
ATOM     20  C   UNL     1     135.158 124.146 137.492  1.00  0.00    -0.000 C 
ATOM     21  C   UNL     1     136.226 124.626 140.132  1.00  0.00    -0.005 C 
ATOM     22  C   UNL     1     136.413 123.506 137.916  1.00  0.00    -0.000 C 
ATOM     23  C   UNL     1     136.883 123.630 139.169  1.00  0.00    -0.061 C 
ATOM     24  C   UNL     1     136.484 124.192 141.607  1.00  0.00     0.014 C 
ATOM     25  C   UNL     1     136.875 126.011 139.868  1.00  0.00     0.017 C 
ATOM     26  C   UNL     1     138.240 123.043 139.491  1.00  0.00     0.063 C 
ATOM     27  C   UNL     1     137.937 123.787 141.878  1.00  0.00     0.033 C 
ATOM     28  C   UNL     1     138.351 122.631 140.965  1.00  0.00     0.118 C 
BRANCH  28  29
ATOM     29  O   UNL     1     139.676 122.269 141.254  1.00  0.00    -0.393 OA
ATOM     30  H   UNL     1     139.660 121.790 142.124  1.00  0.00     0.210 HD
ENDBRANCH  28  29
ENDBRANCH   1  10
TORSDOF 5
ENDMDL
