MODEL 1
REMARK VINA RESULT:    -4.276      0.000      0.000
REMARK INTER + INTRA:          -6.202
REMARK INTER:                  -5.776
REMARK INTRA:                  -0.426
REMARK UNBOUND:                -0.426
REMARK SMILES CCCCCCCC(=O)[O-]
REMARK SMILES IDX 5 1 6 2 7 3 8 4 9 5 10 6 4 7 3 8 2 9 1 10
REMARK H PARENT
REMARK Flexibility Score: inf
ROOT
ATOM      1  C   UNL     1       4.341  44.957  11.776  1.00  0.00     0.000 C 
ENDROOT
BRANCH   1   2
ATOM      2  C   UNL     1       3.964  46.211  10.961  1.00  0.00     0.006 C 
BRANCH   2   3
ATOM      3  C   UNL     1       4.464  46.173   9.508  1.00  0.00     0.053 C 
BRANCH   3   4
ATOM      4  C   UNL     1       5.132  47.449   9.101  1.00  0.00     0.041 C 
ATOM      5  O   UNL     1       6.329  47.667   9.426  1.00  0.00    -0.550 OA
ATOM      6  O   UNL     1       4.444  48.384   8.340  1.00  0.00    -0.550 OA
ENDBRANCH   3   4
ENDBRANCH   2   3
ENDBRANCH   1   2
BRANCH   1   7
ATOM      7  C   UNL     1       3.124  44.320  12.467  1.00  0.00     0.000 C 
BRANCH   7   8
ATOM      8  C   UNL     1       2.277  43.459  11.510  1.00  0.00    -0.000 C 
BRANCH   8   9
ATOM      9  C   UNL     1       3.078  42.724  10.421  1.00  0.00    -0.003 C 
ATOM     10  C   UNL     1       2.631  43.086   9.004  1.00  0.00     0.004 C 
ENDBRANCH   8   9
ENDBRANCH   7   8
ENDBRANCH   1   7
TORSDOF 6
ENDMDL
MODEL 2
REMARK VINA RESULT:    -4.133      1.367      1.818
REMARK INTER + INTRA:          -6.009
REMARK INTER:                  -5.541
REMARK INTRA:                  -0.468
REMARK UNBOUND:                -0.426
REMARK SMILES CCCCCCCC(=O)[O-]
REMARK SMILES IDX 5 1 6 2 7 3 8 4 9 5 10 6 4 7 3 8 2 9 1 10
REMARK H PARENT
REMARK Flexibility Score: inf
ROOT
ATOM      1  C   UNL     1       4.614  46.191  10.955  1.00  0.00     0.000 C 
ENDROOT
BRANCH   1   2
ATOM      2  C   UNL     1       4.620  46.662   9.486  1.00  0.00     0.006 C 
BRANCH   2   3
ATOM      3  C   UNL     1       3.222  46.986   8.938  1.00  0.00     0.053 C 
BRANCH   3   4
ATOM      4  C   UNL     1       3.212  48.220   8.092  1.00  0.00     0.041 C 
ATOM      5  O   UNL     1       4.293  48.807   7.817  1.00  0.00    -0.550 OA
ATOM      6  O   UNL     1       2.016  48.708   7.583  1.00  0.00    -0.550 OA
ENDBRANCH   3   4
ENDBRANCH   2   3
ENDBRANCH   1   2
BRANCH   1   7
ATOM      7  C   UNL     1       3.343  45.400  11.310  1.00  0.00     0.000 C 
BRANCH   7   8
ATOM      8  C   UNL     1       3.634  43.929  11.662  1.00  0.00    -0.000 C 
BRANCH   8   9
ATOM      9  C   UNL     1       3.890  43.013  10.452  1.00  0.00    -0.003 C 
ATOM     10  C   UNL     1       2.837  43.165   9.354  1.00  0.00     0.004 C 
ENDBRANCH   8   9
ENDBRANCH   7   8
ENDBRANCH   1   7
TORSDOF 6
ENDMDL
MODEL 3
REMARK VINA RESULT:    -4.048      1.177      2.141
REMARK INTER + INTRA:          -5.893
REMARK INTER:                  -5.487
REMARK INTRA:                  -0.406
REMARK UNBOUND:                -0.426
REMARK SMILES CCCCCCCC(=O)[O-]
REMARK SMILES IDX 5 1 6 2 7 3 8 4 9 5 10 6 4 7 3 8 2 9 1 10
REMARK H PARENT
REMARK Flexibility Score: inf
ROOT
ATOM      1  C   UNL     1       1.629  45.360  10.031  1.00  0.00     0.000 C 
ENDROOT
BRANCH   1   2
ATOM      2  C   UNL     1       2.471  46.574   9.589  1.00  0.00     0.006 C 
BRANCH   2   3
ATOM      3  C   UNL     1       3.976  46.278   9.497  1.00  0.00     0.053 C 
BRANCH   3   4
ATOM      4  C   UNL     1       4.752  47.436   8.953  1.00  0.00     0.041 C 
ATOM      5  O   UNL     1       5.981  47.550   9.209  1.00  0.00    -0.550 OA
ATOM      6  O   UNL     1       4.128  48.373   8.140  1.00  0.00    -0.550 OA
ENDBRANCH   3   4
ENDBRANCH   2   3
ENDBRANCH   1   2
BRANCH   1   7
ATOM      7  C   UNL     1       2.198  44.030   9.506  1.00  0.00     0.000 C 
BRANCH   7   8
ATOM      8  C   UNL     1       2.668  43.094  10.635  1.00  0.00    -0.000 C 
BRANCH   8   9
ATOM      9  C   UNL     1       2.565  43.687  12.052  1.00  0.00    -0.003 C 
ATOM     10  C   UNL     1       3.903  44.202  12.582  1.00  0.00     0.004 C 
ENDBRANCH   8   9
ENDBRANCH   7   8
ENDBRANCH   1   7
TORSDOF 6
ENDMDL
MODEL 4
REMARK VINA RESULT:    -4.028      1.708      2.231
REMARK INTER + INTRA:          -5.867
REMARK INTER:                  -5.262
REMARK INTRA:                  -0.605
REMARK UNBOUND:                -0.426
REMARK SMILES CCCCCCCC(=O)[O-]
REMARK SMILES IDX 5 1 6 2 7 3 8 4 9 5 10 6 4 7 3 8 2 9 1 10
REMARK H PARENT
REMARK Flexibility Score: inf
ROOT
ATOM      1  C   UNL     1       1.180  45.839   9.453  1.00  0.00     0.000 C 
ENDROOT
BRANCH   1   2
ATOM      2  C   UNL     1       2.278  46.835   9.879  1.00  0.00     0.006 C 
BRANCH   2   3
ATOM      3  C   UNL     1       3.486  46.862   8.928  1.00  0.00     0.053 C 
BRANCH   3   4
ATOM      4  C   UNL     1       4.786  46.967   9.662  1.00  0.00     0.041 C 
ATOM      5  O   UNL     1       5.792  47.474   9.097  1.00  0.00    -0.550 OA
ATOM      6  O   UNL     1       4.881  46.532  10.977  1.00  0.00    -0.550 OA
ENDBRANCH   3   4
ENDBRANCH   2   3
ENDBRANCH   1   2
BRANCH   1   7
ATOM      7  C   UNL     1       1.553  44.383   9.777  1.00  0.00     0.000 C 
BRANCH   7   8
ATOM      8  C   UNL     1       1.890  44.168  11.265  1.00  0.00    -0.000 C 
BRANCH   8   9
ATOM      9  C   UNL     1       3.263  43.523  11.529  1.00  0.00    -0.003 C 
ATOM     10  C   UNL     1       4.013  43.166  10.246  1.00  0.00     0.004 C 
ENDBRANCH   8   9
ENDBRANCH   7   8
ENDBRANCH   1   7
TORSDOF 6
ENDMDL
MODEL 5
REMARK VINA RESULT:    -3.997      2.726      4.446
REMARK INTER + INTRA:          -5.824
REMARK INTER:                  -5.268
REMARK INTRA:                  -0.557
REMARK UNBOUND:                -0.426
REMARK SMILES CCCCCCCC(=O)[O-]
REMARK SMILES IDX 5 1 6 2 7 3 8 4 9 5 10 6 4 7 3 8 2 9 1 10
REMARK H PARENT
REMARK Flexibility Score: inf
ROOT
ATOM      1  C   UNL     1       1.182  44.739   9.592  1.00  0.00     0.000 C 
ENDROOT
BRANCH   1   2
ATOM      2  C   UNL     1       1.230  44.604  11.128  1.00  0.00     0.006 C 
BRANCH   2   3
ATOM      3  C   UNL     1       2.046  43.396  11.614  1.00  0.00     0.053 C 
BRANCH   3   4
ATOM      4  C   UNL     1       3.518  43.670  11.627  1.00  0.00     0.041 C 
ATOM      5  O   UNL     1       4.265  43.155  10.752  1.00  0.00    -0.550 OA
ATOM      6  O   UNL     1       4.061  44.514  12.585  1.00  0.00    -0.550 OA
ENDBRANCH   3   4
ENDBRANCH   2   3
ENDBRANCH   1   2
BRANCH   1   7
ATOM      7  C   UNL     1       1.533  46.159   9.117  1.00  0.00     0.000 C 
BRANCH   7   8
ATOM      8  C   UNL     1       2.695  46.785   9.911  1.00  0.00    -0.000 C 
BRANCH   8   9
ATOM      9  C   UNL     1       4.077  46.654   9.245  1.00  0.00    -0.003 C 
ATOM     10  C   UNL     1       5.231  46.971  10.196  1.00  0.00     0.004 C 
ENDBRANCH   8   9
ENDBRANCH   7   8
ENDBRANCH   1   7
TORSDOF 6
ENDMDL
MODEL 6
REMARK VINA RESULT:    -3.919      1.934      2.588
REMARK INTER + INTRA:          -5.720
REMARK INTER:                  -5.271
REMARK INTRA:                  -0.449
REMARK UNBOUND:                -0.426
REMARK SMILES CCCCCCCC(=O)[O-]
REMARK SMILES IDX 5 1 6 2 7 3 8 4 9 5 10 6 4 7 3 8 2 9 1 10
REMARK H PARENT
REMARK Flexibility Score: inf
ROOT
ATOM      1  C   UNL     1       4.340  46.449  10.870  1.00  0.00     0.000 C 
ENDROOT
BRANCH   1   2
ATOM      2  C   UNL     1       4.570  46.424   9.345  1.00  0.00     0.006 C 
BRANCH   2   3
ATOM      3  C   UNL     1       3.804  47.523   8.590  1.00  0.00     0.053 C 
BRANCH   3   4
ATOM      4  C   UNL     1       2.333  47.480   8.860  1.00  0.00     0.041 C 
ATOM      5  O   UNL     1       1.701  48.546   9.090  1.00  0.00    -0.550 OA
ATOM      6  O   UNL     1       1.653  46.270   8.829  1.00  0.00    -0.550 OA
ENDBRANCH   3   4
ENDBRANCH   2   3
ENDBRANCH   1   2
BRANCH   1   7
ATOM      7  C   UNL     1       4.100  45.044  11.449  1.00  0.00     0.000 C 
BRANCH   7   8
ATOM      8  C   UNL     1       3.992  43.959  10.360  1.00  0.00    -0.000 C 
BRANCH   8   9
ATOM      9  C   UNL     1       2.752  43.054  10.471  1.00  0.00    -0.003 C 
ATOM     10  C   UNL     1       1.890  43.369  11.693  1.00  0.00     0.004 C 
ENDBRANCH   8   9
ENDBRANCH   7   8
ENDBRANCH   1   7
TORSDOF 6
ENDMDL
MODEL 7
REMARK VINA RESULT:    -3.852      3.179      5.092
REMARK INTER + INTRA:          -5.630
REMARK INTER:                  -5.344
REMARK INTRA:                  -0.286
REMARK UNBOUND:                -0.426
REMARK SMILES CCCCCCCC(=O)[O-]
REMARK SMILES IDX 5 1 6 2 7 3 8 4 9 5 10 6 4 7 3 8 2 9 1 10
REMARK H PARENT
REMARK Flexibility Score: inf
ROOT
ATOM      1  C   UNL     1       2.555  46.485  10.245  1.00  0.00     0.000 C 
ENDROOT
BRANCH   1   2
ATOM      2  C   UNL     1       4.004  46.079  10.580  1.00  0.00     0.006 C 
BRANCH   2   3
ATOM      3  C   UNL     1       4.113  45.107  11.766  1.00  0.00     0.053 C 
BRANCH   3   4
ATOM      4  C   UNL     1       3.537  43.761  11.455  1.00  0.00     0.041 C 
ATOM      5  O   UNL     1       2.482  43.377  12.026  1.00  0.00    -0.550 OA
ATOM      6  O   UNL     1       4.149  42.942  10.515  1.00  0.00    -0.550 OA
ENDBRANCH   3   4
ENDBRANCH   2   3
ENDBRANCH   1   2
BRANCH   1   7
ATOM      7  C   UNL     1       2.470  47.373   8.992  1.00  0.00     0.000 C 
BRANCH   7   8
ATOM      8  C   UNL     1       3.854  47.769   8.445  1.00  0.00    -0.000 C 
BRANCH   8   9
ATOM      9  C   UNL     1       3.842  48.934   7.439  1.00  0.00    -0.003 C 
ATOM     10  C   UNL     1       2.701  49.922   7.683  1.00  0.00     0.004 C 
ENDBRANCH   8   9
ENDBRANCH   7   8
ENDBRANCH   1   7
TORSDOF 6
ENDMDL
MODEL 8
REMARK VINA RESULT:    -3.845      3.068      5.039
REMARK INTER + INTRA:          -5.620
REMARK INTER:                  -5.363
REMARK INTRA:                  -0.257
REMARK UNBOUND:                -0.426
REMARK SMILES CCCCCCCC(=O)[O-]
REMARK SMILES IDX 5 1 6 2 7 3 8 4 9 5 10 6 4 7 3 8 2 9 1 10
REMARK H PARENT
REMARK Flexibility Score: inf
ROOT
ATOM      1  C   UNL     1       5.251  47.382   9.387  1.00  0.00     0.000 C 
ENDROOT
BRANCH   1   2
ATOM      2  C   UNL     1       4.854  46.612  10.663  1.00  0.00     0.006 C 
BRANCH   2   3
ATOM      3  C   UNL     1       4.006  45.360  10.387  1.00  0.00     0.053 C 
BRANCH   3   4
ATOM      4  C   UNL     1       3.296  44.871  11.611  1.00  0.00     0.041 C 
ATOM      5  O   UNL     1       2.037  44.850  11.646  1.00  0.00    -0.550 OA
ATOM      6  O   UNL     1       4.023  44.413  12.701  1.00  0.00    -0.550 OA
ENDBRANCH   3   4
ENDBRANCH   2   3
ENDBRANCH   1   2
BRANCH   1   7
ATOM      7  C   UNL     1       4.098  47.470   8.374  1.00  0.00     0.000 C 
BRANCH   7   8
ATOM      8  C   UNL     1       3.949  48.873   7.755  1.00  0.00    -0.000 C 
BRANCH   8   9
ATOM      9  C   UNL     1       2.512  49.423   7.738  1.00  0.00    -0.003 C 
ATOM     10  C   UNL     1       1.457  48.347   7.996  1.00  0.00     0.004 C 
ENDBRANCH   8   9
ENDBRANCH   7   8
ENDBRANCH   1   7
TORSDOF 6
ENDMDL
MODEL 9
REMARK VINA RESULT:    -3.686      3.128      4.614
REMARK INTER + INTRA:          -5.405
REMARK INTER:                  -4.911
REMARK INTRA:                  -0.494
REMARK UNBOUND:                -0.426
REMARK SMILES CCCCCCCC(=O)[O-]
REMARK SMILES IDX 5 1 6 2 7 3 8 4 9 5 10 6 4 7 3 8 2 9 1 10
REMARK H PARENT
REMARK Flexibility Score: inf
ROOT
ATOM      1  C   UNL     1       0.702  45.957   9.853  1.00  0.00     0.000 C 
ENDROOT
BRANCH   1   2
ATOM      2  C   UNL     1       1.310  44.657  10.420  1.00  0.00     0.006 C 
BRANCH   2   3
ATOM      3  C   UNL     1       2.170  43.887   9.404  1.00  0.00     0.053 C 
BRANCH   3   4
ATOM      4  C   UNL     1       3.635  44.084   9.633  1.00  0.00     0.041 C 
ATOM      5  O   UNL     1       4.169  45.199   9.391  1.00  0.00    -0.550 OA
ATOM      6  O   UNL     1       4.407  43.047  10.140  1.00  0.00    -0.550 OA
ENDBRANCH   3   4
ENDBRANCH   2   3
ENDBRANCH   1   2
BRANCH   1   7
ATOM      7  C   UNL     1       0.673  45.968   8.316  1.00  0.00     0.000 C 
BRANCH   7   8
ATOM      8  C   UNL     1       1.091  47.326   7.720  1.00  0.00    -0.000 C 
BRANCH   8   9
ATOM      9  C   UNL     1       2.195  48.062   8.501  1.00  0.00    -0.003 C 
ATOM     10  C   UNL     1       3.490  48.215   7.703  1.00  0.00     0.004 C 
ENDBRANCH   8   9
ENDBRANCH   7   8
ENDBRANCH   1   7
TORSDOF 6
ENDMDL
