MODEL 1
REMARK VINA RESULT:    -7.238      0.000      0.000
REMARK INTER + INTRA:          -9.786
REMARK INTER:                  -9.142
REMARK INTRA:                  -0.643
REMARK UNBOUND:                -0.643
REMARK SMILES Oc1cc(O)cc(CCc2ccccc2O)c1
REMARK SMILES IDX 9 1 10 2 12 3 13 4 11 5 14 6 15 7 16 8 8 10 7 11 6 12 17 13
REMARK SMILES IDX 4 14 2 15 3 16 5 17 1 19
REMARK H PARENT 16 9 5 18 1 20
REMARK Flexibility Score: inf
ROOT
ATOM      1  C   UNL     1      70.983   2.157  -1.135  1.00  0.00     0.044 C 
ENDROOT
BRANCH   1   2
ATOM      2  C   UNL     1      71.202   1.325   0.102  1.00  0.00    -0.006 A 
ATOM      3  C   UNL     1      72.721   0.424   1.776  1.00  0.00     0.001 A 
ATOM      4  C   UNL     1      71.643  -0.158   2.446  1.00  0.00     0.004 A 
ATOM      5  C   UNL     1      72.503   1.167   0.612  1.00  0.00     0.007 A 
ATOM      6  C   UNL     1      70.345   0.006   1.959  1.00  0.00     0.046 A 
ATOM      7  C   UNL     1      70.115   0.750   0.792  1.00  0.00     0.118 A 
BRANCH   7   8
ATOM      8  O   UNL     1      68.815   0.921   0.320  1.00  0.00    -0.508 OA
ATOM      9  H   UNL     1      68.226   0.130   0.085  1.00  0.00     0.293 HD
ENDBRANCH   7   8
ENDBRANCH   1   2
BRANCH   1  10
ATOM     10  C   UNL     1      71.783   1.595  -2.313  1.00  0.00     0.040 C 
BRANCH  10  11
ATOM     11  C   UNL     1      70.969   0.582  -3.072  1.00  0.00    -0.040 A 
ATOM     12  C   UNL     1      69.940   0.999  -3.930  1.00  0.00     0.050 A 
ATOM     13  C   UNL     1      71.272  -0.787  -2.972  1.00  0.00     0.050 A 
ATOM     14  C   UNL     1      69.204   0.061  -4.662  1.00  0.00     0.119 A 
ATOM     15  C   UNL     1      70.537  -1.729  -3.705  1.00  0.00     0.119 A 
ATOM     16  C   UNL     1      69.504  -1.303  -4.545  1.00  0.00     0.092 A 
BRANCH  14  17
ATOM     17  O   UNL     1      68.181   0.494  -5.502  1.00  0.00    -0.508 OA
ATOM     18  H   UNL     1      68.353   0.708  -6.478  1.00  0.00     0.293 HD
ENDBRANCH  14  17
BRANCH  15  19
ATOM     19  O   UNL     1      70.827  -3.088  -3.606  1.00  0.00    -0.508 OA
ATOM     20  H   UNL     1      71.745  -3.414  -3.326  1.00  0.00     0.293 HD
ENDBRANCH  15  19
ENDBRANCH  10  11
ENDBRANCH   1  10
TORSDOF 6
ENDMDL
MODEL 2
REMARK VINA RESULT:    -7.179      0.071      2.036
REMARK INTER + INTRA:          -9.711
REMARK INTER:                  -9.073
REMARK INTRA:                  -0.639
REMARK UNBOUND:                -0.643
REMARK SMILES Oc1cc(O)cc(CCc2ccccc2O)c1
REMARK SMILES IDX 9 1 10 2 12 3 13 4 11 5 14 6 15 7 16 8 8 10 7 11 6 12 17 13
REMARK SMILES IDX 4 14 2 15 3 16 5 17 1 19
REMARK H PARENT 16 9 5 18 1 20
REMARK Flexibility Score: inf
ROOT
ATOM      1  C   UNL     1      70.974   2.173  -1.129  1.00  0.00     0.044 C 
ENDROOT
BRANCH   1   2
ATOM      2  C   UNL     1      71.208   1.337   0.103  1.00  0.00    -0.006 A 
ATOM      3  C   UNL     1      72.746   0.437   1.759  1.00  0.00     0.001 A 
ATOM      4  C   UNL     1      71.677  -0.155   2.436  1.00  0.00     0.004 A 
ATOM      5  C   UNL     1      72.514   1.183   0.601  1.00  0.00     0.007 A 
ATOM      6  C   UNL     1      70.373   0.005   1.961  1.00  0.00     0.046 A 
ATOM      7  C   UNL     1      70.130   0.753   0.800  1.00  0.00     0.118 A 
BRANCH   7   8
ATOM      8  O   UNL     1      68.825   0.919   0.339  1.00  0.00    -0.508 OA
ATOM      9  H   UNL     1      68.615   1.495  -0.468  1.00  0.00     0.293 HD
ENDBRANCH   7   8
ENDBRANCH   1   2
BRANCH   1  10
ATOM     10  C   UNL     1      71.817   1.660  -2.299  1.00  0.00     0.040 C 
BRANCH  10  11
ATOM     11  C   UNL     1      71.047   0.648  -3.104  1.00  0.00    -0.040 A 
ATOM     12  C   UNL     1      71.356  -0.717  -3.007  1.00  0.00     0.050 A 
ATOM     13  C   UNL     1      69.974   1.057  -3.914  1.00  0.00     0.050 A 
ATOM     14  C   UNL     1      70.620  -1.663  -3.728  1.00  0.00     0.119 A 
ATOM     15  C   UNL     1      69.235   0.112  -4.637  1.00  0.00     0.119 A 
ATOM     16  C   UNL     1      69.561  -1.245  -4.545  1.00  0.00     0.092 A 
BRANCH  14  17
ATOM     17  O   UNL     1      70.947  -3.013  -3.625  1.00  0.00    -0.508 OA
ATOM     18  H   UNL     1      71.704  -3.330  -3.032  1.00  0.00     0.293 HD
ENDBRANCH  14  17
BRANCH  15  19
ATOM     19  O   UNL     1      68.174   0.510  -5.448  1.00  0.00    -0.508 OA
ATOM     20  H   UNL     1      67.672  -0.154  -6.026  1.00  0.00     0.293 HD
ENDBRANCH  15  19
ENDBRANCH  10  11
ENDBRANCH   1  10
TORSDOF 6
ENDMDL
MODEL 3
REMARK VINA RESULT:    -6.533      1.888      5.552
REMARK INTER + INTRA:          -8.896
REMARK INTER:                  -8.329
REMARK INTRA:                  -0.567
REMARK UNBOUND:                -0.643
REMARK SMILES Oc1cc(O)cc(CCc2ccccc2O)c1
REMARK SMILES IDX 9 1 10 2 12 3 13 4 11 5 14 6 15 7 16 8 8 10 7 11 6 12 17 13
REMARK SMILES IDX 4 14 2 15 3 16 5 17 1 19
REMARK H PARENT 16 9 5 18 1 20
REMARK Flexibility Score: inf
ROOT
ATOM      1  C   UNL     1      70.485   1.482  -3.351  1.00  0.00     0.044 C 
ENDROOT
BRANCH   1   2
ATOM      2  C   UNL     1      70.368   0.035  -3.756  1.00  0.00    -0.006 A 
ATOM      3  C   UNL     1      71.258  -2.228  -3.711  1.00  0.00     0.001 A 
ATOM      4  C   UNL     1      70.151  -2.682  -4.431  1.00  0.00     0.004 A 
ATOM      5  C   UNL     1      71.366  -0.877  -3.370  1.00  0.00     0.007 A 
ATOM      6  C   UNL     1      69.146  -1.789  -4.806  1.00  0.00     0.046 A 
ATOM      7  C   UNL     1      69.244  -0.431  -4.468  1.00  0.00     0.118 A 
BRANCH   7   8
ATOM      8  O   UNL     1      68.229   0.453  -4.834  1.00  0.00    -0.508 OA
ATOM      9  H   UNL     1      67.930   0.550  -5.797  1.00  0.00     0.293 HD
ENDBRANCH   7   8
ENDBRANCH   1   2
BRANCH   1  10
ATOM     10  C   UNL     1      69.923   1.696  -1.943  1.00  0.00     0.040 C 
BRANCH  10  11
ATOM     11  C   UNL     1      70.969   1.397  -0.903  1.00  0.00    -0.040 A 
ATOM     12  C   UNL     1      70.637   0.662   0.245  1.00  0.00     0.050 A 
ATOM     13  C   UNL     1      72.300   1.803  -1.102  1.00  0.00     0.050 A 
ATOM     14  C   UNL     1      71.616   0.354   1.197  1.00  0.00     0.119 A 
ATOM     15  C   UNL     1      73.282   1.495  -0.151  1.00  0.00     0.119 A 
ATOM     16  C   UNL     1      72.937   0.775   0.997  1.00  0.00     0.092 A 
BRANCH  14  17
ATOM     17  O   UNL     1      71.265  -0.370   2.333  1.00  0.00    -0.508 OA
ATOM     18  H   UNL     1      70.375  -0.231   2.797  1.00  0.00     0.293 HD
ENDBRANCH  14  17
BRANCH  15  19
ATOM     19  O   UNL     1      74.602   1.899  -0.338  1.00  0.00    -0.508 OA
ATOM     20  H   UNL     1      75.208   2.105   0.448  1.00  0.00     0.293 HD
ENDBRANCH  15  19
ENDBRANCH  10  11
ENDBRANCH   1  10
TORSDOF 6
ENDMDL
MODEL 4
REMARK VINA RESULT:    -6.509     11.408     13.187
REMARK INTER + INTRA:          -8.865
REMARK INTER:                  -8.498
REMARK INTRA:                  -0.367
REMARK UNBOUND:                -0.643
REMARK SMILES Oc1cc(O)cc(CCc2ccccc2O)c1
REMARK SMILES IDX 9 1 10 2 12 3 13 4 11 5 14 6 15 7 16 8 8 10 7 11 6 12 17 13
REMARK SMILES IDX 4 14 2 15 3 16 5 17 1 19
REMARK H PARENT 16 9 5 18 1 20
REMARK Flexibility Score: inf
ROOT
ATOM      1  C   UNL     1      81.856   1.332   0.432  1.00  0.00     0.044 C 
ENDROOT
BRANCH   1   2
ATOM      2  C   UNL     1      80.388   1.171   0.129  1.00  0.00    -0.006 A 
ATOM      3  C   UNL     1      78.539  -0.248  -0.567  1.00  0.00     0.001 A 
ATOM      4  C   UNL     1      77.648   0.811  -0.375  1.00  0.00     0.004 A 
ATOM      5  C   UNL     1      79.902  -0.072  -0.312  1.00  0.00     0.007 A 
ATOM      6  C   UNL     1      78.117   2.046   0.079  1.00  0.00     0.046 A 
ATOM      7  C   UNL     1      79.483   2.232   0.338  1.00  0.00     0.118 A 
BRANCH   7   8
ATOM      8  O   UNL     1      79.942   3.464   0.805  1.00  0.00    -0.508 OA
ATOM      9  H   UNL     1      79.363   4.063   1.382  1.00  0.00     0.293 HD
ENDBRANCH   7   8
ENDBRANCH   1   2
BRANCH   1  10
ATOM     10  C   UNL     1      82.580   1.994  -0.744  1.00  0.00     0.040 C 
BRANCH  10  11
ATOM     11  C   UNL     1      84.062   2.052  -0.490  1.00  0.00    -0.040 A 
ATOM     12  C   UNL     1      84.917   2.663  -1.419  1.00  0.00     0.050 A 
ATOM     13  C   UNL     1      84.594   1.545   0.708  1.00  0.00     0.050 A 
ATOM     14  C   UNL     1      86.291   2.748  -1.170  1.00  0.00     0.119 A 
ATOM     15  C   UNL     1      85.970   1.629   0.962  1.00  0.00     0.119 A 
ATOM     16  C   UNL     1      86.815   2.227   0.021  1.00  0.00     0.092 A 
BRANCH  14  17
ATOM     17  O   UNL     1      87.124   3.352  -2.108  1.00  0.00    -0.508 OA
ATOM     18  H   UNL     1      87.906   3.931  -1.827  1.00  0.00     0.293 HD
ENDBRANCH  14  17
BRANCH  15  19
ATOM     19  O   UNL     1      86.506   1.124   2.143  1.00  0.00    -0.508 OA
ATOM     20  H   UNL     1      86.968   1.726   2.815  1.00  0.00     0.293 HD
ENDBRANCH  15  19
ENDBRANCH  10  11
ENDBRANCH   1  10
TORSDOF 6
ENDMDL
MODEL 5
REMARK VINA RESULT:    -6.459      1.888      5.523
REMARK INTER + INTRA:          -8.802
REMARK INTER:                  -8.257
REMARK INTRA:                  -0.545
REMARK UNBOUND:                -0.643
REMARK SMILES Oc1cc(O)cc(CCc2ccccc2O)c1
REMARK SMILES IDX 9 1 10 2 12 3 13 4 11 5 14 6 15 7 16 8 8 10 7 11 6 12 17 13
REMARK SMILES IDX 4 14 2 15 3 16 5 17 1 19
REMARK H PARENT 16 9 5 18 1 20
REMARK Flexibility Score: inf
ROOT
ATOM      1  C   UNL     1      70.458   1.441  -3.349  1.00  0.00     0.044 C 
ENDROOT
BRANCH   1   2
ATOM      2  C   UNL     1      70.339  -0.000  -3.773  1.00  0.00    -0.006 A 
ATOM      3  C   UNL     1      71.213  -2.270  -3.742  1.00  0.00     0.001 A 
ATOM      4  C   UNL     1      70.115  -2.709  -4.484  1.00  0.00     0.004 A 
ATOM      5  C   UNL     1      71.324  -0.924  -3.384  1.00  0.00     0.007 A 
ATOM      6  C   UNL     1      69.120  -1.804  -4.863  1.00  0.00     0.046 A 
ATOM      7  C   UNL     1      69.222  -0.451  -4.507  1.00  0.00     0.118 A 
BRANCH   7   8
ATOM      8  O   UNL     1      68.218   0.444  -4.878  1.00  0.00    -0.508 OA
ATOM      9  H   UNL     1      68.433   1.334  -5.311  1.00  0.00     0.293 HD
ENDBRANCH   7   8
ENDBRANCH   1   2
BRANCH   1  10
ATOM     10  C   UNL     1      69.905   1.635  -1.934  1.00  0.00     0.040 C 
BRANCH  10  11
ATOM     11  C   UNL     1      70.961   1.331  -0.906  1.00  0.00    -0.040 A 
ATOM     12  C   UNL     1      72.286   1.747  -1.108  1.00  0.00     0.050 A 
ATOM     13  C   UNL     1      70.617   0.680   0.291  1.00  0.00     0.050 A 
ATOM     14  C   UNL     1      73.263   1.495  -0.138  1.00  0.00     0.119 A 
ATOM     15  C   UNL     1      71.593   0.428   1.264  1.00  0.00     0.119 A 
ATOM     16  C   UNL     1      72.914   0.833   1.046  1.00  0.00     0.092 A 
BRANCH  14  17
ATOM     17  O   UNL     1      74.574   1.909  -0.360  1.00  0.00    -0.508 OA
ATOM     18  H   UNL     1      75.286   1.818   0.355  1.00  0.00     0.293 HD
ENDBRANCH  14  17
BRANCH  15  19
ATOM     19  O   UNL     1      71.261  -0.223   2.450  1.00  0.00    -0.508 OA
ATOM     20  H   UNL     1      71.950  -0.385   3.175  1.00  0.00     0.293 HD
ENDBRANCH  15  19
ENDBRANCH  10  11
ENDBRANCH   1  10
TORSDOF 6
ENDMDL
MODEL 6
REMARK VINA RESULT:    -6.413     10.212     11.847
REMARK INTER + INTRA:          -8.743
REMARK INTER:                  -8.433
REMARK INTRA:                  -0.311
REMARK UNBOUND:                -0.643
REMARK SMILES Oc1cc(O)cc(CCc2ccccc2O)c1
REMARK SMILES IDX 9 1 10 2 12 3 13 4 11 5 14 6 15 7 16 8 8 10 7 11 6 12 17 13
REMARK SMILES IDX 4 14 2 15 3 16 5 17 1 19
REMARK H PARENT 16 9 5 18 1 20
REMARK Flexibility Score: inf
ROOT
ATOM      1  C   UNL     1      82.316   2.853  -0.948  1.00  0.00     0.044 C 
ENDROOT
BRANCH   1   2
ATOM      2  C   UNL     1      83.623   2.367  -0.376  1.00  0.00    -0.006 A 
ATOM      3  C   UNL     1      84.827   1.150   1.353  1.00  0.00     0.001 A 
ATOM      4  C   UNL     1      86.031   1.383   0.685  1.00  0.00     0.004 A 
ATOM      5  C   UNL     1      83.627   1.635   0.824  1.00  0.00     0.007 A 
ATOM      6  C   UNL     1      86.038   2.095  -0.517  1.00  0.00     0.046 A 
ATOM      7  C   UNL     1      84.839   2.585  -1.056  1.00  0.00     0.118 A 
BRANCH   7   8
ATOM      8  O   UNL     1      84.852   3.282  -2.263  1.00  0.00    -0.508 OA
ATOM      9  H   UNL     1      84.395   4.181  -2.363  1.00  0.00     0.293 HD
ENDBRANCH   7   8
ENDBRANCH   1   2
BRANCH   1  10
ATOM     10  C   UNL     1      81.268   3.010   0.157  1.00  0.00     0.040 C 
BRANCH  10  11
ATOM     11  C   UNL     1      80.196   1.963   0.024  1.00  0.00    -0.040 A 
ATOM     12  C   UNL     1      78.842   2.328   0.059  1.00  0.00     0.050 A 
ATOM     13  C   UNL     1      80.544   0.619  -0.195  1.00  0.00     0.050 A 
ATOM     14  C   UNL     1      77.843   1.360  -0.098  1.00  0.00     0.119 A 
ATOM     15  C   UNL     1      79.546  -0.352  -0.354  1.00  0.00     0.119 A 
ATOM     16  C   UNL     1      78.198   0.020  -0.301  1.00  0.00     0.092 A 
BRANCH  14  17
ATOM     17  O   UNL     1      76.504   1.741  -0.052  1.00  0.00    -0.508 OA
ATOM     18  H   UNL     1      76.215   2.609   0.384  1.00  0.00     0.293 HD
ENDBRANCH  14  17
BRANCH  15  19
ATOM     19  O   UNL     1      79.882  -1.687  -0.565  1.00  0.00    -0.508 OA
ATOM     20  H   UNL     1      80.847  -1.996  -0.564  1.00  0.00     0.293 HD
ENDBRANCH  15  19
ENDBRANCH  10  11
ENDBRANCH   1  10
TORSDOF 6
ENDMDL
MODEL 7
REMARK VINA RESULT:    -6.399     10.180     11.969
REMARK INTER + INTRA:          -8.726
REMARK INTER:                  -8.347
REMARK INTRA:                  -0.379
REMARK UNBOUND:                -0.643
REMARK SMILES Oc1cc(O)cc(CCc2ccccc2O)c1
REMARK SMILES IDX 9 1 10 2 12 3 13 4 11 5 14 6 15 7 16 8 8 10 7 11 6 12 17 13
REMARK SMILES IDX 4 14 2 15 3 16 5 17 1 19
REMARK H PARENT 16 9 5 18 1 20
REMARK Flexibility Score: inf
ROOT
ATOM      1  C   UNL     1      82.325   2.871  -0.919  1.00  0.00     0.044 C 
ENDROOT
BRANCH   1   2
ATOM      2  C   UNL     1      83.622   2.343  -0.361  1.00  0.00    -0.006 A 
ATOM      3  C   UNL     1      84.805   1.089   1.356  1.00  0.00     0.001 A 
ATOM      4  C   UNL     1      86.008   1.282   0.674  1.00  0.00     0.004 A 
ATOM      5  C   UNL     1      83.616   1.612   0.840  1.00  0.00     0.007 A 
ATOM      6  C   UNL     1      86.025   1.992  -0.528  1.00  0.00     0.046 A 
ATOM      7  C   UNL     1      84.837   2.521  -1.055  1.00  0.00     0.118 A 
BRANCH   7   8
ATOM      8  O   UNL     1      84.859   3.217  -2.263  1.00  0.00    -0.508 OA
ATOM      9  H   UNL     1      84.035   3.297  -2.846  1.00  0.00     0.293 HD
ENDBRANCH   7   8
ENDBRANCH   1   2
BRANCH   1  10
ATOM     10  C   UNL     1      81.276   3.007   0.188  1.00  0.00     0.040 C 
BRANCH  10  11
ATOM     11  C   UNL     1      80.166   2.011  -0.008  1.00  0.00    -0.040 A 
ATOM     12  C   UNL     1      80.461   0.657  -0.234  1.00  0.00     0.050 A 
ATOM     13  C   UNL     1      78.825   2.417   0.092  1.00  0.00     0.050 A 
ATOM     14  C   UNL     1      79.430  -0.277  -0.384  1.00  0.00     0.119 A 
ATOM     15  C   UNL     1      77.790   1.484  -0.057  1.00  0.00     0.119 A 
ATOM     16  C   UNL     1      78.095   0.140  -0.297  1.00  0.00     0.092 A 
BRANCH  14  17
ATOM     17  O   UNL     1      79.742  -1.614  -0.616  1.00  0.00    -0.508 OA
ATOM     18  H   UNL     1      79.997  -1.946  -1.539  1.00  0.00     0.293 HD
ENDBRANCH  14  17
BRANCH  15  19
ATOM     19  O   UNL     1      76.458   1.880   0.034  1.00  0.00    -0.508 OA
ATOM     20  H   UNL     1      75.745   1.259   0.399  1.00  0.00     0.293 HD
ENDBRANCH  15  19
ENDBRANCH  10  11
ENDBRANCH   1  10
TORSDOF 6
ENDMDL
MODEL 8
REMARK VINA RESULT:    -6.378     11.355     13.284
REMARK INTER + INTRA:          -8.700
REMARK INTER:                  -8.293
REMARK INTRA:                  -0.407
REMARK UNBOUND:                -0.643
REMARK SMILES Oc1cc(O)cc(CCc2ccccc2O)c1
REMARK SMILES IDX 9 1 10 2 12 3 13 4 11 5 14 6 15 7 16 8 8 10 7 11 6 12 17 13
REMARK SMILES IDX 4 14 2 15 3 16 5 17 1 19
REMARK H PARENT 16 9 5 18 1 20
REMARK Flexibility Score: inf
ROOT
ATOM      1  C   UNL     1      81.944   0.966   0.016  1.00  0.00     0.044 C 
ENDROOT
BRANCH   1   2
ATOM      2  C   UNL     1      80.471   1.280   0.045  1.00  0.00    -0.006 A 
ATOM      3  C   UNL     1      78.681   2.886   0.411  1.00  0.00     0.001 A 
ATOM      4  C   UNL     1      77.737   1.924   0.044  1.00  0.00     0.004 A 
ATOM      5  C   UNL     1      80.042   2.568   0.408  1.00  0.00     0.007 A 
ATOM      6  C   UNL     1      78.151   0.646  -0.335  1.00  0.00     0.046 A 
ATOM      7  C   UNL     1      79.515   0.317  -0.342  1.00  0.00     0.118 A 
BRANCH   7   8
ATOM      8  O   UNL     1      79.923  -0.957  -0.734  1.00  0.00    -0.508 OA
ATOM      9  H   UNL     1      79.464  -1.453  -1.490  1.00  0.00     0.293 HD
ENDBRANCH   7   8
ENDBRANCH   1   2
BRANCH   1  10
ATOM     10  C   UNL     1      82.765   2.241  -0.192  1.00  0.00     0.040 C 
BRANCH  10  11
ATOM     11  C   UNL     1      84.231   1.919  -0.293  1.00  0.00    -0.040 A 
ATOM     12  C   UNL     1      84.926   1.428   0.823  1.00  0.00     0.050 A 
ATOM     13  C   UNL     1      84.902   2.051  -1.521  1.00  0.00     0.050 A 
ATOM     14  C   UNL     1      86.282   1.096   0.723  1.00  0.00     0.119 A 
ATOM     15  C   UNL     1      86.259   1.718  -1.624  1.00  0.00     0.119 A 
ATOM     16  C   UNL     1      86.946   1.244  -0.502  1.00  0.00     0.092 A 
BRANCH  14  17
ATOM     17  O   UNL     1      86.956   0.617   1.843  1.00  0.00    -0.508 OA
ATOM     18  H   UNL     1      86.581   0.733   2.777  1.00  0.00     0.293 HD
ENDBRANCH  14  17
BRANCH  15  19
ATOM     19  O   UNL     1      86.933   1.852  -2.836  1.00  0.00    -0.508 OA
ATOM     20  H   UNL     1      87.376   1.060  -3.285  1.00  0.00     0.293 HD
ENDBRANCH  15  19
ENDBRANCH  10  11
ENDBRANCH   1  10
TORSDOF 6
ENDMDL
MODEL 9
REMARK VINA RESULT:    -6.308      1.460      5.769
REMARK INTER + INTRA:          -8.611
REMARK INTER:                  -8.041
REMARK INTRA:                  -0.569
REMARK UNBOUND:                -0.643
REMARK SMILES Oc1cc(O)cc(CCc2ccccc2O)c1
REMARK SMILES IDX 9 1 10 2 12 3 13 4 11 5 14 6 15 7 16 8 8 10 7 11 6 12 17 13
REMARK SMILES IDX 4 14 2 15 3 16 5 17 1 19
REMARK H PARENT 16 9 5 18 1 20
REMARK Flexibility Score: inf
ROOT
ATOM      1  C   UNL     1      72.282   0.850  -3.193  1.00  0.00     0.044 C 
ENDROOT
BRANCH   1   2
ATOM      2  C   UNL     1      70.987   0.349  -3.779  1.00  0.00    -0.006 A 
ATOM      3  C   UNL     1      68.818   0.824  -4.773  1.00  0.00     0.001 A 
ATOM      4  C   UNL     1      68.591  -0.544  -4.941  1.00  0.00     0.004 A 
ATOM      5  C   UNL     1      70.012   1.270  -4.199  1.00  0.00     0.007 A 
ATOM      6  C   UNL     1      69.559  -1.468  -4.542  1.00  0.00     0.046 A 
ATOM      7  C   UNL     1      70.761  -1.030  -3.966  1.00  0.00     0.118 A 
BRANCH   7   8
ATOM      8  O   UNL     1      71.728  -1.958  -3.584  1.00  0.00    -0.508 OA
ATOM      9  H   UNL     1      72.196  -2.549  -4.262  1.00  0.00     0.293 HD
ENDBRANCH   7   8
ENDBRANCH   1   2
BRANCH   1  10
ATOM     10  C   UNL     1      72.022   1.985  -2.199  1.00  0.00     0.040 C 
BRANCH  10  11
ATOM     11  C   UNL     1      71.676   1.433  -0.843  1.00  0.00    -0.040 A 
ATOM     12  C   UNL     1      72.685   1.189   0.101  1.00  0.00     0.050 A 
ATOM     13  C   UNL     1      70.333   1.214  -0.490  1.00  0.00     0.050 A 
ATOM     14  C   UNL     1      72.362   0.707   1.375  1.00  0.00     0.119 A 
ATOM     15  C   UNL     1      70.007   0.733   0.785  1.00  0.00     0.119 A 
ATOM     16  C   UNL     1      71.022   0.478   1.713  1.00  0.00     0.092 A 
BRANCH  14  17
ATOM     17  O   UNL     1      73.378   0.463   2.295  1.00  0.00    -0.508 OA
ATOM     18  H   UNL     1      74.004   1.199   2.601  1.00  0.00     0.293 HD
ENDBRANCH  14  17
BRANCH  15  19
ATOM     19  O   UNL     1      68.679   0.507   1.140  1.00  0.00    -0.508 OA
ATOM     20  H   UNL     1      67.934   0.548   0.454  1.00  0.00     0.293 HD
ENDBRANCH  15  19
ENDBRANCH  10  11
ENDBRANCH   1  10
TORSDOF 6
ENDMDL
