MODEL 1
REMARK VINA RESULT:    -3.432      0.000      0.000
REMARK INTER + INTRA:          -3.632
REMARK INTER:                  -3.632
REMARK INTRA:                   0.000
REMARK UNBOUND:                 0.000
REMARK SMILES Cc1cc(O)c(C)c(C)c1O
REMARK SMILES IDX 1 1 2 2 3 3 4 4 6 5 8 6 10 7 9 8 7 9 11 10 5 12
REMARK H PARENT 11 11 5 13
REMARK Flexibility Score: inf
ROOT
ATOM      1  C   UNL     1      80.892   2.322  69.098  1.00  0.00     0.048 C 
ATOM      2  C   UNL     1      79.913   2.555  67.980  1.00  0.00    -0.005 A 
ATOM      3  C   UNL     1      78.548   2.348  68.194  1.00  0.00     0.053 A 
ATOM      4  C   UNL     1      77.618   2.591  67.184  1.00  0.00     0.119 A 
ATOM      5  C   UNL     1      78.049   3.071  65.923  1.00  0.00    -0.003 A 
ATOM      6  C   UNL     1      79.445   3.164  65.658  1.00  0.00    -0.002 A 
ATOM      7  C   UNL     1      80.367   2.973  66.718  1.00  0.00     0.121 A 
ATOM      8  C   UNL     1      79.954   3.478  64.269  1.00  0.00     0.049 C 
ATOM      9  C   UNL     1      77.025   3.459  64.879  1.00  0.00     0.049 C 
ENDROOT
BRANCH   7  10
ATOM     10  O   UNL     1      81.738   3.201  66.552  1.00  0.00    -0.507 OA
ATOM     11  H   UNL     1      82.381   2.515  66.180  1.00  0.00     0.293 HD
ENDBRANCH   7  10
BRANCH   4  12
ATOM     12  O   UNL     1      76.274   2.332  67.467  1.00  0.00    -0.508 OA
ATOM     13  H   UNL     1      75.962   1.571  68.056  1.00  0.00     0.293 HD
ENDBRANCH   4  12
TORSDOF 2
ENDMDL
MODEL 2
REMARK VINA RESULT:    -3.306      0.578      2.972
REMARK INTER + INTRA:          -3.499
REMARK INTER:                  -3.499
REMARK INTRA:                   0.000
REMARK UNBOUND:                 0.000
REMARK SMILES Cc1cc(O)c(C)c(C)c1O
REMARK SMILES IDX 1 1 2 2 3 3 4 4 6 5 8 6 10 7 9 8 7 9 11 10 5 12
REMARK H PARENT 11 11 5 13
REMARK Flexibility Score: inf
ROOT
ATOM      1  C   UNL     1      80.070   3.721  64.220  1.00  0.00     0.048 C 
ATOM      2  C   UNL     1      79.437   3.282  65.512  1.00  0.00    -0.005 A 
ATOM      3  C   UNL     1      78.049   3.150  65.599  1.00  0.00     0.053 A 
ATOM      4  C   UNL     1      77.442   2.711  66.775  1.00  0.00     0.119 A 
ATOM      5  C   UNL     1      78.233   2.375  67.900  1.00  0.00    -0.003 A 
ATOM      6  C   UNL     1      79.635   2.626  67.860  1.00  0.00    -0.002 A 
ATOM      7  C   UNL     1      80.237   3.012  66.635  1.00  0.00     0.121 A 
ATOM      8  C   UNL     1      80.489   2.473  69.099  1.00  0.00     0.049 C 
ATOM      9  C   UNL     1      77.580   1.774  69.124  1.00  0.00     0.049 C 
ENDROOT
BRANCH   7  10
ATOM     10  O   UNL     1      81.625   3.125  66.500  1.00  0.00    -0.507 OA
ATOM     11  H   UNL     1      82.163   3.906  66.850  1.00  0.00     0.293 HD
ENDBRANCH   7  10
BRANCH   4  12
ATOM     12  O   UNL     1      76.047   2.633  66.792  1.00  0.00    -0.508 OA
ATOM     13  H   UNL     1      75.446   3.223  66.231  1.00  0.00     0.293 HD
ENDBRANCH   4  12
TORSDOF 2
ENDMDL
MODEL 3
REMARK VINA RESULT:    -3.294      1.063      4.282
REMARK INTER + INTRA:          -3.487
REMARK INTER:                  -3.487
REMARK INTRA:                   0.000
REMARK UNBOUND:                 0.000
REMARK SMILES Cc1cc(O)c(C)c(C)c1O
REMARK SMILES IDX 1 1 2 2 3 3 4 4 6 5 8 6 10 7 9 8 7 9 11 10 5 12
REMARK H PARENT 11 11 5 13
REMARK Flexibility Score: inf
ROOT
ATOM      1  C   UNL     1      78.367   3.127  63.486  1.00  0.00     0.048 C 
ATOM      2  C   UNL     1      78.803   2.972  64.917  1.00  0.00    -0.005 A 
ATOM      3  C   UNL     1      80.149   3.132  65.257  1.00  0.00     0.053 A 
ATOM      4  C   UNL     1      80.571   3.028  66.582  1.00  0.00     0.119 A 
ATOM      5  C   UNL     1      79.630   2.773  67.609  1.00  0.00    -0.003 A 
ATOM      6  C   UNL     1      78.281   2.485  67.256  1.00  0.00    -0.002 A 
ATOM      7  C   UNL     1      77.862   2.659  65.912  1.00  0.00     0.121 A 
ATOM      8  C   UNL     1      77.288   2.012  68.294  1.00  0.00     0.049 C 
ATOM      9  C   UNL     1      80.074   2.795  69.055  1.00  0.00     0.049 C 
ENDROOT
BRANCH   7  10
ATOM     10  O   UNL     1      76.520   2.538  65.537  1.00  0.00    -0.507 OA
ATOM     11  H   UNL     1      76.075   1.658  65.312  1.00  0.00     0.293 HD
ENDBRANCH   7  10
BRANCH   4  12
ATOM     12  O   UNL     1      81.937   3.172  66.838  1.00  0.00    -0.508 OA
ATOM     13  H   UNL     1      82.406   4.067  66.891  1.00  0.00     0.293 HD
ENDBRANCH   4  12
TORSDOF 2
ENDMDL
MODEL 4
REMARK VINA RESULT:    -3.268     20.178     20.932
REMARK INTER + INTRA:          -3.459
REMARK INTER:                  -3.459
REMARK INTRA:                   0.000
REMARK UNBOUND:                 0.000
REMARK SMILES Cc1cc(O)c(C)c(C)c1O
REMARK SMILES IDX 1 1 2 2 3 3 4 4 6 5 8 6 10 7 9 8 7 9 11 10 5 12
REMARK H PARENT 11 11 5 13
REMARK Flexibility Score: inf
ROOT
ATOM      1  C   UNL     1      69.804 -10.115  54.433  1.00  0.00     0.048 C 
ATOM      2  C   UNL     1      70.434  -9.654  53.147  1.00  0.00    -0.005 A 
ATOM      3  C   UNL     1      71.414 -10.437  52.531  1.00  0.00     0.053 A 
ATOM      4  C   UNL     1      71.987 -10.047  51.321  1.00  0.00     0.119 A 
ATOM      5  C   UNL     1      71.567  -8.853  50.688  1.00  0.00    -0.003 A 
ATOM      6  C   UNL     1      70.662  -7.989  51.370  1.00  0.00    -0.002 A 
ATOM      7  C   UNL     1      70.046  -8.435  52.567  1.00  0.00     0.121 A 
ATOM      8  C   UNL     1      70.340  -6.614  50.829  1.00  0.00     0.049 C 
ATOM      9  C   UNL     1      72.094  -8.506  49.314  1.00  0.00     0.049 C 
ENDROOT
BRANCH   7  10
ATOM     10  O   UNL     1      69.039  -7.696  53.197  1.00  0.00    -0.507 OA
ATOM     11  H   UNL     1      68.102  -7.596  52.830  1.00  0.00     0.293 HD
ENDBRANCH   7  10
BRANCH   4  12
ATOM     12  O   UNL     1      72.981 -10.869  50.783  1.00  0.00    -0.508 OA
ATOM     13  H   UNL     1      73.868 -11.046  51.237  1.00  0.00     0.293 HD
ENDBRANCH   4  12
TORSDOF 2
ENDMDL
MODEL 5
REMARK VINA RESULT:    -3.079     17.813     19.456
REMARK INTER + INTRA:          -3.259
REMARK INTER:                  -3.259
REMARK INTRA:                   0.000
REMARK UNBOUND:                 0.000
REMARK SMILES Cc1cc(O)c(C)c(C)c1O
REMARK SMILES IDX 1 1 2 2 3 3 4 4 6 5 8 6 10 7 9 8 7 9 11 10 5 12
REMARK H PARENT 11 11 5 13
REMARK Flexibility Score: inf
ROOT
ATOM      1  C   UNL     1      69.461   7.237  52.862  1.00  0.00     0.048 C 
ATOM      2  C   UNL     1      68.153   6.606  52.472  1.00  0.00    -0.005 A 
ATOM      3  C   UNL     1      66.968   7.017  53.090  1.00  0.00     0.053 A 
ATOM      4  C   UNL     1      65.740   6.472  52.719  1.00  0.00     0.119 A 
ATOM      5  C   UNL     1      65.675   5.500  51.692  1.00  0.00    -0.003 A 
ATOM      6  C   UNL     1      66.886   4.987  51.146  1.00  0.00    -0.002 A 
ATOM      7  C   UNL     1      68.118   5.600  51.492  1.00  0.00     0.121 A 
ATOM      8  C   UNL     1      66.876   3.811  50.195  1.00  0.00     0.049 C 
ATOM      9  C   UNL     1      64.329   5.013  51.204  1.00  0.00     0.049 C 
ENDROOT
BRANCH   7  10
ATOM     10  O   UNL     1      69.320   5.238  50.873  1.00  0.00    -0.507 OA
ATOM     11  H   UNL     1      69.781   5.799  50.169  1.00  0.00     0.293 HD
ENDBRANCH   7  10
BRANCH   4  12
ATOM     12  O   UNL     1      64.605   6.913  53.404  1.00  0.00    -0.508 OA
ATOM     13  H   UNL     1      63.882   6.295  53.749  1.00  0.00     0.293 HD
ENDBRANCH   4  12
TORSDOF 2
ENDMDL
MODEL 6
REMARK VINA RESULT:    -3.054      8.205     10.556
REMARK INTER + INTRA:          -3.233
REMARK INTER:                  -3.233
REMARK INTRA:                   0.000
REMARK UNBOUND:                 0.000
REMARK SMILES Cc1cc(O)c(C)c(C)c1O
REMARK SMILES IDX 1 1 2 2 3 3 4 4 6 5 8 6 10 7 9 8 7 9 11 10 5 12
REMARK H PARENT 11 11 5 13
REMARK Flexibility Score: inf
ROOT
ATOM      1  C   UNL     1      83.075   2.719  56.785  1.00  0.00     0.048 C 
ATOM      2  C   UNL     1      82.977   4.150  57.239  1.00  0.00    -0.005 A 
ATOM      3  C   UNL     1      83.089   5.186  56.309  1.00  0.00     0.053 A 
ATOM      4  C   UNL     1      82.967   6.518  56.701  1.00  0.00     0.119 A 
ATOM      5  C   UNL     1      82.708   6.839  58.055  1.00  0.00    -0.003 A 
ATOM      6  C   UNL     1      82.717   5.798  59.027  1.00  0.00    -0.002 A 
ATOM      7  C   UNL     1      82.781   4.448  58.598  1.00  0.00     0.121 A 
ATOM      8  C   UNL     1      82.646   6.112  60.505  1.00  0.00     0.049 C 
ATOM      9  C   UNL     1      82.444   8.275  58.448  1.00  0.00     0.049 C 
ENDROOT
BRANCH   7  10
ATOM     10  O   UNL     1      82.641   3.383  59.495  1.00  0.00    -0.507 OA
ATOM     11  H   UNL     1      83.077   3.354  60.406  1.00  0.00     0.293 HD
ENDBRANCH   7  10
BRANCH   4  12
ATOM     12  O   UNL     1      83.120   7.498  55.716  1.00  0.00    -0.508 OA
ATOM     13  H   UNL     1      82.559   8.339  55.669  1.00  0.00     0.293 HD
ENDBRANCH   4  12
TORSDOF 2
ENDMDL
MODEL 7
REMARK VINA RESULT:    -3.044     20.010     20.466
REMARK INTER + INTRA:          -3.222
REMARK INTER:                  -3.222
REMARK INTRA:                   0.000
REMARK UNBOUND:                 0.000
REMARK SMILES Cc1cc(O)c(C)c(C)c1O
REMARK SMILES IDX 1 1 2 2 3 3 4 4 6 5 8 6 10 7 9 8 7 9 11 10 5 12
REMARK H PARENT 11 11 5 13
REMARK Flexibility Score: inf
ROOT
ATOM      1  C   UNL     1      72.667  -9.744  51.054  1.00  0.00     0.048 C 
ATOM      2  C   UNL     1      71.487  -9.444  51.937  1.00  0.00    -0.005 A 
ATOM      3  C   UNL     1      71.058 -10.388  52.874  1.00  0.00     0.053 A 
ATOM      4  C   UNL     1      69.989 -10.117  53.727  1.00  0.00     0.119 A 
ATOM      5  C   UNL     1      69.330  -8.865  53.665  1.00  0.00    -0.003 A 
ATOM      6  C   UNL     1      69.679  -7.949  52.632  1.00  0.00    -0.002 A 
ATOM      7  C   UNL     1      70.810  -8.219  51.818  1.00  0.00     0.121 A 
ATOM      8  C   UNL     1      68.873  -6.691  52.401  1.00  0.00     0.049 C 
ATOM      9  C   UNL     1      68.262  -8.529  54.681  1.00  0.00     0.049 C 
ENDROOT
BRANCH   7  10
ATOM     10  O   UNL     1      71.289  -7.286  50.891  1.00  0.00    -0.507 OA
ATOM     11  H   UNL     1      71.002  -7.258  49.922  1.00  0.00     0.293 HD
ENDBRANCH   7  10
BRANCH   4  12
ATOM     12  O   UNL     1      69.601 -11.123  54.616  1.00  0.00    -0.508 OA
ATOM     13  H   UNL     1      68.662 -11.495  54.666  1.00  0.00     0.293 HD
ENDBRANCH   4  12
TORSDOF 2
ENDMDL
