MODEL 1
REMARK VINA RESULT:    -6.977      0.000      0.000
REMARK INTER + INTRA:         -10.300
REMARK INTER:                  -9.628
REMARK INTRA:                  -0.673
REMARK UNBOUND:                -0.673
REMARK SMILES CCCCc1cccc(O)c1CCCC
REMARK SMILES IDX 5 1 11 2 9 3 8 4 7 5 6 6 4 7 3 8 2 9 1 10 12 11 13 12 14 13
REMARK SMILES IDX 15 14 10 15
REMARK H PARENT 10 16
REMARK Flexibility Score: inf
ROOT
ATOM      1  C   UNL     1      79.376  62.095 105.976  1.00  0.00    -0.041 A 
ATOM      2  C   UNL     1      78.584  62.658 107.026  1.00  0.00    -0.003 A 
ATOM      3  C   UNL     1      77.533  61.872 107.583  1.00  0.00     0.119 A 
ATOM      4  C   UNL     1      77.282  60.589 107.093  1.00  0.00     0.046 A 
ATOM      5  C   UNL     1      78.059  60.051 106.074  1.00  0.00     0.004 A 
ATOM      6  C   UNL     1      79.099  60.792 105.526  1.00  0.00     0.004 A 
ENDROOT
BRANCH   1   7
ATOM      7  C   UNL     1      80.533  62.820 105.310  1.00  0.00     0.036 C 
BRANCH   7   8
ATOM      8  C   UNL     1      80.537  62.679 103.775  1.00  0.00     0.004 C 
BRANCH   8   9
ATOM      9  C   UNL     1      79.537  63.600 103.053  1.00  0.00    -0.003 C 
ATOM     10  C   UNL     1      79.964  63.950 101.629  1.00  0.00     0.004 C 
ENDBRANCH   8   9
ENDBRANCH   7   8
ENDBRANCH   1   7
BRANCH   2  11
ATOM     11  C   UNL     1      78.863  64.061 107.544  1.00  0.00     0.040 C 
BRANCH  11  12
ATOM     12  C   UNL     1      77.804  65.077 107.083  1.00  0.00     0.005 C 
BRANCH  12  13
ATOM     13  C   UNL     1      77.887  66.406 107.845  1.00  0.00    -0.003 C 
ATOM     14  C   UNL     1      79.051  66.403 108.832  1.00  0.00     0.004 C 
ENDBRANCH  12  13
ENDBRANCH  11  12
ENDBRANCH   2  11
BRANCH   3  15
ATOM     15  O   UNL     1      76.714  62.314 108.626  1.00  0.00    -0.508 OA
ATOM     16  H   UNL     1      76.791  63.212 109.081  1.00  0.00     0.293 HD
ENDBRANCH   3  15
TORSDOF 7
ENDMDL
MODEL 2
REMARK VINA RESULT:    -6.758      2.462      5.184
REMARK INTER + INTRA:          -9.999
REMARK INTER:                  -8.630
REMARK INTRA:                  -1.369
REMARK UNBOUND:                -0.673
REMARK SMILES CCCCc1cccc(O)c1CCCC
REMARK SMILES IDX 5 1 11 2 9 3 8 4 7 5 6 6 4 7 3 8 2 9 1 10 12 11 13 12 14 13
REMARK SMILES IDX 15 14 10 15
REMARK H PARENT 10 16
REMARK Flexibility Score: inf
ROOT
ATOM      1  C   UNL     1      79.514  62.378 103.612  1.00  0.00    -0.041 A 
ATOM      2  C   UNL     1      78.279  61.896 103.073  1.00  0.00    -0.003 A 
ATOM      3  C   UNL     1      77.809  62.448 101.846  1.00  0.00     0.119 A 
ATOM      4  C   UNL     1      78.539  63.451 101.204  1.00  0.00     0.046 A 
ATOM      5  C   UNL     1      79.737  63.911 101.735  1.00  0.00     0.004 A 
ATOM      6  C   UNL     1      80.224  63.376 102.922  1.00  0.00     0.004 A 
ENDROOT
BRANCH   1   7
ATOM      7  C   UNL     1      80.131  61.863 104.901  1.00  0.00     0.036 C 
BRANCH   7   8
ATOM      8  C   UNL     1      80.119  62.901 106.039  1.00  0.00     0.004 C 
BRANCH   8   9
ATOM      9  C   UNL     1      78.741  63.534 106.304  1.00  0.00    -0.003 C 
ATOM     10  C   UNL     1      78.290  63.404 107.757  1.00  0.00     0.004 C 
ENDBRANCH   8   9
ENDBRANCH   7   8
ENDBRANCH   1   7
BRANCH   2  11
ATOM     11  C   UNL     1      77.490  60.809 103.788  1.00  0.00     0.040 C 
BRANCH  11  12
ATOM     12  C   UNL     1      76.411  61.386 104.720  1.00  0.00     0.005 C 
BRANCH  12  13
ATOM     13  C   UNL     1      76.127  60.484 105.928  1.00  0.00    -0.003 C 
ATOM     14  C   UNL     1      77.423  59.980 106.556  1.00  0.00     0.004 C 
ENDBRANCH  12  13
ENDBRANCH  11  12
ENDBRANCH   2  11
BRANCH   3  15
ATOM     15  O   UNL     1      76.629  62.035 101.220  1.00  0.00    -0.508 OA
ATOM     16  H   UNL     1      76.488  61.132 100.791  1.00  0.00     0.293 HD
ENDBRANCH   3  15
TORSDOF 7
ENDMDL
MODEL 3
REMARK VINA RESULT:    -6.734      2.488      3.839
REMARK INTER + INTRA:          -9.965
REMARK INTER:                  -8.729
REMARK INTRA:                  -1.237
REMARK UNBOUND:                -0.673
REMARK SMILES CCCCc1cccc(O)c1CCCC
REMARK SMILES IDX 5 1 11 2 9 3 8 4 7 5 6 6 4 7 3 8 2 9 1 10 12 11 13 12 14 13
REMARK SMILES IDX 15 14 10 15
REMARK H PARENT 10 16
REMARK Flexibility Score: inf
ROOT
ATOM      1  C   UNL     1      79.457  63.685 103.240  1.00  0.00    -0.041 A 
ATOM      2  C   UNL     1      78.498  63.640 104.302  1.00  0.00    -0.003 A 
ATOM      3  C   UNL     1      78.889  63.073 105.549  1.00  0.00     0.119 A 
ATOM      4  C   UNL     1      80.177  62.558 105.712  1.00  0.00     0.046 A 
ATOM      5  C   UNL     1      81.100  62.608 104.675  1.00  0.00     0.004 A 
ATOM      6  C   UNL     1      80.748  63.171 103.455  1.00  0.00     0.004 A 
ENDROOT
BRANCH   1   7
ATOM      7  C   UNL     1      79.172  64.278 101.871  1.00  0.00     0.036 C 
BRANCH   7   8
ATOM      8  C   UNL     1      78.795  63.219 100.816  1.00  0.00     0.004 C 
BRANCH   8   9
ATOM      9  C   UNL     1      77.290  62.909 100.740  1.00  0.00    -0.003 C 
ATOM     10  C   UNL     1      76.451  64.112 100.313  1.00  0.00     0.004 C 
ENDBRANCH   8   9
ENDBRANCH   7   8
ENDBRANCH   1   7
BRANCH   2  11
ATOM     11  C   UNL     1      77.096  64.197 104.108  1.00  0.00     0.040 C 
BRANCH  11  12
ATOM     12  C   UNL     1      77.023  65.710 104.376  1.00  0.00     0.005 C 
BRANCH  12  13
ATOM     13  C   UNL     1      76.234  66.465 103.299  1.00  0.00    -0.003 C 
ATOM     14  C   UNL     1      77.151  67.360 102.470  1.00  0.00     0.004 C 
ENDBRANCH  12  13
ENDBRANCH  11  12
ENDBRANCH   2  11
BRANCH   3  15
ATOM     15  O   UNL     1      78.042  62.999 106.659  1.00  0.00    -0.508 OA
ATOM     16  H   UNL     1      77.437  62.221 106.874  1.00  0.00     0.293 HD
ENDBRANCH   3  15
TORSDOF 7
ENDMDL
MODEL 4
REMARK VINA RESULT:    -6.651      2.572      4.176
REMARK INTER + INTRA:          -9.852
REMARK INTER:                  -8.551
REMARK INTRA:                  -1.301
REMARK UNBOUND:                -0.673
REMARK SMILES CCCCc1cccc(O)c1CCCC
REMARK SMILES IDX 5 1 11 2 9 3 8 4 7 5 6 6 4 7 3 8 2 9 1 10 12 11 13 12 14 13
REMARK SMILES IDX 15 14 10 15
REMARK H PARENT 10 16
REMARK Flexibility Score: inf
ROOT
ATOM      1  C   UNL     1      79.276  63.757 103.418  1.00  0.00    -0.041 A 
ATOM      2  C   UNL     1      78.546  63.699 104.646  1.00  0.00    -0.003 A 
ATOM      3  C   UNL     1      79.149  63.062 105.769  1.00  0.00     0.119 A 
ATOM      4  C   UNL     1      80.420  62.494 105.653  1.00  0.00     0.046 A 
ATOM      5  C   UNL     1      81.121  62.557 104.456  1.00  0.00     0.004 A 
ATOM      6  C   UNL     1      80.560  63.188 103.352  1.00  0.00     0.004 A 
ENDROOT
BRANCH   1   7
ATOM      7  C   UNL     1      78.754  64.421 102.155  1.00  0.00     0.036 C 
BRANCH   7   8
ATOM      8  C   UNL     1      78.403  63.417 101.041  1.00  0.00     0.004 C 
BRANCH   8   9
ATOM      9  C   UNL     1      77.022  63.639 100.400  1.00  0.00    -0.003 C 
ATOM     10  C   UNL     1      76.266  64.824 101.000  1.00  0.00     0.004 C 
ENDBRANCH   8   9
ENDBRANCH   7   8
ENDBRANCH   1   7
BRANCH   2  11
ATOM     11  C   UNL     1      77.158  64.315 104.756  1.00  0.00     0.040 C 
BRANCH  11  12
ATOM     12  C   UNL     1      76.058  63.252 104.920  1.00  0.00     0.005 C 
BRANCH  12  13
ATOM     13  C   UNL     1      76.043  62.233 103.774  1.00  0.00    -0.003 C 
ATOM     14  C   UNL     1      74.681  62.196 103.088  1.00  0.00     0.004 C 
ENDBRANCH  12  13
ENDBRANCH  11  12
ENDBRANCH   2  11
BRANCH   3  15
ATOM     15  O   UNL     1      78.535  62.969 107.022  1.00  0.00    -0.508 OA
ATOM     16  H   UNL     1      78.020  62.168 107.355  1.00  0.00     0.293 HD
ENDBRANCH   3  15
TORSDOF 7
ENDMDL
MODEL 5
REMARK VINA RESULT:    -6.532      2.176      4.334
REMARK INTER + INTRA:          -9.687
REMARK INTER:                  -8.429
REMARK INTRA:                  -1.257
REMARK UNBOUND:                -0.673
REMARK SMILES CCCCc1cccc(O)c1CCCC
REMARK SMILES IDX 5 1 11 2 9 3 8 4 7 5 6 6 4 7 3 8 2 9 1 10 12 11 13 12 14 13
REMARK SMILES IDX 15 14 10 15
REMARK H PARENT 10 16
REMARK Flexibility Score: inf
ROOT
ATOM      1  C   UNL     1      79.419  63.389 104.160  1.00  0.00    -0.041 A 
ATOM      2  C   UNL     1      78.175  64.046 103.898  1.00  0.00    -0.003 A 
ATOM      3  C   UNL     1      77.956  64.599 102.603  1.00  0.00     0.119 A 
ATOM      4  C   UNL     1      78.949  64.510 101.625  1.00  0.00     0.046 A 
ATOM      5  C   UNL     1      80.152  63.868 101.889  1.00  0.00     0.004 A 
ATOM      6  C   UNL     1      80.383  63.307 103.140  1.00  0.00     0.004 A 
ENDROOT
BRANCH   1   7
ATOM      7  C   UNL     1      79.770  62.745 105.490  1.00  0.00     0.036 C 
BRANCH   7   8
ATOM      8  C   UNL     1      79.651  61.209 105.473  1.00  0.00     0.004 C 
BRANCH   8   9
ATOM      9  C   UNL     1      78.285  60.675 105.940  1.00  0.00    -0.003 C 
ATOM     10  C   UNL     1      77.786  61.342 107.221  1.00  0.00     0.004 C 
ENDBRANCH   8   9
ENDBRANCH   7   8
ENDBRANCH   1   7
BRANCH   2  11
ATOM     11  C   UNL     1      77.105  64.143 104.976  1.00  0.00     0.040 C 
BRANCH  11  12
ATOM     12  C   UNL     1      77.251  65.412 105.833  1.00  0.00     0.005 C 
BRANCH  12  13
ATOM     13  C   UNL     1      77.108  65.132 107.335  1.00  0.00    -0.003 C 
ATOM     14  C   UNL     1      78.473  64.983 107.999  1.00  0.00     0.004 C 
ENDBRANCH  12  13
ENDBRANCH  11  12
ENDBRANCH   2  11
BRANCH   3  15
ATOM     15  O   UNL     1      76.770  65.241 102.233  1.00  0.00    -0.508 OA
ATOM     16  H   UNL     1      76.701  65.975 101.545  1.00  0.00     0.293 HD
ENDBRANCH   3  15
TORSDOF 7
ENDMDL
MODEL 6
REMARK VINA RESULT:    -6.480      2.703      5.134
REMARK INTER + INTRA:          -9.615
REMARK INTER:                  -8.339
REMARK INTRA:                  -1.276
REMARK UNBOUND:                -0.673
REMARK SMILES CCCCc1cccc(O)c1CCCC
REMARK SMILES IDX 5 1 11 2 9 3 8 4 7 5 6 6 4 7 3 8 2 9 1 10 12 11 13 12 14 13
REMARK SMILES IDX 15 14 10 15
REMARK H PARENT 10 16
REMARK Flexibility Score: inf
ROOT
ATOM      1  C   UNL     1      79.220  63.311 104.450  1.00  0.00    -0.041 A 
ATOM      2  C   UNL     1      78.105  64.048 103.940  1.00  0.00    -0.003 A 
ATOM      3  C   UNL     1      78.159  64.524 102.598  1.00  0.00     0.119 A 
ATOM      4  C   UNL     1      79.290  64.285 101.815  1.00  0.00     0.046 A 
ATOM      5  C   UNL     1      80.366  63.567 102.319  1.00  0.00     0.004 A 
ATOM      6  C   UNL     1      80.330  63.078 103.620  1.00  0.00     0.004 A 
ENDROOT
BRANCH   1   7
ATOM      7  C   UNL     1      79.280  62.736 105.855  1.00  0.00     0.036 C 
BRANCH   7   8
ATOM      8  C   UNL     1      78.847  61.259 105.927  1.00  0.00     0.004 C 
BRANCH   8   9
ATOM      9  C   UNL     1      77.843  60.949 107.051  1.00  0.00    -0.003 C 
ATOM     10  C   UNL     1      77.392  62.193 107.814  1.00  0.00     0.004 C 
ENDBRANCH   8   9
ENDBRANCH   7   8
ENDBRANCH   1   7
BRANCH   2  11
ATOM     11  C   UNL     1      76.882  64.309 104.808  1.00  0.00     0.040 C 
BRANCH  11  12
ATOM     12  C   UNL     1      75.623  63.605 104.274  1.00  0.00     0.005 C 
BRANCH  12  13
ATOM     13  C   UNL     1      75.812  62.091 104.118  1.00  0.00    -0.003 C 
ATOM     14  C   UNL     1      74.804  61.320 104.965  1.00  0.00     0.004 C 
ENDBRANCH  12  13
ENDBRANCH  11  12
ENDBRANCH   2  11
BRANCH   3  15
ATOM     15  O   UNL     1      77.117  65.234 101.992  1.00  0.00    -0.508 OA
ATOM     16  H   UNL     1      77.151  66.211 101.745  1.00  0.00     0.293 HD
ENDBRANCH   3  15
TORSDOF 7
ENDMDL
MODEL 7
REMARK VINA RESULT:    -6.474      2.956      4.577
REMARK INTER + INTRA:          -9.606
REMARK INTER:                  -8.178
REMARK INTRA:                  -1.429
REMARK UNBOUND:                -0.673
REMARK SMILES CCCCc1cccc(O)c1CCCC
REMARK SMILES IDX 5 1 11 2 9 3 8 4 7 5 6 6 4 7 3 8 2 9 1 10 12 11 13 12 14 13
REMARK SMILES IDX 15 14 10 15
REMARK H PARENT 10 16
REMARK Flexibility Score: inf
ROOT
ATOM      1  C   UNL     1      79.369  62.700 103.060  1.00  0.00    -0.041 A 
ATOM      2  C   UNL     1      78.532  61.861 103.862  1.00  0.00    -0.003 A 
ATOM      3  C   UNL     1      78.999  61.463 105.149  1.00  0.00     0.119 A 
ATOM      4  C   UNL     1      80.257  61.875 105.596  1.00  0.00     0.046 A 
ATOM      5  C   UNL     1      81.060  62.690 104.810  1.00  0.00     0.004 A 
ATOM      6  C   UNL     1      80.619  63.105 103.559  1.00  0.00     0.004 A 
ENDROOT
BRANCH   1   7
ATOM      7  C   UNL     1      78.982  63.206 101.681  1.00  0.00     0.036 C 
BRANCH   7   8
ATOM      8  C   UNL     1      78.783  64.734 101.628  1.00  0.00     0.004 C 
BRANCH   8   9
ATOM      9  C   UNL     1      77.723  65.268 102.607  1.00  0.00    -0.003 C 
ATOM     10  C   UNL     1      76.481  65.817 101.906  1.00  0.00     0.004 C 
ENDBRANCH   8   9
ENDBRANCH   7   8
ENDBRANCH   1   7
BRANCH   2  11
ATOM     11  C   UNL     1      77.168  61.413 103.359  1.00  0.00     0.040 C 
BRANCH  11  12
ATOM     12  C   UNL     1      76.032  62.322 103.857  1.00  0.00     0.005 C 
BRANCH  12  13
ATOM     13  C   UNL     1      74.899  62.469 102.833  1.00  0.00    -0.003 C 
ATOM     14  C   UNL     1      75.421  62.312 101.408  1.00  0.00     0.004 C 
ENDBRANCH  12  13
ENDBRANCH  11  12
ENDBRANCH   2  11
BRANCH   3  15
ATOM     15  O   UNL     1      78.254  60.665 106.023  1.00  0.00    -0.508 OA
ATOM     16  H   UNL     1      78.046  59.689 105.879  1.00  0.00     0.293 HD
ENDBRANCH   3  15
TORSDOF 7
ENDMDL
MODEL 8
REMARK VINA RESULT:    -6.391      2.953      5.040
REMARK INTER + INTRA:          -9.493
REMARK INTER:                  -8.201
REMARK INTRA:                  -1.292
REMARK UNBOUND:                -0.673
REMARK SMILES CCCCc1cccc(O)c1CCCC
REMARK SMILES IDX 5 1 11 2 9 3 8 4 7 5 6 6 4 7 3 8 2 9 1 10 12 11 13 12 14 13
REMARK SMILES IDX 15 14 10 15
REMARK H PARENT 10 16
REMARK Flexibility Score: inf
ROOT
ATOM      1  C   UNL     1      77.891  63.557 102.590  1.00  0.00    -0.041 A 
ATOM      2  C   UNL     1      76.767  62.785 103.024  1.00  0.00    -0.003 A 
ATOM      3  C   UNL     1      75.694  62.570 102.111  1.00  0.00     0.119 A 
ATOM      4  C   UNL     1      75.743  63.123 100.830  1.00  0.00     0.046 A 
ATOM      5  C   UNL     1      76.840  63.869 100.418  1.00  0.00     0.004 A 
ATOM      6  C   UNL     1      77.905  64.078 101.285  1.00  0.00     0.004 A 
ENDROOT
BRANCH   1   7
ATOM      7  C   UNL     1      79.103  63.844 103.459  1.00  0.00     0.036 C 
BRANCH   7   8
ATOM      8  C   UNL     1      80.357  63.055 103.033  1.00  0.00     0.004 C 
BRANCH   8   9
ATOM      9  C   UNL     1      80.812  61.994 104.051  1.00  0.00    -0.003 C 
ATOM     10  C   UNL     1      80.870  62.522 105.483  1.00  0.00     0.004 C 
ENDBRANCH   8   9
ENDBRANCH   7   8
ENDBRANCH   1   7
BRANCH   2  11
ATOM     11  C   UNL     1      76.722  62.196 104.427  1.00  0.00     0.040 C 
BRANCH  11  12
ATOM     12  C   UNL     1      77.332  60.785 104.490  1.00  0.00     0.005 C 
BRANCH  12  13
ATOM     13  C   UNL     1      77.805  60.406 105.899  1.00  0.00    -0.003 C 
ATOM     14  C   UNL     1      77.609  61.563 106.875  1.00  0.00     0.004 C 
ENDBRANCH  12  13
ENDBRANCH  11  12
ENDBRANCH   2  11
BRANCH   3  15
ATOM     15  O   UNL     1      74.560  61.813 102.423  1.00  0.00    -0.508 OA
ATOM     16  H   UNL     1      73.688  61.844 101.917  1.00  0.00     0.293 HD
ENDBRANCH   3  15
TORSDOF 7
ENDMDL
MODEL 9
REMARK VINA RESULT:    -6.334      2.703      4.972
REMARK INTER + INTRA:          -9.414
REMARK INTER:                  -8.384
REMARK INTRA:                  -1.030
REMARK UNBOUND:                -0.673
REMARK SMILES CCCCc1cccc(O)c1CCCC
REMARK SMILES IDX 5 1 11 2 9 3 8 4 7 5 6 6 4 7 3 8 2 9 1 10 12 11 13 12 14 13
REMARK SMILES IDX 15 14 10 15
REMARK H PARENT 10 16
REMARK Flexibility Score: inf
ROOT
ATOM      1  C   UNL     1      78.873  63.245 105.525  1.00  0.00    -0.041 A 
ATOM      2  C   UNL     1      78.533  63.554 104.170  1.00  0.00    -0.003 A 
ATOM      3  C   UNL     1      79.514  63.349 103.157  1.00  0.00     0.119 A 
ATOM      4  C   UNL     1      80.783  62.873 103.497  1.00  0.00     0.046 A 
ATOM      5  C   UNL     1      81.102  62.574 104.815  1.00  0.00     0.004 A 
ATOM      6  C   UNL     1      80.156  62.750 105.818  1.00  0.00     0.004 A 
ENDROOT
BRANCH   1   7
ATOM      7  C   UNL     1      77.915  63.402 106.693  1.00  0.00     0.036 C 
BRANCH   7   8
ATOM      8  C   UNL     1      77.687  62.094 107.475  1.00  0.00     0.004 C 
BRANCH   8   9
ATOM      9  C   UNL     1      76.925  61.013 106.689  1.00  0.00    -0.003 C 
ATOM     10  C   UNL     1      77.791  59.805 106.334  1.00  0.00     0.004 C 
ENDBRANCH   8   9
ENDBRANCH   7   8
ENDBRANCH   1   7
BRANCH   2  11
ATOM     11  C   UNL     1      77.150  64.080 103.816  1.00  0.00     0.040 C 
BRANCH  11  12
ATOM     12  C   UNL     1      77.110  65.616 103.736  1.00  0.00     0.005 C 
BRANCH  12  13
ATOM     13  C   UNL     1      76.777  66.128 102.329  1.00  0.00    -0.003 C 
ATOM     14  C   UNL     1      76.104  65.043 101.494  1.00  0.00     0.004 C 
ENDBRANCH  12  13
ENDBRANCH  11  12
ENDBRANCH   2  11
BRANCH   3  15
ATOM     15  O   UNL     1      79.281  63.596 101.801  1.00  0.00    -0.508 OA
ATOM     16  H   UNL     1      79.676  63.064 101.040  1.00  0.00     0.293 HD
ENDBRANCH   3  15
TORSDOF 7
ENDMDL
