MODEL 1
REMARK VINA RESULT:    -5.020      0.000      0.000
REMARK INTER + INTRA:          -6.749
REMARK INTER:                  -7.368
REMARK INTRA:                   0.618
REMARK UNBOUND:                 0.618
REMARK SMILES C=C1CC=CC(C)(C)CC=C(C)CCC1
REMARK SMILES IDX 2 1 1 2 15 3 14 4 13 5 11 6 12 7 10 8 3 10 4 11 5 12 6 13
REMARK SMILES IDX 7 14 8 15 9 16
REMARK H PARENT
REMARK Flexibility Score: 60.00
ROOT
ATOM      1  C   UNL     1     112.935 110.662 107.777  1.00  0.00    -0.074 C 
ATOM      2  C   UNL     1     112.897 109.499 107.107  1.00  0.00     0.008 C 
ENDROOT
BRANCH   1   3
ATOM      3  C   UNL     1     112.777 111.977 107.036  1.00  0.00     0.031 C 
BRANCH   3   4
ATOM      4  C   UNL     1     111.661 111.914 105.971  1.00  0.00     0.009 C 
BRANCH   4   5
ATOM      5  C   UNL     1     110.257 112.204 106.548  1.00  0.00     0.030 C 
BRANCH   5   6
ATOM      6  C   UNL     1     109.626 110.952 107.135  1.00  0.00    -0.077 C 
ATOM      7  C   UNL     1     109.174 109.880 106.176  1.00  0.00     0.039 C 
ATOM      8  C   UNL     1     109.462 110.719 108.462  1.00  0.00    -0.027 CG0
ATOM      9  G   UNL     1     109.839 111.639 109.610  1.00  0.00     0.000 G0
ENDBRANCH   5   6
ENDBRANCH   4   5
ENDBRANCH   3   4
ENDBRANCH   1   3
BRANCH   1  10
ATOM     10  C   UNL     1     113.116 110.650 109.278  1.00  0.00     0.057 C 
BRANCH  10  11
ATOM     11  C   UNL     1     112.313 109.524 109.883  1.00  0.00    -0.026 C 
ATOM     12  C   UNL     1     111.158 109.626 110.573  1.00  0.00    -0.024 C 
BRANCH  12  13
ATOM     13  C   UNL     1     110.346 110.886 110.900  1.00  0.00    -0.014 C 
ATOM     14  C   UNL     1     111.165 111.844 111.794  1.00  0.00     0.016 C 
ATOM     15  C   UNL     1     109.109 110.445 111.725  1.00  0.00     0.016 C 
BRANCH  13  16
ATOM     16  C   UNL     1     109.853 111.633 109.622  1.00  0.00     0.038 CG0
ATOM     17  G   UNL     1     109.466 110.701 108.487  1.00  0.00     0.000 G0
ENDBRANCH  13  16
ENDBRANCH  12  13
ENDBRANCH  10  11
ENDBRANCH   1  10
TORSDOF 0
ENDMDL
MODEL 2
REMARK VINA RESULT:    -4.974      1.571      3.410
REMARK INTER + INTRA:          -6.682
REMARK INTER:                  -7.290
REMARK INTRA:                   0.608
REMARK UNBOUND:                 0.618
REMARK SMILES C=C1CC=CC(C)(C)CC=C(C)CCC1
REMARK SMILES IDX 2 1 1 2 15 3 14 4 13 5 11 6 12 7 10 8 3 10 4 11 5 12 6 13
REMARK SMILES IDX 7 14 8 15 9 16
REMARK H PARENT
REMARK Flexibility Score: 60.00
ROOT
ATOM      1  C   UNL     1     109.182 111.542 108.056  1.00  0.00    -0.074 C 
ATOM      2  C   UNL     1     109.112 112.783 107.544  1.00  0.00     0.008 C 
ENDROOT
BRANCH   1   3
ATOM      3  C   UNL     1     109.227 110.337 107.135  1.00  0.00     0.031 C 
BRANCH   3   4
ATOM      4  C   UNL     1     110.521 110.296 106.293  1.00  0.00     0.009 C 
BRANCH   4   5
ATOM      5  C   UNL     1     111.760 109.864 107.108  1.00  0.00     0.030 C 
BRANCH   5   6
ATOM      6  C   UNL     1     112.531 111.064 107.631  1.00  0.00    -0.077 C 
ATOM      7  C   UNL     1     112.979 112.098 106.629  1.00  0.00     0.039 C 
ATOM      8  C   UNL     1     112.825 111.285 108.938  1.00  0.00    -0.027 CG0
ATOM      9  G   UNL     1     112.480 110.396 110.120  1.00  0.00     0.000 G0
ENDBRANCH   5   6
ENDBRANCH   4   5
ENDBRANCH   3   4
ENDBRANCH   1   3
BRANCH   1  10
ATOM     10  C   UNL     1     109.235 111.359 109.556  1.00  0.00     0.057 C 
BRANCH  10  11
ATOM     11  C   UNL     1     110.002 112.497 110.185  1.00  0.00    -0.026 C 
ATOM     12  C   UNL     1     111.110 112.407 110.951  1.00  0.00    -0.024 C 
BRANCH  12  13
ATOM     13  C   UNL     1     111.892 111.153 111.359  1.00  0.00    -0.014 C 
ATOM     14  C   UNL     1     111.008 110.210 112.206  1.00  0.00     0.016 C 
ATOM     15  C   UNL     1     113.065 111.606 112.266  1.00  0.00     0.016 C 
BRANCH  13  16
ATOM     16  C   UNL     1     112.478 110.383 110.134  1.00  0.00     0.038 CG0
ATOM     17  G   UNL     1     112.820 111.285 108.960  1.00  0.00     0.000 G0
ENDBRANCH  13  16
ENDBRANCH  12  13
ENDBRANCH  10  11
ENDBRANCH   1  10
TORSDOF 0
ENDMDL
MODEL 3
REMARK VINA RESULT:    -4.892      3.620      5.965
REMARK INTER + INTRA:          -6.562
REMARK INTER:                  -7.342
REMARK INTRA:                   0.780
REMARK UNBOUND:                 0.618
REMARK SMILES C=C1CC=CC(C)(C)CC=C(C)CCC1
REMARK SMILES IDX 2 1 1 2 15 3 14 4 13 5 11 6 12 7 10 8 3 10 4 11 5 12 6 13
REMARK SMILES IDX 7 14 8 15 9 16
REMARK H PARENT
REMARK Flexibility Score: 60.00
ROOT
ATOM      1  C   UNL     1     109.349 111.247 112.668  1.00  0.00    -0.074 C 
ATOM      2  C   UNL     1     109.333 112.474 112.119  1.00  0.00     0.008 C 
ENDROOT
BRANCH   1   3
ATOM      3  C   UNL     1     109.513 110.020 111.790  1.00  0.00     0.031 C 
BRANCH   3   4
ATOM      4  C   UNL     1     110.706 110.154 110.819  1.00  0.00     0.009 C 
BRANCH   4   5
ATOM      5  C   UNL     1     112.070 109.892 111.496  1.00  0.00     0.030 C 
BRANCH   5   6
ATOM      6  C   UNL     1     112.657 111.167 112.079  1.00  0.00    -0.077 C 
ATOM      7  C   UNL     1     113.106 112.235 111.114  1.00  0.00     0.039 C 
ATOM      8  C   UNL     1     112.785 111.424 113.406  1.00  0.00    -0.027 CG0
ATOM      9  G   UNL     1     112.403 110.512 114.558  1.00  0.00     0.000 G0
ENDBRANCH   5   6
ENDBRANCH   4   5
ENDBRANCH   3   4
ENDBRANCH   1   3
BRANCH   1  10
ATOM     10  C   UNL     1     109.224 111.102 114.168  1.00  0.00     0.057 C 
BRANCH  10  11
ATOM     11  C   UNL     1     109.809 112.314 114.851  1.00  0.00    -0.026 C 
ATOM     12  C   UNL     1     110.951 112.373 115.568  1.00  0.00    -0.024 C 
BRANCH  12  13
ATOM     13  C   UNL     1     111.961 111.254 115.852  1.00  0.00    -0.014 C 
ATOM     14  C   UNL     1     111.390 110.253 116.880  1.00  0.00     0.016 C 
ATOM     15  C   UNL     1     113.210 111.905 116.503  1.00  0.00     0.016 C 
BRANCH  13  16
ATOM     16  C   UNL     1     112.407 110.502 114.559  1.00  0.00     0.038 CG0
ATOM     17  G   UNL     1     112.782 111.431 113.417  1.00  0.00     0.000 G0
ENDBRANCH  13  16
ENDBRANCH  12  13
ENDBRANCH  10  11
ENDBRANCH   1  10
TORSDOF 0
ENDMDL
MODEL 4
REMARK VINA RESULT:    -4.881      3.856      5.916
REMARK INTER + INTRA:          -6.545
REMARK INTER:                  -7.076
REMARK INTRA:                   0.531
REMARK UNBOUND:                 0.618
REMARK SMILES C=C1CC=CC(C)(C)CC=C(C)CCC1
REMARK SMILES IDX 2 1 1 2 15 3 14 4 13 5 11 6 12 7 10 8 3 10 4 11 5 12 6 13
REMARK SMILES IDX 7 14 8 15 9 16
REMARK H PARENT
REMARK Flexibility Score: 60.00
ROOT
ATOM      1  C   UNL     1     109.470 111.299 112.153  1.00  0.00    -0.074 C 
ATOM      2  C   UNL     1     109.127 110.260 111.374  1.00  0.00     0.008 C 
ENDROOT
BRANCH   1   3
ATOM      3  C   UNL     1     110.220 112.480 111.564  1.00  0.00     0.031 C 
BRANCH   3   4
ATOM      4  C   UNL     1     111.625 112.085 111.058  1.00  0.00     0.009 C 
BRANCH   4   5
ATOM      5  C   UNL     1     112.671 111.991 112.191  1.00  0.00     0.030 C 
BRANCH   5   6
ATOM      6  C   UNL     1     112.771 110.579 112.743  1.00  0.00    -0.077 C 
ATOM      7  C   UNL     1     112.832 109.443 111.752  1.00  0.00     0.039 C 
ATOM      8  C   UNL     1     112.832 110.267 114.063  1.00  0.00    -0.027 CG0
ATOM      9  G   UNL     1     112.792 111.229 115.237  1.00  0.00     0.000 G0
ENDBRANCH   5   6
ENDBRANCH   4   5
ENDBRANCH   3   4
ENDBRANCH   1   3
BRANCH   1  10
ATOM     10  C   UNL     1     109.086 111.292 113.615  1.00  0.00     0.057 C 
BRANCH  10  11
ATOM     11  C   UNL     1     109.634 112.522 114.296  1.00  0.00    -0.026 C 
ATOM     12  C   UNL     1     110.585 112.567 115.254  1.00  0.00    -0.024 C 
BRANCH  12  13
ATOM     13  C   UNL     1     111.371 111.408 115.877  1.00  0.00    -0.014 C 
ATOM     14  C   UNL     1     110.572 110.089 115.773  1.00  0.00     0.016 C 
ATOM     15  C   UNL     1     111.540 111.715 117.388  1.00  0.00     0.016 C 
BRANCH  13  16
ATOM     16  C   UNL     1     112.786 111.230 115.243  1.00  0.00     0.038 CG0
ATOM     17  G   UNL     1     112.807 110.264 114.071  1.00  0.00     0.000 G0
ENDBRANCH  13  16
ENDBRANCH  12  13
ENDBRANCH  10  11
ENDBRANCH   1  10
TORSDOF 0
ENDMDL
MODEL 5
REMARK VINA RESULT:    -4.843      3.618      5.245
REMARK INTER + INTRA:          -6.489
REMARK INTER:                  -7.002
REMARK INTRA:                   0.512
REMARK UNBOUND:                 0.618
REMARK SMILES C=C1CC=CC(C)(C)CC=C(C)CCC1
REMARK SMILES IDX 2 1 1 2 15 3 14 4 13 5 11 6 12 7 10 8 3 10 4 11 5 12 6 13
REMARK SMILES IDX 7 14 8 15 9 16
REMARK H PARENT
REMARK Flexibility Score: 60.00
ROOT
ATOM      1  C   UNL     1     112.814 111.100 111.969  1.00  0.00    -0.074 C 
ATOM      2  C   UNL     1     113.272 112.010 111.094  1.00  0.00     0.008 C 
ENDROOT
BRANCH   1   3
ATOM      3  C   UNL     1     111.988 109.922 111.484  1.00  0.00     0.031 C 
BRANCH   3   4
ATOM      4  C   UNL     1     110.585 110.353 111.006  1.00  0.00     0.009 C 
BRANCH   4   5
ATOM      5  C   UNL     1     109.563 110.472 112.158  1.00  0.00     0.030 C 
BRANCH   5   6
ATOM      6  C   UNL     1     109.538 111.875 112.739  1.00  0.00    -0.077 C 
ATOM      7  C   UNL     1     109.478 113.032 111.774  1.00  0.00     0.039 C 
ATOM      8  C   UNL     1     109.543 112.163 114.066  1.00  0.00    -0.027 CG0
ATOM      9  G   UNL     1     109.596 111.176 115.220  1.00  0.00     0.000 G0
ENDBRANCH   5   6
ENDBRANCH   4   5
ENDBRANCH   3   4
ENDBRANCH   1   3
BRANCH   1  10
ATOM     10  C   UNL     1     113.146 111.246 113.437  1.00  0.00     0.057 C 
BRANCH  10  11
ATOM     11  C   UNL     1     112.740 109.998 114.182  1.00  0.00    -0.026 C 
ATOM     12  C   UNL     1     111.862 109.909 115.203  1.00  0.00    -0.024 C 
BRANCH  12  13
ATOM     13  C   UNL     1     111.033 111.024 115.853  1.00  0.00    -0.014 C 
ATOM     14  C   UNL     1     111.785 112.372 115.785  1.00  0.00     0.016 C 
ATOM     15  C   UNL     1     110.871 110.673 117.355  1.00  0.00     0.016 C 
BRANCH  13  16
ATOM     16  C   UNL     1     109.614 111.167 115.219  1.00  0.00     0.038 CG0
ATOM     17  G   UNL     1     109.559 112.168 114.078  1.00  0.00     0.000 G0
ENDBRANCH  13  16
ENDBRANCH  12  13
ENDBRANCH  10  11
ENDBRANCH   1  10
TORSDOF 0
ENDMDL
MODEL 6
REMARK VINA RESULT:    -4.842      1.148      2.094
REMARK INTER + INTRA:          -6.489
REMARK INTER:                  -7.018
REMARK INTRA:                   0.529
REMARK UNBOUND:                 0.618
REMARK SMILES C=C1CC=CC(C)(C)CC=C(C)CCC1
REMARK SMILES IDX 2 1 1 2 15 3 14 4 13 5 11 6 12 7 10 8 3 10 4 11 5 12 6 13
REMARK SMILES IDX 7 14 8 15 9 16
REMARK H PARENT
REMARK Flexibility Score: 60.00
ROOT
ATOM      1  C   UNL     1     112.773 110.944 107.616  1.00  0.00    -0.074 C 
ATOM      2  C   UNL     1     113.067 112.117 107.030  1.00  0.00     0.008 C 
ENDROOT
BRANCH   1   3
ATOM      3  C   UNL     1     111.936 109.912 106.883  1.00  0.00     0.031 C 
BRANCH   3   4
ATOM      4  C   UNL     1     110.528 110.443 106.538  1.00  0.00     0.009 C 
BRANCH   4   5
ATOM      5  C   UNL     1     109.506 110.232 107.677  1.00  0.00     0.030 C 
BRANCH   5   6
ATOM      6  C   UNL     1     109.369 111.474 108.542  1.00  0.00    -0.077 C 
ATOM      7  C   UNL     1     108.754 112.699 107.914  1.00  0.00     0.039 C 
ATOM      8  C   UNL     1     109.738 111.553 109.846  1.00  0.00    -0.027 CG0
ATOM      9  G   UNL     1     110.370 110.459 110.690  1.00  0.00     0.000 G0
ENDBRANCH   5   6
ENDBRANCH   4   5
ENDBRANCH   3   4
ENDBRANCH   1   3
BRANCH   1  10
ATOM     10  C   UNL     1     113.301 110.653 109.003  1.00  0.00     0.057 C 
BRANCH  10  11
ATOM     11  C   UNL     1     113.174 111.883 109.869  1.00  0.00    -0.026 C 
ATOM     12  C   UNL     1     112.409 112.027 110.971  1.00  0.00    -0.024 C 
BRANCH  12  13
ATOM     13  C   UNL     1     111.501 110.993 111.649  1.00  0.00    -0.014 C 
ATOM     14  C   UNL     1     110.883 111.574 112.940  1.00  0.00     0.016 C 
ATOM     15  C   UNL     1     112.390 109.795 112.073  1.00  0.00     0.016 C 
BRANCH  13  16
ATOM     16  C   UNL     1     110.376 110.469 110.703  1.00  0.00     0.038 CG0
ATOM     17  G   UNL     1     109.746 111.557 109.850  1.00  0.00     0.000 G0
ENDBRANCH  13  16
ENDBRANCH  12  13
ENDBRANCH  10  11
ENDBRANCH   1  10
TORSDOF 0
ENDMDL
MODEL 7
REMARK VINA RESULT:    -4.828      3.257      6.843
REMARK INTER + INTRA:          -6.468
REMARK INTER:                  -7.151
REMARK INTRA:                   0.684
REMARK UNBOUND:                 0.618
REMARK SMILES C=C1CC=CC(C)(C)CC=C(C)CCC1
REMARK SMILES IDX 2 1 1 2 15 3 14 4 13 5 11 6 12 7 10 8 3 10 4 11 5 12 6 13
REMARK SMILES IDX 7 14 8 15 9 16
REMARK H PARENT
REMARK Flexibility Score: 60.00
ROOT
ATOM      1  C   UNL     1     109.612 112.091 114.865  1.00  0.00    -0.074 C 
ATOM      2  C   UNL     1     109.884 113.186 115.595  1.00  0.00     0.008 C 
ENDROOT
BRANCH   1   3
ATOM      3  C   UNL     1     109.572 110.725 115.525  1.00  0.00     0.031 C 
BRANCH   3   4
ATOM      4  C   UNL     1     110.854 110.430 116.333  1.00  0.00     0.009 C 
BRANCH   4   5
ATOM      5  C   UNL     1     112.012 109.900 115.459  1.00  0.00     0.030 C 
BRANCH   5   6
ATOM      6  C   UNL     1     112.754 111.033 114.770  1.00  0.00    -0.077 C 
ATOM      7  C   UNL     1     113.315 112.132 115.638  1.00  0.00     0.039 C 
ATOM      8  C   UNL     1     112.970 111.116 113.432  1.00  0.00    -0.027 CG0
ATOM      9  G   UNL     1     112.509 110.137 112.366  1.00  0.00     0.000 G0
ENDBRANCH   5   6
ENDBRANCH   4   5
ENDBRANCH   3   4
ENDBRANCH   1   3
BRANCH   1  10
ATOM     10  C   UNL     1     109.327 112.234 113.387  1.00  0.00     0.057 C 
BRANCH  10  11
ATOM     11  C   UNL     1     109.124 110.872 112.770  1.00  0.00    -0.026 C 
ATOM     12  C   UNL     1     109.972 110.214 111.952  1.00  0.00    -0.024 C 
BRANCH  12  13
ATOM     13  C   UNL     1     111.358 110.648 111.460  1.00  0.00    -0.014 C 
ATOM     14  C   UNL     1     111.436 112.186 111.340  1.00  0.00     0.016 C 
ATOM     15  C   UNL     1     111.550 110.073 110.033  1.00  0.00     0.016 C 
BRANCH  13  16
ATOM     16  C   UNL     1     112.512 110.121 112.370  1.00  0.00     0.038 CG0
ATOM     17  G   UNL     1     112.954 111.118 113.426  1.00  0.00     0.000 G0
ENDBRANCH  13  16
ENDBRANCH  12  13
ENDBRANCH  10  11
ENDBRANCH   1  10
TORSDOF 0
ENDMDL
MODEL 8
REMARK VINA RESULT:    -4.822      1.307      2.948
REMARK INTER + INTRA:          -6.459
REMARK INTER:                  -7.087
REMARK INTRA:                   0.628
REMARK UNBOUND:                 0.618
REMARK SMILES C=C1CC=CC(C)(C)CC=C(C)CCC1
REMARK SMILES IDX 2 1 1 2 15 3 14 4 13 5 11 6 12 7 10 8 3 10 4 11 5 12 6 13
REMARK SMILES IDX 7 14 8 15 9 16
REMARK H PARENT
REMARK Flexibility Score: 60.00
ROOT
ATOM      1  C   UNL     1     109.796 111.999 106.554  1.00  0.00    -0.074 C 
ATOM      2  C   UNL     1     109.169 110.938 106.019  1.00  0.00     0.008 C 
ENDROOT
BRANCH   1   3
ATOM      3  C   UNL     1     110.926 112.678 105.802  1.00  0.00     0.031 C 
BRANCH   3   4
ATOM      4  C   UNL     1     112.227 111.848 105.832  1.00  0.00     0.009 C 
BRANCH   4   5
ATOM      5  C   UNL     1     112.975 111.942 107.181  1.00  0.00     0.030 C 
BRANCH   5   6
ATOM      6  C   UNL     1     112.713 110.724 108.050  1.00  0.00    -0.077 C 
ATOM      7  C   UNL     1     113.058 109.371 107.480  1.00  0.00     0.039 C 
ATOM      8  C   UNL     1     112.213 110.766 109.311  1.00  0.00    -0.027 CG0
ATOM      9  G   UNL     1     111.797 112.000 110.093  1.00  0.00     0.000 G0
ENDBRANCH   5   6
ENDBRANCH   4   5
ENDBRANCH   3   4
ENDBRANCH   1   3
BRANCH   1  10
ATOM     10  C   UNL     1     109.354 112.522 107.902  1.00  0.00     0.057 C 
BRANCH  10  11
ATOM     11  C   UNL     1     108.918 111.375 108.780  1.00  0.00    -0.026 C 
ATOM     12  C   UNL     1     109.379 111.071 110.012  1.00  0.00    -0.024 C 
BRANCH  12  13
ATOM     13  C   UNL     1     110.428 111.812 110.851  1.00  0.00    -0.014 C 
ATOM     14  C   UNL     1     110.660 111.087 112.196  1.00  0.00     0.016 C 
ATOM     15  C   UNL     1     109.856 113.213 111.186  1.00  0.00     0.016 C 
BRANCH  13  16
ATOM     16  C   UNL     1     111.783 111.993 110.097  1.00  0.00     0.038 CG0
ATOM     17  G   UNL     1     112.202 110.768 109.303  1.00  0.00     0.000 G0
ENDBRANCH  13  16
ENDBRANCH  12  13
ENDBRANCH  10  11
ENDBRANCH   1  10
TORSDOF 0
ENDMDL
MODEL 9
REMARK VINA RESULT:    -4.696      1.051      4.035
REMARK INTER + INTRA:          -6.274
REMARK INTER:                  -6.850
REMARK INTRA:                   0.576
REMARK UNBOUND:                 0.618
REMARK SMILES C=C1CC=CC(C)(C)CC=C(C)CCC1
REMARK SMILES IDX 2 1 1 2 15 3 14 4 13 5 11 6 12 7 10 8 3 10 4 11 5 12 6 13
REMARK SMILES IDX 7 14 8 15 9 16
REMARK H PARENT
REMARK Flexibility Score: 60.00
ROOT
ATOM      1  C   UNL     1     112.906 110.696 109.476  1.00  0.00    -0.074 C 
ATOM      2  C   UNL     1     113.274 111.724 110.259  1.00  0.00     0.008 C 
ENDROOT
BRANCH   1   3
ATOM      3  C   UNL     1     112.188 109.499 110.073  1.00  0.00     0.031 C 
BRANCH   3   4
ATOM      4  C   UNL     1     111.226 109.906 111.211  1.00  0.00     0.009 C 
BRANCH   4   5
ATOM      5  C   UNL     1     109.769 110.093 110.734  1.00  0.00     0.030 C 
BRANCH   5   6
ATOM      6  C   UNL     1     109.570 111.441 110.061  1.00  0.00    -0.077 C 
ATOM      7  C   UNL     1     109.498 112.660 110.946  1.00  0.00     0.039 C 
ATOM      8  C   UNL     1     109.476 111.630 108.720  1.00  0.00    -0.027 CG0
ATOM      9  G   UNL     1     109.524 110.565 107.638  1.00  0.00     0.000 G0
ENDBRANCH   5   6
ENDBRANCH   4   5
ENDBRANCH   3   4
ENDBRANCH   1   3
BRANCH   1  10
ATOM     10  C   UNL     1     113.194 110.751 107.993  1.00  0.00     0.057 C 
BRANCH  10  11
ATOM     11  C   UNL     1     112.574 111.990 107.395  1.00  0.00    -0.026 C 
ATOM     12  C   UNL     1     111.408 112.072 106.718  1.00  0.00    -0.024 C 
BRANCH  12  13
ATOM     13  C   UNL     1     110.403 110.957 106.404  1.00  0.00    -0.014 C 
ATOM     14  C   UNL     1     111.127 109.712 105.846  1.00  0.00     0.016 C 
ATOM     15  C   UNL     1     109.465 111.475 105.282  1.00  0.00     0.016 C 
BRANCH  13  16
ATOM     16  C   UNL     1     109.534 110.565 107.639  1.00  0.00     0.038 CG0
ATOM     17  G   UNL     1     109.480 111.642 108.709  1.00  0.00     0.000 G0
ENDBRANCH  13  16
ENDBRANCH  12  13
ENDBRANCH  10  11
ENDBRANCH   1  10
TORSDOF 0
ENDMDL
