MODEL 1
REMARK VINA RESULT:    -4.351      0.000      0.000
REMARK INTER + INTRA:          -6.406
REMARK INTER:                  -6.640
REMARK INTRA:                   0.234
REMARK UNBOUND:                 0.234
REMARK SMILES CC1=CCC[C@H](C)C(=O)C[C@@H](C(C)C)C(=O)C1
REMARK SMILES IDX 8 1 9 2 6 3 7 4 5 5 4 6 3 7 2 8 1 9 10 11 11 12 15 13 16 14
REMARK SMILES IDX 17 15 12 17 13 18 14 19
REMARK H PARENT
REMARK Flexibility Score: 70.00
ROOT
ATOM      1  C   UNL     1      15.246  18.059  55.946  1.00  0.00     0.136 C 
ATOM      2  O   UNL     1      15.148  18.966  55.136  1.00  0.00    -0.299 OA
ENDROOT
BRANCH   1   3
ATOM      3  C   UNL     1      16.050  18.312  57.214  1.00  0.00     0.053 C 
ATOM      4  C   UNL     1      17.476  18.791  56.907  1.00  0.00     0.016 C 
BRANCH   3   5
ATOM      5  C   UNL     1      15.318  19.294  58.151  1.00  0.00     0.015 C 
BRANCH   5   6
ATOM      6  C   UNL     1      14.063  18.654  58.784  1.00  0.00     0.028 C 
BRANCH   6   7
ATOM      7  C   UNL     1      12.798  19.363  58.375  1.00  0.00    -0.028 C 
ATOM      8  C   UNL     1      11.814  18.810  57.629  1.00  0.00    -0.070 CG0
ATOM      9  C   UNL     1      10.598  19.647  57.320  1.00  0.00     0.039 C 
ATOM     10  G   UNL     1      11.892  17.402  57.060  1.00  0.00     0.000 G0
ENDBRANCH   6   7
ENDBRANCH   5   6
ENDBRANCH   3   5
ENDBRANCH   1   3
BRANCH   1  11
ATOM     11  C   UNL     1      14.512  16.754  55.694  1.00  0.00     0.087 C 
BRANCH  11  12
ATOM     12  C   UNL     1      13.218  16.817  54.832  1.00  0.00     0.066 C 
BRANCH  12  13
ATOM     13  C   UNL     1      12.009  17.411  55.548  1.00  0.00     0.140 C 
ATOM     14  O   UNL     1      11.093  17.851  54.864  1.00  0.00    -0.299 OA
BRANCH  13  15
ATOM     15  C   UNL     1      11.855  17.416  57.052  1.00  0.00     0.106 CG0
ATOM     16  G   UNL     1      11.801  18.829  57.616  1.00  0.00     0.000 G0
ENDBRANCH  13  15
ENDBRANCH  12  13
BRANCH  12  17
ATOM     17  C   UNL     1      12.944  15.571  53.927  1.00  0.00    -0.006 C 
ATOM     18  C   UNL     1      12.687  15.976  52.465  1.00  0.00     0.008 C 
ATOM     19  C   UNL     1      11.847  14.617  54.416  1.00  0.00     0.008 C 
ENDBRANCH  12  17
ENDBRANCH  11  12
ENDBRANCH   1  11
TORSDOF 1
ENDMDL
MODEL 2
REMARK VINA RESULT:    -4.347      1.841      4.244
REMARK INTER + INTRA:          -6.400
REMARK INTER:                  -6.309
REMARK INTRA:                  -0.091
REMARK UNBOUND:                 0.234
REMARK SMILES CC1=CCC[C@H](C)C(=O)C[C@@H](C(C)C)C(=O)C1
REMARK SMILES IDX 8 1 9 2 6 3 7 4 5 5 4 6 3 7 2 8 1 9 10 11 11 12 15 13 16 14
REMARK SMILES IDX 17 15 12 17 13 18 14 19
REMARK H PARENT
REMARK Flexibility Score: 70.00
ROOT
ATOM      1  C   UNL     1      13.752  18.654  57.632  1.00  0.00     0.136 C 
ATOM      2  O   UNL     1      14.094  18.546  58.799  1.00  0.00    -0.299 OA
ENDROOT
BRANCH   1   3
ATOM      3  C   UNL     1      14.766  18.306  56.551  1.00  0.00     0.053 C 
ATOM      4  C   UNL     1      16.206  18.604  56.995  1.00  0.00     0.016 C 
BRANCH   3   5
ATOM      5  C   UNL     1      14.612  16.843  56.092  1.00  0.00     0.015 C 
BRANCH   5   6
ATOM      6  C   UNL     1      13.727  16.729  54.832  1.00  0.00     0.028 C 
BRANCH   6   7
ATOM      7  C   UNL     1      12.669  15.666  54.975  1.00  0.00    -0.028 C 
ATOM      8  C   UNL     1      11.348  15.911  55.128  1.00  0.00    -0.070 CG0
ATOM      9  C   UNL     1      10.412  14.735  55.240  1.00  0.00     0.039 C 
ATOM     10  G   UNL     1      10.769  17.315  55.228  1.00  0.00     0.000 G0
ENDBRANCH   6   7
ENDBRANCH   5   6
ENDBRANCH   3   5
ENDBRANCH   1   3
BRANCH   1  11
ATOM     11  C   UNL     1      12.324  19.056  57.310  1.00  0.00     0.087 C 
BRANCH  11  12
ATOM     12  C   UNL     1      11.191  18.087  57.756  1.00  0.00     0.066 C 
BRANCH  12  13
ATOM     13  C   UNL     1      10.276  17.622  56.627  1.00  0.00     0.140 C 
ATOM     14  O   UNL     1       9.075  17.546  56.854  1.00  0.00    -0.299 OA
BRANCH  13  15
ATOM     15  C   UNL     1      10.768  17.322  55.230  1.00  0.00     0.106 CG0
ATOM     16  G   UNL     1      11.350  15.921  55.118  1.00  0.00     0.000 G0
ENDBRANCH  13  15
ENDBRANCH  12  13
BRANCH  12  17
ATOM     17  C   UNL     1      10.495  18.436  59.113  1.00  0.00    -0.006 C 
ATOM     18  C   UNL     1      10.068  19.913  59.169  1.00  0.00     0.008 C 
ATOM     19  C   UNL     1      11.273  18.058  60.380  1.00  0.00     0.008 C 
ENDBRANCH  12  17
ENDBRANCH  11  12
ENDBRANCH   1  11
TORSDOF 1
ENDMDL
MODEL 3
REMARK VINA RESULT:    -4.194      2.326      4.485
REMARK INTER + INTRA:          -6.166
REMARK INTER:                  -5.894
REMARK INTRA:                  -0.273
REMARK UNBOUND:                 0.234
REMARK SMILES CC1=CCC[C@H](C)C(=O)C[C@@H](C(C)C)C(=O)C1
REMARK SMILES IDX 8 1 9 2 6 3 7 4 5 5 4 6 3 7 2 8 1 9 10 11 11 12 15 13 16 14
REMARK SMILES IDX 17 15 12 17 13 18 14 19
REMARK H PARENT
REMARK Flexibility Score: 70.00
ROOT
ATOM      1  C   UNL     1      13.264  18.336  56.446  1.00  0.00     0.136 C 
ATOM      2  O   UNL     1      14.383  18.398  56.929  1.00  0.00    -0.299 OA
ENDROOT
BRANCH   1   3
ATOM      3  C   UNL     1      13.077  17.527  55.170  1.00  0.00     0.053 C 
ATOM      4  C   UNL     1      14.052  17.958  54.066  1.00  0.00     0.016 C 
BRANCH   3   5
ATOM      5  C   UNL     1      13.177  16.014  55.449  1.00  0.00     0.015 C 
BRANCH   5   6
ATOM      6  C   UNL     1      11.785  15.357  55.556  1.00  0.00     0.028 C 
BRANCH   6   7
ATOM      7  C   UNL     1      10.751  16.081  54.732  1.00  0.00    -0.028 C 
ATOM      8  C   UNL     1       9.653  16.688  55.236  1.00  0.00    -0.070 CG0
ATOM      9  C   UNL     1       8.722  17.388  54.279  1.00  0.00     0.039 C 
ATOM     10  G   UNL     1       9.295  16.667  56.715  1.00  0.00     0.000 G0
ENDBRANCH   6   7
ENDBRANCH   5   6
ENDBRANCH   3   5
ENDBRANCH   1   3
BRANCH   1  11
ATOM     11  C   UNL     1      12.105  19.000  57.167  1.00  0.00     0.087 C 
BRANCH  11  12
ATOM     12  C   UNL     1      11.169  18.085  58.009  1.00  0.00     0.066 C 
BRANCH  12  13
ATOM     13  C   UNL     1       9.759  17.932  57.443  1.00  0.00     0.140 C 
ATOM     14  O   UNL     1       9.000  18.889  57.521  1.00  0.00    -0.299 OA
BRANCH  13  15
ATOM     15  C   UNL     1       9.283  16.687  56.729  1.00  0.00     0.106 CG0
ATOM     16  G   UNL     1       9.660  16.695  55.255  1.00  0.00     0.000 G0
ENDBRANCH  13  15
ENDBRANCH  12  13
BRANCH  12  17
ATOM     17  C   UNL     1      11.279  18.245  59.560  1.00  0.00    -0.006 C 
ATOM     18  C   UNL     1      12.688  17.895  60.069  1.00  0.00     0.008 C 
ATOM     19  C   UNL     1      10.216  17.508  60.386  1.00  0.00     0.008 C 
ENDBRANCH  12  17
ENDBRANCH  11  12
ENDBRANCH   1  11
TORSDOF 1
ENDMDL
MODEL 4
REMARK VINA RESULT:    -4.099      2.430      4.037
REMARK INTER + INTRA:          -6.021
REMARK INTER:                  -6.213
REMARK INTRA:                   0.192
REMARK UNBOUND:                 0.234
REMARK SMILES CC1=CCC[C@H](C)C(=O)C[C@@H](C(C)C)C(=O)C1
REMARK SMILES IDX 8 1 9 2 6 3 7 4 5 5 4 6 3 7 2 8 1 9 10 11 11 12 15 13 16 14
REMARK SMILES IDX 17 15 12 17 13 18 14 19
REMARK H PARENT
REMARK Flexibility Score: 70.00
ROOT
ATOM      1  C   UNL     1      12.011  18.081  58.866  1.00  0.00     0.136 C 
ATOM      2  O   UNL     1      13.003  18.188  59.569  1.00  0.00    -0.299 OA
ENDROOT
BRANCH   1   3
ATOM      3  C   UNL     1      10.679  18.561  59.425  1.00  0.00     0.053 C 
ATOM      4  C   UNL     1      10.260  17.772  60.674  1.00  0.00     0.016 C 
BRANCH   3   5
ATOM      5  C   UNL     1      10.705  20.078  59.703  1.00  0.00     0.015 C 
BRANCH   5   6
ATOM      6  C   UNL     1      10.789  20.898  58.397  1.00  0.00     0.028 C 
BRANCH   6   7
ATOM      7  C   UNL     1       9.543  20.762  57.560  1.00  0.00    -0.028 C 
ATOM      8  C   UNL     1       9.533  20.500  56.234  1.00  0.00    -0.070 CG0
ATOM      9  C   UNL     1       8.199  20.375  55.542  1.00  0.00     0.039 C 
ATOM     10  G   UNL     1      10.800  20.363  55.403  1.00  0.00     0.000 G0
ENDBRANCH   6   7
ENDBRANCH   5   6
ENDBRANCH   3   5
ENDBRANCH   1   3
BRANCH   1  11
ATOM     11  C   UNL     1      12.156  17.549  57.451  1.00  0.00     0.087 C 
BRANCH  11  12
ATOM     12  C   UNL     1      12.544  18.568  56.341  1.00  0.00     0.066 C 
BRANCH  12  13
ATOM     13  C   UNL     1      11.393  18.974  55.425  1.00  0.00     0.140 C 
ATOM     14  O   UNL     1      10.877  18.108  54.730  1.00  0.00    -0.299 OA
BRANCH  13  15
ATOM     15  C   UNL     1      10.814  20.370  55.389  1.00  0.00     0.106 CG0
ATOM     16  G   UNL     1       9.547  20.484  56.223  1.00  0.00     0.000 G0
ENDBRANCH  13  15
ENDBRANCH  12  13
BRANCH  12  17
ATOM     17  C   UNL     1      13.926  18.325  55.650  1.00  0.00    -0.006 C 
ATOM     18  C   UNL     1      13.776  18.125  54.132  1.00  0.00     0.008 C 
ATOM     19  C   UNL     1      14.788  17.207  56.251  1.00  0.00     0.008 C 
ENDBRANCH  12  17
ENDBRANCH  11  12
ENDBRANCH   1  11
TORSDOF 1
ENDMDL
MODEL 5
REMARK VINA RESULT:    -4.065      1.615      3.826
REMARK INTER + INTRA:          -5.969
REMARK INTER:                  -5.892
REMARK INTRA:                  -0.077
REMARK UNBOUND:                 0.234
REMARK SMILES CC1=CCC[C@H](C)C(=O)C[C@@H](C(C)C)C(=O)C1
REMARK SMILES IDX 8 1 9 2 6 3 7 4 5 5 4 6 3 7 2 8 1 9 10 11 11 12 15 13 16 14
REMARK SMILES IDX 17 15 12 17 13 18 14 19
REMARK H PARENT
REMARK Flexibility Score: 70.00
ROOT
ATOM      1  C   UNL     1      10.799  19.331  56.352  1.00  0.00     0.136 C 
ATOM      2  O   UNL     1       9.627  19.451  56.034  1.00  0.00    -0.299 OA
ENDROOT
BRANCH   1   3
ATOM      3  C   UNL     1      11.123  19.070  57.817  1.00  0.00     0.053 C 
ATOM      4  C   UNL     1      11.099  17.572  58.155  1.00  0.00     0.016 C 
BRANCH   3   5
ATOM      5  C   UNL     1      12.466  19.713  58.215  1.00  0.00     0.015 C 
BRANCH   5   6
ATOM      6  C   UNL     1      13.474  18.663  58.729  1.00  0.00     0.028 C 
BRANCH   6   7
ATOM      7  C   UNL     1      14.896  19.024  58.382  1.00  0.00    -0.028 C 
ATOM      8  C   UNL     1      15.562  18.566  57.298  1.00  0.00    -0.070 CG0
ATOM      9  C   UNL     1      16.978  19.036  57.080  1.00  0.00     0.039 C 
ATOM     10  G   UNL     1      14.964  17.574  56.311  1.00  0.00     0.000 G0
ENDBRANCH   6   7
ENDBRANCH   5   6
ENDBRANCH   3   5
ENDBRANCH   1   3
BRANCH   1  11
ATOM     11  C   UNL     1      11.870  19.372  55.277  1.00  0.00     0.087 C 
BRANCH  11  12
ATOM     12  C   UNL     1      12.687  18.071  55.031  1.00  0.00     0.066 C 
BRANCH  12  13
ATOM     13  C   UNL     1      14.196  18.231  55.191  1.00  0.00     0.140 C 
ATOM     14  O   UNL     1      14.779  18.987  54.425  1.00  0.00    -0.299 OA
BRANCH  13  15
ATOM     15  C   UNL     1      14.989  17.562  56.291  1.00  0.00     0.106 CG0
ATOM     16  G   UNL     1      15.567  18.571  57.272  1.00  0.00     0.000 G0
ENDBRANCH  13  15
ENDBRANCH  12  13
BRANCH  12  17
ATOM     17  C   UNL     1      12.207  17.185  53.834  1.00  0.00    -0.006 C 
ATOM     18  C   UNL     1      11.113  16.193  54.264  1.00  0.00     0.008 C 
ATOM     19  C   UNL     1      13.311  16.456  53.057  1.00  0.00     0.008 C 
ENDBRANCH  12  17
ENDBRANCH  11  12
ENDBRANCH   1  11
TORSDOF 1
ENDMDL
MODEL 6
REMARK VINA RESULT:    -4.028      6.943      9.315
REMARK INTER + INTRA:          -5.912
REMARK INTER:                  -5.700
REMARK INTRA:                  -0.213
REMARK UNBOUND:                 0.234
REMARK SMILES CC1=CCC[C@H](C)C(=O)C[C@@H](C(C)C)C(=O)C1
REMARK SMILES IDX 8 1 9 2 6 3 7 4 5 5 4 6 3 7 2 8 1 9 10 11 11 12 15 13 16 14
REMARK SMILES IDX 17 15 12 17 13 18 14 19
REMARK H PARENT
REMARK Flexibility Score: 70.00
ROOT
ATOM      1  C   UNL     1       7.303  21.535  56.421  1.00  0.00     0.136 C 
ATOM      2  O   UNL     1       7.808  20.948  55.477  1.00  0.00    -0.299 OA
ENDROOT
BRANCH   1   3
ATOM      3  C   UNL     1       8.213  22.356  57.325  1.00  0.00     0.053 C 
ATOM      4  C   UNL     1       9.259  21.484  58.034  1.00  0.00     0.016 C 
BRANCH   3   5
ATOM      5  C   UNL     1       8.876  23.510  56.548  1.00  0.00     0.015 C 
BRANCH   5   6
ATOM      6  C   UNL     1       7.844  24.565  56.097  1.00  0.00     0.028 C 
BRANCH   6   7
ATOM      7  C   UNL     1       7.055  25.119  57.256  1.00  0.00    -0.028 C 
ATOM      8  C   UNL     1       5.711  25.272  57.267  1.00  0.00    -0.070 CG0
ATOM      9  C   UNL     1       5.067  25.825  58.514  1.00  0.00     0.039 C 
ATOM     10  G   UNL     1       4.826  24.949  56.073  1.00  0.00     0.000 G0
ENDBRANCH   6   7
ENDBRANCH   5   6
ENDBRANCH   3   5
ENDBRANCH   1   3
BRANCH   1  11
ATOM     11  C   UNL     1       5.798  21.482  56.611  1.00  0.00     0.087 C 
BRANCH  11  12
ATOM     12  C   UNL     1       4.923  22.283  55.604  1.00  0.00     0.066 C 
BRANCH  12  13
ATOM     13  C   UNL     1       4.248  23.518  56.195  1.00  0.00     0.140 C 
ATOM     14  O   UNL     1       3.227  23.357  56.851  1.00  0.00    -0.299 OA
BRANCH  13  15
ATOM     15  C   UNL     1       4.818  24.913  56.073  1.00  0.00     0.106 CG0
ATOM     16  G   UNL     1       5.698  25.276  57.260  1.00  0.00     0.000 G0
ENDBRANCH  13  15
ENDBRANCH  12  13
BRANCH  12  17
ATOM     17  C   UNL     1       4.058  21.424  54.623  1.00  0.00    -0.006 C 
ATOM     18  C   UNL     1       4.102  19.930  54.987  1.00  0.00     0.008 C 
ATOM     19  C   UNL     1       4.350  21.617  53.129  1.00  0.00     0.008 C 
ENDBRANCH  12  17
ENDBRANCH  11  12
ENDBRANCH   1  11
TORSDOF 1
ENDMDL
MODEL 7
REMARK VINA RESULT:    -3.969      2.295      4.391
REMARK INTER + INTRA:          -5.823
REMARK INTER:                  -5.697
REMARK INTRA:                  -0.126
REMARK UNBOUND:                 0.234
REMARK SMILES CC1=CCC[C@H](C)C(=O)C[C@@H](C(C)C)C(=O)C1
REMARK SMILES IDX 8 1 9 2 6 3 7 4 5 5 4 6 3 7 2 8 1 9 10 11 11 12 15 13 16 14
REMARK SMILES IDX 17 15 12 17 13 18 14 19
REMARK H PARENT
REMARK Flexibility Score: 70.00
ROOT
ATOM      1  C   UNL     1      13.877  18.516  58.136  1.00  0.00     0.136 C 
ATOM      2  O   UNL     1      14.719  17.976  58.835  1.00  0.00    -0.299 OA
ENDROOT
BRANCH   1   3
ATOM      3  C   UNL     1      13.955  18.311  56.630  1.00  0.00     0.053 C 
ATOM      4  C   UNL     1      15.396  18.413  56.108  1.00  0.00     0.016 C 
BRANCH   3   5
ATOM      5  C   UNL     1      13.302  16.978  56.214  1.00  0.00     0.015 C 
BRANCH   5   6
ATOM      6  C   UNL     1      11.961  17.201  55.482  1.00  0.00     0.028 C 
BRANCH   6   7
ATOM      7  C   UNL     1      11.838  18.601  54.938  1.00  0.00    -0.028 C 
ATOM      8  C   UNL     1      10.934  19.513  55.362  1.00  0.00    -0.070 CG0
ATOM      9  C   UNL     1      10.950  20.881  54.728  1.00  0.00     0.039 C 
ATOM     10  G   UNL     1       9.881  19.213  56.419  1.00  0.00     0.000 G0
ENDBRANCH   6   7
ENDBRANCH   5   6
ENDBRANCH   3   5
ENDBRANCH   1   3
BRANCH   1  11
ATOM     11  C   UNL     1      12.757  19.302  58.794  1.00  0.00     0.087 C 
BRANCH  11  12
ATOM     12  C   UNL     1      11.311  18.750  58.639  1.00  0.00     0.066 C 
BRANCH  12  13
ATOM     13  C   UNL     1      10.384  19.629  57.803  1.00  0.00     0.140 C 
ATOM     14  O   UNL     1      10.082  20.730  58.244  1.00  0.00    -0.299 OA
BRANCH  13  15
ATOM     15  C   UNL     1       9.885  19.238  56.430  1.00  0.00     0.106 CG0
ATOM     16  G   UNL     1      10.924  19.499  55.349  1.00  0.00     0.000 G0
ENDBRANCH  13  15
ENDBRANCH  12  13
BRANCH  12  17
ATOM     17  C   UNL     1      10.686  18.112  59.923  1.00  0.00    -0.006 C 
ATOM     18  C   UNL     1       9.252  17.615  59.671  1.00  0.00     0.008 C 
ATOM     19  C   UNL     1      10.735  18.974  61.191  1.00  0.00     0.008 C 
ENDBRANCH  12  17
ENDBRANCH  11  12
ENDBRANCH   1  11
TORSDOF 1
ENDMDL
MODEL 8
REMARK VINA RESULT:    -3.927      5.417      8.221
REMARK INTER + INTRA:          -5.759
REMARK INTER:                  -5.870
REMARK INTRA:                   0.110
REMARK UNBOUND:                 0.234
REMARK SMILES CC1=CCC[C@H](C)C(=O)C[C@@H](C(C)C)C(=O)C1
REMARK SMILES IDX 8 1 9 2 6 3 7 4 5 5 4 6 3 7 2 8 1 9 10 11 11 12 15 13 16 14
REMARK SMILES IDX 17 15 12 17 13 18 14 19
REMARK H PARENT
REMARK Flexibility Score: 70.00
ROOT
ATOM      1  C   UNL     1       6.557  24.176  54.964  1.00  0.00     0.136 C 
ATOM      2  O   UNL     1       5.593  24.849  54.636  1.00  0.00    -0.299 OA
ENDROOT
BRANCH   1   3
ATOM      3  C   UNL     1       7.543  24.771  55.960  1.00  0.00     0.053 C 
ATOM      4  C   UNL     1       6.855  25.202  57.264  1.00  0.00     0.016 C 
BRANCH   3   5
ATOM      5  C   UNL     1       8.710  23.802  56.236  1.00  0.00     0.015 C 
BRANCH   5   6
ATOM      6  C   UNL     1       8.508  23.022  57.553  1.00  0.00     0.028 C 
BRANCH   6   7
ATOM      7  C   UNL     1       9.307  21.745  57.584  1.00  0.00    -0.028 C 
ATOM      8  C   UNL     1       8.795  20.512  57.368  1.00  0.00    -0.070 CG0
ATOM      9  C   UNL     1       9.732  19.332  57.415  1.00  0.00     0.039 C 
ATOM     10  G   UNL     1       7.316  20.258  57.116  1.00  0.00     0.000 G0
ENDBRANCH   6   7
ENDBRANCH   5   6
ENDBRANCH   3   5
ENDBRANCH   1   3
BRANCH   1  11
ATOM     11  C   UNL     1       6.695  22.763  54.427  1.00  0.00     0.087 C 
BRANCH  11  12
ATOM     12  C   UNL     1       6.002  21.623  55.228  1.00  0.00     0.066 C 
BRANCH  12  13
ATOM     13  C   UNL     1       6.935  20.495  55.659  1.00  0.00     0.140 C 
ATOM     14  O   UNL     1       7.449  19.808  54.786  1.00  0.00    -0.299 OA
BRANCH  13  15
ATOM     15  C   UNL     1       7.312  20.234  57.100  1.00  0.00     0.106 CG0
ATOM     16  G   UNL     1       8.786  20.505  57.362  1.00  0.00     0.000 G0
ENDBRANCH  13  15
ENDBRANCH  12  13
BRANCH  12  17
ATOM     17  C   UNL     1       4.589  21.195  54.714  1.00  0.00    -0.006 C 
ATOM     18  C   UNL     1       4.120  22.074  53.542  1.00  0.00     0.008 C 
ATOM     19  C   UNL     1       3.489  21.098  55.780  1.00  0.00     0.008 C 
ENDBRANCH  12  17
ENDBRANCH  11  12
ENDBRANCH   1  11
TORSDOF 1
ENDMDL
MODEL 9
REMARK VINA RESULT:    -3.879      6.477      9.485
REMARK INTER + INTRA:          -5.686
REMARK INTER:                  -5.749
REMARK INTRA:                   0.063
REMARK UNBOUND:                 0.234
REMARK SMILES CC1=CCC[C@H](C)C(=O)C[C@@H](C(C)C)C(=O)C1
REMARK SMILES IDX 8 1 9 2 6 3 7 4 5 5 4 6 3 7 2 8 1 9 10 11 11 12 15 13 16 14
REMARK SMILES IDX 17 15 12 17 13 18 14 19
REMARK H PARENT
REMARK Flexibility Score: 70.00
ROOT
ATOM      1  C   UNL     1       6.481  24.825  56.415  1.00  0.00     0.136 C 
ATOM      2  O   UNL     1       7.036  25.837  56.018  1.00  0.00    -0.299 OA
ENDROOT
BRANCH   1   3
ATOM      3  C   UNL     1       5.014  24.625  56.060  1.00  0.00     0.053 C 
ATOM      4  C   UNL     1       4.093  25.547  56.872  1.00  0.00     0.016 C 
BRANCH   3   5
ATOM      5  C   UNL     1       4.779  24.792  54.545  1.00  0.00     0.015 C 
BRANCH   5   6
ATOM      6  C   UNL     1       5.138  23.508  53.766  1.00  0.00     0.028 C 
BRANCH   6   7
ATOM      7  C   UNL     1       4.272  22.341  54.163  1.00  0.00    -0.028 C 
ATOM      8  C   UNL     1       4.732  21.191  54.706  1.00  0.00    -0.070 CG0
ATOM      9  C   UNL     1       3.732  20.123  55.067  1.00  0.00     0.039 C 
ATOM     10  G   UNL     1       6.210  20.912  54.934  1.00  0.00     0.000 G0
ENDBRANCH   6   7
ENDBRANCH   5   6
ENDBRANCH   3   5
ENDBRANCH   1   3
BRANCH   1  11
ATOM     11  C   UNL     1       7.283  23.785  57.175  1.00  0.00     0.087 C 
BRANCH  11  12
ATOM     12  C   UNL     1       7.755  22.530  56.386  1.00  0.00     0.066 C 
BRANCH  12  13
ATOM     13  C   UNL     1       6.704  21.431  56.259  1.00  0.00     0.140 C 
ATOM     14  O   UNL     1       6.193  21.001  57.285  1.00  0.00    -0.299 OA
BRANCH  13  15
ATOM     15  C   UNL     1       6.212  20.904  54.930  1.00  0.00     0.106 CG0
ATOM     16  G   UNL     1       4.731  21.182  54.719  1.00  0.00     0.000 G0
ENDBRANCH  13  15
ENDBRANCH  12  13
BRANCH  12  17
ATOM     17  C   UNL     1       9.219  22.058  56.673  1.00  0.00    -0.006 C 
ATOM     18  C   UNL     1       9.836  21.349  55.455  1.00  0.00     0.008 C 
ATOM     19  C   UNL     1       9.414  21.211  57.937  1.00  0.00     0.008 C 
ENDBRANCH  12  17
ENDBRANCH  11  12
ENDBRANCH   1  11
TORSDOF 1
ENDMDL
