MODEL 1
REMARK VINA RESULT:    -2.411      0.000      0.000
REMARK INTER + INTRA:          -5.796
REMARK INTER:                  -4.384
REMARK INTRA:                  -1.412
REMARK UNBOUND:                -1.412
REMARK SMILES CCCCCCCCCCCCCC[C@H](C)C(=O)[O-]
REMARK SMILES IDX 9 1 10 2 11 3 12 4 13 5 14 6 15 7 16 8 17 9 18 10 19 11 8 12
REMARK SMILES IDX 7 13 6 14 5 15 4 16 3 17 2 18 1 19
REMARK H PARENT
REMARK Flexibility Score: inf
ROOT
ATOM      1  C   UNL     1     -22.757   1.673 -34.068  1.00  0.00     0.000 C 
ENDROOT
BRANCH   1   2
ATOM      2  C   UNL     1     -23.678   1.686 -32.836  1.00  0.00     0.000 C 
BRANCH   2   3
ATOM      3  C   UNL     1     -24.960   2.500 -33.064  1.00  0.00     0.000 C 
BRANCH   3   4
ATOM      4  C   UNL     1     -25.054   3.725 -32.141  1.00  0.00     0.000 C 
BRANCH   4   5
ATOM      5  C   UNL     1     -25.596   4.943 -32.898  1.00  0.00     0.001 C 
BRANCH   5   6
ATOM      6  C   UNL     1     -25.869   4.601 -34.371  1.00  0.00     0.009 C 
BRANCH   6   7
ATOM      7  C   UNL     1     -27.291   5.008 -34.809  1.00  0.00     0.032 C 
ATOM      8  C   UNL     1     -28.344   4.169 -34.078  1.00  0.00     0.014 C 
BRANCH   7   9
ATOM      9  C   UNL     1     -27.470   4.872 -36.298  1.00  0.00     0.044 C 
ATOM     10  O   UNL     1     -26.498   5.047 -37.080  1.00  0.00    -0.550 OA
ATOM     11  O   UNL     1     -28.717   4.553 -36.820  1.00  0.00    -0.550 OA
ENDBRANCH   7   9
ENDBRANCH   6   7
ENDBRANCH   5   6
ENDBRANCH   4   5
ENDBRANCH   3   4
ENDBRANCH   2   3
ENDBRANCH   1   2
BRANCH   1  12
ATOM     12  C   UNL     1     -22.457   3.094 -34.593  1.00  0.00     0.000 C 
BRANCH  12  13
ATOM     13  C   UNL     1     -23.041   3.376 -35.992  1.00  0.00    -0.000 C 
BRANCH  13  14
ATOM     14  C   UNL     1     -23.169   2.145 -36.908  1.00  0.00    -0.000 C 
BRANCH  14  15
ATOM     15  C   UNL     1     -22.794   2.386 -38.383  1.00  0.00    -0.000 C 
BRANCH  15  16
ATOM     16  C   UNL     1     -22.425   1.090 -39.125  1.00  0.00    -0.000 C 
BRANCH  16  17
ATOM     17  C   UNL     1     -22.702  -0.176 -38.294  1.00  0.00    -0.000 C 
BRANCH  17  18
ATOM     18  C   UNL     1     -22.974  -1.449 -39.116  1.00  0.00    -0.003 C 
ATOM     19  C   UNL     1     -24.428  -1.914 -39.035  1.00  0.00     0.004 C 
ENDBRANCH  17  18
ENDBRANCH  16  17
ENDBRANCH  15  16
ENDBRANCH  14  15
ENDBRANCH  13  14
ENDBRANCH  12  13
ENDBRANCH   1  12
TORSDOF 14
ENDMDL
MODEL 2
REMARK VINA RESULT:    -2.044     13.349     14.913
REMARK INTER + INTRA:          -5.128
REMARK INTER:                  -3.947
REMARK INTRA:                  -1.181
REMARK UNBOUND:                -1.412
REMARK SMILES CCCCCCCCCCCCCC[C@H](C)C(=O)[O-]
REMARK SMILES IDX 9 1 10 2 11 3 12 4 13 5 14 6 15 7 16 8 17 9 18 10 19 11 8 12
REMARK SMILES IDX 7 13 6 14 5 15 4 16 3 17 2 18 1 19
REMARK H PARENT
REMARK Flexibility Score: inf
ROOT
ATOM      1  C   UNL     1      -9.581   1.096 -35.586  1.00  0.00     0.000 C 
ENDROOT
BRANCH   1   2
ATOM      2  C   UNL     1      -8.892   1.984 -34.536  1.00  0.00     0.000 C 
BRANCH   2   3
ATOM      3  C   UNL     1      -9.889   2.842 -33.741  1.00  0.00     0.000 C 
BRANCH   3   4
ATOM      4  C   UNL     1      -9.670   4.348 -33.952  1.00  0.00     0.000 C 
BRANCH   4   5
ATOM      5  C   UNL     1      -9.268   4.647 -35.401  1.00  0.00     0.001 C 
BRANCH   5   6
ATOM      6  C   UNL     1     -10.497   5.005 -36.252  1.00  0.00     0.009 C 
BRANCH   6   7
ATOM      7  C   UNL     1     -10.591   4.145 -37.529  1.00  0.00     0.032 C 
ATOM      8  C   UNL     1     -10.059   4.917 -38.742  1.00  0.00     0.014 C 
BRANCH   7   9
ATOM      9  C   UNL     1     -12.004   3.694 -37.788  1.00  0.00     0.044 C 
ATOM     10  O   UNL     1     -12.393   2.556 -37.412  1.00  0.00    -0.550 OA
ATOM     11  O   UNL     1     -12.889   4.535 -38.450  1.00  0.00    -0.550 OA
ENDBRANCH   7   9
ENDBRANCH   6   7
ENDBRANCH   5   6
ENDBRANCH   4   5
ENDBRANCH   3   4
ENDBRANCH   2   3
ENDBRANCH   1   2
BRANCH   1  12
ATOM     12  C   UNL     1      -9.042   1.343 -37.012  1.00  0.00     0.000 C 
BRANCH  12  13
ATOM     13  C   UNL     1      -9.520   0.305 -38.046  1.00  0.00    -0.000 C 
BRANCH  13  14
ATOM     14  C   UNL     1      -9.602  -1.144 -37.529  1.00  0.00    -0.000 C 
BRANCH  14  15
ATOM     15  C   UNL     1      -9.960  -2.198 -38.594  1.00  0.00    -0.000 C 
BRANCH  15  16
ATOM     16  C   UNL     1      -8.895  -3.300 -38.726  1.00  0.00    -0.000 C 
BRANCH  16  17
ATOM     17  C   UNL     1      -9.493  -4.718 -38.713  1.00  0.00    -0.000 C 
BRANCH  17  18
ATOM     18  C   UNL     1     -11.021  -4.779 -38.538  1.00  0.00    -0.003 C 
ATOM     19  C   UNL     1     -11.446  -5.284 -37.159  1.00  0.00     0.004 C 
ENDBRANCH  17  18
ENDBRANCH  16  17
ENDBRANCH  15  16
ENDBRANCH  14  15
ENDBRANCH  13  14
ENDBRANCH  12  13
ENDBRANCH   1  12
TORSDOF 14
ENDMDL
MODEL 3
REMARK VINA RESULT:    -1.949      2.897      5.518
REMARK INTER + INTRA:          -4.956
REMARK INTER:                  -4.079
REMARK INTRA:                  -0.877
REMARK UNBOUND:                -1.412
REMARK SMILES CCCCCCCCCCCCCC[C@H](C)C(=O)[O-]
REMARK SMILES IDX 9 1 10 2 11 3 12 4 13 5 14 6 15 7 16 8 17 9 18 10 19 11 8 12
REMARK SMILES IDX 7 13 6 14 5 15 4 16 3 17 2 18 1 19
REMARK H PARENT
REMARK Flexibility Score: inf
ROOT
ATOM      1  C   UNL     1     -24.090   1.431 -32.828  1.00  0.00     0.000 C 
ENDROOT
BRANCH   1   2
ATOM      2  C   UNL     1     -22.818   2.071 -33.410  1.00  0.00     0.000 C 
BRANCH   2   3
ATOM      3  C   UNL     1     -22.836   2.131 -34.945  1.00  0.00     0.000 C 
BRANCH   3   4
ATOM      4  C   UNL     1     -24.074   2.857 -35.493  1.00  0.00     0.000 C 
BRANCH   4   5
ATOM      5  C   UNL     1     -23.724   4.281 -35.940  1.00  0.00     0.001 C 
BRANCH   5   6
ATOM      6  C   UNL     1     -24.873   4.904 -36.749  1.00  0.00     0.009 C 
BRANCH   6   7
ATOM      7  C   UNL     1     -24.503   5.092 -38.235  1.00  0.00     0.032 C 
ATOM      8  C   UNL     1     -25.739   4.927 -39.125  1.00  0.00     0.014 C 
BRANCH   7   9
ATOM      9  C   UNL     1     -23.430   4.126 -38.663  1.00  0.00     0.044 C 
ATOM     10  O   UNL     1     -22.251   4.523 -38.861  1.00  0.00    -0.550 OA
ATOM     11  O   UNL     1     -23.739   2.784 -38.845  1.00  0.00    -0.550 OA
ENDBRANCH   7   9
ENDBRANCH   6   7
ENDBRANCH   5   6
ENDBRANCH   4   5
ENDBRANCH   3   4
ENDBRANCH   2   3
ENDBRANCH   1   2
BRANCH   1  12
ATOM     12  C   UNL     1     -25.010   2.465 -32.144  1.00  0.00     0.000 C 
BRANCH  12  13
ATOM     13  C   UNL     1     -24.620   3.929 -32.430  1.00  0.00    -0.000 C 
BRANCH  13  14
ATOM     14  C   UNL     1     -25.700   4.973 -32.089  1.00  0.00    -0.000 C 
BRANCH  14  15
ATOM     15  C   UNL     1     -26.818   5.124 -33.138  1.00  0.00    -0.000 C 
BRANCH  15  16
ATOM     16  C   UNL     1     -27.330   3.772 -33.664  1.00  0.00    -0.000 C 
BRANCH  16  17
ATOM     17  C   UNL     1     -28.719   3.871 -34.321  1.00  0.00    -0.000 C 
BRANCH  17  18
ATOM     18  C   UNL     1     -28.900   5.055 -35.288  1.00  0.00    -0.003 C 
ATOM     19  C   UNL     1     -28.417   4.748 -36.706  1.00  0.00     0.004 C 
ENDBRANCH  17  18
ENDBRANCH  16  17
ENDBRANCH  15  16
ENDBRANCH  14  15
ENDBRANCH  13  14
ENDBRANCH  12  13
ENDBRANCH   1  12
TORSDOF 14
ENDMDL
MODEL 4
REMARK VINA RESULT:    -1.728      2.342      3.716
REMARK INTER + INTRA:          -4.554
REMARK INTER:                  -4.347
REMARK INTRA:                  -0.207
REMARK UNBOUND:                -1.412
REMARK SMILES CCCCCCCCCCCCCC[C@H](C)C(=O)[O-]
REMARK SMILES IDX 9 1 10 2 11 3 12 4 13 5 14 6 15 7 16 8 17 9 18 10 19 11 8 12
REMARK SMILES IDX 7 13 6 14 5 15 4 16 3 17 2 18 1 19
REMARK H PARENT
REMARK Flexibility Score: inf
ROOT
ATOM      1  C   UNL     1     -25.260   4.237 -36.319  1.00  0.00     0.000 C 
ENDROOT
BRANCH   1   2
ATOM      2  C   UNL     1     -26.365   5.028 -35.598  1.00  0.00     0.000 C 
BRANCH   2   3
ATOM      3  C   UNL     1     -27.605   4.172 -35.297  1.00  0.00     0.000 C 
BRANCH   3   4
ATOM      4  C   UNL     1     -27.424   3.287 -34.054  1.00  0.00     0.000 C 
BRANCH   4   5
ATOM      5  C   UNL     1     -26.328   3.845 -33.138  1.00  0.00     0.001 C 
BRANCH   5   6
ATOM      6  C   UNL     1     -25.296   2.760 -32.789  1.00  0.00     0.009 C 
BRANCH   6   7
ATOM      7  C   UNL     1     -23.849   3.232 -33.039  1.00  0.00     0.032 C 
ATOM      8  C   UNL     1     -23.839   4.593 -33.744  1.00  0.00     0.014 C 
BRANCH   7   9
ATOM      9  C   UNL     1     -23.074   2.228 -33.852  1.00  0.00     0.044 C 
ATOM     10  O   UNL     1     -22.815   2.448 -35.065  1.00  0.00    -0.550 OA
ATOM     11  O   UNL     1     -22.642   1.047 -33.264  1.00  0.00    -0.550 OA
ENDBRANCH   7   9
ENDBRANCH   6   7
ENDBRANCH   5   6
ENDBRANCH   4   5
ENDBRANCH   3   4
ENDBRANCH   2   3
ENDBRANCH   1   2
BRANCH   1  12
ATOM     12  C   UNL     1     -24.612   5.041 -37.466  1.00  0.00     0.000 C 
BRANCH  12  13
ATOM     13  C   UNL     1     -23.076   5.125 -37.377  1.00  0.00    -0.000 C 
BRANCH  13  14
ATOM     14  C   UNL     1     -22.322   3.878 -37.876  1.00  0.00    -0.000 C 
BRANCH  14  15
ATOM     15  C   UNL     1     -23.122   2.969 -38.830  1.00  0.00    -0.000 C 
BRANCH  15  16
ATOM     16  C   UNL     1     -22.451   1.603 -39.055  1.00  0.00    -0.000 C 
BRANCH  16  17
ATOM     17  C   UNL     1     -23.407   0.420 -38.819  1.00  0.00    -0.000 C 
BRANCH  17  18
ATOM     18  C   UNL     1     -22.804  -0.970 -39.092  1.00  0.00    -0.003 C 
ATOM     19  C   UNL     1     -23.840  -2.093 -39.042  1.00  0.00     0.004 C 
ENDBRANCH  17  18
ENDBRANCH  16  17
ENDBRANCH  15  16
ENDBRANCH  14  15
ENDBRANCH  13  14
ENDBRANCH  12  13
ENDBRANCH   1  12
TORSDOF 14
ENDMDL
MODEL 5
REMARK VINA RESULT:    -1.613      1.288      1.894
REMARK INTER + INTRA:          -4.346
REMARK INTER:                  -3.767
REMARK INTRA:                  -0.578
REMARK UNBOUND:                -1.412
REMARK SMILES CCCCCCCCCCCCCC[C@H](C)C(=O)[O-]
REMARK SMILES IDX 9 1 10 2 11 3 12 4 13 5 14 6 15 7 16 8 17 9 18 10 19 11 8 12
REMARK SMILES IDX 7 13 6 14 5 15 4 16 3 17 2 18 1 19
REMARK H PARENT
REMARK Flexibility Score: inf
ROOT
ATOM      1  C   UNL     1     -23.931   2.271 -33.141  1.00  0.00     0.000 C 
ENDROOT
BRANCH   1   2
ATOM      2  C   UNL     1     -23.906   3.784 -32.860  1.00  0.00     0.000 C 
BRANCH   2   3
ATOM      3  C   UNL     1     -25.082   4.242 -31.984  1.00  0.00     0.000 C 
BRANCH   3   4
ATOM      4  C   UNL     1     -26.362   4.492 -32.797  1.00  0.00     0.000 C 
BRANCH   4   5
ATOM      5  C   UNL     1     -26.027   5.009 -34.202  1.00  0.00     0.001 C 
BRANCH   5   6
ATOM      6  C   UNL     1     -26.957   4.385 -35.255  1.00  0.00     0.009 C 
BRANCH   6   7
ATOM      7  C   UNL     1     -26.838   5.086 -36.624  1.00  0.00     0.032 C 
ATOM      8  C   UNL     1     -27.990   4.673 -37.545  1.00  0.00     0.014 C 
BRANCH   7   9
ATOM      9  C   UNL     1     -25.519   4.784 -37.285  1.00  0.00     0.044 C 
ATOM     10  O   UNL     1     -25.464   4.526 -38.517  1.00  0.00    -0.550 OA
ATOM     11  O   UNL     1     -24.351   4.785 -36.534  1.00  0.00    -0.550 OA
ENDBRANCH   7   9
ENDBRANCH   6   7
ENDBRANCH   5   6
ENDBRANCH   4   5
ENDBRANCH   3   4
ENDBRANCH   2   3
ENDBRANCH   1   2
BRANCH   1  12
ATOM     12  C   UNL     1     -23.004   1.874 -34.310  1.00  0.00     0.000 C 
BRANCH  12  13
ATOM     13  C   UNL     1     -23.688   1.926 -35.691  1.00  0.00    -0.000 C 
BRANCH  13  14
ATOM     14  C   UNL     1     -22.730   1.900 -36.897  1.00  0.00    -0.000 C 
BRANCH  14  15
ATOM     15  C   UNL     1     -23.385   1.541 -38.244  1.00  0.00    -0.000 C 
BRANCH  15  16
ATOM     16  C   UNL     1     -22.502   0.629 -39.114  1.00  0.00    -0.000 C 
BRANCH  16  17
ATOM     17  C   UNL     1     -22.172  -0.712 -38.433  1.00  0.00    -0.000 C 
BRANCH  17  18
ATOM     18  C   UNL     1     -22.758  -1.956 -39.124  1.00  0.00    -0.003 C 
ATOM     19  C   UNL     1     -24.286  -1.992 -39.097  1.00  0.00     0.004 C 
ENDBRANCH  17  18
ENDBRANCH  16  17
ENDBRANCH  15  16
ENDBRANCH  14  15
ENDBRANCH  13  14
ENDBRANCH  12  13
ENDBRANCH   1  12
TORSDOF 14
ENDMDL
MODEL 6
REMARK VINA RESULT:    -1.501      1.493      2.056
REMARK INTER + INTRA:          -4.142
REMARK INTER:                  -3.580
REMARK INTRA:                  -0.562
REMARK UNBOUND:                -1.412
REMARK SMILES CCCCCCCCCCCCCC[C@H](C)C(=O)[O-]
REMARK SMILES IDX 9 1 10 2 11 3 12 4 13 5 14 6 15 7 16 8 17 9 18 10 19 11 8 12
REMARK SMILES IDX 7 13 6 14 5 15 4 16 3 17 2 18 1 19
REMARK H PARENT
REMARK Flexibility Score: inf
ROOT
ATOM      1  C   UNL     1     -22.497   1.908 -34.164  1.00  0.00     0.000 C 
ENDROOT
BRANCH   1   2
ATOM      2  C   UNL     1     -22.891   3.237 -33.499  1.00  0.00     0.000 C 
BRANCH   2   3
ATOM      3  C   UNL     1     -22.815   4.428 -34.467  1.00  0.00     0.000 C 
BRANCH   3   4
ATOM      4  C   UNL     1     -24.177   5.108 -34.674  1.00  0.00     0.000 C 
BRANCH   4   5
ATOM      5  C   UNL     1     -24.844   4.621 -35.967  1.00  0.00     0.001 C 
BRANCH   5   6
ATOM      6  C   UNL     1     -26.371   4.779 -35.893  1.00  0.00     0.009 C 
BRANCH   6   7
ATOM      7  C   UNL     1     -26.923   4.448 -34.492  1.00  0.00     0.032 C 
ATOM      8  C   UNL     1     -26.487   3.044 -34.056  1.00  0.00     0.014 C 
BRANCH   7   9
ATOM      9  C   UNL     1     -28.424   4.554 -34.450  1.00  0.00     0.044 C 
ATOM     10  O   UNL     1     -29.123   4.146 -35.417  1.00  0.00    -0.550 OA
ATOM     11  O   UNL     1     -29.050   5.107 -33.341  1.00  0.00    -0.550 OA
ENDBRANCH   7   9
ENDBRANCH   6   7
ENDBRANCH   5   6
ENDBRANCH   4   5
ENDBRANCH   3   4
ENDBRANCH   2   3
ENDBRANCH   1   2
BRANCH   1  12
ATOM     12  C   UNL     1     -23.196   1.700 -35.525  1.00  0.00     0.000 C 
BRANCH  12  13
ATOM     13  C   UNL     1     -22.230   1.703 -36.727  1.00  0.00    -0.000 C 
BRANCH  13  14
ATOM     14  C   UNL     1     -22.475   2.819 -37.760  1.00  0.00    -0.000 C 
BRANCH  14  15
ATOM     15  C   UNL     1     -23.016   2.342 -39.122  1.00  0.00    -0.000 C 
BRANCH  15  16
ATOM     16  C   UNL     1     -23.394   0.850 -39.125  1.00  0.00    -0.000 C 
BRANCH  16  17
ATOM     17  C   UNL     1     -22.169  -0.079 -39.038  1.00  0.00    -0.000 C 
BRANCH  17  18
ATOM     18  C   UNL     1     -22.496  -1.573 -38.862  1.00  0.00    -0.003 C 
ATOM     19  C   UNL     1     -23.974  -1.893 -39.082  1.00  0.00     0.004 C 
ENDBRANCH  17  18
ENDBRANCH  16  17
ENDBRANCH  15  16
ENDBRANCH  14  15
ENDBRANCH  13  14
ENDBRANCH  12  13
ENDBRANCH   1  12
TORSDOF 14
ENDMDL
MODEL 7
REMARK VINA RESULT:    -1.471      1.333      2.186
REMARK INTER + INTRA:          -4.087
REMARK INTER:                  -3.393
REMARK INTRA:                  -0.694
REMARK UNBOUND:                -1.412
REMARK SMILES CCCCCCCCCCCCCC[C@H](C)C(=O)[O-]
REMARK SMILES IDX 9 1 10 2 11 3 12 4 13 5 14 6 15 7 16 8 17 9 18 10 19 11 8 12
REMARK SMILES IDX 7 13 6 14 5 15 4 16 3 17 2 18 1 19
REMARK H PARENT
REMARK Flexibility Score: inf
ROOT
ATOM      1  C   UNL     1     -23.875   2.642 -33.918  1.00  0.00     0.000 C 
ENDROOT
BRANCH   1   2
ATOM      2  C   UNL     1     -24.789   3.835 -33.589  1.00  0.00     0.000 C 
BRANCH   2   3
ATOM      3  C   UNL     1     -26.036   3.422 -32.792  1.00  0.00     0.000 C 
BRANCH   3   4
ATOM      4  C   UNL     1     -27.336   3.615 -33.588  1.00  0.00     0.000 C 
BRANCH   4   5
ATOM      5  C   UNL     1     -27.475   5.064 -34.069  1.00  0.00     0.001 C 
BRANCH   5   6
ATOM      6  C   UNL     1     -28.132   5.124 -35.457  1.00  0.00     0.009 C 
BRANCH   6   7
ATOM      7  C   UNL     1     -27.228   4.525 -36.554  1.00  0.00     0.032 C 
ATOM      8  C   UNL     1     -25.793   5.045 -36.416  1.00  0.00     0.014 C 
BRANCH   7   9
ATOM      9  C   UNL     1     -27.755   4.832 -37.931  1.00  0.00     0.044 C 
ATOM     10  O   UNL     1     -26.965   5.125 -38.869  1.00  0.00    -0.550 OA
ATOM     11  O   UNL     1     -29.121   4.795 -38.175  1.00  0.00    -0.550 OA
ENDBRANCH   7   9
ENDBRANCH   6   7
ENDBRANCH   5   6
ENDBRANCH   4   5
ENDBRANCH   3   4
ENDBRANCH   2   3
ENDBRANCH   1   2
BRANCH   1  12
ATOM     12  C   UNL     1     -22.763   3.012 -34.923  1.00  0.00     0.000 C 
BRANCH  12  13
ATOM     13  C   UNL     1     -22.817   4.477 -35.399  1.00  0.00    -0.000 C 
BRANCH  13  14
ATOM     14  C   UNL     1     -22.835   4.669 -36.927  1.00  0.00    -0.000 C 
BRANCH  14  15
ATOM     15  C   UNL     1     -21.647   4.038 -37.679  1.00  0.00    -0.000 C 
BRANCH  15  16
ATOM     16  C   UNL     1     -22.069   3.342 -38.985  1.00  0.00    -0.000 C 
BRANCH  16  17
ATOM     17  C   UNL     1     -23.246   2.368 -38.793  1.00  0.00    -0.000 C 
BRANCH  17  18
ATOM     18  C   UNL     1     -22.875   1.015 -38.160  1.00  0.00    -0.003 C 
ATOM     19  C   UNL     1     -23.051  -0.162 -39.118  1.00  0.00     0.004 C 
ENDBRANCH  17  18
ENDBRANCH  16  17
ENDBRANCH  15  16
ENDBRANCH  14  15
ENDBRANCH  13  14
ENDBRANCH  12  13
ENDBRANCH   1  12
TORSDOF 14
ENDMDL
MODEL 8
REMARK VINA RESULT:    -1.315      2.035      2.924
REMARK INTER + INTRA:          -3.802
REMARK INTER:                  -3.708
REMARK INTRA:                  -0.094
REMARK UNBOUND:                -1.412
REMARK SMILES CCCCCCCCCCCCCC[C@H](C)C(=O)[O-]
REMARK SMILES IDX 9 1 10 2 11 3 12 4 13 5 14 6 15 7 16 8 17 9 18 10 19 11 8 12
REMARK SMILES IDX 7 13 6 14 5 15 4 16 3 17 2 18 1 19
REMARK H PARENT
REMARK Flexibility Score: inf
ROOT
ATOM      1  C   UNL     1     -23.934   2.270 -33.138  1.00  0.00     0.000 C 
ENDROOT
BRANCH   1   2
ATOM      2  C   UNL     1     -23.883   3.783 -32.866  1.00  0.00     0.000 C 
BRANCH   2   3
ATOM      3  C   UNL     1     -25.278   4.392 -32.647  1.00  0.00     0.000 C 
BRANCH   3   4
ATOM      4  C   UNL     1     -25.986   4.732 -33.967  1.00  0.00     0.000 C 
BRANCH   4   5
ATOM      5  C   UNL     1     -24.972   5.114 -35.052  1.00  0.00     0.001 C 
BRANCH   5   6
ATOM      6  C   UNL     1     -25.396   4.563 -36.423  1.00  0.00     0.009 C 
BRANCH   6   7
ATOM      7  C   UNL     1     -24.530   5.125 -37.569  1.00  0.00     0.032 C 
ATOM      8  C   UNL     1     -24.868   4.430 -38.893  1.00  0.00     0.014 C 
BRANCH   7   9
ATOM      9  C   UNL     1     -23.061   4.978 -37.274  1.00  0.00     0.044 C 
ATOM     10  O   UNL     1     -22.237   4.768 -38.204  1.00  0.00    -0.550 OA
ATOM     11  O   UNL     1     -22.604   5.072 -35.966  1.00  0.00    -0.550 OA
ENDBRANCH   7   9
ENDBRANCH   6   7
ENDBRANCH   5   6
ENDBRANCH   4   5
ENDBRANCH   3   4
ENDBRANCH   2   3
ENDBRANCH   1   2
BRANCH   1  12
ATOM     12  C   UNL     1     -23.011   1.851 -34.303  1.00  0.00     0.000 C 
BRANCH  12  13
ATOM     13  C   UNL     1     -23.694   1.897 -35.684  1.00  0.00    -0.000 C 
BRANCH  13  14
ATOM     14  C   UNL     1     -22.738   1.815 -36.890  1.00  0.00    -0.000 C 
BRANCH  14  15
ATOM     15  C   UNL     1     -23.403   1.436 -38.227  1.00  0.00    -0.000 C 
BRANCH  15  16
ATOM     16  C   UNL     1     -22.538   0.489 -39.076  1.00  0.00    -0.000 C 
BRANCH  16  17
ATOM     17  C   UNL     1     -22.225  -0.839 -38.363  1.00  0.00    -0.000 C 
BRANCH  17  18
ATOM     18  C   UNL     1     -22.834  -2.091 -39.021  1.00  0.00    -0.003 C 
ATOM     19  C   UNL     1     -24.325  -2.254 -38.732  1.00  0.00     0.004 C 
ENDBRANCH  17  18
ENDBRANCH  16  17
ENDBRANCH  15  16
ENDBRANCH  14  15
ENDBRANCH  13  14
ENDBRANCH  12  13
ENDBRANCH   1  12
TORSDOF 14
ENDMDL
