MODEL 1
REMARK VINA RESULT:    -6.326      0.000      0.000
REMARK INTER + INTRA:          -9.100
REMARK INTER:                  -8.545
REMARK INTRA:                  -0.556
REMARK UNBOUND:                -0.556
REMARK SMILES CC(=O)CCC=C(C)CCC=C(C)C
REMARK SMILES IDX 7 1 6 2 8 3 9 4 10 5 11 6 13 7 12 8 14 9 5 10 4 11 2 12 3 13
REMARK SMILES IDX 1 14
REMARK H PARENT
REMARK Flexibility Score: inf
ROOT
ATOM      1  C   UNL     1       3.376  11.171  46.965  1.00  0.00    -0.077 C 
ATOM      2  C   UNL     1       2.031  11.252  47.084  1.00  0.00    -0.028 C 
ATOM      3  C   UNL     1       4.033  10.460  45.804  1.00  0.00     0.039 C 
ENDROOT
BRANCH   1   4
ATOM      4  C   UNL     1       4.247  11.792  48.034  1.00  0.00     0.034 C 
BRANCH   4   5
ATOM      5  C   UNL     1       4.512  13.271  47.728  1.00  0.00     0.032 C 
BRANCH   5   6
ATOM      6  C   UNL     1       5.913  13.657  48.133  1.00  0.00    -0.028 C 
ATOM      7  C   UNL     1       6.737  13.770  45.771  1.00  0.00     0.039 C 
ATOM      8  C   UNL     1       6.917  13.910  47.264  1.00  0.00    -0.080 C 
ATOM      9  C   UNL     1       8.257  14.326  47.815  1.00  0.00     0.039 C 
ENDBRANCH   5   6
ENDBRANCH   4   5
ENDBRANCH   1   4
BRANCH   2  10
ATOM     10  C   UNL     1       1.045  10.719  46.070  1.00  0.00     0.035 C 
BRANCH  10  11
ATOM     11  C   UNL     1      -0.342  10.502  46.687  1.00  0.00     0.079 C 
BRANCH  11  12
ATOM     12  C   UNL     1      -1.327  11.541  46.217  1.00  0.00     0.130 C 
ATOM     13  O   UNL     1      -2.525  11.320  46.308  1.00  0.00    -0.300 OA
ATOM     14  C   UNL     1      -0.867  12.844  45.633  1.00  0.00     0.087 C 
ENDBRANCH  11  12
ENDBRANCH  10  11
ENDBRANCH   2  10
TORSDOF 6
ENDMDL
MODEL 2
REMARK VINA RESULT:    -6.157      3.113      6.946
REMARK INTER + INTRA:          -8.873
REMARK INTER:                  -8.623
REMARK INTRA:                  -0.250
REMARK UNBOUND:                -0.556
REMARK SMILES CC(=O)CCC=C(C)CCC=C(C)C
REMARK SMILES IDX 7 1 6 2 8 3 9 4 10 5 11 6 13 7 12 8 14 9 5 10 4 11 2 12 3 13
REMARK SMILES IDX 1 14
REMARK H PARENT
REMARK Flexibility Score: inf
ROOT
ATOM      1  C   UNL     1       3.516  11.551  47.210  1.00  0.00    -0.077 C 
ATOM      2  C   UNL     1       4.177  12.661  46.811  1.00  0.00    -0.028 C 
ATOM      3  C   UNL     1       3.247  11.263  48.669  1.00  0.00     0.039 C 
ENDROOT
BRANCH   1   4
ATOM      4  C   UNL     1       3.049  10.560  46.167  1.00  0.00     0.034 C 
BRANCH   4   5
ATOM      5  C   UNL     1       1.695  10.981  45.585  1.00  0.00     0.032 C 
BRANCH   5   6
ATOM      6  C   UNL     1       0.561  10.372  46.372  1.00  0.00    -0.028 C 
ATOM      7  C   UNL     1      -1.034  12.220  45.814  1.00  0.00     0.039 C 
ATOM      8  C   UNL     1      -0.678  10.904  46.463  1.00  0.00    -0.080 C 
ATOM      9  C   UNL     1      -1.723  10.160  47.255  1.00  0.00     0.039 C 
ENDBRANCH   5   6
ENDBRANCH   4   5
ENDBRANCH   1   4
BRANCH   2  10
ATOM     10  C   UNL     1       4.658  13.754  47.737  1.00  0.00     0.035 C 
BRANCH  10  11
ATOM     11  C   UNL     1       6.052  13.450  48.299  1.00  0.00     0.079 C 
BRANCH  11  12
ATOM     12  C   UNL     1       7.140  13.952  47.385  1.00  0.00     0.130 C 
ATOM     13  O   UNL     1       8.202  14.323  47.861  1.00  0.00    -0.300 OA
ATOM     14  C   UNL     1       6.946  14.007  45.899  1.00  0.00     0.087 C 
ENDBRANCH  11  12
ENDBRANCH  10  11
ENDBRANCH   2  10
TORSDOF 6
ENDMDL
MODEL 3
REMARK VINA RESULT:    -6.117      2.036      3.358
REMARK INTER + INTRA:          -8.818
REMARK INTER:                  -8.126
REMARK INTRA:                  -0.692
REMARK UNBOUND:                -0.556
REMARK SMILES CC(=O)CCC=C(C)CCC=C(C)C
REMARK SMILES IDX 7 1 6 2 8 3 9 4 10 5 11 6 13 7 12 8 14 9 5 10 4 11 2 12 3 13
REMARK SMILES IDX 1 14
REMARK H PARENT
REMARK Flexibility Score: inf
ROOT
ATOM      1  C   UNL     1       0.965  11.414  46.165  1.00  0.00    -0.077 C 
ATOM      2  C   UNL     1       0.716  12.662  45.710  1.00  0.00    -0.028 C 
ATOM      3  C   UNL     1      -0.144  10.490  46.611  1.00  0.00     0.039 C 
ENDROOT
BRANCH   1   4
ATOM      4  C   UNL     1       2.398  10.936  46.249  1.00  0.00     0.034 C 
BRANCH   4   5
ATOM      5  C   UNL     1       3.028  11.338  47.589  1.00  0.00     0.032 C 
BRANCH   5   6
ATOM      6  C   UNL     1       4.373  11.986  47.374  1.00  0.00    -0.028 C 
ATOM      7  C   UNL     1       3.403  14.278  47.094  1.00  0.00     0.039 C 
ATOM      8  C   UNL     1       4.560  13.310  47.176  1.00  0.00    -0.080 C 
ATOM      9  C   UNL     1       5.968  13.820  47.016  1.00  0.00     0.039 C 
ENDBRANCH   5   6
ENDBRANCH   4   5
ENDBRANCH   1   4
BRANCH   2  10
ATOM     10  C   UNL     1      -0.665  13.251  45.530  1.00  0.00     0.035 C 
BRANCH  10  11
ATOM     11  C   UNL     1      -0.605  14.742  45.178  1.00  0.00     0.079 C 
BRANCH  11  12
ATOM     12  C   UNL     1      -0.951  15.606  46.364  1.00  0.00     0.130 C 
ATOM     13  O   UNL     1      -2.023  16.191  46.390  1.00  0.00    -0.300 OA
ATOM     14  C   UNL     1      -0.001  15.767  47.514  1.00  0.00     0.087 C 
ENDBRANCH  11  12
ENDBRANCH  10  11
ENDBRANCH   2  10
TORSDOF 6
ENDMDL
MODEL 4
REMARK VINA RESULT:    -6.086      2.537      5.861
REMARK INTER + INTRA:          -8.776
REMARK INTER:                  -8.258
REMARK INTRA:                  -0.518
REMARK UNBOUND:                -0.556
REMARK SMILES CC(=O)CCC=C(C)CCC=C(C)C
REMARK SMILES IDX 7 1 6 2 8 3 9 4 10 5 11 6 13 7 12 8 14 9 5 10 4 11 2 12 3 13
REMARK SMILES IDX 1 14
REMARK H PARENT
REMARK Flexibility Score: inf
ROOT
ATOM      1  C   UNL     1       2.775  11.244  46.847  1.00  0.00    -0.077 C 
ATOM      2  C   UNL     1       3.268  11.799  47.978  1.00  0.00    -0.028 C 
ATOM      3  C   UNL     1       3.659  10.504  45.870  1.00  0.00     0.039 C 
ENDROOT
BRANCH   1   4
ATOM      4  C   UNL     1       1.301  11.386  46.542  1.00  0.00     0.034 C 
BRANCH   4   5
ATOM      5  C   UNL     1       1.061  12.506  45.523  1.00  0.00     0.032 C 
BRANCH   5   6
ATOM      6  C   UNL     1       0.997  13.848  46.208  1.00  0.00    -0.028 C 
ATOM      7  C   UNL     1      -1.446  14.148  45.747  1.00  0.00     0.039 C 
ATOM      8  C   UNL     1      -0.127  14.587  46.339  1.00  0.00    -0.080 C 
ATOM      9  C   UNL     1      -0.046  15.893  47.085  1.00  0.00     0.039 C 
ENDBRANCH   5   6
ENDBRANCH   4   5
ENDBRANCH   1   4
BRANCH   2  10
ATOM     10  C   UNL     1       4.707  11.695  48.429  1.00  0.00     0.035 C 
BRANCH  10  11
ATOM     11  C   UNL     1       5.352  13.076  48.592  1.00  0.00     0.079 C 
BRANCH  11  12
ATOM     12  C   UNL     1       5.424  13.814  47.280  1.00  0.00     0.130 C 
ATOM     13  O   UNL     1       4.449  14.434  46.884  1.00  0.00    -0.300 OA
ATOM     14  C   UNL     1       6.670  13.800  46.445  1.00  0.00     0.087 C 
ENDBRANCH  11  12
ENDBRANCH  10  11
ENDBRANCH   2  10
TORSDOF 6
ENDMDL
MODEL 5
REMARK VINA RESULT:    -6.082      1.428      1.668
REMARK INTER + INTRA:          -8.771
REMARK INTER:                  -8.282
REMARK INTRA:                  -0.489
REMARK UNBOUND:                -0.556
REMARK SMILES CC(=O)CCC=C(C)CCC=C(C)C
REMARK SMILES IDX 7 1 6 2 8 3 9 4 10 5 11 6 13 7 12 8 14 9 5 10 4 11 2 12 3 13
REMARK SMILES IDX 1 14
REMARK H PARENT
REMARK Flexibility Score: inf
ROOT
ATOM      1  C   UNL     1       2.967  11.396  46.409  1.00  0.00    -0.077 C 
ATOM      2  C   UNL     1       1.896  12.200  46.595  1.00  0.00    -0.028 C 
ATOM      3  C   UNL     1       2.880  10.126  45.594  1.00  0.00     0.039 C 
ENDROOT
BRANCH   1   4
ATOM      4  C   UNL     1       4.285  11.767  47.052  1.00  0.00     0.034 C 
BRANCH   4   5
ATOM      5  C   UNL     1       4.390  13.285  47.238  1.00  0.00     0.032 C 
BRANCH   5   6
ATOM      6  C   UNL     1       5.723  13.659  47.840  1.00  0.00    -0.028 C 
ATOM      7  C   UNL     1       6.875  13.770  45.619  1.00  0.00     0.039 C 
ATOM      8  C   UNL     1       6.842  13.904  47.124  1.00  0.00    -0.080 C 
ATOM      9  C   UNL     1       8.093  14.307  47.861  1.00  0.00     0.039 C 
ENDBRANCH   5   6
ENDBRANCH   4   5
ENDBRANCH   1   4
BRANCH   2  10
ATOM     10  C   UNL     1       0.536  11.977  45.975  1.00  0.00     0.035 C 
BRANCH  10  11
ATOM     11  C   UNL     1       0.080  13.189  45.155  1.00  0.00     0.079 C 
BRANCH  11  12
ATOM     12  C   UNL     1      -1.119  13.860  45.775  1.00  0.00     0.130 C 
ATOM     13  O   UNL     1      -0.957  14.671  46.674  1.00  0.00    -0.300 OA
ATOM     14  C   UNL     1      -2.512  13.550  45.312  1.00  0.00     0.087 C 
ENDBRANCH  11  12
ENDBRANCH  10  11
ENDBRANCH   2  10
TORSDOF 6
ENDMDL
MODEL 6
REMARK VINA RESULT:    -6.013      2.453      4.534
REMARK INTER + INTRA:          -8.678
REMARK INTER:                  -7.778
REMARK INTRA:                  -0.899
REMARK UNBOUND:                -0.556
REMARK SMILES CC(=O)CCC=C(C)CCC=C(C)C
REMARK SMILES IDX 7 1 6 2 8 3 9 4 10 5 11 6 13 7 12 8 14 9 5 10 4 11 2 12 3 13
REMARK SMILES IDX 1 14
REMARK H PARENT
REMARK Flexibility Score: inf
ROOT
ATOM      1  C   UNL     1      -1.090  11.364  46.252  1.00  0.00    -0.077 C 
ATOM      2  C   UNL     1      -0.881  12.527  45.594  1.00  0.00    -0.028 C 
ATOM      3  C   UNL     1      -2.478  10.890  46.615  1.00  0.00     0.039 C 
ENDROOT
BRANCH   1   4
ATOM      4  C   UNL     1       0.101  10.524  46.654  1.00  0.00     0.034 C 
BRANCH   4   5
ATOM      5  C   UNL     1       1.324  10.866  45.794  1.00  0.00     0.032 C 
BRANCH   5   6
ATOM      6  C   UNL     1       2.571  10.934  46.640  1.00  0.00    -0.028 C 
ATOM      7  C   UNL     1       2.564  13.437  46.736  1.00  0.00     0.039 C 
ATOM      8  C   UNL     1       3.126  12.081  47.092  1.00  0.00    -0.080 C 
ATOM      9  C   UNL     1       4.352  11.991  47.964  1.00  0.00     0.039 C 
ENDBRANCH   5   6
ENDBRANCH   4   5
ENDBRANCH   1   4
BRANCH   2  10
ATOM     10  C   UNL     1      -1.977  13.439  45.093  1.00  0.00     0.035 C 
BRANCH  10  11
ATOM     11  C   UNL     1      -2.082  14.716  45.936  1.00  0.00     0.079 C 
BRANCH  11  12
ATOM     12  C   UNL     1      -0.769  15.453  45.994  1.00  0.00     0.130 C 
ATOM     13  O   UNL     1      -0.216  15.781  44.955  1.00  0.00    -0.300 OA
ATOM     14  C   UNL     1      -0.122  15.792  47.304  1.00  0.00     0.087 C 
ENDBRANCH  11  12
ENDBRANCH  10  11
ENDBRANCH   2  10
TORSDOF 6
ENDMDL
MODEL 7
REMARK VINA RESULT:    -5.963      3.245      5.693
REMARK INTER + INTRA:          -8.610
REMARK INTER:                  -7.680
REMARK INTRA:                  -0.929
REMARK UNBOUND:                -0.556
REMARK SMILES CC(=O)CCC=C(C)CCC=C(C)C
REMARK SMILES IDX 7 1 6 2 8 3 9 4 10 5 11 6 13 7 12 8 14 9 5 10 4 11 2 12 3 13
REMARK SMILES IDX 1 14
REMARK H PARENT
REMARK Flexibility Score: inf
ROOT
ATOM      1  C   UNL     1      -1.113  11.113  46.335  1.00  0.00    -0.077 C 
ATOM      2  C   UNL     1       0.170  11.111  45.908  1.00  0.00    -0.028 C 
ATOM      3  C   UNL     1      -1.630  10.084  47.314  1.00  0.00     0.039 C 
ENDROOT
BRANCH   1   4
ATOM      4  C   UNL     1      -2.063  12.162  45.803  1.00  0.00     0.034 C 
BRANCH   4   5
ATOM      5  C   UNL     1      -1.290  13.322  45.164  1.00  0.00     0.032 C 
BRANCH   5   6
ATOM      6  C   UNL     1      -1.134  14.462  46.139  1.00  0.00    -0.028 C 
ATOM      7  C   UNL     1       1.366  14.311  46.164  1.00  0.00     0.039 C 
ATOM      8  C   UNL     1       0.054  14.935  46.578  1.00  0.00    -0.080 C 
ATOM      9  C   UNL     1       0.055  16.109  47.522  1.00  0.00     0.039 C 
ENDBRANCH   5   6
ENDBRANCH   4   5
ENDBRANCH   1   4
BRANCH   2  10
ATOM     10  C   UNL     1       1.234  10.154  46.391  1.00  0.00     0.035 C 
BRANCH  10  11
ATOM     11  C   UNL     1       2.637  10.601  45.961  1.00  0.00     0.079 C 
BRANCH  11  12
ATOM     12  C   UNL     1       3.367  11.293  47.084  1.00  0.00     0.130 C 
ATOM     13  O   UNL     1       4.362  11.956  46.836  1.00  0.00    -0.300 OA
ATOM     14  C   UNL     1       2.897  11.182  48.504  1.00  0.00     0.087 C 
ENDBRANCH  11  12
ENDBRANCH  10  11
ENDBRANCH   2  10
TORSDOF 6
ENDMDL
MODEL 8
REMARK VINA RESULT:    -5.949      3.043      5.897
REMARK INTER + INTRA:          -8.592
REMARK INTER:                  -7.923
REMARK INTRA:                  -0.668
REMARK UNBOUND:                -0.556
REMARK SMILES CC(=O)CCC=C(C)CCC=C(C)C
REMARK SMILES IDX 7 1 6 2 8 3 9 4 10 5 11 6 13 7 12 8 14 9 5 10 4 11 2 12 3 13
REMARK SMILES IDX 1 14
REMARK H PARENT
REMARK Flexibility Score: inf
ROOT
ATOM      1  C   UNL     1       0.373  11.605  45.992  1.00  0.00    -0.077 C 
ATOM      2  C   UNL     1       1.676  11.525  45.639  1.00  0.00    -0.028 C 
ATOM      3  C   UNL     1      -0.353  10.447  46.635  1.00  0.00     0.039 C 
ENDROOT
BRANCH   1   4
ATOM      4  C   UNL     1      -0.385  12.885  45.716  1.00  0.00     0.034 C 
BRANCH   4   5
ATOM      5  C   UNL     1       0.583  14.042  45.440  1.00  0.00     0.032 C 
BRANCH   5   6
ATOM      6  C   UNL     1      -0.172  15.291  45.059  1.00  0.00    -0.028 C 
ATOM      7  C   UNL     1      -0.175  16.196  47.393  1.00  0.00     0.039 C 
ATOM      8  C   UNL     1      -0.498  16.280  45.920  1.00  0.00    -0.080 C 
ATOM      9  C   UNL     1      -1.219  17.490  45.385  1.00  0.00     0.039 C 
ENDBRANCH   5   6
ENDBRANCH   4   5
ENDBRANCH   1   4
BRANCH   2  10
ATOM     10  C   UNL     1       2.563  10.329  45.896  1.00  0.00     0.035 C 
BRANCH  10  11
ATOM     11  C   UNL     1       3.957  10.750  46.376  1.00  0.00     0.079 C 
BRANCH  11  12
ATOM     12  C   UNL     1       3.884  11.600  47.618  1.00  0.00     0.130 C 
ATOM     13  O   UNL     1       4.472  12.670  47.652  1.00  0.00    -0.300 OA
ATOM     14  C   UNL     1       3.104  11.156  48.821  1.00  0.00     0.087 C 
ENDBRANCH  11  12
ENDBRANCH  10  11
ENDBRANCH   2  10
TORSDOF 6
ENDMDL
MODEL 9
REMARK VINA RESULT:    -5.889      2.924      6.899
REMARK INTER + INTRA:          -8.510
REMARK INTER:                  -7.706
REMARK INTRA:                  -0.803
REMARK UNBOUND:                -0.556
REMARK SMILES CC(=O)CCC=C(C)CCC=C(C)C
REMARK SMILES IDX 7 1 6 2 8 3 9 4 10 5 11 6 13 7 12 8 14 9 5 10 4 11 2 12 3 13
REMARK SMILES IDX 1 14
REMARK H PARENT
REMARK Flexibility Score: inf
ROOT
ATOM      1  C   UNL     1       0.193  14.740  46.502  1.00  0.00    -0.077 C 
ATOM      2  C   UNL     1       1.286  14.035  46.132  1.00  0.00    -0.028 C 
ATOM      3  C   UNL     1       0.243  15.772  47.605  1.00  0.00     0.039 C 
ENDROOT
BRANCH   1   4
ATOM      4  C   UNL     1      -1.123  14.473  45.805  1.00  0.00     0.034 C 
BRANCH   4   5
ATOM      5  C   UNL     1      -1.107  13.102  45.119  1.00  0.00     0.032 C 
BRANCH   5   6
ATOM      6  C   UNL     1      -1.783  12.065  45.981  1.00  0.00    -0.028 C 
ATOM      7  C   UNL     1       0.293  10.687  46.233  1.00  0.00     0.039 C 
ATOM      8  C   UNL     1      -1.161  10.988  46.510  1.00  0.00    -0.080 C 
ATOM      9  C   UNL     1      -1.958  10.057  47.387  1.00  0.00     0.039 C 
ENDBRANCH   5   6
ENDBRANCH   4   5
ENDBRANCH   1   4
BRANCH   2  10
ATOM     10  C   UNL     1       2.669  14.231  46.709  1.00  0.00     0.035 C 
BRANCH  10  11
ATOM     11  C   UNL     1       3.334  12.893  47.056  1.00  0.00     0.079 C 
BRANCH  11  12
ATOM     12  C   UNL     1       4.729  13.089  47.593  1.00  0.00     0.130 C 
ATOM     13  O   UNL     1       5.498  13.838  47.010  1.00  0.00    -0.300 OA
ATOM     14  C   UNL     1       5.195  12.380  48.830  1.00  0.00     0.087 C 
ENDBRANCH  11  12
ENDBRANCH  10  11
ENDBRANCH   2  10
TORSDOF 6
ENDMDL
