MODEL 1
REMARK VINA RESULT:    -4.506      0.000      0.000
REMARK INTER + INTRA:          -7.975
REMARK INTER:                  -6.877
REMARK INTRA:                  -1.098
REMARK UNBOUND:                -1.098
REMARK SMILES CCCCCCCCCCC(=O)[O-]
REMARK SMILES IDX 7 1 8 2 9 3 10 4 11 5 12 6 13 7 6 8 5 9 4 10 3 11 2 12 1 13
REMARK H PARENT
REMARK Flexibility Score: inf
ROOT
ATOM      1  C   UNL     1      20.591  68.346  35.200  1.00  0.00     0.000 C 
ENDROOT
BRANCH   1   2
ATOM      2  C   UNL     1      20.479  69.625  36.051  1.00  0.00     0.000 C 
BRANCH   2   3
ATOM      3  C   UNL     1      19.544  70.674  35.416  1.00  0.00     0.006 C 
BRANCH   3   4
ATOM      4  C   UNL     1      18.153  70.122  35.062  1.00  0.00     0.053 C 
BRANCH   4   5
ATOM      5  C   UNL     1      17.916  70.077  33.586  1.00  0.00     0.041 C 
ATOM      6  O   UNL     1      18.795  70.498  32.788  1.00  0.00    -0.550 OA
ATOM      7  O   UNL     1      16.710  69.597  33.090  1.00  0.00    -0.550 OA
ENDBRANCH   4   5
ENDBRANCH   3   4
ENDBRANCH   2   3
ENDBRANCH   1   2
BRANCH   1   8
ATOM      8  C   UNL     1      20.771  67.081  36.052  1.00  0.00     0.000 C 
BRANCH   8   9
ATOM      9  C   UNL     1      19.793  65.958  35.664  1.00  0.00    -0.000 C 
BRANCH   9  10
ATOM     10  C   UNL     1      18.320  66.418  35.728  1.00  0.00    -0.000 C 
BRANCH  10  11
ATOM     11  C   UNL     1      17.627  66.468  34.353  1.00  0.00    -0.000 C 
BRANCH  11  12
ATOM     12  C   UNL     1      18.426  65.822  33.209  1.00  0.00    -0.003 C 
ATOM     13  C   UNL     1      19.054  66.851  32.271  1.00  0.00     0.004 C 
ENDBRANCH  11  12
ENDBRANCH  10  11
ENDBRANCH   9  10
ENDBRANCH   8   9
ENDBRANCH   1   8
TORSDOF 9
ENDMDL
MODEL 2
REMARK VINA RESULT:    -4.260     12.449     14.389
REMARK INTER + INTRA:          -7.600
REMARK INTER:                  -6.404
REMARK INTRA:                  -1.196
REMARK UNBOUND:                -1.098
REMARK SMILES CCCCCCCCCCC(=O)[O-]
REMARK SMILES IDX 7 1 8 2 9 3 10 4 11 5 12 6 13 7 6 8 5 9 4 10 3 11 2 12 1 13
REMARK H PARENT
REMARK Flexibility Score: inf
ROOT
ATOM      1  C   UNL     1       9.678  79.923  31.468  1.00  0.00     0.000 C 
ENDROOT
BRANCH   1   2
ATOM      2  C   UNL     1      11.149  79.540  31.709  1.00  0.00     0.000 C 
BRANCH   2   3
ATOM      3  C   UNL     1      11.403  78.031  31.519  1.00  0.00     0.006 C 
BRANCH   3   4
ATOM      4  C   UNL     1      10.238  77.148  31.994  1.00  0.00     0.053 C 
BRANCH   4   5
ATOM      5  C   UNL     1       9.726  76.249  30.914  1.00  0.00     0.041 C 
ATOM      6  O   UNL     1      10.130  76.386  29.729  1.00  0.00    -0.550 OA
ATOM      7  O   UNL     1       8.778  75.276  31.210  1.00  0.00    -0.550 OA
ENDBRANCH   4   5
ENDBRANCH   3   4
ENDBRANCH   2   3
ENDBRANCH   1   2
BRANCH   1   8
ATOM      8  C   UNL     1       9.100  80.795  32.593  1.00  0.00     0.000 C 
BRANCH   8   9
ATOM      9  C   UNL     1       7.971  80.095  33.368  1.00  0.00    -0.000 C 
BRANCH   9  10
ATOM     10  C   UNL     1       8.248  80.045  34.887  1.00  0.00    -0.000 C 
BRANCH  10  11
ATOM     11  C   UNL     1       9.727  79.790  35.237  1.00  0.00    -0.000 C 
BRANCH  11  12
ATOM     12  C   UNL     1      10.080  78.316  35.490  1.00  0.00    -0.003 C 
ATOM     13  C   UNL     1      11.587  78.074  35.576  1.00  0.00     0.004 C 
ENDBRANCH  11  12
ENDBRANCH  10  11
ENDBRANCH   9  10
ENDBRANCH   8   9
ENDBRANCH   1   8
TORSDOF 9
ENDMDL
MODEL 3
REMARK VINA RESULT:    -4.213     12.593     14.346
REMARK INTER + INTRA:          -7.528
REMARK INTER:                  -6.406
REMARK INTRA:                  -1.122
REMARK UNBOUND:                -1.098
REMARK SMILES CCCCCCCCCCC(=O)[O-]
REMARK SMILES IDX 7 1 8 2 9 3 10 4 11 5 12 6 13 7 6 8 5 9 4 10 3 11 2 12 1 13
REMARK H PARENT
REMARK Flexibility Score: inf
ROOT
ATOM      1  C   UNL     1       8.294  79.381  31.840  1.00  0.00     0.000 C 
ENDROOT
BRANCH   1   2
ATOM      2  C   UNL     1       7.566  79.757  33.144  1.00  0.00     0.000 C 
BRANCH   2   3
ATOM      3  C   UNL     1       8.544  80.090  34.289  1.00  0.00     0.006 C 
BRANCH   3   4
ATOM      4  C   UNL     1      10.021  80.049  33.866  1.00  0.00     0.053 C 
BRANCH   4   5
ATOM      5  C   UNL     1      10.862  79.247  34.808  1.00  0.00     0.041 C 
ATOM      6  O   UNL     1      11.651  79.824  35.602  1.00  0.00    -0.550 OA
ATOM      7  O   UNL     1      10.797  77.859  34.789  1.00  0.00    -0.550 OA
ENDBRANCH   4   5
ENDBRANCH   3   4
ENDBRANCH   2   3
ENDBRANCH   1   2
BRANCH   1   8
ATOM      8  C   UNL     1       7.983  77.949  31.380  1.00  0.00     0.000 C 
BRANCH   8   9
ATOM      9  C   UNL     1       8.953  76.910  31.970  1.00  0.00    -0.000 C 
BRANCH   9  10
ATOM     10  C   UNL     1      10.108  76.574  31.002  1.00  0.00    -0.000 C 
BRANCH  10  11
ATOM     11  C   UNL     1      11.402  77.361  31.286  1.00  0.00    -0.000 C 
BRANCH  11  12
ATOM     12  C   UNL     1      11.542  78.670  30.492  1.00  0.00    -0.003 C 
ATOM     13  C   UNL     1      10.878  78.604  29.117  1.00  0.00     0.004 C 
ENDBRANCH  11  12
ENDBRANCH  10  11
ENDBRANCH   9  10
ENDBRANCH   8   9
ENDBRANCH   1   8
TORSDOF 9
ENDMDL
MODEL 4
REMARK VINA RESULT:    -4.106     12.643     14.522
REMARK INTER + INTRA:          -7.365
REMARK INTER:                  -6.119
REMARK INTRA:                  -1.246
REMARK UNBOUND:                -1.098
REMARK SMILES CCCCCCCCCCC(=O)[O-]
REMARK SMILES IDX 7 1 8 2 9 3 10 4 11 5 12 6 13 7 6 8 5 9 4 10 3 11 2 12 1 13
REMARK H PARENT
REMARK Flexibility Score: inf
ROOT
ATOM      1  C   UNL     1      10.397  77.503  33.057  1.00  0.00     0.000 C 
ENDROOT
BRANCH   1   2
ATOM      2  C   UNL     1      11.279  77.506  31.796  1.00  0.00     0.000 C 
BRANCH   2   3
ATOM      3  C   UNL     1      11.597  78.933  31.304  1.00  0.00     0.006 C 
BRANCH   3   4
ATOM      4  C   UNL     1      10.418  79.613  30.590  1.00  0.00     0.053 C 
BRANCH   4   5
ATOM      5  C   UNL     1       9.946  78.838  29.402  1.00  0.00     0.041 C 
ATOM      6  O   UNL     1       8.720  78.599  29.245  1.00  0.00    -0.550 OA
ATOM      7  O   UNL     1      10.865  78.352  28.478  1.00  0.00    -0.550 OA
ENDBRANCH   4   5
ENDBRANCH   3   4
ENDBRANCH   2   3
ENDBRANCH   1   2
BRANCH   1   8
ATOM      8  C   UNL     1      11.197  77.774  34.341  1.00  0.00     0.000 C 
BRANCH   8   9
ATOM      9  C   UNL     1      10.554  78.857  35.224  1.00  0.00    -0.000 C 
BRANCH   9  10
ATOM     10  C   UNL     1      10.846  80.283  34.707  1.00  0.00    -0.000 C 
BRANCH  10  11
ATOM     11  C   UNL     1       9.662  80.923  33.958  1.00  0.00    -0.000 C 
BRANCH  11  12
ATOM     12  C   UNL     1       8.293  80.293  34.265  1.00  0.00    -0.003 C 
ATOM     13  C   UNL     1       7.562  79.823  33.008  1.00  0.00     0.004 C 
ENDBRANCH  11  12
ENDBRANCH  10  11
ENDBRANCH   9  10
ENDBRANCH   8   9
ENDBRANCH   1   8
TORSDOF 9
ENDMDL
MODEL 5
REMARK VINA RESULT:    -4.034     13.126     14.292
REMARK INTER + INTRA:          -7.255
REMARK INTER:                  -6.310
REMARK INTRA:                  -0.945
REMARK UNBOUND:                -1.098
REMARK SMILES CCCCCCCCCCC(=O)[O-]
REMARK SMILES IDX 7 1 8 2 9 3 10 4 11 5 12 6 13 7 6 8 5 9 4 10 3 11 2 12 1 13
REMARK H PARENT
REMARK Flexibility Score: inf
ROOT
ATOM      1  C   UNL     1      11.233  79.149  32.315  1.00  0.00     0.000 C 
ENDROOT
BRANCH   1   2
ATOM      2  C   UNL     1      10.782  77.994  33.227  1.00  0.00     0.000 C 
BRANCH   2   3
ATOM      3  C   UNL     1      10.041  78.492  34.485  1.00  0.00     0.006 C 
BRANCH   3   4
ATOM      4  C   UNL     1       9.605  79.964  34.398  1.00  0.00     0.053 C 
BRANCH   4   5
ATOM      5  C   UNL     1       8.162  80.111  34.034  1.00  0.00     0.041 C 
ATOM      6  O   UNL     1       7.795  80.000  32.834  1.00  0.00    -0.550 OA
ATOM      7  O   UNL     1       7.222  80.399  35.017  1.00  0.00    -0.550 OA
ENDBRANCH   4   5
ENDBRANCH   3   4
ENDBRANCH   2   3
ENDBRANCH   1   2
BRANCH   1   8
ATOM      8  C   UNL     1      11.573  78.682  30.892  1.00  0.00     0.000 C 
BRANCH   8   9
ATOM      9  C   UNL     1      10.473  79.028  29.873  1.00  0.00    -0.000 C 
BRANCH   9  10
ATOM     10  C   UNL     1       9.474  77.867  29.676  1.00  0.00    -0.000 C 
BRANCH  10  11
ATOM     11  C   UNL     1      10.149  76.494  29.495  1.00  0.00    -0.000 C 
BRANCH  11  12
ATOM     12  C   UNL     1       9.724  75.431  30.521  1.00  0.00    -0.003 C 
ATOM     13  C   UNL     1       8.589  75.902  31.428  1.00  0.00     0.004 C 
ENDBRANCH  11  12
ENDBRANCH  10  11
ENDBRANCH   9  10
ENDBRANCH   8   9
ENDBRANCH   1   8
TORSDOF 9
ENDMDL
MODEL 6
REMARK VINA RESULT:    -4.031     12.493     14.506
REMARK INTER + INTRA:          -7.250
REMARK INTER:                  -6.155
REMARK INTRA:                  -1.095
REMARK UNBOUND:                -1.098
REMARK SMILES CCCCCCCCCCC(=O)[O-]
REMARK SMILES IDX 7 1 8 2 9 3 10 4 11 5 12 6 13 7 6 8 5 9 4 10 3 11 2 12 1 13
REMARK H PARENT
REMARK Flexibility Score: inf
ROOT
ATOM      1  C   UNL     1       7.888  78.668  31.177  1.00  0.00     0.000 C 
ENDROOT
BRANCH   1   2
ATOM      2  C   UNL     1       7.954  77.168  31.517  1.00  0.00     0.000 C 
BRANCH   2   3
ATOM      3  C   UNL     1       9.399  76.682  31.753  1.00  0.00     0.006 C 
BRANCH   3   4
ATOM      4  C   UNL     1      10.238  76.604  30.467  1.00  0.00     0.053 C 
BRANCH   4   5
ATOM      5  C   UNL     1      11.101  77.810  30.275  1.00  0.00     0.041 C 
ATOM      6  O   UNL     1      11.926  78.148  31.164  1.00  0.00    -0.550 OA
ATOM      7  O   UNL     1      10.976  78.579  29.125  1.00  0.00    -0.550 OA
ENDBRANCH   4   5
ENDBRANCH   3   4
ENDBRANCH   2   3
ENDBRANCH   1   2
BRANCH   1   8
ATOM      8  C   UNL     1       8.060  79.564  32.413  1.00  0.00     0.000 C 
BRANCH   8   9
ATOM      9  C   UNL     1       9.385  80.346  32.401  1.00  0.00    -0.000 C 
BRANCH   9  10
ATOM     10  C   UNL     1      10.090  80.322  33.775  1.00  0.00    -0.000 C 
BRANCH  10  11
ATOM     11  C   UNL     1       9.308  79.555  34.858  1.00  0.00    -0.000 C 
BRANCH  11  12
ATOM     12  C   UNL     1      10.080  78.391  35.501  1.00  0.00    -0.003 C 
ATOM     13  C   UNL     1      11.259  77.919  34.652  1.00  0.00     0.004 C 
ENDBRANCH  11  12
ENDBRANCH  10  11
ENDBRANCH   9  10
ENDBRANCH   8   9
ENDBRANCH   1   8
TORSDOF 9
ENDMDL
MODEL 7
REMARK VINA RESULT:    -4.028     13.312     14.674
REMARK INTER + INTRA:          -7.246
REMARK INTER:                  -6.309
REMARK INTRA:                  -0.936
REMARK UNBOUND:                -1.098
REMARK SMILES CCCCCCCCCCC(=O)[O-]
REMARK SMILES IDX 7 1 8 2 9 3 10 4 11 5 12 6 13 7 6 8 5 9 4 10 3 11 2 12 1 13
REMARK H PARENT
REMARK Flexibility Score: inf
ROOT
ATOM      1  C   UNL     1      10.586  77.810  32.535  1.00  0.00     0.000 C 
ENDROOT
BRANCH   1   2
ATOM      2  C   UNL     1      10.527  77.708  34.070  1.00  0.00     0.000 C 
BRANCH   2   3
ATOM      3  C   UNL     1      10.633  79.085  34.756  1.00  0.00     0.006 C 
BRANCH   3   4
ATOM      4  C   UNL     1       9.287  79.619  35.272  1.00  0.00     0.053 C 
BRANCH   4   5
ATOM      5  C   UNL     1       8.472  80.252  34.189  1.00  0.00     0.041 C 
ATOM      6  O   UNL     1       7.237  80.019  34.104  1.00  0.00    -0.550 OA
ATOM      7  O   UNL     1       9.081  81.081  33.254  1.00  0.00    -0.550 OA
ENDBRANCH   4   5
ENDBRANCH   3   4
ENDBRANCH   2   3
ENDBRANCH   1   2
BRANCH   1   8
ATOM      8  C   UNL     1       9.816  76.680  31.835  1.00  0.00     0.000 C 
BRANCH   8   9
ATOM      9  C   UNL     1       8.369  77.072  31.489  1.00  0.00    -0.000 C 
BRANCH   9  10
ATOM     10  C   UNL     1       8.262  78.529  30.987  1.00  0.00    -0.000 C 
BRANCH  10  11
ATOM     11  C   UNL     1       8.593  78.693  29.491  1.00  0.00    -0.000 C 
BRANCH  11  12
ATOM     12  C   UNL     1       9.959  79.336  29.203  1.00  0.00    -0.003 C 
ATOM     13  C   UNL     1      11.008  78.322  28.750  1.00  0.00     0.004 C 
ENDBRANCH  11  12
ENDBRANCH  10  11
ENDBRANCH   9  10
ENDBRANCH   8   9
ENDBRANCH   1   8
TORSDOF 9
ENDMDL
MODEL 8
REMARK VINA RESULT:    -3.878     16.451     18.380
REMARK INTER + INTRA:          -7.017
REMARK INTER:                  -6.237
REMARK INTRA:                  -0.780
REMARK UNBOUND:                -1.098
REMARK SMILES CCCCCCCCCCC(=O)[O-]
REMARK SMILES IDX 7 1 8 2 9 3 10 4 11 5 12 6 13 7 6 8 5 9 4 10 3 11 2 12 1 13
REMARK H PARENT
REMARK Flexibility Score: inf
ROOT
ATOM      1  C   UNL     1      19.846  74.516  17.525  1.00  0.00     0.000 C 
ENDROOT
BRANCH   1   2
ATOM      2  C   UNL     1      19.891  75.165  18.920  1.00  0.00     0.000 C 
BRANCH   2   3
ATOM      3  C   UNL     1      19.549  74.167  20.045  1.00  0.00     0.006 C 
BRANCH   3   4
ATOM      4  C   UNL     1      18.781  72.930  19.555  1.00  0.00     0.053 C 
BRANCH   4   5
ATOM      5  C   UNL     1      17.319  73.006  19.863  1.00  0.00     0.041 C 
ATOM      6  O   UNL     1      16.775  72.127  20.582  1.00  0.00    -0.550 OA
ATOM      7  O   UNL     1      16.549  74.033  19.332  1.00  0.00    -0.550 OA
ENDBRANCH   4   5
ENDBRANCH   3   4
ENDBRANCH   2   3
ENDBRANCH   1   2
BRANCH   1   8
ATOM      8  C   UNL     1      21.043  74.912  16.648  1.00  0.00     0.000 C 
BRANCH   8   9
ATOM      9  C   UNL     1      21.547  76.337  16.935  1.00  0.00    -0.000 C 
BRANCH   9  10
ATOM     10  C   UNL     1      20.936  77.378  15.971  1.00  0.00    -0.000 C 
BRANCH  10  11
ATOM     11  C   UNL     1      19.795  78.204  16.596  1.00  0.00    -0.000 C 
BRANCH  11  12
ATOM     12  C   UNL     1      20.080  78.719  18.016  1.00  0.00    -0.003 C 
ATOM     13  C   UNL     1      20.492  80.191  18.041  1.00  0.00     0.004 C 
ENDBRANCH  11  12
ENDBRANCH  10  11
ENDBRANCH   9  10
ENDBRANCH   8   9
ENDBRANCH   1   8
TORSDOF 9
ENDMDL
MODEL 9
REMARK VINA RESULT:    -3.851     15.227     17.403
REMARK INTER + INTRA:          -6.976
REMARK INTER:                  -6.639
REMARK INTRA:                  -0.336
REMARK UNBOUND:                -1.098
REMARK SMILES CCCCCCCCCCC(=O)[O-]
REMARK SMILES IDX 7 1 8 2 9 3 10 4 11 5 12 6 13 7 6 8 5 9 4 10 3 11 2 12 1 13
REMARK H PARENT
REMARK Flexibility Score: inf
ROOT
ATOM      1  C   UNL     1      19.301  73.221  18.781  1.00  0.00     0.000 C 
ENDROOT
BRANCH   1   2
ATOM      2  C   UNL     1      18.640  71.993  18.129  1.00  0.00     0.000 C 
BRANCH   2   3
ATOM      3  C   UNL     1      18.965  70.683  18.875  1.00  0.00     0.006 C 
BRANCH   3   4
ATOM      4  C   UNL     1      17.855  69.625  18.771  1.00  0.00     0.053 C 
BRANCH   4   5
ATOM      5  C   UNL     1      16.999  69.574  19.997  1.00  0.00     0.041 C 
ATOM      6  O   UNL     1      16.377  68.521  20.293  1.00  0.00    -0.550 OA
ATOM      7  O   UNL     1      16.863  70.702  20.798  1.00  0.00    -0.550 OA
ENDBRANCH   4   5
ENDBRANCH   3   4
ENDBRANCH   2   3
ENDBRANCH   1   2
BRANCH   1   8
ATOM      8  C   UNL     1      19.858  74.213  17.749  1.00  0.00     0.000 C 
BRANCH   8   9
ATOM      9  C   UNL     1      20.421  75.490  18.395  1.00  0.00    -0.000 C 
BRANCH   9  10
ATOM     10  C   UNL     1      19.382  76.197  19.294  1.00  0.00    -0.000 C 
BRANCH  10  11
ATOM     11  C   UNL     1      19.118  77.662  18.900  1.00  0.00    -0.000 C 
BRANCH  11  12
ATOM     12  C   UNL     1      20.223  78.305  18.046  1.00  0.00    -0.003 C 
ATOM     13  C   UNL     1      20.220  79.831  18.125  1.00  0.00     0.004 C 
ENDBRANCH  11  12
ENDBRANCH  10  11
ENDBRANCH   9  10
ENDBRANCH   8   9
ENDBRANCH   1   8
TORSDOF 9
ENDMDL
