MODEL 1
REMARK VINA RESULT:    -9.950      0.000      0.000
REMARK INTER + INTRA:         -10.857
REMARK INTER:                 -10.823
REMARK INTRA:                  -0.034
REMARK UNBOUND:                -0.034
REMARK SMILES CC1(C)CC[C@@]2(C(=O)[O-])CC[C@]3(C)C(=CC[C@H]4[C@]5(C)CC[C@@H](O)C(C)(C)[C@@H]5CC[C@]43C)[C@H]2C1
REMARK SMILES IDX 6 1 5 2 10 3 32 4 4 5 11 6 14 7 33 8 2 9 12 10 15 11 1 12
REMARK SMILES IDX 3 13 13 14 30 15 16 16 17 17 29 18 31 19 18 20 28 21 27 22
REMARK SMILES IDX 20 23 19 24 24 25 21 26 22 27 25 28 26 29 7 30 8 31 9 32
REMARK SMILES IDX 23 33
REMARK H PARENT 23 34
REMARK Flexibility Score: inf
ROOT
ATOM      1  C   UNL     1      32.024   3.462  18.826  1.00  0.00     0.017 C 
ATOM      2  C   UNL     1      32.942   4.722  18.799  1.00  0.00     0.014 C 
ATOM      3  C   UNL     1      32.466   2.487  19.979  1.00  0.00     0.014 C 
ATOM      4  C   UNL     1      30.524   3.896  18.952  1.00  0.00     0.028 C 
ATOM      5  C   UNL     1      32.657   5.737  19.916  1.00  0.00     0.007 C 
ATOM      6  C   UNL     1      31.332   1.875  20.835  1.00  0.00     0.013 C 
ATOM      7  C   UNL     1      29.608   2.692  19.167  1.00  0.00    -0.064 C 
ATOM      8  C   UNL     1      30.262   4.962  20.044  1.00  0.00     0.015 C 
ATOM      9  C   UNL     1      31.183   6.199  19.952  1.00  0.00    -0.035 C 
ATOM     10  C   UNL     1      30.026   1.514  20.053  1.00  0.00    -0.006 C 
ATOM     11  C   UNL     1      28.355   2.728  18.668  1.00  0.00    -0.027 C 
ATOM     12  C   UNL     1      30.972   7.068  21.214  1.00  0.00     0.011 C 
ATOM     13  C   UNL     1      30.833   7.065  18.718  1.00  0.00     0.011 C 
ATOM     14  C   UNL     1      30.390   0.322  19.122  1.00  0.00     0.017 C 
ATOM     15  C   UNL     1      28.798   1.185  21.045  1.00  0.00    -0.020 C 
ATOM     16  C   UNL     1      27.390   1.583  18.837  1.00  0.00     0.032 C 
ATOM     17  C   UNL     1      27.443   0.900  20.245  1.00  0.00     0.006 C 
ATOM     18  C   UNL     1      29.123   0.003  22.003  1.00  0.00     0.008 C 
ATOM     19  C   UNL     1      28.528   2.436  21.967  1.00  0.00     0.012 C 
ATOM     20  C   UNL     1      26.841  -0.584  20.281  1.00  0.00    -0.025 C 
ATOM     21  C   UNL     1      27.875  -0.511  22.721  1.00  0.00     0.005 C 
ATOM     22  C   UNL     1      26.895  -1.216  21.751  1.00  0.00     0.003 C 
ATOM     23  C   UNL     1      25.371  -0.501  19.733  1.00  0.00     0.010 C 
ATOM     24  C   UNL     1      27.599  -1.557  19.331  1.00  0.00     0.012 C 
ATOM     25  C   UNL     1      25.498  -1.510  22.416  1.00  0.00    -0.006 C 
ATOM     26  C   UNL     1      24.481  -1.717  20.014  1.00  0.00     0.033 C 
ATOM     27  C   UNL     1      24.637  -2.348  21.416  1.00  0.00     0.120 C 
ATOM     28  C   UNL     1      24.757  -0.209  22.848  1.00  0.00     0.014 C 
ATOM     29  C   UNL     1      25.679  -2.367  23.702  1.00  0.00     0.014 C 
ENDROOT
BRANCH   1  30
ATOM     30  C   UNL     1      32.249   2.761  17.484  1.00  0.00     0.048 C 
ATOM     31  O   UNL     1      31.326   2.735  16.625  1.00  0.00    -0.550 OA
ATOM     32  O   UNL     1      33.449   2.124  17.185  1.00  0.00    -0.550 OA
ENDBRANCH   1  30
BRANCH  27  33
ATOM     33  O   UNL     1      25.194  -3.634  21.271  1.00  0.00    -0.393 OA
ATOM     34  H   UNL     1      26.152  -3.570  21.534  1.00  0.00     0.210 HD
ENDBRANCH  27  33
TORSDOF 2
ENDMDL
MODEL 2
REMARK VINA RESULT:    -9.766      2.246      4.537
REMARK INTER + INTRA:         -10.656
REMARK INTER:                 -10.388
REMARK INTRA:                  -0.269
REMARK UNBOUND:                -0.034
REMARK SMILES CC1(C)CC[C@@]2(C(=O)[O-])CC[C@]3(C)C(=CC[C@H]4[C@]5(C)CC[C@@H](O)C(C)(C)[C@@H]5CC[C@]43C)[C@H]2C1
REMARK SMILES IDX 6 1 5 2 10 3 32 4 4 5 11 6 14 7 33 8 2 9 12 10 15 11 1 12
REMARK SMILES IDX 3 13 13 14 30 15 16 16 17 17 29 18 31 19 18 20 28 21 27 22
REMARK SMILES IDX 20 23 19 24 24 25 21 26 22 27 25 28 26 29 7 30 8 31 9 32
REMARK SMILES IDX 23 33
REMARK H PARENT 23 34
REMARK Flexibility Score: inf
ROOT
ATOM      1  C   UNL     1      31.065   1.465  17.611  1.00  0.00     0.017 C 
ATOM      2  C   UNL     1      32.156   1.344  16.504  1.00  0.00     0.014 C 
ATOM      3  C   UNL     1      29.634   1.548  16.964  1.00  0.00     0.014 C 
ATOM      4  C   UNL     1      31.196   0.275  18.623  1.00  0.00     0.028 C 
ATOM      5  C   UNL     1      32.248  -0.046  15.855  1.00  0.00     0.007 C 
ATOM      6  C   UNL     1      28.529   0.692  17.626  1.00  0.00     0.013 C 
ATOM      7  C   UNL     1      30.036   0.253  19.616  1.00  0.00    -0.064 C 
ATOM      8  C   UNL     1      31.345  -1.113  17.952  1.00  0.00     0.015 C 
ATOM      9  C   UNL     1      32.457  -1.181  16.882  1.00  0.00    -0.035 C 
ATOM     10  C   UNL     1      28.605   0.594  19.186  1.00  0.00    -0.006 C 
ATOM     11  C   UNL     1      30.256  -0.199  20.868  1.00  0.00    -0.027 C 
ATOM     12  C   UNL     1      32.353  -2.536  16.145  1.00  0.00     0.011 C 
ATOM     13  C   UNL     1      33.861  -1.102  17.529  1.00  0.00     0.011 C 
ATOM     14  C   UNL     1      28.268   2.011  19.730  1.00  0.00     0.017 C 
ATOM     15  C   UNL     1      27.630  -0.552  19.768  1.00  0.00    -0.020 C 
ATOM     16  C   UNL     1      29.166  -0.253  21.906  1.00  0.00     0.032 C 
ATOM     17  C   UNL     1      27.773  -0.710  21.353  1.00  0.00     0.006 C 
ATOM     18  C   UNL     1      26.145  -0.308  19.377  1.00  0.00     0.008 C 
ATOM     19  C   UNL     1      28.029  -1.941  19.135  1.00  0.00     0.012 C 
ATOM     20  C   UNL     1      26.530  -0.288  22.270  1.00  0.00    -0.025 C 
ATOM     21  C   UNL     1      25.190  -1.200  20.171  1.00  0.00     0.005 C 
ATOM     22  C   UNL     1      25.140  -0.809  21.669  1.00  0.00     0.003 C 
ATOM     23  C   UNL     1      26.798  -0.863  23.707  1.00  0.00     0.010 C 
ATOM     24  C   UNL     1      26.411   1.255  22.440  1.00  0.00     0.012 C 
ATOM     25  C   UNL     1      24.378  -1.873  22.544  1.00  0.00    -0.006 C 
ATOM     26  C   UNL     1      25.590  -0.903  24.650  1.00  0.00     0.033 C 
ATOM     27  C   UNL     1      24.252  -1.323  24.002  1.00  0.00     0.120 C 
ATOM     28  C   UNL     1      25.072  -3.269  22.525  1.00  0.00     0.014 C 
ATOM     29  C   UNL     1      22.934  -2.087  22.002  1.00  0.00     0.014 C 
ENDROOT
BRANCH   1  30
ATOM     30  C   UNL     1      31.352   2.786  18.328  1.00  0.00     0.048 C 
ATOM     31  O   UNL     1      30.728   3.831  17.996  1.00  0.00    -0.550 OA
ATOM     32  O   UNL     1      32.307   2.878  19.336  1.00  0.00    -0.550 OA
ENDBRANCH   1  30
BRANCH  27  33
ATOM     33  O   UNL     1      23.377  -0.218  24.018  1.00  0.00    -0.393 OA
ATOM     34  H   UNL     1      23.755   0.463  23.398  1.00  0.00     0.210 HD
ENDBRANCH  27  33
TORSDOF 2
ENDMDL
MODEL 3
REMARK VINA RESULT:    -9.499      1.545      7.904
REMARK INTER + INTRA:         -10.366
REMARK INTER:                 -10.488
REMARK INTRA:                   0.122
REMARK UNBOUND:                -0.034
REMARK SMILES CC1(C)CC[C@@]2(C(=O)[O-])CC[C@]3(C)C(=CC[C@H]4[C@]5(C)CC[C@@H](O)C(C)(C)[C@@H]5CC[C@]43C)[C@H]2C1
REMARK SMILES IDX 6 1 5 2 10 3 32 4 4 5 11 6 14 7 33 8 2 9 12 10 15 11 1 12
REMARK SMILES IDX 3 13 13 14 30 15 16 16 17 17 29 18 31 19 18 20 28 21 27 22
REMARK SMILES IDX 20 23 19 24 24 25 21 26 22 27 25 28 26 29 7 30 8 31 9 32
REMARK SMILES IDX 23 33
REMARK H PARENT 23 34
REMARK Flexibility Score: inf
ROOT
ATOM      1  C   UNL     1      25.209  -0.384  21.394  1.00  0.00     0.017 C 
ATOM      2  C   UNL     1      24.163  -1.054  22.336  1.00  0.00     0.014 C 
ATOM      3  C   UNL     1      24.954   1.166  21.305  1.00  0.00     0.014 C 
ATOM      4  C   UNL     1      26.660  -0.723  21.880  1.00  0.00     0.028 C 
ATOM      5  C   UNL     1      24.414  -0.815  23.833  1.00  0.00     0.007 C 
ATOM      6  C   UNL     1      26.201   2.076  21.391  1.00  0.00     0.013 C 
ATOM      7  C   UNL     1      27.711   0.062  21.096  1.00  0.00    -0.064 C 
ATOM      8  C   UNL     1      26.880  -0.531  23.401  1.00  0.00     0.015 C 
ATOM      9  C   UNL     1      25.829  -1.238  24.285  1.00  0.00    -0.035 C 
ATOM     10  C   UNL     1      27.482   1.519  20.685  1.00  0.00    -0.006 C 
ATOM     11  C   UNL     1      28.917  -0.503  20.876  1.00  0.00    -0.027 C 
ATOM     12  C   UNL     1      26.032  -0.788  25.750  1.00  0.00     0.011 C 
ATOM     13  C   UNL     1      26.000  -2.776  24.235  1.00  0.00     0.011 C 
ATOM     14  C   UNL     1      27.185   1.543  19.158  1.00  0.00     0.017 C 
ATOM     15  C   UNL     1      28.803   2.356  21.081  1.00  0.00    -0.020 C 
ATOM     16  C   UNL     1      30.007   0.205  20.113  1.00  0.00     0.032 C 
ATOM     17  C   UNL     1      30.123   1.735  20.428  1.00  0.00     0.006 C 
ATOM     18  C   UNL     1      28.671   3.862  20.714  1.00  0.00     0.008 C 
ATOM     19  C   UNL     1      29.000   2.301  22.645  1.00  0.00     0.012 C 
ATOM     20  C   UNL     1      30.880   2.583  19.300  1.00  0.00    -0.025 C 
ATOM     21  C   UNL     1      30.012   4.591  20.798  1.00  0.00     0.005 C 
ATOM     22  C   UNL     1      30.994   4.132  19.692  1.00  0.00     0.003 C 
ATOM     23  C   UNL     1      32.293   1.926  19.095  1.00  0.00     0.010 C 
ATOM     24  C   UNL     1      30.167   2.507  17.918  1.00  0.00     0.012 C 
ATOM     25  C   UNL     1      32.456   4.668  19.924  1.00  0.00    -0.006 C 
ATOM     26  C   UNL     1      33.324   2.773  18.342  1.00  0.00     0.033 C 
ATOM     27  C   UNL     1      33.332   4.279  18.689  1.00  0.00     0.120 C 
ATOM     28  C   UNL     1      33.082   4.140  21.250  1.00  0.00     0.014 C 
ATOM     29  C   UNL     1      32.454   6.222  20.020  1.00  0.00     0.014 C 
ENDROOT
BRANCH   1  30
ATOM     30  C   UNL     1      24.970  -0.997  20.012  1.00  0.00     0.048 C 
ATOM     31  O   UNL     1      24.875  -0.250  19.000  1.00  0.00    -0.550 OA
ATOM     32  O   UNL     1      24.834  -2.370  19.836  1.00  0.00    -0.550 OA
ENDBRANCH   1  30
BRANCH  27  33
ATOM     33  O   UNL     1      32.905   5.004  17.558  1.00  0.00    -0.393 OA
ATOM     34  H   UNL     1      33.706   5.153  16.986  1.00  0.00     0.210 HD
ENDBRANCH  27  33
TORSDOF 2
ENDMDL
MODEL 4
REMARK VINA RESULT:    -9.160      1.704      3.055
REMARK INTER + INTRA:          -9.997
REMARK INTER:                  -9.745
REMARK INTRA:                  -0.252
REMARK UNBOUND:                -0.034
REMARK SMILES CC1(C)CC[C@@]2(C(=O)[O-])CC[C@]3(C)C(=CC[C@H]4[C@]5(C)CC[C@@H](O)C(C)(C)[C@@H]5CC[C@]43C)[C@H]2C1
REMARK SMILES IDX 6 1 5 2 10 3 32 4 4 5 11 6 14 7 33 8 2 9 12 10 15 11 1 12
REMARK SMILES IDX 3 13 13 14 30 15 16 16 17 17 29 18 31 19 18 20 28 21 27 22
REMARK SMILES IDX 20 23 19 24 24 25 21 26 22 27 25 28 26 29 7 30 8 31 9 32
REMARK SMILES IDX 23 33
REMARK H PARENT 23 34
REMARK Flexibility Score: inf
ROOT
ATOM      1  C   UNL     1      32.968   5.525  19.614  1.00  0.00     0.017 C 
ATOM      2  C   UNL     1      33.338   7.021  19.376  1.00  0.00     0.014 C 
ATOM      3  C   UNL     1      32.257   5.352  21.007  1.00  0.00     0.014 C 
ATOM      4  C   UNL     1      32.093   4.995  18.427  1.00  0.00     0.028 C 
ATOM      5  C   UNL     1      32.146   7.917  19.004  1.00  0.00     0.007 C 
ATOM      6  C   UNL     1      31.010   4.439  21.035  1.00  0.00     0.013 C 
ATOM      7  C   UNL     1      31.556   3.593  18.709  1.00  0.00    -0.064 C 
ATOM      8  C   UNL     1      30.930   5.937  18.027  1.00  0.00     0.015 C 
ATOM      9  C   UNL     1      31.360   7.400  17.779  1.00  0.00    -0.035 C 
ATOM     10  C   UNL     1      31.083   3.181  20.106  1.00  0.00    -0.006 C 
ATOM     11  C   UNL     1      31.377   2.743  17.676  1.00  0.00    -0.027 C 
ATOM     12  C   UNL     1      30.091   8.266  17.609  1.00  0.00     0.011 C 
ATOM     13  C   UNL     1      32.195   7.524  16.481  1.00  0.00     0.011 C 
ATOM     14  C   UNL     1      32.165   2.247  20.720  1.00  0.00     0.017 C 
ATOM     15  C   UNL     1      29.648   2.462  19.948  1.00  0.00    -0.020 C 
ATOM     16  C   UNL     1      30.852   1.344  17.869  1.00  0.00     0.032 C 
ATOM     17  C   UNL     1      29.707   1.229  18.932  1.00  0.00     0.006 C 
ATOM     18  C   UNL     1      29.067   2.010  21.318  1.00  0.00     0.008 C 
ATOM     19  C   UNL     1      28.615   3.494  19.352  1.00  0.00     0.012 C 
ATOM     20  C   UNL     1      29.501  -0.247  19.520  1.00  0.00    -0.025 C 
ATOM     21  C   UNL     1      27.876   1.067  21.152  1.00  0.00     0.005 C 
ATOM     22  C   UNL     1      28.298  -0.308  20.576  1.00  0.00     0.003 C 
ATOM     23  C   UNL     1      29.255  -1.203  18.298  1.00  0.00     0.010 C 
ATOM     24  C   UNL     1      30.774  -0.785  20.237  1.00  0.00     0.012 C 
ATOM     25  C   UNL     1      27.064  -1.187  20.150  1.00  0.00    -0.006 C 
ATOM     26  C   UNL     1      28.674  -2.582  18.631  1.00  0.00     0.033 C 
ATOM     27  C   UNL     1      27.581  -2.599  19.723  1.00  0.00     0.120 C 
ATOM     28  C   UNL     1      26.223  -0.526  19.016  1.00  0.00     0.014 C 
ATOM     29  C   UNL     1      26.101  -1.391  21.356  1.00  0.00     0.014 C 
ENDROOT
BRANCH   1  30
ATOM     30  C   UNL     1      34.300   4.773  19.651  1.00  0.00     0.048 C 
ATOM     31  O   UNL     1      34.904   4.614  20.747  1.00  0.00    -0.550 OA
ATOM     32  O   UNL     1      34.885   4.267  18.494  1.00  0.00    -0.550 OA
ENDBRANCH   1  30
BRANCH  27  33
ATOM     33  O   UNL     1      28.081  -3.282  20.850  1.00  0.00    -0.393 OA
ATOM     34  H   UNL     1      28.399  -4.171  20.537  1.00  0.00     0.210 HD
ENDBRANCH  27  33
TORSDOF 2
ENDMDL
MODEL 5
REMARK VINA RESULT:    -9.131      1.817      8.082
REMARK INTER + INTRA:          -9.965
REMARK INTER:                  -9.910
REMARK INTRA:                  -0.055
REMARK UNBOUND:                -0.034
REMARK SMILES CC1(C)CC[C@@]2(C(=O)[O-])CC[C@]3(C)C(=CC[C@H]4[C@]5(C)CC[C@@H](O)C(C)(C)[C@@H]5CC[C@]43C)[C@H]2C1
REMARK SMILES IDX 6 1 5 2 10 3 32 4 4 5 11 6 14 7 33 8 2 9 12 10 15 11 1 12
REMARK SMILES IDX 3 13 13 14 30 15 16 16 17 17 29 18 31 19 18 20 28 21 27 22
REMARK SMILES IDX 20 23 19 24 24 25 21 26 22 27 25 28 26 29 7 30 8 31 9 32
REMARK SMILES IDX 23 33
REMARK H PARENT 23 34
REMARK Flexibility Score: inf
ROOT
ATOM      1  C   UNL     1      26.295  -0.480  22.401  1.00  0.00     0.017 C 
ATOM      2  C   UNL     1      25.501  -1.781  22.729  1.00  0.00     0.014 C 
ATOM      3  C   UNL     1      27.716  -0.520  23.075  1.00  0.00     0.014 C 
ATOM      4  C   UNL     1      26.376  -0.279  20.849  1.00  0.00     0.028 C 
ATOM      5  C   UNL     1      25.961  -3.018  21.942  1.00  0.00     0.007 C 
ATOM      6  C   UNL     1      28.905  -0.056  22.203  1.00  0.00     0.013 C 
ATOM      7  C   UNL     1      27.299   0.881  20.481  1.00  0.00    -0.064 C 
ATOM      8  C   UNL     1      26.785  -1.551  20.066  1.00  0.00     0.015 C 
ATOM      9  C   UNL     1      25.948  -2.802  20.413  1.00  0.00    -0.035 C 
ATOM     10  C   UNL     1      28.601   1.143  21.244  1.00  0.00    -0.006 C 
ATOM     11  C   UNL     1      27.023   1.611  19.380  1.00  0.00    -0.027 C 
ATOM     12  C   UNL     1      26.595  -4.033  19.738  1.00  0.00     0.011 C 
ATOM     13  C   UNL     1      24.502  -2.674  19.874  1.00  0.00     0.011 C 
ATOM     14  C   UNL     1      28.380   2.385  22.154  1.00  0.00     0.017 C 
ATOM     15  C   UNL     1      29.773   1.360  20.157  1.00  0.00    -0.020 C 
ATOM     16  C   UNL     1      27.884   2.769  18.949  1.00  0.00     0.032 C 
ATOM     17  C   UNL     1      29.421   2.529  19.125  1.00  0.00     0.006 C 
ATOM     18  C   UNL     1      31.151   1.624  20.829  1.00  0.00     0.008 C 
ATOM     19  C   UNL     1      29.944   0.041  19.309  1.00  0.00     0.012 C 
ATOM     20  C   UNL     1      30.296   3.870  19.173  1.00  0.00    -0.025 C 
ATOM     21  C   UNL     1      32.188   2.132  19.828  1.00  0.00     0.005 C 
ATOM     22  C   UNL     1      31.860   3.559  19.324  1.00  0.00     0.003 C 
ATOM     23  C   UNL     1      29.983   4.676  17.862  1.00  0.00     0.010 C 
ATOM     24  C   UNL     1      29.894   4.800  20.355  1.00  0.00     0.012 C 
ATOM     25  C   UNL     1      32.758   3.988  18.104  1.00  0.00    -0.006 C 
ATOM     26  C   UNL     1      30.966   5.800  17.515  1.00  0.00     0.033 C 
ATOM     27  C   UNL     1      32.457   5.483  17.764  1.00  0.00     0.120 C 
ATOM     28  C   UNL     1      32.550   3.072  16.859  1.00  0.00     0.014 C 
ATOM     29  C   UNL     1      34.265   3.891  18.480  1.00  0.00     0.014 C 
ENDROOT
BRANCH   1  30
ATOM     30  C   UNL     1      25.491   0.661  23.029  1.00  0.00     0.048 C 
ATOM     31  O   UNL     1      25.360   0.724  24.282  1.00  0.00    -0.550 OA
ATOM     32  O   UNL     1      24.875   1.635  22.250  1.00  0.00    -0.550 OA
ENDBRANCH   1  30
BRANCH  27  33
ATOM     33  O   UNL     1      32.925   6.310  18.806  1.00  0.00    -0.393 OA
ATOM     34  H   UNL     1      33.313   5.713  19.501  1.00  0.00     0.210 HD
ENDBRANCH  27  33
TORSDOF 2
ENDMDL
MODEL 6
REMARK VINA RESULT:    -9.065      1.372      7.895
REMARK INTER + INTRA:          -9.894
REMARK INTER:                  -9.874
REMARK INTRA:                  -0.020
REMARK UNBOUND:                -0.034
REMARK SMILES CC1(C)CC[C@@]2(C(=O)[O-])CC[C@]3(C)C(=CC[C@H]4[C@]5(C)CC[C@@H](O)C(C)(C)[C@@H]5CC[C@]43C)[C@H]2C1
REMARK SMILES IDX 6 1 5 2 10 3 32 4 4 5 11 6 14 7 33 8 2 9 12 10 15 11 1 12
REMARK SMILES IDX 3 13 13 14 30 15 16 16 17 17 29 18 31 19 18 20 28 21 27 22
REMARK SMILES IDX 20 23 19 24 24 25 21 26 22 27 25 28 26 29 7 30 8 31 9 32
REMARK SMILES IDX 23 33
REMARK H PARENT 23 34
REMARK Flexibility Score: inf
ROOT
ATOM      1  C   UNL     1      26.150  -2.258  20.873  1.00  0.00     0.017 C 
ATOM      2  C   UNL     1      25.011  -2.928  21.701  1.00  0.00     0.014 C 
ATOM      3  C   UNL     1      25.544  -1.346  19.743  1.00  0.00     0.014 C 
ATOM      4  C   UNL     1      27.111  -1.468  21.826  1.00  0.00     0.028 C 
ATOM      5  C   UNL     1      24.307  -1.984  22.688  1.00  0.00     0.007 C 
ATOM      6  C   UNL     1      26.199   0.041  19.552  1.00  0.00     0.013 C 
ATOM      7  C   UNL     1      28.132  -0.648  21.040  1.00  0.00    -0.064 C 
ATOM      8  C   UNL     1      26.383  -0.565  22.852  1.00  0.00     0.015 C 
ATOM      9  C   UNL     1      25.284  -1.288  23.662  1.00  0.00    -0.035 C 
ATOM     10  C   UNL     1      27.752   0.078  19.745  1.00  0.00    -0.006 C 
ATOM     11  C   UNL     1      29.359  -0.455  21.566  1.00  0.00    -0.027 C 
ATOM     12  C   UNL     1      24.497  -0.236  24.477  1.00  0.00     0.011 C 
ATOM     13  C   UNL     1      25.898  -2.299  24.661  1.00  0.00     0.011 C 
ATOM     14  C   UNL     1      28.359  -0.719  18.555  1.00  0.00     0.017 C 
ATOM     15  C   UNL     1      28.313   1.587  19.843  1.00  0.00    -0.020 C 
ATOM     16  C   UNL     1      30.422   0.342  20.854  1.00  0.00     0.032 C 
ATOM     17  C   UNL     1      29.886   1.621  20.126  1.00  0.00     0.006 C 
ATOM     18  C   UNL     1      27.970   2.420  18.576  1.00  0.00     0.008 C 
ATOM     19  C   UNL     1      27.617   2.320  21.053  1.00  0.00     0.012 C 
ATOM     20  C   UNL     1      30.851   2.174  18.973  1.00  0.00    -0.025 C 
ATOM     21  C   UNL     1      28.753   3.732  18.525  1.00  0.00     0.005 C 
ATOM     22  C   UNL     1      30.266   3.498  18.288  1.00  0.00     0.003 C 
ATOM     23  C   UNL     1      32.258   2.426  19.626  1.00  0.00     0.010 C 
ATOM     24  C   UNL     1      31.084   1.132  17.841  1.00  0.00     0.012 C 
ATOM     25  C   UNL     1      31.118   4.806  18.499  1.00  0.00    -0.006 C 
ATOM     26  C   UNL     1      33.228   3.292  18.815  1.00  0.00     0.033 C 
ATOM     27  C   UNL     1      32.598   4.506  18.098  1.00  0.00     0.120 C 
ATOM     28  C   UNL     1      31.026   5.348  19.958  1.00  0.00     0.014 C 
ATOM     29  C   UNL     1      30.605   5.943  17.569  1.00  0.00     0.014 C 
ENDROOT
BRANCH   1  30
ATOM     30  C   UNL     1      26.910  -3.410  20.212  1.00  0.00     0.048 C 
ATOM     31  O   UNL     1      26.319  -4.168  19.395  1.00  0.00    -0.550 OA
ATOM     32  O   UNL     1      28.247  -3.664  20.501  1.00  0.00    -0.550 OA
ENDBRANCH   1  30
BRANCH  27  33
ATOM     33  O   UNL     1      32.679   4.298  16.706  1.00  0.00    -0.393 OA
ATOM     34  H   UNL     1      33.457   4.824  16.376  1.00  0.00     0.210 HD
ENDBRANCH  27  33
TORSDOF 2
ENDMDL
MODEL 7
REMARK VINA RESULT:    -8.873      2.218      8.135
REMARK INTER + INTRA:          -9.685
REMARK INTER:                  -9.450
REMARK INTRA:                  -0.234
REMARK UNBOUND:                -0.034
REMARK SMILES CC1(C)CC[C@@]2(C(=O)[O-])CC[C@]3(C)C(=CC[C@H]4[C@]5(C)CC[C@@H](O)C(C)(C)[C@@H]5CC[C@]43C)[C@H]2C1
REMARK SMILES IDX 6 1 5 2 10 3 32 4 4 5 11 6 14 7 33 8 2 9 12 10 15 11 1 12
REMARK SMILES IDX 3 13 13 14 30 15 16 16 17 17 29 18 31 19 18 20 28 21 27 22
REMARK SMILES IDX 20 23 19 24 24 25 21 26 22 27 25 28 26 29 7 30 8 31 9 32
REMARK SMILES IDX 23 33
REMARK H PARENT 23 34
REMARK Flexibility Score: inf
ROOT
ATOM      1  C   UNL     1      27.494  -1.390  20.422  1.00  0.00     0.017 C 
ATOM      2  C   UNL     1      27.061  -2.858  20.717  1.00  0.00     0.014 C 
ATOM      3  C   UNL     1      28.209  -0.766  21.677  1.00  0.00     0.014 C 
ATOM      4  C   UNL     1      28.392  -1.344  19.139  1.00  0.00     0.028 C 
ATOM      5  C   UNL     1      28.215  -3.873  20.702  1.00  0.00     0.007 C 
ATOM      6  C   UNL     1      29.494   0.049  21.403  1.00  0.00     0.013 C 
ATOM      7  C   UNL     1      28.987   0.046  18.920  1.00  0.00    -0.064 C 
ATOM      8  C   UNL     1      29.514  -2.411  19.114  1.00  0.00     0.015 C 
ATOM      9  C   UNL     1      29.024  -3.850  19.386  1.00  0.00    -0.035 C 
ATOM     10  C   UNL     1      29.475   0.903  20.092  1.00  0.00    -0.006 C 
ATOM     11  C   UNL     1      29.203   0.472  17.658  1.00  0.00    -0.027 C 
ATOM     12  C   UNL     1      30.256  -4.770  19.552  1.00  0.00     0.011 C 
ATOM     13  C   UNL     1      28.187  -4.389  18.201  1.00  0.00     0.011 C 
ATOM     14  C   UNL     1      28.432   2.035  20.322  1.00  0.00     0.017 C 
ATOM     15  C   UNL     1      30.939   1.465  19.715  1.00  0.00    -0.020 C 
ATOM     16  C   UNL     1      29.787   1.828  17.357  1.00  0.00     0.032 C 
ATOM     17  C   UNL     1      30.934   2.264  18.330  1.00  0.00     0.006 C 
ATOM     18  C   UNL     1      31.536   2.345  20.849  1.00  0.00     0.008 C 
ATOM     19  C   UNL     1      31.929   0.250  19.535  1.00  0.00     0.012 C 
ATOM     20  C   UNL     1      31.201   3.844  18.367  1.00  0.00    -0.025 C 
ATOM     21  C   UNL     1      32.766   3.124  20.382  1.00  0.00     0.005 C 
ATOM     22  C   UNL     1      32.403   4.224  19.355  1.00  0.00     0.003 C 
ATOM     23  C   UNL     1      31.489   4.300  16.892  1.00  0.00     0.010 C 
ATOM     24  C   UNL     1      29.951   4.648  18.829  1.00  0.00     0.012 C 
ATOM     25  C   UNL     1      33.674   4.849  18.667  1.00  0.00    -0.006 C 
ATOM     26  C   UNL     1      32.126   5.684  16.730  1.00  0.00     0.033 C 
ATOM     27  C   UNL     1      33.218   6.040  17.764  1.00  0.00     0.120 C 
ATOM     28  C   UNL     1      34.488   3.800  17.850  1.00  0.00     0.014 C 
ATOM     29  C   UNL     1      34.643   5.425  19.741  1.00  0.00     0.014 C 
ENDROOT
BRANCH   1  30
ATOM     30  C   UNL     1      26.194  -0.621  20.171  1.00  0.00     0.048 C 
ATOM     31  O   UNL     1      25.692  -0.593  19.014  1.00  0.00    -0.550 OA
ATOM     32  O   UNL     1      25.550   0.075  21.189  1.00  0.00    -0.550 OA
ENDBRANCH   1  30
BRANCH  27  33
ATOM     33  O   UNL     1      32.745   7.094  18.572  1.00  0.00    -0.393 OA
ATOM     34  H   UNL     1      31.924   6.768  19.029  1.00  0.00     0.210 HD
ENDBRANCH  27  33
TORSDOF 2
ENDMDL
MODEL 8
REMARK VINA RESULT:    -8.529      2.724      7.826
REMARK INTER + INTRA:          -9.311
REMARK INTER:                  -9.415
REMARK INTRA:                   0.104
REMARK UNBOUND:                -0.034
REMARK SMILES CC1(C)CC[C@@]2(C(=O)[O-])CC[C@]3(C)C(=CC[C@H]4[C@]5(C)CC[C@@H](O)C(C)(C)[C@@H]5CC[C@]43C)[C@H]2C1
REMARK SMILES IDX 6 1 5 2 10 3 32 4 4 5 11 6 14 7 33 8 2 9 12 10 15 11 1 12
REMARK SMILES IDX 3 13 13 14 30 15 16 16 17 17 29 18 31 19 18 20 28 21 27 22
REMARK SMILES IDX 20 23 19 24 24 25 21 26 22 27 25 28 26 29 7 30 8 31 9 32
REMARK SMILES IDX 23 33
REMARK H PARENT 23 34
REMARK Flexibility Score: inf
ROOT
ATOM      1  C   UNL     1      26.666   0.429  21.628  1.00  0.00     0.017 C 
ATOM      2  C   UNL     1      25.395  -0.104  22.357  1.00  0.00     0.014 C 
ATOM      3  C   UNL     1      27.925   0.309  22.564  1.00  0.00     0.014 C 
ATOM      4  C   UNL     1      26.858  -0.325  20.268  1.00  0.00     0.028 C 
ATOM      5  C   UNL     1      25.315  -1.635  22.452  1.00  0.00     0.007 C 
ATOM      6  C   UNL     1      29.219  -0.229  21.911  1.00  0.00     0.013 C 
ATOM      7  C   UNL     1      28.189   0.036  19.610  1.00  0.00    -0.064 C 
ATOM      8  C   UNL     1      26.718  -1.863  20.371  1.00  0.00     0.015 C 
ATOM      9  C   UNL     1      25.428  -2.334  21.079  1.00  0.00    -0.035 C 
ATOM     10  C   UNL     1      29.464   0.234  20.436  1.00  0.00    -0.006 C 
ATOM     11  C   UNL     1      28.268   0.055  18.264  1.00  0.00    -0.027 C 
ATOM     12  C   UNL     1      25.519  -3.860  21.310  1.00  0.00     0.011 C 
ATOM     13  C   UNL     1      24.180  -2.062  20.204  1.00  0.00     0.011 C 
ATOM     14  C   UNL     1      29.760   1.759  20.500  1.00  0.00     0.017 C 
ATOM     15  C   UNL     1      30.645  -0.607  19.727  1.00  0.00    -0.020 C 
ATOM     16  C   UNL     1      29.543   0.400  17.538  1.00  0.00     0.032 C 
ATOM     17  C   UNL     1      30.836  -0.192  18.195  1.00  0.00     0.006 C 
ATOM     18  C   UNL     1      31.991  -0.484  20.496  1.00  0.00     0.008 C 
ATOM     19  C   UNL     1      30.269  -2.139  19.740  1.00  0.00     0.012 C 
ATOM     20  C   UNL     1      32.188   0.557  17.776  1.00  0.00    -0.025 C 
ATOM     21  C   UNL     1      33.168  -1.012  19.676  1.00  0.00     0.005 C 
ATOM     22  C   UNL     1      33.476  -0.112  18.454  1.00  0.00     0.003 C 
ATOM     23  C   UNL     1      32.270   0.527  16.208  1.00  0.00     0.010 C 
ATOM     24  C   UNL     1      32.184   2.062  18.177  1.00  0.00     0.012 C 
ATOM     25  C   UNL     1      34.499  -0.776  17.458  1.00  0.00    -0.006 C 
ATOM     26  C   UNL     1      33.639   0.853  15.601  1.00  0.00     0.033 C 
ATOM     27  C   UNL     1      34.856   0.260  16.344  1.00  0.00     0.120 C 
ATOM     28  C   UNL     1      33.957  -2.103  16.843  1.00  0.00     0.014 C 
ATOM     29  C   UNL     1      35.820  -1.136  18.198  1.00  0.00     0.014 C 
ENDROOT
BRANCH   1  30
ATOM     30  C   UNL     1      26.397   1.912  21.364  1.00  0.00     0.048 C 
ATOM     31  O   UNL     1      25.312   2.270  20.830  1.00  0.00    -0.550 OA
ATOM     32  O   UNL     1      27.333   2.892  21.682  1.00  0.00    -0.550 OA
ENDBRANCH   1  30
BRANCH  27  33
ATOM     33  O   UNL     1      35.602   1.318  16.902  1.00  0.00    -0.393 OA
ATOM     34  H   UNL     1      36.528   1.243  16.548  1.00  0.00     0.210 HD
ENDBRANCH  27  33
TORSDOF 2
ENDMDL
MODEL 9
REMARK VINA RESULT:    -8.410      3.688      7.801
REMARK INTER + INTRA:          -9.181
REMARK INTER:                  -8.916
REMARK INTRA:                  -0.265
REMARK UNBOUND:                -0.034
REMARK SMILES CC1(C)CC[C@@]2(C(=O)[O-])CC[C@]3(C)C(=CC[C@H]4[C@]5(C)CC[C@@H](O)C(C)(C)[C@@H]5CC[C@]43C)[C@H]2C1
REMARK SMILES IDX 6 1 5 2 10 3 32 4 4 5 11 6 14 7 33 8 2 9 12 10 15 11 1 12
REMARK SMILES IDX 3 13 13 14 30 15 16 16 17 17 29 18 31 19 18 20 28 21 27 22
REMARK SMILES IDX 20 23 19 24 24 25 21 26 22 27 25 28 26 29 7 30 8 31 9 32
REMARK SMILES IDX 23 33
REMARK H PARENT 23 34
REMARK Flexibility Score: inf
ROOT
ATOM      1  C   UNL     1      31.906  -1.430  19.010  1.00  0.00     0.017 C 
ATOM      2  C   UNL     1      32.466  -2.834  19.394  1.00  0.00     0.014 C 
ATOM      3  C   UNL     1      30.994  -0.869  20.162  1.00  0.00     0.014 C 
ATOM      4  C   UNL     1      33.087  -0.462  18.658  1.00  0.00     0.028 C 
ATOM      5  C   UNL     1      33.602  -2.802  20.428  1.00  0.00     0.007 C 
ATOM      6  C   UNL     1      31.192   0.618  20.535  1.00  0.00     0.013 C 
ATOM      7  C   UNL     1      32.597   0.970  18.454  1.00  0.00    -0.064 C 
ATOM      8  C   UNL     1      34.250  -0.484  19.680  1.00  0.00     0.015 C 
ATOM      9  C   UNL     1      34.781  -1.898  20.003  1.00  0.00    -0.035 C 
ATOM     10  C   UNL     1      31.495   1.573  19.332  1.00  0.00    -0.006 C 
ATOM     11  C   UNL     1      33.237   1.760  17.568  1.00  0.00    -0.027 C 
ATOM     12  C   UNL     1      35.772  -1.797  21.185  1.00  0.00     0.011 C 
ATOM     13  C   UNL     1      35.543  -2.498  18.797  1.00  0.00     0.011 C 
ATOM     14  C   UNL     1      30.191   1.636  18.485  1.00  0.00     0.017 C 
ATOM     15  C   UNL     1      31.996   3.025  19.824  1.00  0.00    -0.020 C 
ATOM     16  C   UNL     1      32.816   3.183  17.310  1.00  0.00     0.032 C 
ATOM     17  C   UNL     1      32.387   3.970  18.594  1.00  0.00     0.006 C 
ATOM     18  C   UNL     1      30.950   3.725  20.737  1.00  0.00     0.008 C 
ATOM     19  C   UNL     1      33.298   2.854  20.698  1.00  0.00     0.012 C 
ATOM     20  C   UNL     1      31.473   5.253  18.306  1.00  0.00    -0.025 C 
ATOM     21  C   UNL     1      31.274   5.204  20.949  1.00  0.00     0.005 C 
ATOM     22  C   UNL     1      31.092   6.031  19.653  1.00  0.00     0.003 C 
ATOM     23  C   UNL     1      32.262   6.170  17.304  1.00  0.00     0.010 C 
ATOM     24  C   UNL     1      30.139   4.885  17.592  1.00  0.00     0.012 C 
ATOM     25  C   UNL     1      31.674   7.489  19.783  1.00  0.00    -0.006 C 
ATOM     26  C   UNL     1      31.756   7.610  17.170  1.00  0.00     0.033 C 
ATOM     27  C   UNL     1      31.314   8.286  18.487  1.00  0.00     0.120 C 
ATOM     28  C   UNL     1      33.211   7.497  20.043  1.00  0.00     0.014 C 
ATOM     29  C   UNL     1      31.016   8.231  20.982  1.00  0.00     0.014 C 
ENDROOT
BRANCH   1  30
ATOM     30  C   UNL     1      31.038  -1.659  17.770  1.00  0.00     0.048 C 
ATOM     31  O   UNL     1      29.798  -1.854  17.897  1.00  0.00    -0.550 OA
ATOM     32  O   UNL     1      31.584  -1.678  16.490  1.00  0.00    -0.550 OA
ENDBRANCH   1  30
BRANCH  27  33
ATOM     33  O   UNL     1      29.923   8.505  18.436  1.00  0.00    -0.393 OA
ATOM     34  H   UNL     1      29.492   7.780  18.964  1.00  0.00     0.210 HD
ENDBRANCH  27  33
TORSDOF 2
ENDMDL
