MODEL 1
REMARK VINA RESULT:    -4.632      0.000      0.000
REMARK INTER + INTRA:          -9.426
REMARK INTER:                  -8.693
REMARK INTRA:                  -0.733
REMARK UNBOUND:                -0.733
REMARK SMILES O=C([O-])CCCCCCCCCCCCCCC(=O)[O-]
REMARK SMILES IDX 10 1 9 2 8 3 7 4 6 5 5 6 4 7 2 8 1 9 3 10 11 11 12 12 13 13
REMARK SMILES IDX 14 14 15 15 16 16 17 17 18 18 19 19 20 20
REMARK H PARENT
REMARK Flexibility Score: inf
ROOT
ATOM      1  C   UNL     1     110.894 102.991 111.759  1.00  0.00     0.000 C 
ENDROOT
BRANCH   1   2
ATOM      2  C   UNL     1     110.017 103.611 110.664  1.00  0.00     0.000 C 
BRANCH   2   3
ATOM      3  C   UNL     1     108.904 104.476 111.275  1.00  0.00     0.000 C 
BRANCH   3   4
ATOM      4  C   UNL     1     108.919 105.924 110.757  1.00  0.00     0.000 C 
BRANCH   4   5
ATOM      5  C   UNL     1     108.364 106.978 111.740  1.00  0.00     0.000 C 
BRANCH   5   6
ATOM      6  C   UNL     1     107.342 106.445 112.760  1.00  0.00     0.006 C 
BRANCH   6   7
ATOM      7  C   UNL     1     106.059 107.284 112.813  1.00  0.00     0.053 C 
BRANCH   7   8
ATOM      8  C   UNL     1     105.153 106.784 113.892  1.00  0.00     0.041 C 
ATOM      9  O   UNL     1     104.367 105.825 113.667  1.00  0.00    -0.550 OA
ATOM     10  O   UNL     1     105.210 107.342 115.164  1.00  0.00    -0.550 OA
ENDBRANCH   7   8
ENDBRANCH   6   7
ENDBRANCH   5   6
ENDBRANCH   4   5
ENDBRANCH   3   4
ENDBRANCH   2   3
ENDBRANCH   1   2
BRANCH   1  11
ATOM     11  C   UNL     1     111.936 102.037 111.156  1.00  0.00     0.000 C 
BRANCH  11  12
ATOM     12  C   UNL     1     113.292 102.110 111.876  1.00  0.00     0.000 C 
BRANCH  12  13
ATOM     13  C   UNL     1     114.287 103.045 111.165  1.00  0.00     0.000 C 
BRANCH  13  14
ATOM     14  C   UNL     1     114.436 104.401 111.874  1.00  0.00     0.000 C 
BRANCH  14  15
ATOM     15  C   UNL     1     114.911 104.256 113.330  1.00  0.00     0.000 C 
BRANCH  15  16
ATOM     16  C   UNL     1     116.159 105.104 113.630  1.00  0.00     0.006 C 
BRANCH  16  17
ATOM     17  C   UNL     1     117.314 104.822 112.660  1.00  0.00     0.053 C 
BRANCH  17  18
ATOM     18  C   UNL     1     118.620 105.216 113.274  1.00  0.00     0.041 C 
ATOM     19  O   UNL     1     119.365 106.050 112.697  1.00  0.00    -0.550 OA
ATOM     20  O   UNL     1     119.035 104.629 114.463  1.00  0.00    -0.550 OA
ENDBRANCH  17  18
ENDBRANCH  16  17
ENDBRANCH  15  16
ENDBRANCH  14  15
ENDBRANCH  13  14
ENDBRANCH  12  13
ENDBRANCH  11  12
ENDBRANCH   1  11
TORSDOF 15
ENDMDL
MODEL 2
REMARK VINA RESULT:    -4.511      0.309      9.769
REMARK INTER + INTRA:          -9.200
REMARK INTER:                  -8.402
REMARK INTRA:                  -0.798
REMARK UNBOUND:                -0.733
REMARK SMILES O=C([O-])CCCCCCCCCCCCCCC(=O)[O-]
REMARK SMILES IDX 10 1 9 2 8 3 7 4 6 5 5 6 4 7 2 8 1 9 3 10 11 11 12 12 13 13
REMARK SMILES IDX 14 14 15 15 16 16 17 17 18 18 19 19 20 20
REMARK H PARENT
REMARK Flexibility Score: inf
ROOT
ATOM      1  C   UNL     1     111.757 101.958 111.139  1.00  0.00     0.000 C 
ENDROOT
BRANCH   1   2
ATOM      2  C   UNL     1     113.059 102.167 111.922  1.00  0.00     0.000 C 
BRANCH   2   3
ATOM      3  C   UNL     1     114.011 103.103 111.164  1.00  0.00     0.000 C 
BRANCH   3   4
ATOM      4  C   UNL     1     114.270 104.425 111.908  1.00  0.00     0.000 C 
BRANCH   4   5
ATOM      5  C   UNL     1     114.913 104.276 113.303  1.00  0.00     0.000 C 
BRANCH   5   6
ATOM      6  C   UNL     1     116.183 105.115 113.530  1.00  0.00     0.006 C 
BRANCH   6   7
ATOM      7  C   UNL     1     117.407 104.555 112.794  1.00  0.00     0.053 C 
BRANCH   7   8
ATOM      8  C   UNL     1     118.662 105.172 113.324  1.00  0.00     0.041 C 
ATOM      9  O   UNL     1     119.215 106.118 112.702  1.00  0.00    -0.550 OA
ATOM     10  O   UNL     1     119.194 104.739 114.532  1.00  0.00    -0.550 OA
ENDBRANCH   7   8
ENDBRANCH   6   7
ENDBRANCH   5   6
ENDBRANCH   4   5
ENDBRANCH   3   4
ENDBRANCH   2   3
ENDBRANCH   1   2
BRANCH   1  11
ATOM     11  C   UNL     1     110.603 102.754 111.767  1.00  0.00     0.000 C 
BRANCH  11  12
ATOM     12  C   UNL     1     110.381 104.113 111.084  1.00  0.00     0.000 C 
BRANCH  12  13
ATOM     13  C   UNL     1     108.895 104.396 110.803  1.00  0.00     0.000 C 
BRANCH  13  14
ATOM     14  C   UNL     1     108.591 105.898 110.677  1.00  0.00     0.000 C 
BRANCH  14  15
ATOM     15  C   UNL     1     108.556 106.608 112.041  1.00  0.00     0.000 C 
BRANCH  15  16
ATOM     16  C   UNL     1     107.368 106.160 112.910  1.00  0.00     0.006 C 
BRANCH  16  17
ATOM     17  C   UNL     1     106.209 107.164 112.890  1.00  0.00     0.053 C 
BRANCH  17  18
ATOM     18  C   UNL     1     105.163 106.773 113.888  1.00  0.00     0.041 C 
ATOM     19  O   UNL     1     105.176 107.268 115.045  1.00  0.00    -0.550 OA
ATOM     20  O   UNL     1     104.202 105.827 113.554  1.00  0.00    -0.550 OA
ENDBRANCH  17  18
ENDBRANCH  16  17
ENDBRANCH  15  16
ENDBRANCH  14  15
ENDBRANCH  13  14
ENDBRANCH  12  13
ENDBRANCH  11  12
ENDBRANCH   1  11
TORSDOF 15
ENDMDL
MODEL 3
REMARK VINA RESULT:    -4.238      1.735      9.215
REMARK INTER + INTRA:          -8.687
REMARK INTER:                  -7.695
REMARK INTRA:                  -0.992
REMARK UNBOUND:                -0.733
REMARK SMILES O=C([O-])CCCCCCCCCCCCCCC(=O)[O-]
REMARK SMILES IDX 10 1 9 2 8 3 7 4 6 5 5 6 4 7 2 8 1 9 3 10 11 11 12 12 13 13
REMARK SMILES IDX 14 14 15 15 16 16 17 17 18 18 19 19 20 20
REMARK H PARENT
REMARK Flexibility Score: inf
ROOT
ATOM      1  C   UNL     1     114.096 102.419 111.168  1.00  0.00     0.000 C 
ENDROOT
BRANCH   1   2
ATOM      2  C   UNL     1     115.013 103.648 111.186  1.00  0.00     0.000 C 
BRANCH   2   3
ATOM      3  C   UNL     1     114.503 104.699 112.184  1.00  0.00     0.000 C 
BRANCH   3   4
ATOM      4  C   UNL     1     115.322 104.735 113.486  1.00  0.00     0.000 C 
BRANCH   4   5
ATOM      5  C   UNL     1     116.251 105.958 113.642  1.00  0.00     0.000 C 
BRANCH   5   6
ATOM      6  C   UNL     1     117.626 105.826 112.962  1.00  0.00     0.006 C 
BRANCH   6   7
ATOM      7  C   UNL     1     118.257 104.441 113.159  1.00  0.00     0.053 C 
BRANCH   7   8
ATOM      8  C   UNL     1     119.091 104.420 114.400  1.00  0.00     0.041 C 
ATOM      9  O   UNL     1     119.027 103.441 115.191  1.00  0.00    -0.550 OA
ATOM     10  O   UNL     1     119.978 105.458 114.660  1.00  0.00    -0.550 OA
ENDBRANCH   7   8
ENDBRANCH   6   7
ENDBRANCH   5   6
ENDBRANCH   4   5
ENDBRANCH   3   4
ENDBRANCH   2   3
ENDBRANCH   1   2
BRANCH   1  11
ATOM     11  C   UNL     1     113.443 102.199 112.541  1.00  0.00     0.000 C 
BRANCH  11  12
ATOM     12  C   UNL     1     111.908 102.247 112.479  1.00  0.00     0.000 C 
BRANCH  12  13
ATOM     13  C   UNL     1     111.352 101.661 111.169  1.00  0.00     0.000 C 
BRANCH  13  14
ATOM     14  C   UNL     1     110.250 102.534 110.549  1.00  0.00     0.000 C 
BRANCH  14  15
ATOM     15  C   UNL     1     110.218 103.953 111.143  1.00  0.00     0.000 C 
BRANCH  15  16
ATOM     16  C   UNL     1     108.934 104.717 110.778  1.00  0.00     0.006 C 
BRANCH  16  17
ATOM     17  C   UNL     1     109.109 106.239 110.858  1.00  0.00     0.053 C 
BRANCH  17  18
ATOM     18  C   UNL     1     108.086 106.834 111.775  1.00  0.00     0.041 C 
ATOM     19  O   UNL     1     107.885 106.330 112.911  1.00  0.00    -0.550 OA
ATOM     20  O   UNL     1     107.323 107.917 111.357  1.00  0.00    -0.550 OA
ENDBRANCH  17  18
ENDBRANCH  16  17
ENDBRANCH  15  16
ENDBRANCH  14  15
ENDBRANCH  13  14
ENDBRANCH  12  13
ENDBRANCH  11  12
ENDBRANCH   1  11
TORSDOF 15
ENDMDL
MODEL 4
REMARK VINA RESULT:    -3.991      1.685      9.132
REMARK INTER + INTRA:          -8.223
REMARK INTER:                  -6.993
REMARK INTRA:                  -1.230
REMARK UNBOUND:                -0.733
REMARK SMILES O=C([O-])CCCCCCCCCCCCCCC(=O)[O-]
REMARK SMILES IDX 10 1 9 2 8 3 7 4 6 5 5 6 4 7 2 8 1 9 3 10 11 11 12 12 13 13
REMARK SMILES IDX 14 14 15 15 16 16 17 17 18 18 19 19 20 20
REMARK H PARENT
REMARK Flexibility Score: inf
ROOT
ATOM      1  C   UNL     1     113.969 102.414 111.105  1.00  0.00     0.000 C 
ENDROOT
BRANCH   1   2
ATOM      2  C   UNL     1     114.846 103.671 111.046  1.00  0.00     0.000 C 
BRANCH   2   3
ATOM      3  C   UNL     1     114.109 104.883 111.633  1.00  0.00     0.000 C 
BRANCH   3   4
ATOM      4  C   UNL     1     114.859 105.526 112.813  1.00  0.00     0.000 C 
BRANCH   4   5
ATOM      5  C   UNL     1     115.659 104.543 113.695  1.00  0.00     0.000 C 
BRANCH   5   6
ATOM      6  C   UNL     1     117.156 104.869 113.844  1.00  0.00     0.006 C 
BRANCH   6   7
ATOM      7  C   UNL     1     117.940 104.676 112.540  1.00  0.00     0.053 C 
BRANCH   7   8
ATOM      8  C   UNL     1     119.022 105.702 112.425  1.00  0.00     0.041 C 
ATOM      9  O   UNL     1     119.795 105.920 113.395  1.00  0.00    -0.550 OA
ATOM     10  O   UNL     1     119.211 106.383 111.228  1.00  0.00    -0.550 OA
ENDBRANCH   7   8
ENDBRANCH   6   7
ENDBRANCH   5   6
ENDBRANCH   4   5
ENDBRANCH   3   4
ENDBRANCH   2   3
ENDBRANCH   1   2
BRANCH   1  11
ATOM     11  C   UNL     1     113.364 102.231 112.505  1.00  0.00     0.000 C 
BRANCH  11  12
ATOM     12  C   UNL     1     111.827 102.257 112.493  1.00  0.00     0.000 C 
BRANCH  12  13
ATOM     13  C   UNL     1     111.238 101.684 111.192  1.00  0.00     0.000 C 
BRANCH  13  14
ATOM     14  C   UNL     1     110.212 102.625 110.540  1.00  0.00     0.000 C 
BRANCH  14  15
ATOM     15  C   UNL     1     110.160 104.003 111.222  1.00  0.00     0.000 C 
BRANCH  15  16
ATOM     16  C   UNL     1     109.043 104.898 110.659  1.00  0.00     0.006 C 
BRANCH  16  17
ATOM     17  C   UNL     1     109.212 106.372 111.050  1.00  0.00     0.053 C 
BRANCH  17  18
ATOM     18  C   UNL     1     108.024 106.846 111.826  1.00  0.00     0.041 C 
ATOM     19  O   UNL     1     107.861 106.481 113.020  1.00  0.00    -0.550 OA
ATOM     20  O   UNL     1     107.071 107.653 111.217  1.00  0.00    -0.550 OA
ENDBRANCH  17  18
ENDBRANCH  16  17
ENDBRANCH  15  16
ENDBRANCH  14  15
ENDBRANCH  13  14
ENDBRANCH  12  13
ENDBRANCH  11  12
ENDBRANCH   1  11
TORSDOF 15
ENDMDL
MODEL 5
REMARK VINA RESULT:    -3.908      1.133      9.963
REMARK INTER + INTRA:          -8.068
REMARK INTER:                  -7.499
REMARK INTRA:                  -0.569
REMARK UNBOUND:                -0.733
REMARK SMILES O=C([O-])CCCCCCCCCCCCCCC(=O)[O-]
REMARK SMILES IDX 10 1 9 2 8 3 7 4 6 5 5 6 4 7 2 8 1 9 3 10 11 11 12 12 13 13
REMARK SMILES IDX 14 14 15 15 16 16 17 17 18 18 19 19 20 20
REMARK H PARENT
REMARK Flexibility Score: inf
ROOT
ATOM      1  C   UNL     1     110.691 103.340 110.885  1.00  0.00     0.000 C 
ENDROOT
BRANCH   1   2
ATOM      2  C   UNL     1     111.298 102.384 111.920  1.00  0.00     0.000 C 
BRANCH   2   3
ATOM      3  C   UNL     1     112.707 101.943 111.498  1.00  0.00     0.000 C 
BRANCH   3   4
ATOM      4  C   UNL     1     113.818 102.623 112.318  1.00  0.00     0.000 C 
BRANCH   4   5
ATOM      5  C   UNL     1     114.487 103.835 111.635  1.00  0.00     0.000 C 
BRANCH   5   6
ATOM      6  C   UNL     1     116.007 103.950 111.851  1.00  0.00     0.006 C 
BRANCH   6   7
ATOM      7  C   UNL     1     116.371 104.674 113.153  1.00  0.00     0.053 C 
BRANCH   7   8
ATOM      8  C   UNL     1     117.854 104.843 113.259  1.00  0.00     0.041 C 
ATOM      9  O   UNL     1     118.481 105.496 112.383  1.00  0.00    -0.550 OA
ATOM     10  O   UNL     1     118.538 104.325 114.352  1.00  0.00    -0.550 OA
ENDBRANCH   7   8
ENDBRANCH   6   7
ENDBRANCH   5   6
ENDBRANCH   4   5
ENDBRANCH   3   4
ENDBRANCH   2   3
ENDBRANCH   1   2
BRANCH   1  11
ATOM     11  C   UNL     1     109.525 104.138 111.491  1.00  0.00     0.000 C 
BRANCH  11  12
ATOM     12  C   UNL     1     108.879 105.099 110.481  1.00  0.00     0.000 C 
BRANCH  12  13
ATOM     13  C   UNL     1     108.471 106.438 111.121  1.00  0.00     0.000 C 
BRANCH  13  14
ATOM     14  C   UNL     1     108.036 106.287 112.587  1.00  0.00     0.000 C 
BRANCH  14  15
ATOM     15  C   UNL     1     106.781 107.113 112.918  1.00  0.00     0.000 C 
BRANCH  15  16
ATOM     16  C   UNL     1     105.769 106.331 113.773  1.00  0.00     0.006 C 
BRANCH  16  17
ATOM     17  C   UNL     1     104.639 107.219 114.310  1.00  0.00     0.053 C 
BRANCH  17  18
ATOM     18  C   UNL     1     104.880 107.556 115.749  1.00  0.00     0.041 C 
ATOM     19  O   UNL     1     104.413 106.821 116.658  1.00  0.00    -0.550 OA
ATOM     20  O   UNL     1     105.582 108.706 116.085  1.00  0.00    -0.550 OA
ENDBRANCH  17  18
ENDBRANCH  16  17
ENDBRANCH  15  16
ENDBRANCH  14  15
ENDBRANCH  13  14
ENDBRANCH  12  13
ENDBRANCH  11  12
ENDBRANCH   1  11
TORSDOF 15
ENDMDL
MODEL 6
REMARK VINA RESULT:    -3.591      1.254      2.085
REMARK INTER + INTRA:          -7.473
REMARK INTER:                  -6.674
REMARK INTRA:                  -0.800
REMARK UNBOUND:                -0.733
REMARK SMILES O=C([O-])CCCCCCCCCCCCCCC(=O)[O-]
REMARK SMILES IDX 10 1 9 2 8 3 7 4 6 5 5 6 4 7 2 8 1 9 3 10 11 11 12 12 13 13
REMARK SMILES IDX 14 14 15 15 16 16 17 17 18 18 19 19 20 20
REMARK H PARENT
REMARK Flexibility Score: inf
ROOT
ATOM      1  C   UNL     1     112.151 102.411 111.950  1.00  0.00     0.000 C 
ENDROOT
BRANCH   1   2
ATOM      2  C   UNL     1     111.132 101.624 111.116  1.00  0.00     0.000 C 
BRANCH   2   3
ATOM      3  C   UNL     1     109.896 102.482 110.808  1.00  0.00     0.000 C 
BRANCH   3   4
ATOM      4  C   UNL     1     110.117 103.977 111.098  1.00  0.00     0.000 C 
BRANCH   4   5
ATOM      5  C   UNL     1     108.946 104.902 110.701  1.00  0.00     0.000 C 
BRANCH   5   6
ATOM      6  C   UNL     1     109.208 106.406 110.894  1.00  0.00     0.006 C 
BRANCH   6   7
ATOM      7  C   UNL     1     107.934 107.196 111.220  1.00  0.00     0.053 C 
BRANCH   7   8
ATOM      8  C   UNL     1     107.424 106.828 112.577  1.00  0.00     0.041 C 
ATOM      9  O   UNL     1     108.213 106.381 113.451  1.00  0.00    -0.550 OA
ATOM     10  O   UNL     1     106.086 107.025 112.895  1.00  0.00    -0.550 OA
ENDBRANCH   7   8
ENDBRANCH   6   7
ENDBRANCH   5   6
ENDBRANCH   4   5
ENDBRANCH   3   4
ENDBRANCH   2   3
ENDBRANCH   1   2
BRANCH   1  11
ATOM     11  C   UNL     1     113.587 102.102 111.498  1.00  0.00     0.000 C 
BRANCH  11  12
ATOM     12  C   UNL     1     114.506 103.332 111.570  1.00  0.00     0.000 C 
BRANCH  12  13
ATOM     13  C   UNL     1     114.518 103.978 112.967  1.00  0.00     0.000 C 
BRANCH  13  14
ATOM     14  C   UNL     1     114.922 105.460 112.932  1.00  0.00     0.000 C 
BRANCH  14  15
ATOM     15  C   UNL     1     116.236 105.731 113.683  1.00  0.00     0.000 C 
BRANCH  15  16
ATOM     16  C   UNL     1     117.153 104.497 113.734  1.00  0.00     0.006 C 
BRANCH  16  17
ATOM     17  C   UNL     1     118.248 104.530 112.659  1.00  0.00     0.053 C 
BRANCH  17  18
ATOM     18  C   UNL     1     119.211 105.643 112.931  1.00  0.00     0.041 C 
ATOM     19  O   UNL     1     119.372 106.562 112.085  1.00  0.00    -0.550 OA
ATOM     20  O   UNL     1     119.966 105.641 114.097  1.00  0.00    -0.550 OA
ENDBRANCH  17  18
ENDBRANCH  16  17
ENDBRANCH  15  16
ENDBRANCH  14  15
ENDBRANCH  13  14
ENDBRANCH  12  13
ENDBRANCH  11  12
ENDBRANCH   1  11
TORSDOF 15
ENDMDL
