MODEL 1
REMARK VINA RESULT:    -5.146      0.000      0.000
REMARK INTER + INTRA:          -8.685
REMARK INTER:                  -7.853
REMARK INTRA:                  -0.832
REMARK UNBOUND:                -0.832
REMARK SMILES O=C([O-])CCCCCCCCC(=O)[O-]
REMARK SMILES IDX 7 1 6 2 5 3 4 4 2 5 1 6 3 7 8 8 9 9 10 10 11 11 12 12 13 13
REMARK SMILES IDX 14 14
REMARK H PARENT
REMARK Flexibility Score: inf
ROOT
ATOM      1  C   UNL     1     -11.730  -9.979  11.524  1.00  0.00     0.000 C 
ENDROOT
BRANCH   1   2
ATOM      2  C   UNL     1     -12.931 -10.909  11.273  1.00  0.00     0.000 C 
BRANCH   2   3
ATOM      3  C   UNL     1     -12.685 -12.041  10.259  1.00  0.00     0.006 C 
BRANCH   3   4
ATOM      4  C   UNL     1     -11.249 -12.580  10.298  1.00  0.00     0.053 C 
BRANCH   4   5
ATOM      5  C   UNL     1     -11.015 -13.525   9.163  1.00  0.00     0.041 C 
ATOM      6  O   UNL     1     -10.596 -14.692   9.385  1.00  0.00    -0.550 OA
ATOM      7  O   UNL     1     -11.211 -13.103   7.854  1.00  0.00    -0.550 OA
ENDBRANCH   4   5
ENDBRANCH   3   4
ENDBRANCH   2   3
ENDBRANCH   1   2
BRANCH   1   8
ATOM      8  C   UNL     1     -11.762  -8.710  10.656  1.00  0.00     0.000 C 
BRANCH   8   9
ATOM      9  C   UNL     1     -10.991  -8.866   9.333  1.00  0.00     0.000 C 
BRANCH   9  10
ATOM     10  C   UNL     1      -9.548  -9.386   9.472  1.00  0.00     0.006 C 
BRANCH  10  11
ATOM     11  C   UNL     1      -9.094 -10.226   8.271  1.00  0.00     0.053 C 
BRANCH  11  12
ATOM     12  C   UNL     1      -8.114  -9.461   7.439  1.00  0.00     0.041 C 
ATOM     13  O   UNL     1      -7.043 -10.005   7.061  1.00  0.00    -0.550 OA
ATOM     14  O   UNL     1      -8.405  -8.163   7.038  1.00  0.00    -0.550 OA
ENDBRANCH  11  12
ENDBRANCH  10  11
ENDBRANCH   9  10
ENDBRANCH   8   9
ENDBRANCH   1   8
TORSDOF 9
ENDMDL
MODEL 2
REMARK VINA RESULT:    -5.114      1.295      1.906
REMARK INTER + INTRA:          -8.637
REMARK INTER:                  -7.569
REMARK INTRA:                  -1.068
REMARK UNBOUND:                -0.832
REMARK SMILES O=C([O-])CCCCCCCCC(=O)[O-]
REMARK SMILES IDX 7 1 6 2 5 3 4 4 2 5 1 6 3 7 8 8 9 9 10 10 11 11 12 12 13 13
REMARK SMILES IDX 14 14
REMARK H PARENT
REMARK Flexibility Score: inf
ROOT
ATOM      1  C   UNL     1     -13.480 -10.448  10.749  1.00  0.00     0.000 C 
ENDROOT
BRANCH   1   2
ATOM      2  C   UNL     1     -12.343 -11.251  11.408  1.00  0.00     0.000 C 
BRANCH   2   3
ATOM      3  C   UNL     1     -11.795 -12.421  10.570  1.00  0.00     0.006 C 
BRANCH   3   4
ATOM      4  C   UNL     1     -12.708 -12.798   9.396  1.00  0.00     0.053 C 
BRANCH   4   5
ATOM      5  C   UNL     1     -12.016 -13.763   8.486  1.00  0.00     0.041 C 
ATOM      6  O   UNL     1     -12.678 -14.642   7.874  1.00  0.00    -0.550 OA
ATOM      7  O   UNL     1     -10.634 -13.725   8.352  1.00  0.00    -0.550 OA
ENDBRANCH   4   5
ENDBRANCH   3   4
ENDBRANCH   2   3
ENDBRANCH   1   2
BRANCH   1   8
ATOM      8  C   UNL     1     -13.003  -9.119  10.141  1.00  0.00     0.000 C 
BRANCH   8   9
ATOM      9  C   UNL     1     -11.610  -8.695  10.643  1.00  0.00     0.000 C 
BRANCH   9  10
ATOM     10  C   UNL     1     -10.552  -8.483   9.545  1.00  0.00     0.006 C 
BRANCH  10  11
ATOM     11  C   UNL     1      -9.614  -9.684   9.376  1.00  0.00     0.053 C 
BRANCH  11  12
ATOM     12  C   UNL     1      -9.781 -10.291   8.019  1.00  0.00     0.041 C 
ATOM     13  O   UNL     1     -10.930 -10.425   7.522  1.00  0.00    -0.550 OA
ATOM     14  O   UNL     1      -8.664 -10.662   7.280  1.00  0.00    -0.550 OA
ENDBRANCH  11  12
ENDBRANCH  10  11
ENDBRANCH   9  10
ENDBRANCH   8   9
ENDBRANCH   1   8
TORSDOF 9
ENDMDL
MODEL 3
REMARK VINA RESULT:    -5.112      0.893      4.354
REMARK INTER + INTRA:          -8.634
REMARK INTER:                  -7.789
REMARK INTRA:                  -0.845
REMARK UNBOUND:                -0.832
REMARK SMILES O=C([O-])CCCCCCCCC(=O)[O-]
REMARK SMILES IDX 7 1 6 2 5 3 4 4 2 5 1 6 3 7 8 8 9 9 10 10 11 11 12 12 13 13
REMARK SMILES IDX 14 14
REMARK H PARENT
REMARK Flexibility Score: inf
ROOT
ATOM      1  C   UNL     1     -11.869  -8.655  10.760  1.00  0.00     0.000 C 
ENDROOT
BRANCH   1   2
ATOM      2  C   UNL     1     -10.962  -7.741   9.916  1.00  0.00     0.000 C 
BRANCH   2   3
ATOM      3  C   UNL     1     -10.380  -8.388   8.645  1.00  0.00     0.006 C 
BRANCH   3   4
ATOM      4  C   UNL     1      -9.146  -9.254   8.923  1.00  0.00     0.053 C 
BRANCH   4   5
ATOM      5  C   UNL     1      -8.276  -9.329   7.708  1.00  0.00     0.041 C 
ATOM      6  O   UNL     1      -7.994  -8.284   7.064  1.00  0.00    -0.550 OA
ATOM      7  O   UNL     1      -7.816 -10.560   7.257  1.00  0.00    -0.550 OA
ENDBRANCH   4   5
ENDBRANCH   3   4
ENDBRANCH   2   3
ENDBRANCH   1   2
BRANCH   1   8
ATOM      8  C   UNL     1     -12.679  -9.648   9.911  1.00  0.00     0.000 C 
BRANCH   8   9
ATOM      9  C   UNL     1     -13.211 -10.842  10.725  1.00  0.00     0.000 C 
BRANCH   9  10
ATOM     10  C   UNL     1     -12.615 -12.211  10.350  1.00  0.00     0.006 C 
BRANCH  10  11
ATOM     11  C   UNL     1     -11.092 -12.174  10.173  1.00  0.00     0.053 C 
BRANCH  11  12
ATOM     12  C   UNL     1     -10.710 -12.679   8.818  1.00  0.00     0.041 C 
ATOM     13  O   UNL     1     -10.083 -13.765   8.699  1.00  0.00    -0.550 OA
ATOM     14  O   UNL     1     -11.092 -11.977   7.681  1.00  0.00    -0.550 OA
ENDBRANCH  11  12
ENDBRANCH  10  11
ENDBRANCH   9  10
ENDBRANCH   8   9
ENDBRANCH   1   8
TORSDOF 9
ENDMDL
MODEL 4
REMARK VINA RESULT:    -5.106      1.327      4.544
REMARK INTER + INTRA:          -8.625
REMARK INTER:                  -7.714
REMARK INTRA:                  -0.911
REMARK UNBOUND:                -0.832
REMARK SMILES O=C([O-])CCCCCCCCC(=O)[O-]
REMARK SMILES IDX 7 1 6 2 5 3 4 4 2 5 1 6 3 7 8 8 9 9 10 10 11 11 12 12 13 13
REMARK SMILES IDX 14 14
REMARK H PARENT
REMARK Flexibility Score: inf
ROOT
ATOM      1  C   UNL     1     -12.920  -9.470  10.238  1.00  0.00     0.000 C 
ENDROOT
BRANCH   1   2
ATOM      2  C   UNL     1     -11.490  -9.148  10.711  1.00  0.00     0.000 C 
BRANCH   2   3
ATOM      3  C   UNL     1     -10.484  -8.828   9.589  1.00  0.00     0.006 C 
BRANCH   3   4
ATOM      4  C   UNL     1      -9.435  -9.929   9.392  1.00  0.00     0.053 C 
BRANCH   4   5
ATOM      5  C   UNL     1      -9.501 -10.470   7.999  1.00  0.00     0.041 C 
ATOM      6  O   UNL     1     -10.615 -10.630   7.433  1.00  0.00    -0.550 OA
ATOM      7  O   UNL     1      -8.336 -10.847   7.343  1.00  0.00    -0.550 OA
ENDBRANCH   4   5
ENDBRANCH   3   4
ENDBRANCH   2   3
ENDBRANCH   1   2
BRANCH   1   8
ATOM      8  C   UNL     1     -13.457 -10.792  10.809  1.00  0.00     0.000 C 
BRANCH   8   9
ATOM      9  C   UNL     1     -12.368 -11.872  10.951  1.00  0.00     0.000 C 
BRANCH   9  10
ATOM     10  C   UNL     1     -12.181 -12.782   9.723  1.00  0.00     0.006 C 
BRANCH  10  11
ATOM     11  C   UNL     1     -10.831 -13.508   9.714  1.00  0.00     0.053 C 
BRANCH  11  12
ATOM     12  C   UNL     1     -10.929 -14.784   8.938  1.00  0.00     0.041 C 
ATOM     13  O   UNL     1     -11.975 -15.054   8.293  1.00  0.00    -0.550 OA
ATOM     14  O   UNL     1      -9.845 -15.652   8.887  1.00  0.00    -0.550 OA
ENDBRANCH  11  12
ENDBRANCH  10  11
ENDBRANCH   9  10
ENDBRANCH   8   9
ENDBRANCH   1   8
TORSDOF 9
ENDMDL
MODEL 5
REMARK VINA RESULT:    -5.042      2.845      4.770
REMARK INTER + INTRA:          -8.526
REMARK INTER:                  -7.770
REMARK INTRA:                  -0.756
REMARK UNBOUND:                -0.832
REMARK SMILES O=C([O-])CCCCCCCCC(=O)[O-]
REMARK SMILES IDX 7 1 6 2 5 3 4 4 2 5 1 6 3 7 8 8 9 9 10 10 11 11 12 12 13 13
REMARK SMILES IDX 14 14
REMARK H PARENT
REMARK Flexibility Score: inf
ROOT
ATOM      1  C   UNL     1      -9.374 -10.004   9.304  1.00  0.00     0.000 C 
ENDROOT
BRANCH   1   2
ATOM      2  C   UNL     1     -10.152  -8.698   9.545  1.00  0.00     0.000 C 
BRANCH   2   3
ATOM      3  C   UNL     1     -11.557  -8.873  10.151  1.00  0.00     0.006 C 
BRANCH   3   4
ATOM      4  C   UNL     1     -11.653 -10.069  11.106  1.00  0.00     0.053 C 
BRANCH   4   5
ATOM      5  C   UNL     1     -12.916 -10.833  10.860  1.00  0.00     0.041 C 
ATOM      6  O   UNL     1     -14.027 -10.241  10.864  1.00  0.00    -0.550 OA
ATOM      7  O   UNL     1     -12.871 -12.210  10.676  1.00  0.00    -0.550 OA
ENDBRANCH   4   5
ENDBRANCH   3   4
ENDBRANCH   2   3
ENDBRANCH   1   2
BRANCH   1   8
ATOM      8  C   UNL     1      -9.013 -10.225   7.826  1.00  0.00     0.000 C 
BRANCH   8   9
ATOM      9  C   UNL     1      -9.240 -11.676   7.362  1.00  0.00     0.000 C 
BRANCH   9  10
ATOM     10  C   UNL     1     -10.552 -12.322   7.844  1.00  0.00     0.006 C 
BRANCH  10  11
ATOM     11  C   UNL     1     -10.325 -13.575   8.698  1.00  0.00     0.053 C 
BRANCH  11  12
ATOM     12  C   UNL     1     -11.408 -14.578   8.454  1.00  0.00     0.041 C 
ATOM     13  O   UNL     1     -12.475 -14.231   7.882  1.00  0.00    -0.550 OA
ATOM     14  O   UNL     1     -11.219 -15.907   8.811  1.00  0.00    -0.550 OA
ENDBRANCH  11  12
ENDBRANCH  10  11
ENDBRANCH   9  10
ENDBRANCH   8   9
ENDBRANCH   1   8
TORSDOF 9
ENDMDL
MODEL 6
REMARK VINA RESULT:    -5.013      2.874      4.149
REMARK INTER + INTRA:          -8.483
REMARK INTER:                  -7.720
REMARK INTRA:                  -0.763
REMARK UNBOUND:                -0.832
REMARK SMILES O=C([O-])CCCCCCCCC(=O)[O-]
REMARK SMILES IDX 7 1 6 2 5 3 4 4 2 5 1 6 3 7 8 8 9 9 10 10 11 11 12 12 13 13
REMARK SMILES IDX 14 14
REMARK H PARENT
REMARK Flexibility Score: inf
ROOT
ATOM      1  C   UNL     1      -9.026 -10.645   7.848  1.00  0.00     0.000 C 
ENDROOT
BRANCH   1   2
ATOM      2  C   UNL     1      -9.432 -12.102   7.556  1.00  0.00     0.000 C 
BRANCH   2   3
ATOM      3  C   UNL     1     -10.732 -12.570   8.235  1.00  0.00     0.006 C 
BRANCH   3   4
ATOM      4  C   UNL     1     -10.502 -13.670   9.278  1.00  0.00     0.053 C 
BRANCH   4   5
ATOM      5  C   UNL     1     -10.986 -14.988   8.763  1.00  0.00     0.041 C 
ATOM      6  O   UNL     1     -10.212 -15.981   8.733  1.00  0.00    -0.550 OA
ATOM      7  O   UNL     1     -12.279 -15.109   8.268  1.00  0.00    -0.550 OA
ENDBRANCH   4   5
ENDBRANCH   3   4
ENDBRANCH   2   3
ENDBRANCH   1   2
BRANCH   1   8
ATOM      8  C   UNL     1      -9.388 -10.195   9.273  1.00  0.00     0.000 C 
BRANCH   8   9
ATOM      9  C   UNL     1     -10.281  -8.941   9.298  1.00  0.00     0.000 C 
BRANCH   9  10
ATOM     10  C   UNL     1     -11.315  -8.894  10.438  1.00  0.00     0.006 C 
BRANCH  10  11
ATOM     11  C   UNL     1     -12.588  -9.690  10.125  1.00  0.00     0.053 C 
BRANCH  11  12
ATOM     12  C   UNL     1     -12.680 -10.896  11.006  1.00  0.00     0.041 C 
ATOM     13  O   UNL     1     -12.211 -10.865  12.174  1.00  0.00    -0.550 OA
ATOM     14  O   UNL     1     -13.329 -12.039  10.555  1.00  0.00    -0.550 OA
ENDBRANCH  11  12
ENDBRANCH  10  11
ENDBRANCH   9  10
ENDBRANCH   8   9
ENDBRANCH   1   8
TORSDOF 9
ENDMDL
MODEL 7
REMARK VINA RESULT:    -4.998      2.446      3.708
REMARK INTER + INTRA:          -8.460
REMARK INTER:                  -7.792
REMARK INTRA:                  -0.669
REMARK UNBOUND:                -0.832
REMARK SMILES O=C([O-])CCCCCCCCC(=O)[O-]
REMARK SMILES IDX 7 1 6 2 5 3 4 4 2 5 1 6 3 7 8 8 9 9 10 10 11 11 12 12 13 13
REMARK SMILES IDX 14 14
REMARK H PARENT
REMARK Flexibility Score: inf
ROOT
ATOM      1  C   UNL     1     -10.651 -13.476   9.071  1.00  0.00     0.000 C 
ENDROOT
BRANCH   1   2
ATOM      2  C   UNL     1     -10.880 -12.581  10.303  1.00  0.00     0.000 C 
BRANCH   2   3
ATOM      3  C   UNL     1     -12.352 -12.246  10.607  1.00  0.00     0.006 C 
BRANCH   3   4
ATOM      4  C   UNL     1     -12.685 -10.763  10.404  1.00  0.00     0.053 C 
BRANCH   4   5
ATOM      5  C   UNL     1     -12.106  -9.942  11.513  1.00  0.00     0.041 C 
ATOM      6  O   UNL     1     -11.714  -8.765  11.292  1.00  0.00    -0.550 OA
ATOM      7  O   UNL     1     -11.952 -10.492  12.779  1.00  0.00    -0.550 OA
ENDBRANCH   4   5
ENDBRANCH   3   4
ENDBRANCH   2   3
ENDBRANCH   1   2
BRANCH   1   8
ATOM      8  C   UNL     1     -11.223 -12.875   7.777  1.00  0.00     0.000 C 
BRANCH   8   9
ATOM      9  C   UNL     1     -10.476 -11.607   7.322  1.00  0.00     0.000 C 
BRANCH   9  10
ATOM     10  C   UNL     1      -8.940 -11.681   7.415  1.00  0.00     0.006 C 
BRANCH  10  11
ATOM     11  C   UNL     1      -8.265 -10.311   7.280  1.00  0.00     0.053 C 
BRANCH  11  12
ATOM     12  C   UNL     1      -8.908  -9.318   8.196  1.00  0.00     0.041 C 
ATOM     13  O   UNL     1      -9.448  -8.282   7.729  1.00  0.00    -0.550 OA
ATOM     14  O   UNL     1      -8.955  -9.562   9.563  1.00  0.00    -0.550 OA
ENDBRANCH  11  12
ENDBRANCH  10  11
ENDBRANCH   9  10
ENDBRANCH   8   9
ENDBRANCH   1   8
TORSDOF 9
ENDMDL
MODEL 8
REMARK VINA RESULT:    -4.989      2.498      5.463
REMARK INTER + INTRA:          -8.446
REMARK INTER:                  -7.509
REMARK INTRA:                  -0.937
REMARK UNBOUND:                -0.832
REMARK SMILES O=C([O-])CCCCCCCCC(=O)[O-]
REMARK SMILES IDX 7 1 6 2 5 3 4 4 2 5 1 6 3 7 8 8 9 9 10 10 11 11 12 12 13 13
REMARK SMILES IDX 14 14
REMARK H PARENT
REMARK Flexibility Score: inf
ROOT
ATOM      1  C   UNL     1      -8.644 -11.392   7.382  1.00  0.00     0.000 C 
ENDROOT
BRANCH   1   2
ATOM      2  C   UNL     1      -8.387  -9.875   7.440  1.00  0.00     0.000 C 
BRANCH   2   3
ATOM      3  C   UNL     1      -9.003  -9.151   8.652  1.00  0.00     0.006 C 
BRANCH   3   4
ATOM      4  C   UNL     1     -10.093  -8.146   8.260  1.00  0.00     0.053 C 
BRANCH   4   5
ATOM      5  C   UNL     1     -11.281  -8.287   9.160  1.00  0.00     0.041 C 
ATOM      6  O   UNL     1     -11.190  -7.992  10.380  1.00  0.00    -0.550 OA
ATOM      7  O   UNL     1     -12.475  -8.793   8.661  1.00  0.00    -0.550 OA
ENDBRANCH   4   5
ENDBRANCH   3   4
ENDBRANCH   2   3
ENDBRANCH   1   2
BRANCH   1   8
ATOM      8  C   UNL     1     -10.101 -11.767   7.700  1.00  0.00     0.000 C 
BRANCH   8   9
ATOM      9  C   UNL     1     -10.238 -13.167   8.327  1.00  0.00     0.000 C 
BRANCH   9  10
ATOM     10  C   UNL     1     -10.664 -13.185   9.806  1.00  0.00     0.006 C 
BRANCH  10  11
ATOM     11  C   UNL     1     -10.938 -11.784  10.369  1.00  0.00     0.053 C 
BRANCH  11  12
ATOM     12  C   UNL     1     -12.363 -11.666  10.807  1.00  0.00     0.041 C 
ATOM     13  O   UNL     1     -12.715 -10.732  11.574  1.00  0.00    -0.550 OA
ATOM     14  O   UNL     1     -13.315 -12.558  10.327  1.00  0.00    -0.550 OA
ENDBRANCH  11  12
ENDBRANCH  10  11
ENDBRANCH   9  10
ENDBRANCH   8   9
ENDBRANCH   1   8
TORSDOF 9
ENDMDL
MODEL 9
REMARK VINA RESULT:    -4.959      2.037      3.656
REMARK INTER + INTRA:          -8.401
REMARK INTER:                  -7.475
REMARK INTRA:                  -0.926
REMARK UNBOUND:                -0.832
REMARK SMILES O=C([O-])CCCCCCCCC(=O)[O-]
REMARK SMILES IDX 7 1 6 2 5 3 4 4 2 5 1 6 3 7 8 8 9 9 10 10 11 11 12 12 13 13
REMARK SMILES IDX 14 14
REMARK H PARENT
REMARK Flexibility Score: inf
ROOT
ATOM      1  C   UNL     1     -12.262 -12.010  10.740  1.00  0.00     0.000 C 
ENDROOT
BRANCH   1   2
ATOM      2  C   UNL     1     -12.154 -10.861  11.760  1.00  0.00     0.000 C 
BRANCH   2   3
ATOM      3  C   UNL     1     -11.927  -9.464  11.154  1.00  0.00     0.006 C 
BRANCH   3   4
ATOM      4  C   UNL     1     -12.763  -9.214   9.893  1.00  0.00     0.053 C 
BRANCH   4   5
ATOM      5  C   UNL     1     -12.062  -8.256   8.982  1.00  0.00     0.041 C 
ATOM      6  O   UNL     1     -11.367  -7.321   9.459  1.00  0.00    -0.550 OA
ATOM      7  O   UNL     1     -12.215  -8.366   7.606  1.00  0.00    -0.550 OA
ENDBRANCH   4   5
ENDBRANCH   3   4
ENDBRANCH   2   3
ENDBRANCH   1   2
BRANCH   1   8
ATOM      8  C   UNL     1     -10.894 -12.480  10.219  1.00  0.00     0.000 C 
BRANCH   8   9
ATOM      9  C   UNL     1     -10.894 -12.769   8.707  1.00  0.00     0.000 C 
BRANCH   9  10
ATOM     10  C   UNL     1     -10.672 -11.541   7.804  1.00  0.00     0.006 C 
BRANCH  10  11
ATOM     11  C   UNL     1      -9.196 -11.315   7.452  1.00  0.00     0.053 C 
BRANCH  11  12
ATOM     12  C   UNL     1      -8.716 -10.019   8.025  1.00  0.00     0.041 C 
ATOM     13  O   UNL     1      -8.980  -9.717   9.219  1.00  0.00    -0.550 OA
ATOM     14  O   UNL     1      -7.933  -9.166   7.257  1.00  0.00    -0.550 OA
ENDBRANCH  11  12
ENDBRANCH  10  11
ENDBRANCH   9  10
ENDBRANCH   8   9
ENDBRANCH   1   8
TORSDOF 9
ENDMDL
