MODEL 1
REMARK VINA RESULT:    -5.870      0.000      0.000
REMARK INTER + INTRA:         -10.353
REMARK INTER:                  -8.958
REMARK INTRA:                  -1.395
REMARK UNBOUND:                -1.395
REMARK SMILES OC[C@@H]1O[C@H](O[C@]2(CO)O[C@H](CO)[C@H](O)[C@H]2O)[C@H](O)[C@H](O)[C@H]1O
REMARK SMILES IDX 6 1 5 2 3 3 22 4 4 5 20 6 18 7 2 8 1 9 23 11 21 13 19 15
REMARK SMILES IDX 7 17 16 18 10 19 14 20 11 21 8 22 9 23 17 25 15 27 12 29
REMARK SMILES IDX 13 30
REMARK H PARENT 1 10 23 12 21 14 19 16 9 24 17 26 15 28 13 31
REMARK Flexibility Score: inf
ROOT
ATOM      1  O   UNL     1      26.458  -0.626  21.860  1.00  0.00    -0.313 OA
ENDROOT
BRANCH   1   2
ATOM      2  C   UNL     1      27.377  -1.527  21.253  1.00  0.00     0.285 C 
ATOM      3  C   UNL     1      25.861  -2.459  19.647  1.00  0.00     0.178 C 
ATOM      4  C   UNL     1      26.494  -1.639  18.482  1.00  0.00     0.177 C 
ATOM      5  O   UNL     1      26.722  -2.685  20.761  1.00  0.00    -0.341 OA
ATOM      6  C   UNL     1      27.306  -0.418  18.968  1.00  0.00     0.179 C 
ATOM      7  C   UNL     1      28.193  -0.829  20.146  1.00  0.00     0.202 C 
BRANCH   3   8
ATOM      8  C   UNL     1      24.439  -2.025  20.067  1.00  0.00     0.191 C 
BRANCH   8   9
ATOM      9  O   UNL     1      23.957  -0.970  19.281  1.00  0.00    -0.394 OA
ATOM     10  H   UNL     1      24.256  -1.146  18.352  1.00  0.00     0.210 HD
ENDBRANCH   8   9
ENDBRANCH   3   8
BRANCH   4  11
ATOM     11  O   UNL     1      27.341  -2.488  17.746  1.00  0.00    -0.387 OA
ATOM     12  H   UNL     1      26.760  -3.069  17.187  1.00  0.00     0.211 HD
ENDBRANCH   4  11
BRANCH   6  13
ATOM     13  O   UNL     1      26.465   0.643  19.334  1.00  0.00    -0.387 OA
ATOM     14  H   UNL     1      25.536   0.295  19.308  1.00  0.00     0.211 HD
ENDBRANCH   6  13
BRANCH   7  15
ATOM     15  O   UNL     1      28.928   0.268  20.642  1.00  0.00    -0.385 OA
ATOM     16  H   UNL     1      29.347   0.733  19.876  1.00  0.00     0.211 HD
ENDBRANCH   7  15
ENDBRANCH   1   2
BRANCH   1  17
ATOM     17  C   UNL     1      26.857  -0.194  23.160  1.00  0.00     0.224 C 
ATOM     18  C   UNL     1      27.571  -1.372  23.846  1.00  0.00     0.208 C 
ATOM     19  O   UNL     1      27.806   0.852  23.077  1.00  0.00    -0.337 OA
ATOM     20  C   UNL     1      28.625  -0.703  24.712  1.00  0.00     0.180 C 
ATOM     21  C   UNL     1      28.658   0.751  24.198  1.00  0.00     0.179 C 
BRANCH  17  22
ATOM     22  C   UNL     1      25.633   0.289  23.987  1.00  0.00     0.225 C 
BRANCH  22  23
ATOM     23  O   UNL     1      25.556   1.689  23.986  1.00  0.00    -0.391 OA
ATOM     24  H   UNL     1      24.811   1.942  24.594  1.00  0.00     0.210 HD
ENDBRANCH  22  23
ENDBRANCH  17  22
BRANCH  18  25
ATOM     25  O   UNL     1      26.692  -2.168  24.602  1.00  0.00    -0.385 OA
ATOM     26  H   UNL     1      26.874  -1.963  25.555  1.00  0.00     0.211 HD
ENDBRANCH  18  25
BRANCH  20  27
ATOM     27  O   UNL     1      29.863  -1.376  24.639  1.00  0.00    -0.387 OA
ATOM     28  H   UNL     1      30.531  -0.846  25.156  1.00  0.00     0.211 HD
ENDBRANCH  20  27
BRANCH  21  29
ATOM     29  C   UNL     1      30.050   1.298  23.836  1.00  0.00     0.191 C 
BRANCH  29  30
ATOM     30  O   UNL     1      29.995   2.080  22.672  1.00  0.00    -0.394 OA
ATOM     31  H   UNL     1      29.431   1.585  22.027  1.00  0.00     0.210 HD
ENDBRANCH  29  30
ENDBRANCH  21  29
ENDBRANCH   1  17
TORSDOF 13
ENDMDL
MODEL 2
REMARK VINA RESULT:    -5.826      1.772      5.347
REMARK INTER + INTRA:         -10.286
REMARK INTER:                  -8.139
REMARK INTRA:                  -2.147
REMARK UNBOUND:                -1.395
REMARK SMILES OC[C@@H]1O[C@H](O[C@]2(CO)O[C@H](CO)[C@H](O)[C@H]2O)[C@H](O)[C@H](O)[C@H]1O
REMARK SMILES IDX 6 1 5 2 3 3 22 4 4 5 20 6 18 7 2 8 1 9 23 11 21 13 19 15
REMARK SMILES IDX 7 17 16 18 10 19 14 20 11 21 8 22 9 23 17 25 15 27 12 29
REMARK SMILES IDX 13 30
REMARK H PARENT 1 10 23 12 21 14 19 16 9 24 17 26 15 28 13 31
REMARK Flexibility Score: inf
ROOT
ATOM      1  O   UNL     1      27.993  -0.431  23.530  1.00  0.00    -0.313 OA
ENDROOT
BRANCH   1   2
ATOM      2  C   UNL     1      29.091  -0.382  22.626  1.00  0.00     0.285 C 
ATOM      3  C   UNL     1      30.072   1.639  23.462  1.00  0.00     0.178 C 
ATOM      4  C   UNL     1      31.208   0.859  24.191  1.00  0.00     0.177 C 
ATOM      5  O   UNL     1      29.485   0.955  22.358  1.00  0.00    -0.341 OA
ATOM      6  C   UNL     1      30.872  -0.631  24.421  1.00  0.00     0.179 C 
ATOM      7  C   UNL     1      30.275  -1.225  23.141  1.00  0.00     0.202 C 
BRANCH   3   8
ATOM      8  C   UNL     1      29.023   2.299  24.384  1.00  0.00     0.191 C 
BRANCH   8   9
ATOM      9  O   UNL     1      27.854   2.640  23.692  1.00  0.00    -0.394 OA
ATOM     10  H   UNL     1      28.132   3.186  22.913  1.00  0.00     0.210 HD
ENDBRANCH   8   9
ENDBRANCH   3   8
BRANCH   4  11
ATOM     11  O   UNL     1      32.381   0.950  23.419  1.00  0.00    -0.387 OA
ATOM     12  H   UNL     1      32.262   0.354  22.633  1.00  0.00     0.211 HD
ENDBRANCH   4  11
BRANCH   6  13
ATOM     13  O   UNL     1      29.990  -0.797  25.497  1.00  0.00    -0.387 OA
ATOM     14  H   UNL     1      30.008   0.048  26.017  1.00  0.00     0.211 HD
ENDBRANCH   6  13
BRANCH   7  15
ATOM     15  O   UNL     1      29.924  -2.578  23.320  1.00  0.00    -0.385 OA
ATOM     16  H   UNL     1      29.499  -2.902  22.487  1.00  0.00     0.211 HD
ENDBRANCH   7  15
ENDBRANCH   1   2
BRANCH   1  17
ATOM     17  C   UNL     1      26.863  -1.135  23.016  1.00  0.00     0.224 C 
ATOM     18  C   UNL     1      26.994  -1.176  21.483  1.00  0.00     0.208 C 
ATOM     19  O   UNL     1      26.865  -2.482  23.451  1.00  0.00    -0.337 OA
ATOM     20  C   UNL     1      26.374  -2.509  21.101  1.00  0.00     0.180 C 
ATOM     21  C   UNL     1      26.256  -3.261  22.443  1.00  0.00     0.179 C 
BRANCH  17  22
ATOM     22  C   UNL     1      25.536  -0.456  23.456  1.00  0.00     0.225 C 
BRANCH  22  23
ATOM     23  O   UNL     1      25.697   0.933  23.551  1.00  0.00    -0.391 OA
ATOM     24  H   UNL     1      26.182   1.229  22.736  1.00  0.00     0.210 HD
ENDBRANCH  22  23
ENDBRANCH  17  22
BRANCH  18  25
ATOM     25  O   UNL     1      26.349  -0.094  20.858  1.00  0.00    -0.385 OA
ATOM     26  H   UNL     1      25.432  -0.055  21.235  1.00  0.00     0.211 HD
ENDBRANCH  18  25
BRANCH  20  27
ATOM     27  O   UNL     1      27.139  -3.179  20.123  1.00  0.00    -0.387 OA
ATOM     28  H   UNL     1      26.754  -2.961  19.230  1.00  0.00     0.211 HD
ENDBRANCH  20  27
BRANCH  21  29
ATOM     29  C   UNL     1      26.846  -4.681  22.465  1.00  0.00     0.191 C 
BRANCH  29  30
ATOM     30  O   UNL     1      28.249  -4.642  22.471  1.00  0.00    -0.394 OA
ATOM     31  H   UNL     1      28.546  -5.076  21.632  1.00  0.00     0.210 HD
ENDBRANCH  29  30
ENDBRANCH  21  29
ENDBRANCH   1  17
TORSDOF 13
ENDMDL
MODEL 3
REMARK VINA RESULT:    -5.571      1.490      2.690
REMARK INTER + INTRA:          -9.897
REMARK INTER:                  -8.752
REMARK INTRA:                  -1.145
REMARK UNBOUND:                -1.395
REMARK SMILES OC[C@@H]1O[C@H](O[C@]2(CO)O[C@H](CO)[C@H](O)[C@H]2O)[C@H](O)[C@H](O)[C@H]1O
REMARK SMILES IDX 6 1 5 2 3 3 22 4 4 5 20 6 18 7 2 8 1 9 23 11 21 13 19 15
REMARK SMILES IDX 7 17 16 18 10 19 14 20 11 21 8 22 9 23 17 25 15 27 12 29
REMARK SMILES IDX 13 30
REMARK H PARENT 1 10 23 12 21 14 19 16 9 24 17 26 15 28 13 31
REMARK Flexibility Score: inf
ROOT
ATOM      1  O   UNL     1      27.223  -1.666  20.374  1.00  0.00    -0.313 OA
ENDROOT
BRANCH   1   2
ATOM      2  C   UNL     1      25.864  -1.950  20.061  1.00  0.00     0.285 C 
ATOM      3  C   UNL     1      25.782  -0.752  17.987  1.00  0.00     0.178 C 
ATOM      4  C   UNL     1      25.843  -2.067  17.153  1.00  0.00     0.177 C 
ATOM      5  O   UNL     1      25.274  -0.900  19.310  1.00  0.00    -0.341 OA
ATOM      6  C   UNL     1      26.387  -3.270  17.955  1.00  0.00     0.179 C 
ATOM      7  C   UNL     1      25.730  -3.305  19.338  1.00  0.00     0.202 C 
BRANCH   3   8
ATOM      8  C   UNL     1      27.049   0.131  17.927  1.00  0.00     0.191 C 
BRANCH   8   9
ATOM      9  O   UNL     1      27.147   0.987  19.032  1.00  0.00    -0.394 OA
ATOM     10  H   UNL     1      27.049   1.911  18.686  1.00  0.00     0.210 HD
ENDBRANCH   8   9
ENDBRANCH   3   8
BRANCH   4  11
ATOM     11  O   UNL     1      24.547  -2.370  16.698  1.00  0.00    -0.387 OA
ATOM     12  H   UNL     1      24.051  -2.763  17.464  1.00  0.00     0.211 HD
ENDBRANCH   4  11
BRANCH   6  13
ATOM     13  O   UNL     1      27.783  -3.216  18.077  1.00  0.00    -0.387 OA
ATOM     14  H   UNL     1      28.062  -4.042  18.551  1.00  0.00     0.211 HD
ENDBRANCH   6  13
BRANCH   7  15
ATOM     15  O   UNL     1      26.225  -4.371  20.115  1.00  0.00    -0.385 OA
ATOM     16  H   UNL     1      25.911  -5.220  19.715  1.00  0.00     0.211 HD
ENDBRANCH   7  15
ENDBRANCH   1   2
BRANCH   1  17
ATOM     17  C   UNL     1      27.439  -1.358  21.750  1.00  0.00     0.224 C 
ATOM     18  C   UNL     1      28.215  -2.529  22.376  1.00  0.00     0.208 C 
ATOM     19  O   UNL     1      28.263  -0.215  21.890  1.00  0.00    -0.337 OA
ATOM     20  C   UNL     1      29.094  -1.866  23.423  1.00  0.00     0.180 C 
ATOM     21  C   UNL     1      29.007  -0.364  23.081  1.00  0.00     0.179 C 
BRANCH  17  22
ATOM     22  C   UNL     1      26.092  -1.111  22.484  1.00  0.00     0.225 C 
BRANCH  22  23
ATOM     23  O   UNL     1      25.925   0.252  22.769  1.00  0.00    -0.391 OA
ATOM     24  H   UNL     1      26.047   0.364  23.748  1.00  0.00     0.210 HD
ENDBRANCH  22  23
ENDBRANCH  17  22
BRANCH  18  25
ATOM     25  O   UNL     1      27.366  -3.501  22.936  1.00  0.00    -0.385 OA
ATOM     26  H   UNL     1      27.267  -4.215  22.256  1.00  0.00     0.211 HD
ENDBRANCH  18  25
BRANCH  20  27
ATOM     27  O   UNL     1      30.403  -2.391  23.414  1.00  0.00    -0.387 OA
ATOM     28  H   UNL     1      30.826  -2.147  22.545  1.00  0.00     0.211 HD
ENDBRANCH  20  27
BRANCH  21  29
ATOM     29  C   UNL     1      30.354   0.367  22.940  1.00  0.00     0.191 C 
BRANCH  29  30
ATOM     30  O   UNL     1      30.162   1.749  22.795  1.00  0.00    -0.394 OA
ATOM     31  H   UNL     1      29.714   2.059  23.621  1.00  0.00     0.210 HD
ENDBRANCH  29  30
ENDBRANCH  21  29
ENDBRANCH   1  17
TORSDOF 13
ENDMDL
MODEL 4
REMARK VINA RESULT:    -5.550      1.676      3.674
REMARK INTER + INTRA:          -9.865
REMARK INTER:                  -7.692
REMARK INTRA:                  -2.173
REMARK UNBOUND:                -1.395
REMARK SMILES OC[C@@H]1O[C@H](O[C@]2(CO)O[C@H](CO)[C@H](O)[C@H]2O)[C@H](O)[C@H](O)[C@H]1O
REMARK SMILES IDX 6 1 5 2 3 3 22 4 4 5 20 6 18 7 2 8 1 9 23 11 21 13 19 15
REMARK SMILES IDX 7 17 16 18 10 19 14 20 11 21 8 22 9 23 17 25 15 27 12 29
REMARK SMILES IDX 13 30
REMARK H PARENT 1 10 23 12 21 14 19 16 9 24 17 26 15 28 13 31
REMARK Flexibility Score: inf
ROOT
ATOM      1  O   UNL     1      27.454  -1.476  20.400  1.00  0.00    -0.313 OA
ENDROOT
BRANCH   1   2
ATOM      2  C   UNL     1      26.094  -1.866  20.249  1.00  0.00     0.285 C 
ATOM      3  C   UNL     1      25.712  -0.792  18.141  1.00  0.00     0.178 C 
ATOM      4  C   UNL     1      25.781  -2.144  17.369  1.00  0.00     0.177 C 
ATOM      5  O   UNL     1      25.355  -0.901  19.516  1.00  0.00    -0.341 OA
ATOM      6  C   UNL     1      26.490  -3.263  18.164  1.00  0.00     0.179 C 
ATOM      7  C   UNL     1      25.983  -3.265  19.609  1.00  0.00     0.202 C 
BRANCH   3   8
ATOM      8  C   UNL     1      26.899   0.168  17.904  1.00  0.00     0.191 C 
BRANCH   8   9
ATOM      9  O   UNL     1      27.017   1.121  18.924  1.00  0.00    -0.394 OA
ATOM     10  H   UNL     1      26.139   1.157  19.384  1.00  0.00     0.210 HD
ENDBRANCH   8   9
ENDBRANCH   3   8
BRANCH   4  11
ATOM     11  O   UNL     1      24.470  -2.557  17.069  1.00  0.00    -0.387 OA
ATOM     12  H   UNL     1      24.152  -3.103  17.837  1.00  0.00     0.211 HD
ENDBRANCH   4  11
BRANCH   6  13
ATOM     13  O   UNL     1      27.884  -3.109  18.133  1.00  0.00    -0.387 OA
ATOM     14  H   UNL     1      28.096  -2.585  17.317  1.00  0.00     0.211 HD
ENDBRANCH   6  13
BRANCH   7  15
ATOM     15  O   UNL     1      26.632  -4.252  20.378  1.00  0.00    -0.385 OA
ATOM     16  H   UNL     1      26.625  -3.963  21.324  1.00  0.00     0.211 HD
ENDBRANCH   7  15
ENDBRANCH   1   2
BRANCH   1  17
ATOM     17  C   UNL     1      27.856  -1.326  21.761  1.00  0.00     0.224 C 
ATOM     18  C   UNL     1      26.612  -0.930  22.576  1.00  0.00     0.208 C 
ATOM     19  O   UNL     1      28.306  -2.556  22.295  1.00  0.00    -0.337 OA
ATOM     20  C   UNL     1      26.840  -1.583  23.929  1.00  0.00     0.180 C 
ATOM     21  C   UNL     1      28.003  -2.564  23.675  1.00  0.00     0.179 C 
BRANCH  17  22
ATOM     22  C   UNL     1      28.984  -0.265  21.896  1.00  0.00     0.225 C 
BRANCH  22  23
ATOM     23  O   UNL     1      28.668   0.891  21.169  1.00  0.00    -0.391 OA
ATOM     24  H   UNL     1      28.492   1.613  21.828  1.00  0.00     0.210 HD
ENDBRANCH  22  23
ENDBRANCH  17  22
BRANCH  18  25
ATOM     25  O   UNL     1      26.456   0.463  22.680  1.00  0.00    -0.385 OA
ATOM     26  H   UNL     1      25.743   0.716  22.039  1.00  0.00     0.211 HD
ENDBRANCH  18  25
BRANCH  20  27
ATOM     27  O   UNL     1      25.665  -2.187  24.423  1.00  0.00    -0.387 OA
ATOM     28  H   UNL     1      25.601  -1.981  25.396  1.00  0.00     0.211 HD
ENDBRANCH  20  27
BRANCH  21  29
ATOM     29  C   UNL     1      27.768  -4.011  24.140  1.00  0.00     0.191 C 
BRANCH  29  30
ATOM     30  O   UNL     1      26.776  -4.633  23.366  1.00  0.00    -0.394 OA
ATOM     31  H   UNL     1      27.057  -4.541  22.422  1.00  0.00     0.210 HD
ENDBRANCH  29  30
ENDBRANCH  21  29
ENDBRANCH   1  17
TORSDOF 13
ENDMDL
MODEL 5
REMARK VINA RESULT:    -5.545      1.544      3.127
REMARK INTER + INTRA:          -9.858
REMARK INTER:                  -7.855
REMARK INTRA:                  -2.003
REMARK UNBOUND:                -1.395
REMARK SMILES OC[C@@H]1O[C@H](O[C@]2(CO)O[C@H](CO)[C@H](O)[C@H]2O)[C@H](O)[C@H](O)[C@H]1O
REMARK SMILES IDX 6 1 5 2 3 3 22 4 4 5 20 6 18 7 2 8 1 9 23 11 21 13 19 15
REMARK SMILES IDX 7 17 16 18 10 19 14 20 11 21 8 22 9 23 17 25 15 27 12 29
REMARK SMILES IDX 13 30
REMARK H PARENT 1 10 23 12 21 14 19 16 9 24 17 26 15 28 13 31
REMARK Flexibility Score: inf
ROOT
ATOM      1  O   UNL     1      27.605  -1.685  21.966  1.00  0.00    -0.313 OA
ENDROOT
BRANCH   1   2
ATOM      2  C   UNL     1      26.187  -1.563  21.986  1.00  0.00     0.285 C 
ATOM      3  C   UNL     1      25.946  -0.565  19.821  1.00  0.00     0.178 C 
ATOM      4  C   UNL     1      25.433  -1.897  19.195  1.00  0.00     0.177 C 
ATOM      5  O   UNL     1      25.751  -0.445  21.228  1.00  0.00    -0.341 OA
ATOM      6  C   UNL     1      25.795  -3.142  20.035  1.00  0.00     0.179 C 
ATOM      7  C   UNL     1      25.508  -2.864  21.513  1.00  0.00     0.202 C 
BRANCH   3   8
ATOM      8  C   UNL     1      27.356  -0.121  19.371  1.00  0.00     0.191 C 
BRANCH   8   9
ATOM      9  O   UNL     1      27.947   0.760  20.286  1.00  0.00    -0.394 OA
ATOM     10  H   UNL     1      27.388   0.738  21.105  1.00  0.00     0.210 HD
ENDBRANCH   8   9
ENDBRANCH   3   8
BRANCH   4  11
ATOM     11  O   UNL     1      24.034  -1.823  19.067  1.00  0.00    -0.387 OA
ATOM     12  H   UNL     1      23.813  -2.051  18.126  1.00  0.00     0.211 HD
ENDBRANCH   4  11
BRANCH   6  13
ATOM     13  O   UNL     1      27.137  -3.508  19.856  1.00  0.00    -0.387 OA
ATOM     14  H   UNL     1      27.150  -4.492  19.721  1.00  0.00     0.211 HD
ENDBRANCH   6  13
BRANCH   7  15
ATOM     15  O   UNL     1      25.857  -3.966  22.320  1.00  0.00    -0.385 OA
ATOM     16  H   UNL     1      26.838  -4.084  22.278  1.00  0.00     0.211 HD
ENDBRANCH   7  15
ENDBRANCH   1   2
BRANCH   1  17
ATOM     17  C   UNL     1      28.238  -1.177  23.139  1.00  0.00     0.224 C 
ATOM     18  C   UNL     1      29.734  -1.003  22.826  1.00  0.00     0.208 C 
ATOM     19  O   UNL     1      27.747   0.110  23.462  1.00  0.00    -0.337 OA
ATOM     20  C   UNL     1      30.138   0.211  23.646  1.00  0.00     0.180 C 
ATOM     21  C   UNL     1      28.793   0.828  24.082  1.00  0.00     0.179 C 
BRANCH  17  22
ATOM     22  C   UNL     1      28.016  -2.128  24.348  1.00  0.00     0.225 C 
BRANCH  22  23
ATOM     23  O   UNL     1      28.258  -3.460  23.983  1.00  0.00    -0.391 OA
ATOM     24  H   UNL     1      29.092  -3.469  23.444  1.00  0.00     0.210 HD
ENDBRANCH  22  23
ENDBRANCH  17  22
BRANCH  18  25
ATOM     25  O   UNL     1      30.490  -2.141  23.157  1.00  0.00    -0.385 OA
ATOM     26  H   UNL     1      30.471  -2.734  22.363  1.00  0.00     0.211 HD
ENDBRANCH  18  25
BRANCH  20  27
ATOM     27  O   UNL     1      30.970   1.083  22.913  1.00  0.00    -0.387 OA
ATOM     28  H   UNL     1      30.422   1.868  22.637  1.00  0.00     0.211 HD
ENDBRANCH  20  27
BRANCH  21  29
ATOM     29  C   UNL     1      28.626   2.330  23.795  1.00  0.00     0.191 C 
BRANCH  29  30
ATOM     30  O   UNL     1      28.682   2.588  22.417  1.00  0.00    -0.394 OA
ATOM     31  H   UNL     1      27.842   3.057  22.184  1.00  0.00     0.210 HD
ENDBRANCH  29  30
ENDBRANCH  21  29
ENDBRANCH   1  17
TORSDOF 13
ENDMDL
MODEL 6
REMARK VINA RESULT:    -5.480      1.494      5.370
REMARK INTER + INTRA:          -9.758
REMARK INTER:                  -8.098
REMARK INTRA:                  -1.660
REMARK UNBOUND:                -1.395
REMARK SMILES OC[C@@H]1O[C@H](O[C@]2(CO)O[C@H](CO)[C@H](O)[C@H]2O)[C@H](O)[C@H](O)[C@H]1O
REMARK SMILES IDX 6 1 5 2 3 3 22 4 4 5 20 6 18 7 2 8 1 9 23 11 21 13 19 15
REMARK SMILES IDX 7 17 16 18 10 19 14 20 11 21 8 22 9 23 17 25 15 27 12 29
REMARK SMILES IDX 13 30
REMARK H PARENT 1 10 23 12 21 14 19 16 9 24 17 26 15 28 13 31
REMARK Flexibility Score: inf
ROOT
ATOM      1  O   UNL     1      27.476  -0.946  22.678  1.00  0.00    -0.313 OA
ENDROOT
BRANCH   1   2
ATOM      2  C   UNL     1      28.549  -0.035  22.463  1.00  0.00     0.285 C 
ATOM      3  C   UNL     1      28.044   1.448  24.277  1.00  0.00     0.178 C 
ATOM      4  C   UNL     1      29.210   0.883  25.144  1.00  0.00     0.177 C 
ATOM      5  O   UNL     1      28.203   1.279  22.870  1.00  0.00    -0.341 OA
ATOM      6  C   UNL     1      29.694  -0.508  24.681  1.00  0.00     0.179 C 
ATOM      7  C   UNL     1      29.838  -0.520  23.156  1.00  0.00     0.202 C 
BRANCH   3   8
ATOM      8  C   UNL     1      26.622   1.092  24.766  1.00  0.00     0.191 C 
BRANCH   8   9
ATOM      9  O   UNL     1      25.632   1.571  23.898  1.00  0.00    -0.394 OA
ATOM     10  H   UNL     1      24.789   1.113  24.146  1.00  0.00     0.210 HD
ENDBRANCH   8   9
ENDBRANCH   3   8
BRANCH   4  11
ATOM     11  O   UNL     1      30.288   1.785  25.086  1.00  0.00    -0.387 OA
ATOM     12  H   UNL     1      30.878   1.490  24.343  1.00  0.00     0.211 HD
ENDBRANCH   4  11
BRANCH   6  13
ATOM     13  O   UNL     1      28.818  -1.520  25.098  1.00  0.00    -0.387 OA
ATOM     14  H   UNL     1      29.171  -1.869  25.958  1.00  0.00     0.211 HD
ENDBRANCH   6  13
BRANCH   7  15
ATOM     15  O   UNL     1      30.247  -1.785  22.689  1.00  0.00    -0.385 OA
ATOM     16  H   UNL     1      30.835  -2.193  23.372  1.00  0.00     0.211 HD
ENDBRANCH   7  15
ENDBRANCH   1   2
BRANCH   1  17
ATOM     17  C   UNL     1      27.120  -1.691  21.514  1.00  0.00     0.224 C 
ATOM     18  C   UNL     1      25.604  -1.532  21.301  1.00  0.00     0.208 C 
ATOM     19  O   UNL     1      27.741  -1.156  20.360  1.00  0.00    -0.337 OA
ATOM     20  C   UNL     1      25.444  -1.559  19.791  1.00  0.00     0.180 C 
ATOM     21  C   UNL     1      26.883  -1.387  19.263  1.00  0.00     0.179 C 
BRANCH  17  22
ATOM     22  C   UNL     1      27.519  -3.185  21.665  1.00  0.00     0.225 C 
BRANCH  22  23
ATOM     23  O   UNL     1      27.789  -3.494  23.006  1.00  0.00    -0.391 OA
ATOM     24  H   UNL     1      27.654  -4.473  23.113  1.00  0.00     0.210 HD
ENDBRANCH  22  23
ENDBRANCH  17  22
BRANCH  18  25
ATOM     25  O   UNL     1      24.862  -2.547  21.931  1.00  0.00    -0.385 OA
ATOM     26  H   UNL     1      25.492  -3.294  22.099  1.00  0.00     0.211 HD
ENDBRANCH  18  25
BRANCH  20  27
ATOM     27  O   UNL     1      24.537  -0.576  19.344  1.00  0.00    -0.387 OA
ATOM     28  H   UNL     1      24.357  -0.741  18.378  1.00  0.00     0.211 HD
ENDBRANCH  20  27
BRANCH  21  29
ATOM     29  C   UNL     1      27.080  -0.277  18.215  1.00  0.00     0.191 C 
BRANCH  29  30
ATOM     30  O   UNL     1      27.104   0.988  18.822  1.00  0.00    -0.394 OA
ATOM     31  H   UNL     1      27.770   0.936  19.553  1.00  0.00     0.210 HD
ENDBRANCH  29  30
ENDBRANCH  21  29
ENDBRANCH   1  17
TORSDOF 13
ENDMDL
MODEL 7
REMARK VINA RESULT:    -5.448      1.625      5.629
REMARK INTER + INTRA:          -9.709
REMARK INTER:                  -8.363
REMARK INTRA:                  -1.345
REMARK UNBOUND:                -1.395
REMARK SMILES OC[C@@H]1O[C@H](O[C@]2(CO)O[C@H](CO)[C@H](O)[C@H]2O)[C@H](O)[C@H](O)[C@H]1O
REMARK SMILES IDX 6 1 5 2 3 3 22 4 4 5 20 6 18 7 2 8 1 9 23 11 21 13 19 15
REMARK SMILES IDX 7 17 16 18 10 19 14 20 11 21 8 22 9 23 17 25 15 27 12 29
REMARK SMILES IDX 13 30
REMARK H PARENT 1 10 23 12 21 14 19 16 9 24 17 26 15 28 13 31
REMARK Flexibility Score: inf
ROOT
ATOM      1  O   UNL     1      28.031  -0.120  22.506  1.00  0.00    -0.313 OA
ENDROOT
BRANCH   1   2
ATOM      2  C   UNL     1      27.895  -0.072  23.921  1.00  0.00     0.285 C 
ATOM      3  C   UNL     1      30.185   0.429  24.422  1.00  0.00     0.178 C 
ATOM      4  C   UNL     1      29.855   1.921  24.729  1.00  0.00     0.177 C 
ATOM      5  O   UNL     1      29.091  -0.472  24.572  1.00  0.00    -0.341 OA
ATOM      6  C   UNL     1      28.511   2.384  24.126  1.00  0.00     0.179 C 
ATOM      7  C   UNL     1      27.438   1.324  24.391  1.00  0.00     0.202 C 
BRANCH   3   8
ATOM      8  C   UNL     1      30.992   0.181  23.128  1.00  0.00     0.191 C 
BRANCH   8   9
ATOM      9  O   UNL     1      30.836  -1.127  22.653  1.00  0.00    -0.394 OA
ATOM     10  H   UNL     1      30.985  -1.731  23.425  1.00  0.00     0.210 HD
ENDBRANCH   8   9
ENDBRANCH   3   8
BRANCH   4  11
ATOM     11  O   UNL     1      29.814   2.093  26.125  1.00  0.00    -0.387 OA
ATOM     12  H   UNL     1      30.434   1.425  26.521  1.00  0.00     0.211 HD
ENDBRANCH   4  11
BRANCH   6  13
ATOM     13  O   UNL     1      28.625   2.633  22.751  1.00  0.00    -0.387 OA
ATOM     14  H   UNL     1      29.595   2.681  22.547  1.00  0.00     0.211 HD
ENDBRANCH   6  13
BRANCH   7  15
ATOM     15  O   UNL     1      26.201   1.693  23.826  1.00  0.00    -0.385 OA
ATOM     16  H   UNL     1      26.030   2.642  24.046  1.00  0.00     0.211 HD
ENDBRANCH   7  15
ENDBRANCH   1   2
BRANCH   1  17
ATOM     17  C   UNL     1      27.339  -1.212  21.903  1.00  0.00     0.224 C 
ATOM     18  C   UNL     1      25.896  -0.755  21.625  1.00  0.00     0.208 C 
ATOM     19  O   UNL     1      27.902  -1.536  20.645  1.00  0.00    -0.337 OA
ATOM     20  C   UNL     1      25.520  -1.494  20.351  1.00  0.00     0.180 C 
ATOM     21  C   UNL     1      26.866  -2.032  19.824  1.00  0.00     0.179 C 
BRANCH  17  22
ATOM     22  C   UNL     1      27.372  -2.467  22.818  1.00  0.00     0.225 C 
BRANCH  22  23
ATOM     23  O   UNL     1      28.637  -3.070  22.788  1.00  0.00    -0.391 OA
ATOM     24  H   UNL     1      28.830  -3.393  23.708  1.00  0.00     0.210 HD
ENDBRANCH  22  23
ENDBRANCH  17  22
BRANCH  18  25
ATOM     25  O   UNL     1      25.022  -1.052  22.686  1.00  0.00    -0.385 OA
ATOM     26  H   UNL     1      25.433  -0.670  23.504  1.00  0.00     0.211 HD
ENDBRANCH  18  25
BRANCH  20  27
ATOM     27  O   UNL     1      24.831  -0.658  19.447  1.00  0.00    -0.387 OA
ATOM     28  H   UNL     1      25.319   0.210  19.400  1.00  0.00     0.211 HD
ENDBRANCH  20  27
BRANCH  21  29
ATOM     29  C   UNL     1      27.180  -1.713  18.352  1.00  0.00     0.191 C 
BRANCH  29  30
ATOM     30  O   UNL     1      28.069  -0.632  18.252  1.00  0.00    -0.394 OA
ATOM     31  H   UNL     1      28.932  -0.942  18.625  1.00  0.00     0.210 HD
ENDBRANCH  29  30
ENDBRANCH  21  29
ENDBRANCH   1  17
TORSDOF 13
ENDMDL
MODEL 8
REMARK VINA RESULT:    -5.422      1.569      2.090
REMARK INTER + INTRA:          -9.669
REMARK INTER:                  -7.893
REMARK INTRA:                  -1.776
REMARK UNBOUND:                -1.395
REMARK SMILES OC[C@@H]1O[C@H](O[C@]2(CO)O[C@H](CO)[C@H](O)[C@H]2O)[C@H](O)[C@H](O)[C@H]1O
REMARK SMILES IDX 6 1 5 2 3 3 22 4 4 5 20 6 18 7 2 8 1 9 23 11 21 13 19 15
REMARK SMILES IDX 7 17 16 18 10 19 14 20 11 21 8 22 9 23 17 25 15 27 12 29
REMARK SMILES IDX 13 30
REMARK H PARENT 1 10 23 12 21 14 19 16 9 24 17 26 15 28 13 31
REMARK Flexibility Score: inf
ROOT
ATOM      1  O   UNL     1      26.387  -1.371  20.964  1.00  0.00    -0.313 OA
ENDROOT
BRANCH   1   2
ATOM      2  C   UNL     1      27.310  -1.397  19.881  1.00  0.00     0.285 C 
ATOM      3  C   UNL     1      26.348  -3.259  18.718  1.00  0.00     0.178 C 
ATOM      4  C   UNL     1      25.707  -2.334  17.640  1.00  0.00     0.177 C 
ATOM      5  O   UNL     1      27.486  -2.713  19.381  1.00  0.00    -0.341 OA
ATOM      6  C   UNL     1      25.583  -0.863  18.096  1.00  0.00     0.179 C 
ATOM      7  C   UNL     1      26.888  -0.422  18.764  1.00  0.00     0.202 C 
BRANCH   3   8
ATOM      8  C   UNL     1      25.353  -3.931  19.691  1.00  0.00     0.191 C 
BRANCH   8   9
ATOM      9  O   UNL     1      25.961  -4.289  20.901  1.00  0.00    -0.394 OA
ATOM     10  H   UNL     1      26.558  -3.538  21.154  1.00  0.00     0.210 HD
ENDBRANCH   8   9
ENDBRANCH   3   8
BRANCH   4  11
ATOM     11  O   UNL     1      26.498  -2.386  16.477  1.00  0.00    -0.387 OA
ATOM     12  H   UNL     1      26.443  -3.314  16.127  1.00  0.00     0.211 HD
ENDBRANCH   4  11
BRANCH   6  13
ATOM     13  O   UNL     1      24.501  -0.688  18.971  1.00  0.00    -0.387 OA
ATOM     14  H   UNL     1      24.826  -0.122  19.720  1.00  0.00     0.211 HD
ENDBRANCH   6  13
BRANCH   7  15
ATOM     15  O   UNL     1      26.804   0.908  19.226  1.00  0.00    -0.385 OA
ATOM     16  H   UNL     1      25.867   1.087  19.487  1.00  0.00     0.211 HD
ENDBRANCH   7  15
ENDBRANCH   1   2
BRANCH   1  17
ATOM     17  C   UNL     1      26.993  -1.088  22.223  1.00  0.00     0.224 C 
ATOM     18  C   UNL     1      28.279  -1.928  22.324  1.00  0.00     0.208 C 
ATOM     19  O   UNL     1      27.397   0.267  22.299  1.00  0.00    -0.337 OA
ATOM     20  C   UNL     1      29.224  -1.051  23.128  1.00  0.00     0.180 C 
ATOM     21  C   UNL     1      28.539   0.331  23.127  1.00  0.00     0.179 C 
BRANCH  17  22
ATOM     22  C   UNL     1      26.019  -1.398  23.394  1.00  0.00     0.225 C 
BRANCH  22  23
ATOM     23  O   UNL     1      25.182  -2.475  23.071  1.00  0.00    -0.391 OA
ATOM     24  H   UNL     1      25.683  -3.308  23.281  1.00  0.00     0.210 HD
ENDBRANCH  22  23
ENDBRANCH  17  22
BRANCH  18  25
ATOM     25  O   UNL     1      28.062  -3.175  22.937  1.00  0.00    -0.385 OA
ATOM     26  H   UNL     1      27.394  -3.024  23.654  1.00  0.00     0.211 HD
ENDBRANCH  18  25
BRANCH  20  27
ATOM     27  O   UNL     1      30.527  -1.057  22.588  1.00  0.00    -0.387 OA
ATOM     28  H   UNL     1      31.045  -1.778  23.043  1.00  0.00     0.211 HD
ENDBRANCH  20  27
BRANCH  21  29
ATOM     29  C   UNL     1      29.423   1.512  22.691  1.00  0.00     0.191 C 
BRANCH  29  30
ATOM     30  O   UNL     1      28.683   2.702  22.642  1.00  0.00    -0.394 OA
ATOM     31  H   UNL     1      29.062   3.239  21.901  1.00  0.00     0.210 HD
ENDBRANCH  29  30
ENDBRANCH  21  29
ENDBRANCH   1  17
TORSDOF 13
ENDMDL
MODEL 9
REMARK VINA RESULT:    -5.330      1.575      3.596
REMARK INTER + INTRA:          -9.528
REMARK INTER:                  -7.822
REMARK INTRA:                  -1.707
REMARK UNBOUND:                -1.395
REMARK SMILES OC[C@@H]1O[C@H](O[C@]2(CO)O[C@H](CO)[C@H](O)[C@H]2O)[C@H](O)[C@H](O)[C@H]1O
REMARK SMILES IDX 6 1 5 2 3 3 22 4 4 5 20 6 18 7 2 8 1 9 23 11 21 13 19 15
REMARK SMILES IDX 7 17 16 18 10 19 14 20 11 21 8 22 9 23 17 25 15 27 12 29
REMARK SMILES IDX 13 30
REMARK H PARENT 1 10 23 12 21 14 19 16 9 24 17 26 15 28 13 31
REMARK Flexibility Score: inf
ROOT
ATOM      1  O   UNL     1      27.234  -1.491  21.126  1.00  0.00    -0.313 OA
ENDROOT
BRANCH   1   2
ATOM      2  C   UNL     1      25.819  -1.636  21.108  1.00  0.00     0.285 C 
ATOM      3  C   UNL     1      25.480  -0.950  18.837  1.00  0.00     0.178 C 
ATOM      4  C   UNL     1      25.247  -2.416  18.363  1.00  0.00     0.177 C 
ATOM      5  O   UNL     1      25.213  -0.712  20.217  1.00  0.00    -0.341 OA
ATOM      6  C   UNL     1      25.801  -3.469  19.349  1.00  0.00     0.179 C 
ATOM      7  C   UNL     1      25.411  -3.086  20.780  1.00  0.00     0.202 C 
BRANCH   3   8
ATOM      8  C   UNL     1      26.799  -0.301  18.362  1.00  0.00     0.191 C 
BRANCH   8   9
ATOM      9  O   UNL     1      27.062   0.905  19.025  1.00  0.00    -0.394 OA
ATOM     10  H   UNL     1      28.014   0.877  19.301  1.00  0.00     0.210 HD
ENDBRANCH   8   9
ENDBRANCH   3   8
BRANCH   4  11
ATOM     11  O   UNL     1      23.864  -2.622  18.204  1.00  0.00    -0.387 OA
ATOM     12  H   UNL     1      23.565  -2.038  17.458  1.00  0.00     0.211 HD
ENDBRANCH   4  11
BRANCH   6  13
ATOM     13  O   UNL     1      27.193  -3.593  19.237  1.00  0.00    -0.387 OA
ATOM     14  H   UNL     1      27.364  -4.280  18.541  1.00  0.00     0.211 HD
ENDBRANCH   6  13
BRANCH   7  15
ATOM     15  O   UNL     1      25.926  -4.006  21.715  1.00  0.00    -0.385 OA
ATOM     16  H   UNL     1      25.383  -4.831  21.671  1.00  0.00     0.211 HD
ENDBRANCH   7  15
ENDBRANCH   1   2
BRANCH   1  17
ATOM     17  C   UNL     1      27.755  -1.139  22.406  1.00  0.00     0.224 C 
ATOM     18  C   UNL     1      28.068   0.367  22.388  1.00  0.00     0.208 C 
ATOM     19  O   UNL     1      26.784  -1.330  23.418  1.00  0.00    -0.337 OA
ATOM     20  C   UNL     1      27.786   0.815  23.812  1.00  0.00     0.180 C 
ATOM     21  C   UNL     1      27.020  -0.373  24.429  1.00  0.00     0.179 C 
BRANCH  17  22
ATOM     22  C   UNL     1      29.019  -1.978  22.745  1.00  0.00     0.225 C 
BRANCH  22  23
ATOM     23  O   UNL     1      28.687  -3.330  22.910  1.00  0.00    -0.391 OA
ATOM     24  H   UNL     1      28.754  -3.531  23.881  1.00  0.00     0.210 HD
ENDBRANCH  22  23
ENDBRANCH  17  22
BRANCH  18  25
ATOM     25  O   UNL     1      29.392   0.638  22.000  1.00  0.00    -0.385 OA
ATOM     26  H   UNL     1      29.556   1.595  22.202  1.00  0.00     0.211 HD
ENDBRANCH  18  25
BRANCH  20  27
ATOM     27  O   UNL     1      27.087   2.040  23.845  1.00  0.00    -0.387 OA
ATOM     28  H   UNL     1      26.185   1.889  23.449  1.00  0.00     0.211 HD
ENDBRANCH  20  27
BRANCH  21  29
ATOM     29  C   UNL     1      25.692  -0.022  25.123  1.00  0.00     0.191 C 
BRANCH  29  30
ATOM     30  O   UNL     1      24.752   0.454  24.197  1.00  0.00    -0.394 OA
ATOM     31  H   UNL     1      25.064   1.349  23.913  1.00  0.00     0.210 HD
ENDBRANCH  29  30
ENDBRANCH  21  29
ENDBRANCH   1  17
TORSDOF 13
ENDMDL
