MODEL 1
REMARK VINA RESULT:    -0.690      0.000      0.000
REMARK INTER + INTRA:          -2.050
REMARK INTER:                  -1.496
REMARK INTRA:                  -0.554
REMARK UNBOUND:                -0.554
REMARK SMILES CCCCCCCCCCCCCCCCCCCCCC(=O)[O-]
REMARK SMILES IDX 12 1 11 2 10 3 9 4 8 5 7 6 6 7 5 8 4 9 3 10 2 11 1 12 13 13
REMARK SMILES IDX 14 14 15 15 16 16 17 17 18 18 19 19 20 20 21 21 22 22 23 23
REMARK SMILES IDX 24 24
REMARK H PARENT
REMARK Flexibility Score: inf
ROOT
ATOM      1  C   UNL     1     -30.958 -21.958 -33.652  1.00  0.00     0.000 C 
ENDROOT
BRANCH   1   2
ATOM      2  C   UNL     1     -29.777 -21.051 -33.271  1.00  0.00     0.000 C 
BRANCH   2   3
ATOM      3  C   UNL     1     -29.673 -19.798 -34.160  1.00  0.00     0.000 C 
BRANCH   3   4
ATOM      4  C   UNL     1     -28.423 -18.930 -33.916  1.00  0.00    -0.000 C 
BRANCH   4   5
ATOM      5  C   UNL     1     -27.536 -19.379 -32.739  1.00  0.00    -0.000 C 
BRANCH   5   6
ATOM      6  C   UNL     1     -28.035 -18.939 -31.348  1.00  0.00    -0.000 C 
BRANCH   6   7
ATOM      7  C   UNL     1     -29.558 -19.052 -31.132  1.00  0.00    -0.000 C 
BRANCH   7   8
ATOM      8  C   UNL     1     -29.991 -19.769 -29.840  1.00  0.00    -0.000 C 
BRANCH   8   9
ATOM      9  C   UNL     1     -31.280 -20.588 -30.009  1.00  0.00    -0.000 C 
BRANCH   9  10
ATOM     10  C   UNL     1     -32.362 -20.215 -28.981  1.00  0.00    -0.000 C 
BRANCH  10  11
ATOM     11  C   UNL     1     -33.071 -18.878 -29.278  1.00  0.00    -0.003 C 
ATOM     12  C   UNL     1     -33.769 -18.878 -30.639  1.00  0.00     0.004 C 
ENDBRANCH  10  11
ENDBRANCH   9  10
ENDBRANCH   8   9
ENDBRANCH   7   8
ENDBRANCH   6   7
ENDBRANCH   5   6
ENDBRANCH   4   5
ENDBRANCH   3   4
ENDBRANCH   2   3
ENDBRANCH   1   2
BRANCH   1  13
ATOM     13  C   UNL     1     -31.825 -21.302 -34.737  1.00  0.00     0.000 C 
BRANCH  13  14
ATOM     14  C   UNL     1     -33.203 -20.869 -34.210  1.00  0.00     0.000 C 
BRANCH  14  15
ATOM     15  C   UNL     1     -34.080 -20.227 -35.298  1.00  0.00     0.000 C 
BRANCH  15  16
ATOM     16  C   UNL     1     -34.005 -20.991 -36.638  1.00  0.00     0.000 C 
BRANCH  16  17
ATOM     17  C   UNL     1     -33.954 -20.074 -37.874  1.00  0.00     0.000 C 
BRANCH  17  18
ATOM     18  C   UNL     1     -33.276 -20.686 -39.112  1.00  0.00     0.000 C 
BRANCH  18  19
ATOM     19  C   UNL     1     -32.933 -22.184 -38.992  1.00  0.00     0.000 C 
BRANCH  19  20
ATOM     20  C   UNL     1     -31.447 -22.461 -38.681  1.00  0.00     0.006 C 
BRANCH  20  21
ATOM     21  C   UNL     1     -31.138 -23.960 -38.593  1.00  0.00     0.053 C 
BRANCH  21  22
ATOM     22  C   UNL     1     -32.179 -24.665 -37.782  1.00  0.00     0.041 C 
ATOM     23  O   UNL     1     -32.533 -25.835 -38.084  1.00  0.00    -0.550 OA
ATOM     24  O   UNL     1     -32.736 -24.043 -36.673  1.00  0.00    -0.550 OA
ENDBRANCH  21  22
ENDBRANCH  20  21
ENDBRANCH  19  20
ENDBRANCH  18  19
ENDBRANCH  17  18
ENDBRANCH  16  17
ENDBRANCH  15  16
ENDBRANCH  14  15
ENDBRANCH  13  14
ENDBRANCH   1  13
TORSDOF 20
ENDMDL
MODEL 2
REMARK VINA RESULT:    -0.665      1.840      3.634
REMARK INTER + INTRA:          -1.997
REMARK INTER:                  -1.359
REMARK INTRA:                  -0.638
REMARK UNBOUND:                -0.554
REMARK SMILES CCCCCCCCCCCCCCCCCCCCCC(=O)[O-]
REMARK SMILES IDX 12 1 11 2 10 3 9 4 8 5 7 6 6 7 5 8 4 9 3 10 2 11 1 12 13 13
REMARK SMILES IDX 14 14 15 15 16 16 17 17 18 18 19 19 20 20 21 21 22 22 23 23
REMARK SMILES IDX 24 24
REMARK H PARENT
REMARK Flexibility Score: inf
ROOT
ATOM      1  C   UNL     1     -33.647 -19.434 -34.883  1.00  0.00     0.000 C 
ENDROOT
BRANCH   1   2
ATOM      2  C   UNL     1     -33.447 -18.877 -33.465  1.00  0.00     0.000 C 
BRANCH   2   3
ATOM      3  C   UNL     1     -31.981 -18.938 -32.998  1.00  0.00     0.000 C 
BRANCH   3   4
ATOM      4  C   UNL     1     -31.095 -19.937 -33.767  1.00  0.00    -0.000 C 
BRANCH   4   5
ATOM      5  C   UNL     1     -30.479 -21.058 -32.909  1.00  0.00    -0.000 C 
BRANCH   5   6
ATOM      6  C   UNL     1     -31.499 -21.906 -32.124  1.00  0.00    -0.000 C 
BRANCH   6   7
ATOM      7  C   UNL     1     -30.943 -22.601 -30.864  1.00  0.00    -0.000 C 
BRANCH   7   8
ATOM      8  C   UNL     1     -30.710 -21.681 -29.651  1.00  0.00    -0.000 C 
BRANCH   8   9
ATOM      9  C   UNL     1     -30.205 -20.284 -30.043  1.00  0.00    -0.000 C 
BRANCH   9  10
ATOM     10  C   UNL     1     -28.711 -20.083 -29.739  1.00  0.00    -0.000 C 
BRANCH  10  11
ATOM     11  C   UNL     1     -28.083 -18.876 -30.466  1.00  0.00    -0.003 C 
ATOM     12  C   UNL     1     -27.914 -19.122 -31.966  1.00  0.00     0.004 C 
ENDBRANCH  10  11
ENDBRANCH   9  10
ENDBRANCH   8   9
ENDBRANCH   7   8
ENDBRANCH   6   7
ENDBRANCH   5   6
ENDBRANCH   4   5
ENDBRANCH   3   4
ENDBRANCH   2   3
ENDBRANCH   1   2
BRANCH   1  13
ATOM     13  C   UNL     1     -33.457 -20.957 -34.906  1.00  0.00     0.000 C 
BRANCH  13  14
ATOM     14  C   UNL     1     -33.886 -21.586 -36.241  1.00  0.00     0.000 C 
BRANCH  14  15
ATOM     15  C   UNL     1     -33.307 -20.848 -37.459  1.00  0.00     0.000 C 
BRANCH  15  16
ATOM     16  C   UNL     1     -32.443 -21.770 -38.347  1.00  0.00     0.000 C 
BRANCH  16  17
ATOM     17  C   UNL     1     -31.373 -22.559 -37.568  1.00  0.00     0.000 C 
BRANCH  17  18
ATOM     18  C   UNL     1     -30.970 -23.905 -38.194  1.00  0.00     0.000 C 
BRANCH  18  19
ATOM     19  C   UNL     1     -32.111 -24.660 -38.903  1.00  0.00     0.000 C 
BRANCH  19  20
ATOM     20  C   UNL     1     -32.680 -25.840 -38.086  1.00  0.00     0.006 C 
BRANCH  20  21
ATOM     21  C   UNL     1     -33.628 -26.719 -38.911  1.00  0.00     0.053 C 
BRANCH  21  22
ATOM     22  C   UNL     1     -33.169 -28.143 -38.899  1.00  0.00     0.041 C 
ATOM     23  O   UNL     1     -31.965 -28.420 -38.657  1.00  0.00    -0.550 OA
ATOM     24  O   UNL     1     -34.078 -29.168 -39.124  1.00  0.00    -0.550 OA
ENDBRANCH  21  22
ENDBRANCH  20  21
ENDBRANCH  19  20
ENDBRANCH  18  19
ENDBRANCH  17  18
ENDBRANCH  16  17
ENDBRANCH  15  16
ENDBRANCH  14  15
ENDBRANCH  13  14
ENDBRANCH   1  13
TORSDOF 20
ENDMDL
MODEL 3
REMARK VINA RESULT:    -0.249      3.565      8.779
REMARK INTER + INTRA:          -1.094
REMARK INTER:                  -2.009
REMARK INTRA:                   0.915
REMARK UNBOUND:                -0.554
REMARK SMILES CCCCCCCCCCCCCCCCCCCCCC(=O)[O-]
REMARK SMILES IDX 12 1 11 2 10 3 9 4 8 5 7 6 6 7 5 8 4 9 3 10 2 11 1 12 13 13
REMARK SMILES IDX 14 14 15 15 16 16 17 17 18 18 19 19 20 20 21 21 22 22 23 23
REMARK SMILES IDX 24 24
REMARK H PARENT
REMARK Flexibility Score: inf
ROOT
ATOM      1  C   UNL     1     -29.662 -20.050 -33.880  1.00  0.00     0.000 C 
ENDROOT
BRANCH   1   2
ATOM      2  C   UNL     1     -30.608 -21.250 -34.042  1.00  0.00     0.000 C 
BRANCH   2   3
ATOM      3  C   UNL     1     -31.944 -20.873 -34.708  1.00  0.00     0.000 C 
BRANCH   3   4
ATOM      4  C   UNL     1     -32.712 -22.051 -35.339  1.00  0.00    -0.000 C 
BRANCH   4   5
ATOM      5  C   UNL     1     -33.435 -21.725 -36.660  1.00  0.00    -0.000 C 
BRANCH   5   6
ATOM      6  C   UNL     1     -32.509 -21.558 -37.881  1.00  0.00    -0.000 C 
BRANCH   6   7
ATOM      7  C   UNL     1     -32.334 -22.822 -38.749  1.00  0.00    -0.000 C 
BRANCH   7   8
ATOM      8  C   UNL     1     -32.428 -24.160 -37.992  1.00  0.00    -0.000 C 
BRANCH   8   9
ATOM      9  C   UNL     1     -32.093 -25.374 -38.873  1.00  0.00    -0.000 C 
BRANCH   9  10
ATOM     10  C   UNL     1     -33.282 -26.336 -39.039  1.00  0.00    -0.000 C 
BRANCH  10  11
ATOM     11  C   UNL     1     -33.130 -27.657 -38.257  1.00  0.00    -0.003 C 
ATOM     12  C   UNL     1     -33.679 -28.858 -39.028  1.00  0.00     0.004 C 
ENDBRANCH  10  11
ENDBRANCH   9  10
ENDBRANCH   8   9
ENDBRANCH   7   8
ENDBRANCH   6   7
ENDBRANCH   5   6
ENDBRANCH   4   5
ENDBRANCH   3   4
ENDBRANCH   2   3
ENDBRANCH   1   2
BRANCH   1  13
ATOM     13  C   UNL     1     -28.704 -20.262 -32.699  1.00  0.00     0.000 C 
BRANCH  13  14
ATOM     14  C   UNL     1     -28.331 -18.947 -31.997  1.00  0.00     0.000 C 
BRANCH  14  15
ATOM     15  C   UNL     1     -28.851 -18.875 -30.552  1.00  0.00     0.000 C 
BRANCH  15  16
ATOM     16  C   UNL     1     -30.394 -18.882 -30.483  1.00  0.00     0.000 C 
BRANCH  16  17
ATOM     17  C   UNL     1     -30.986 -20.184 -29.912  1.00  0.00     0.000 C 
BRANCH  17  18
ATOM     18  C   UNL     1     -31.511 -21.178 -30.963  1.00  0.00     0.000 C 
BRANCH  18  19
ATOM     19  C   UNL     1     -30.905 -22.592 -30.879  1.00  0.00     0.000 C 
BRANCH  19  20
ATOM     20  C   UNL     1     -30.440 -22.989 -29.461  1.00  0.00     0.006 C 
BRANCH  20  21
ATOM     21  C   UNL     1     -30.273 -21.775 -28.540  1.00  0.00     0.053 C 
BRANCH  21  22
ATOM     22  C   UNL     1     -29.150 -21.996 -27.576  1.00  0.00     0.041 C 
ATOM     23  O   UNL     1     -29.164 -22.991 -26.804  1.00  0.00    -0.550 OA
ATOM     24  O   UNL     1     -28.072 -21.122 -27.551  1.00  0.00    -0.550 OA
ENDBRANCH  21  22
ENDBRANCH  20  21
ENDBRANCH  19  20
ENDBRANCH  18  19
ENDBRANCH  17  18
ENDBRANCH  16  17
ENDBRANCH  15  16
ENDBRANCH  14  15
ENDBRANCH  13  14
ENDBRANCH   1  13
TORSDOF 20
ENDMDL
MODEL 4
REMARK VINA RESULT:    -0.056      1.822      3.054
REMARK INTER + INTRA:          -0.674
REMARK INTER:                   1.291
REMARK INTRA:                  -1.965
REMARK UNBOUND:                -0.554
REMARK SMILES CCCCCCCCCCCCCCCCCCCCCC(=O)[O-]
REMARK SMILES IDX 12 1 11 2 10 3 9 4 8 5 7 6 6 7 5 8 4 9 3 10 2 11 1 12 13 13
REMARK SMILES IDX 14 14 15 15 16 16 17 17 18 18 19 19 20 20 21 21 22 22 23 23
REMARK SMILES IDX 24 24
REMARK H PARENT
REMARK Flexibility Score: inf
ROOT
ATOM      1  C   UNL     1     -29.777 -21.218 -33.398  1.00  0.00     0.000 C 
ENDROOT
BRANCH   1   2
ATOM      2  C   UNL     1     -28.893 -20.047 -33.853  1.00  0.00     0.000 C 
BRANCH   2   3
ATOM      3  C   UNL     1     -28.827 -18.909 -32.818  1.00  0.00     0.000 C 
BRANCH   3   4
ATOM      4  C   UNL     1     -28.479 -19.353 -31.384  1.00  0.00    -0.000 C 
BRANCH   4   5
ATOM      5  C   UNL     1     -29.550 -19.033 -30.324  1.00  0.00    -0.000 C 
BRANCH   5   6
ATOM      6  C   UNL     1     -30.987 -18.919 -30.870  1.00  0.00    -0.000 C 
BRANCH   6   7
ATOM      7  C   UNL     1     -32.018 -19.853 -30.202  1.00  0.00    -0.000 C 
BRANCH   7   8
ATOM      8  C   UNL     1     -31.545 -20.542 -28.909  1.00  0.00    -0.000 C 
BRANCH   8   9
ATOM      9  C   UNL     1     -31.327 -22.053 -29.077  1.00  0.00    -0.000 C 
BRANCH   9  10
ATOM     10  C   UNL     1     -29.851 -22.463 -28.936  1.00  0.00    -0.000 C 
BRANCH  10  11
ATOM     11  C   UNL     1     -29.254 -22.176 -27.543  1.00  0.00    -0.003 C 
ATOM     12  C   UNL     1     -28.186 -21.082 -27.579  1.00  0.00     0.004 C 
ENDBRANCH  10  11
ENDBRANCH   9  10
ENDBRANCH   8   9
ENDBRANCH   7   8
ENDBRANCH   6   7
ENDBRANCH   5   6
ENDBRANCH   4   5
ENDBRANCH   3   4
ENDBRANCH   2   3
ENDBRANCH   1   2
BRANCH   1  13
ATOM     13  C   UNL     1     -30.682 -21.700 -34.541  1.00  0.00     0.000 C 
BRANCH  13  14
ATOM     14  C   UNL     1     -31.974 -20.876 -34.660  1.00  0.00     0.000 C 
BRANCH  14  15
ATOM     15  C   UNL     1     -33.232 -21.754 -34.764  1.00  0.00     0.000 C 
BRANCH  15  16
ATOM     16  C   UNL     1     -33.079 -22.873 -35.818  1.00  0.00     0.000 C 
BRANCH  16  17
ATOM     17  C   UNL     1     -32.802 -22.354 -37.241  1.00  0.00     0.000 C 
BRANCH  17  18
ATOM     18  C   UNL     1     -31.506 -22.876 -37.885  1.00  0.00     0.000 C 
BRANCH  18  19
ATOM     19  C   UNL     1     -31.710 -23.929 -38.993  1.00  0.00     0.000 C 
BRANCH  19  20
ATOM     20  C   UNL     1     -31.854 -25.372 -38.463  1.00  0.00     0.006 C 
BRANCH  20  21
ATOM     21  C   UNL     1     -33.096 -26.077 -39.022  1.00  0.00     0.053 C 
BRANCH  21  22
ATOM     22  C   UNL     1     -33.142 -27.502 -38.566  1.00  0.00     0.041 C 
ATOM     23  O   UNL     1     -33.976 -27.862 -37.695  1.00  0.00    -0.550 OA
ATOM     24  O   UNL     1     -32.284 -28.439 -39.125  1.00  0.00    -0.550 OA
ENDBRANCH  21  22
ENDBRANCH  20  21
ENDBRANCH  19  20
ENDBRANCH  18  19
ENDBRANCH  17  18
ENDBRANCH  16  17
ENDBRANCH  15  16
ENDBRANCH  14  15
ENDBRANCH  13  14
ENDBRANCH   1  13
TORSDOF 20
ENDMDL
MODEL 5
REMARK VINA RESULT:     0.069      3.621      8.425
REMARK INTER + INTRA:          -0.403
REMARK INTER:                   0.187
REMARK INTRA:                  -0.590
REMARK UNBOUND:                -0.554
REMARK SMILES CCCCCCCCCCCCCCCCCCCCCC(=O)[O-]
REMARK SMILES IDX 12 1 11 2 10 3 9 4 8 5 7 6 6 7 5 8 4 9 3 10 2 11 1 12 13 13
REMARK SMILES IDX 14 14 15 15 16 16 17 17 18 18 19 19 20 20 21 21 22 22 23 23
REMARK SMILES IDX 24 24
REMARK H PARENT
REMARK Flexibility Score: inf
ROOT
ATOM      1  C   UNL     1     -28.804 -19.358 -32.757  1.00  0.00     0.000 C 
ENDROOT
BRANCH   1   2
ATOM      2  C   UNL     1     -29.448 -19.896 -34.044  1.00  0.00     0.000 C 
BRANCH   2   3
ATOM      3  C   UNL     1     -30.439 -21.045 -33.783  1.00  0.00     0.000 C 
BRANCH   3   4
ATOM      4  C   UNL     1     -30.959 -21.756 -35.048  1.00  0.00    -0.000 C 
BRANCH   4   5
ATOM      5  C   UNL     1     -32.165 -22.688 -34.823  1.00  0.00    -0.000 C 
BRANCH   5   6
ATOM      6  C   UNL     1     -33.444 -22.285 -35.583  1.00  0.00    -0.000 C 
BRANCH   6   7
ATOM      7  C   UNL     1     -33.423 -20.869 -36.196  1.00  0.00    -0.000 C 
BRANCH   7   8
ATOM      8  C   UNL     1     -33.803 -20.790 -37.686  1.00  0.00    -0.000 C 
BRANCH   8   9
ATOM      9  C   UNL     1     -33.441 -22.062 -38.469  1.00  0.00    -0.000 C 
BRANCH   9  10
ATOM     10  C   UNL     1     -31.983 -22.066 -38.960  1.00  0.00    -0.000 C 
BRANCH  10  11
ATOM     11  C   UNL     1     -31.381 -23.477 -39.113  1.00  0.00    -0.003 C 
ATOM     12  C   UNL     1     -31.848 -24.434 -38.016  1.00  0.00     0.004 C 
ENDBRANCH  10  11
ENDBRANCH   9  10
ENDBRANCH   8   9
ENDBRANCH   7   8
ENDBRANCH   6   7
ENDBRANCH   5   6
ENDBRANCH   4   5
ENDBRANCH   3   4
ENDBRANCH   2   3
ENDBRANCH   1   2
BRANCH   1  13
ATOM     13  C   UNL     1     -29.876 -18.892 -31.761  1.00  0.00     0.000 C 
BRANCH  13  14
ATOM     14  C   UNL     1     -31.301 -19.023 -32.322  1.00  0.00     0.000 C 
BRANCH  14  15
ATOM     15  C   UNL     1     -32.382 -18.887 -31.237  1.00  0.00     0.000 C 
BRANCH  15  16
ATOM     16  C   UNL     1     -31.801 -19.019 -29.812  1.00  0.00     0.000 C 
BRANCH  16  17
ATOM     17  C   UNL     1     -31.724 -20.471 -29.304  1.00  0.00     0.000 C 
BRANCH  17  18
ATOM     18  C   UNL     1     -30.870 -21.418 -30.164  1.00  0.00     0.000 C 
BRANCH  18  19
ATOM     19  C   UNL     1     -30.116 -22.508 -29.377  1.00  0.00     0.000 C 
BRANCH  19  20
ATOM     20  C   UNL     1     -30.042 -22.243 -27.858  1.00  0.00     0.006 C 
BRANCH  20  21
ATOM     21  C   UNL     1     -28.606 -22.300 -27.324  1.00  0.00     0.053 C 
BRANCH  21  22
ATOM     22  C   UNL     1     -27.980 -20.942 -27.352  1.00  0.00     0.041 C 
ATOM     23  O   UNL     1     -27.501 -20.441 -26.301  1.00  0.00    -0.550 OA
ATOM     24  O   UNL     1     -27.896 -20.241 -28.548  1.00  0.00    -0.550 OA
ENDBRANCH  21  22
ENDBRANCH  20  21
ENDBRANCH  19  20
ENDBRANCH  18  19
ENDBRANCH  17  18
ENDBRANCH  16  17
ENDBRANCH  15  16
ENDBRANCH  14  15
ENDBRANCH  13  14
ENDBRANCH   1  13
TORSDOF 20
ENDMDL
MODEL 6
REMARK VINA RESULT:     0.187      2.799      8.415
REMARK INTER + INTRA:          -0.149
REMARK INTER:                  -0.844
REMARK INTRA:                   0.695
REMARK UNBOUND:                -0.554
REMARK SMILES CCCCCCCCCCCCCCCCCCCCCC(=O)[O-]
REMARK SMILES IDX 12 1 11 2 10 3 9 4 8 5 7 6 6 7 5 8 4 9 3 10 2 11 1 12 13 13
REMARK SMILES IDX 14 14 15 15 16 16 17 17 18 18 19 19 20 20 21 21 22 22 23 23
REMARK SMILES IDX 24 24
REMARK H PARENT
REMARK Flexibility Score: inf
ROOT
ATOM      1  C   UNL     1     -30.250 -21.091 -33.722  1.00  0.00     0.000 C 
ENDROOT
BRANCH   1   2
ATOM      2  C   UNL     1     -31.643 -21.257 -34.350  1.00  0.00     0.000 C 
BRANCH   2   3
ATOM      3  C   UNL     1     -31.999 -22.727 -34.634  1.00  0.00     0.000 C 
BRANCH   3   4
ATOM      4  C   UNL     1     -32.981 -22.944 -35.802  1.00  0.00    -0.000 C 
BRANCH   4   5
ATOM      5  C   UNL     1     -33.553 -21.655 -36.422  1.00  0.00    -0.000 C 
BRANCH   5   6
ATOM      6  C   UNL     1     -32.890 -21.224 -37.745  1.00  0.00    -0.000 C 
BRANCH   6   7
ATOM      7  C   UNL     1     -31.512 -21.861 -38.025  1.00  0.00    -0.000 C 
BRANCH   7   8
ATOM      8  C   UNL     1     -31.498 -22.949 -39.115  1.00  0.00    -0.000 C 
BRANCH   8   9
ATOM      9  C   UNL     1     -32.496 -24.085 -38.844  1.00  0.00    -0.000 C 
BRANCH   9  10
ATOM     10  C   UNL     1     -31.818 -25.364 -38.323  1.00  0.00    -0.000 C 
BRANCH  10  11
ATOM     11  C   UNL     1     -32.808 -26.473 -37.914  1.00  0.00    -0.003 C 
ATOM     12  C   UNL     1     -33.354 -27.242 -39.118  1.00  0.00     0.004 C 
ENDBRANCH  10  11
ENDBRANCH   9  10
ENDBRANCH   8   9
ENDBRANCH   7   8
ENDBRANCH   6   7
ENDBRANCH   5   6
ENDBRANCH   4   5
ENDBRANCH   3   4
ENDBRANCH   2   3
ENDBRANCH   1   2
BRANCH   1  13
ATOM     13  C   UNL     1     -30.080 -19.685 -33.128  1.00  0.00     0.000 C 
BRANCH  13  14
ATOM     14  C   UNL     1     -31.405 -18.909 -33.056  1.00  0.00     0.000 C 
BRANCH  14  15
ATOM     15  C   UNL     1     -32.110 -19.062 -31.698  1.00  0.00     0.000 C 
BRANCH  15  16
ATOM     16  C   UNL     1     -31.132 -18.924 -30.511  1.00  0.00     0.000 C 
BRANCH  16  17
ATOM     17  C   UNL     1     -29.650 -18.875 -30.929  1.00  0.00     0.000 C 
BRANCH  17  18
ATOM     18  C   UNL     1     -28.644 -18.881 -29.765  1.00  0.00     0.000 C 
BRANCH  18  19
ATOM     19  C   UNL     1     -28.108 -20.273 -29.376  1.00  0.00     0.000 C 
BRANCH  19  20
ATOM     20  C   UNL     1     -28.564 -20.749 -27.980  1.00  0.00     0.006 C 
BRANCH  20  21
ATOM     21  C   UNL     1     -29.417 -22.022 -28.047  1.00  0.00     0.053 C 
BRANCH  21  22
ATOM     22  C   UNL     1     -30.557 -21.842 -29.000  1.00  0.00     0.041 C 
ATOM     23  O   UNL     1     -31.462 -21.002 -28.755  1.00  0.00    -0.550 OA
ATOM     24  O   UNL     1     -30.603 -22.579 -30.175  1.00  0.00    -0.550 OA
ENDBRANCH  21  22
ENDBRANCH  20  21
ENDBRANCH  19  20
ENDBRANCH  18  19
ENDBRANCH  17  18
ENDBRANCH  16  17
ENDBRANCH  15  16
ENDBRANCH  14  15
ENDBRANCH  13  14
ENDBRANCH   1  13
TORSDOF 20
ENDMDL
